MODEL 1
REMARK VINA RESULT:    -6.547      0.000      0.000
REMARK INTER + INTRA:          -8.382
REMARK INTER:                  -8.078
REMARK INTRA:                  -0.305
REMARK UNBOUND:                -0.305
REMARK SMILES O=c1c(O)c(-c2cc(O)c(O)c(O)c2)oc2cc(O)cc(O)c12
REMARK SMILES IDX 5 1 3 2 2 3 1 4 23 5 21 6 20 7 18 8 17 9 16 10 15 11 6 12
REMARK SMILES IDX 7 13 8 14 14 15 10 16 12 17 9 18 11 20 13 22 4 24 22 26
REMARK SMILES IDX 19 28
REMARK H PARENT 9 19 11 21 13 23 4 25 22 27 19 29
REMARK Flexibility Score: inf
ROOT
ATOM      1  C   UNL     1     -34.462  -8.090   1.988  1.00  0.00     0.180 A 
ATOM      2  C   UNL     1     -33.328  -8.878   1.729  1.00  0.00     0.208 A 
ATOM      3  C   UNL     1     -33.125  -9.375   0.432  1.00  0.00     0.238 A 
ATOM      4  O   UNL     1     -32.137 -10.125   0.219  1.00  0.00    -0.285 OA
ATOM      5  C   UNL     1     -34.051  -9.064  -0.594  1.00  0.00     0.111 A 
ATOM      6  C   UNL     1     -33.924  -9.481  -1.953  1.00  0.00     0.134 A 
ATOM      7  C   UNL     1     -34.966  -9.227  -2.854  1.00  0.00     0.093 A 
ATOM      8  C   UNL     1     -36.100  -8.513  -2.459  1.00  0.00     0.123 A 
ATOM      9  C   UNL     1     -36.206  -8.051  -1.149  1.00  0.00     0.094 A 
ATOM     10  C   UNL     1     -35.200  -8.321  -0.219  1.00  0.00     0.146 A 
ATOM     11  O   UNL     1     -35.345  -7.871   1.022  1.00  0.00    -0.452 OA
ENDROOT
BRANCH   1  12
ATOM     12  C   UNL     1     -34.730  -7.510   3.324  1.00  0.00     0.029 A 
ATOM     13  C   UNL     1     -35.217  -8.298   4.378  1.00  0.00     0.062 A 
ATOM     14  C   UNL     1     -35.443  -7.736   5.641  1.00  0.00     0.162 A 
ATOM     15  C   UNL     1     -34.436  -6.160   3.563  1.00  0.00     0.062 A 
ATOM     16  C   UNL     1     -35.170  -6.380   5.871  1.00  0.00     0.200 A 
ATOM     17  C   UNL     1     -34.655  -5.585   4.821  1.00  0.00     0.162 A 
BRANCH  14  18
ATOM     18  O   UNL     1     -35.935  -8.525   6.680  1.00  0.00    -0.504 OA
ATOM     19  H   UNL     1     -36.852  -8.952   6.634  1.00  0.00     0.293 HD
ENDBRANCH  14  18
BRANCH  16  20
ATOM     20  O   UNL     1     -35.418  -5.869   7.148  1.00  0.00    -0.502 OA
ATOM     21  H   UNL     1     -36.337  -5.794   7.558  1.00  0.00     0.293 HD
ENDBRANCH  16  20
BRANCH  17  22
ATOM     22  O   UNL     1     -34.350  -4.232   4.978  1.00  0.00    -0.504 OA
ATOM     23  H   UNL     1     -34.894  -3.479   4.582  1.00  0.00     0.293 HD
ENDBRANCH  17  22
ENDBRANCH   1  12
BRANCH   2  24
ATOM     24  O   UNL     1     -32.438  -9.190   2.761  1.00  0.00    -0.502 OA
ATOM     25  H   UNL     1     -32.267  -8.565   3.539  1.00  0.00     0.293 HD
ENDBRANCH   2  24
BRANCH   6  26
ATOM     26  O   UNL     1     -32.793 -10.118  -2.472  1.00  0.00    -0.507 OA
ATOM     27  H   UNL     1     -31.841  -9.844  -2.282  1.00  0.00     0.293 HD
ENDBRANCH   6  26
BRANCH   8  28
ATOM     28  O   UNL     1     -37.125  -8.250  -3.365  1.00  0.00    -0.508 OA
ATOM     29  H   UNL     1     -38.080  -8.535  -3.182  1.00  0.00     0.293 HD
ENDBRANCH   8  28
TORSDOF 7
ENDMDL
MODEL 2
REMARK VINA RESULT:    -6.459      1.724      7.283
REMARK INTER + INTRA:          -8.274
REMARK INTER:                  -7.987
REMARK INTRA:                  -0.287
REMARK UNBOUND:                -0.305
REMARK SMILES O=c1c(O)c(-c2cc(O)c(O)c(O)c2)oc2cc(O)cc(O)c12
REMARK SMILES IDX 5 1 3 2 2 3 1 4 23 5 21 6 20 7 18 8 17 9 16 10 15 11 6 12
REMARK SMILES IDX 7 13 8 14 14 15 10 16 12 17 9 18 11 20 13 22 4 24 22 26
REMARK SMILES IDX 19 28
REMARK H PARENT 9 19 11 21 13 23 4 25 22 27 19 29
REMARK Flexibility Score: inf
ROOT
ATOM      1  C   UNL     1     -34.604  -7.872   3.745  1.00  0.00     0.180 A 
ATOM      2  C   UNL     1     -35.115  -8.742   4.721  1.00  0.00     0.208 A 
ATOM      3  C   UNL     1     -35.624  -8.204   5.915  1.00  0.00     0.238 A 
ATOM      4  O   UNL     1     -36.031  -8.991   6.808  1.00  0.00    -0.285 OA
ATOM      5  C   UNL     1     -35.630  -6.801   6.108  1.00  0.00     0.111 A 
ATOM      6  C   UNL     1     -36.157  -6.144   7.260  1.00  0.00     0.134 A 
ATOM      7  C   UNL     1     -35.991  -4.761   7.404  1.00  0.00     0.093 A 
ATOM      8  C   UNL     1     -35.374  -4.003   6.405  1.00  0.00     0.123 A 
ATOM      9  C   UNL     1     -34.909  -4.627   5.250  1.00  0.00     0.094 A 
ATOM     10  C   UNL     1     -35.028  -6.010   5.095  1.00  0.00     0.146 A 
ATOM     11  O   UNL     1     -34.563  -6.566   3.983  1.00  0.00    -0.452 OA
ENDROOT
BRANCH   1  12
ATOM     12  C   UNL     1     -34.074  -8.363   2.452  1.00  0.00     0.029 A 
ATOM     13  C   UNL     1     -32.831  -9.011   2.371  1.00  0.00     0.062 A 
ATOM     14  C   UNL     1     -32.358  -9.489   1.143  1.00  0.00     0.162 A 
ATOM     15  C   UNL     1     -34.851  -8.234   1.292  1.00  0.00     0.062 A 
ATOM     16  C   UNL     1     -33.127  -9.337  -0.020  1.00  0.00     0.200 A 
ATOM     17  C   UNL     1     -34.391  -8.708   0.058  1.00  0.00     0.162 A 
BRANCH  14  18
ATOM     18  O   UNL     1     -31.119 -10.125   1.070  1.00  0.00    -0.504 OA
ATOM     19  H   UNL     1     -30.394  -9.804   0.438  1.00  0.00     0.293 HD
ENDBRANCH  14  18
BRANCH  16  20
ATOM     20  O   UNL     1     -32.604  -9.827  -1.220  1.00  0.00    -0.502 OA
ATOM     21  H   UNL     1     -32.613 -10.801  -1.485  1.00  0.00     0.293 HD
ENDBRANCH  16  20
BRANCH  17  22
ATOM     22  O   UNL     1     -35.216  -8.532  -1.054  1.00  0.00    -0.504 OA
ATOM     23  H   UNL     1     -34.972  -7.970  -1.857  1.00  0.00     0.293 HD
ENDBRANCH  17  22
ENDBRANCH   1  12
BRANCH   2  24
ATOM     24  O   UNL     1     -35.081 -10.125   4.519  1.00  0.00    -0.502 OA
ATOM     25  H   UNL     1     -35.837 -10.735   4.806  1.00  0.00     0.293 HD
ENDBRANCH   2  24
BRANCH   6  26
ATOM     26  O   UNL     1     -36.870  -6.794   8.271  1.00  0.00    -0.507 OA
ATOM     27  H   UNL     1     -37.877  -6.826   8.335  1.00  0.00     0.293 HD
ENDBRANCH   6  26
BRANCH   8  28
ATOM     28  O   UNL     1     -35.227  -2.625   6.548  1.00  0.00    -0.508 OA
ATOM     29  H   UNL     1     -35.533  -2.144   7.386  1.00  0.00     0.293 HD
ENDBRANCH   8  28
TORSDOF 7
ENDMDL
MODEL 3
REMARK VINA RESULT:    -6.457      0.100      1.762
REMARK INTER + INTRA:          -8.272
REMARK INTER:                  -7.965
REMARK INTRA:                  -0.307
REMARK UNBOUND:                -0.305
REMARK SMILES O=c1c(O)c(-c2cc(O)c(O)c(O)c2)oc2cc(O)cc(O)c12
REMARK SMILES IDX 5 1 3 2 2 3 1 4 23 5 21 6 20 7 18 8 17 9 16 10 15 11 6 12
REMARK SMILES IDX 7 13 8 14 14 15 10 16 12 17 9 18 11 20 13 22 4 24 22 26
REMARK SMILES IDX 19 28
REMARK H PARENT 9 19 11 21 13 23 4 25 22 27 19 29
REMARK Flexibility Score: inf
ROOT
ATOM      1  C   UNL     1     -34.420  -8.001   1.987  1.00  0.00     0.180 A 
ATOM      2  C   UNL     1     -33.300  -8.809   1.733  1.00  0.00     0.208 A 
ATOM      3  C   UNL     1     -33.114  -9.331   0.442  1.00  0.00     0.238 A 
ATOM      4  O   UNL     1     -32.138 -10.098   0.235  1.00  0.00    -0.285 OA
ATOM      5  C   UNL     1     -34.042  -9.023  -0.581  1.00  0.00     0.111 A 
ATOM      6  C   UNL     1     -33.932  -9.463  -1.934  1.00  0.00     0.134 A 
ATOM      7  C   UNL     1     -34.976  -9.208  -2.832  1.00  0.00     0.093 A 
ATOM      8  C   UNL     1     -36.098  -8.472  -2.440  1.00  0.00     0.123 A 
ATOM      9  C   UNL     1     -36.187  -7.987  -1.138  1.00  0.00     0.094 A 
ATOM     10  C   UNL     1     -35.178  -8.257  -0.210  1.00  0.00     0.146 A 
ATOM     11  O   UNL     1     -35.308  -7.784   1.024  1.00  0.00    -0.452 OA
ENDROOT
BRANCH   1  12
ATOM     12  C   UNL     1     -34.670  -7.396   3.316  1.00  0.00     0.029 A 
ATOM     13  C   UNL     1     -34.433  -6.033   3.554  1.00  0.00     0.062 A 
ATOM     14  C   UNL     1     -34.697  -5.475   4.811  1.00  0.00     0.162 A 
ATOM     15  C   UNL     1     -35.210  -8.183   4.343  1.00  0.00     0.062 A 
ATOM     16  C   UNL     1     -35.214  -6.270   5.844  1.00  0.00     0.200 A 
ATOM     17  C   UNL     1     -35.479  -7.638   5.605  1.00  0.00     0.162 A 
BRANCH  14  18
ATOM     18  O   UNL     1     -34.451  -4.122   5.042  1.00  0.00    -0.504 OA
ATOM     19  H   UNL     1     -33.650  -3.651   4.638  1.00  0.00     0.293 HD
ENDBRANCH  14  18
BRANCH  16  20
ATOM     20  O   UNL     1     -35.454  -5.664   7.081  1.00  0.00    -0.502 OA
ATOM     21  H   UNL     1     -36.298  -5.161   7.310  1.00  0.00     0.293 HD
ENDBRANCH  16  20
BRANCH  17  22
ATOM     22  O   UNL     1     -36.004  -8.488   6.580  1.00  0.00    -0.504 OA
ATOM     23  H   UNL     1     -35.897  -8.342   7.574  1.00  0.00     0.293 HD
ENDBRANCH  17  22
ENDBRANCH   1  12
BRANCH   2  24
ATOM     24  O   UNL     1     -32.407  -9.118   2.764  1.00  0.00    -0.502 OA
ATOM     25  H   UNL     1     -31.470  -9.458   2.587  1.00  0.00     0.293 HD
ENDBRANCH   2  24
BRANCH   6  26
ATOM     26  O   UNL     1     -32.814 -10.125  -2.451  1.00  0.00    -0.507 OA
ATOM     27  H   UNL     1     -32.818 -10.698  -3.281  1.00  0.00     0.293 HD
ENDBRANCH   6  26
BRANCH   8  28
ATOM     28  O   UNL     1     -37.125  -8.208  -3.343  1.00  0.00    -0.508 OA
ATOM     29  H   UNL     1     -38.088  -8.121  -3.040  1.00  0.00     0.293 HD
ENDBRANCH   8  28
TORSDOF 7
ENDMDL
MODEL 4
REMARK VINA RESULT:    -6.381      1.743      7.319
REMARK INTER + INTRA:          -8.178
REMARK INTER:                  -7.901
REMARK INTRA:                  -0.277
REMARK UNBOUND:                -0.305
REMARK SMILES O=c1c(O)c(-c2cc(O)c(O)c(O)c2)oc2cc(O)cc(O)c12
REMARK SMILES IDX 5 1 3 2 2 3 1 4 23 5 21 6 20 7 18 8 17 9 16 10 15 11 6 12
REMARK SMILES IDX 7 13 8 14 14 15 10 16 12 17 9 18 11 20 13 22 4 24 22 26
REMARK SMILES IDX 19 28
REMARK H PARENT 9 19 11 21 13 23 4 25 22 27 19 29
REMARK Flexibility Score: inf
ROOT
ATOM      1  C   UNL     1     -34.612  -7.882   3.739  1.00  0.00     0.180 A 
ATOM      2  C   UNL     1     -35.130  -8.741   4.723  1.00  0.00     0.208 A 
ATOM      3  C   UNL     1     -35.628  -8.190   5.915  1.00  0.00     0.238 A 
ATOM      4  O   UNL     1     -36.041  -8.968   6.814  1.00  0.00    -0.285 OA
ATOM      5  C   UNL     1     -35.617  -6.786   6.100  1.00  0.00     0.111 A 
ATOM      6  C   UNL     1     -36.133  -6.117   7.250  1.00  0.00     0.134 A 
ATOM      7  C   UNL     1     -35.951  -4.735   7.385  1.00  0.00     0.093 A 
ATOM      8  C   UNL     1     -35.329  -3.990   6.380  1.00  0.00     0.123 A 
ATOM      9  C   UNL     1     -34.876  -4.625   5.226  1.00  0.00     0.094 A 
ATOM     10  C   UNL     1     -35.010  -6.008   5.080  1.00  0.00     0.146 A 
ATOM     11  O   UNL     1     -34.556  -6.576   3.969  1.00  0.00    -0.452 OA
ENDROOT
BRANCH   1  12
ATOM     12  C   UNL     1     -34.092  -8.387   2.447  1.00  0.00     0.029 A 
ATOM     13  C   UNL     1     -34.797  -8.191   1.250  1.00  0.00     0.062 A 
ATOM     14  C   UNL     1     -34.278  -8.656   0.035  1.00  0.00     0.162 A 
ATOM     15  C   UNL     1     -32.842  -9.021   2.406  1.00  0.00     0.062 A 
ATOM     16  C   UNL     1     -33.039  -9.312  -0.000  1.00  0.00     0.200 A 
ATOM     17  C   UNL     1     -32.311  -9.491   1.199  1.00  0.00     0.162 A 
BRANCH  14  18
ATOM     18  O   UNL     1     -34.988  -8.465  -1.150  1.00  0.00    -0.504 OA
ATOM     19  H   UNL     1     -34.711  -7.765  -1.827  1.00  0.00     0.293 HD
ENDBRANCH  14  18
BRANCH  16  20
ATOM     20  O   UNL     1     -32.569  -9.761  -1.238  1.00  0.00    -0.502 OA
ATOM     21  H   UNL     1     -32.585  -9.210  -2.083  1.00  0.00     0.293 HD
ENDBRANCH  16  20
BRANCH  17  22
ATOM     22  O   UNL     1     -31.066 -10.124   1.240  1.00  0.00    -0.504 OA
ATOM     23  H   UNL     1     -30.930 -11.086   1.514  1.00  0.00     0.293 HD
ENDBRANCH  17  22
ENDBRANCH   1  12
BRANCH   2  24
ATOM     24  O   UNL     1     -35.112 -10.125   4.528  1.00  0.00    -0.502 OA
ATOM     25  H   UNL     1     -35.888 -10.721   4.788  1.00  0.00     0.293 HD
ENDBRANCH   2  24
BRANCH   6  26
ATOM     26  O   UNL     1     -36.850  -6.753   8.267  1.00  0.00    -0.507 OA
ATOM     27  H   UNL     1     -37.437  -7.563   8.137  1.00  0.00     0.293 HD
ENDBRANCH   6  26
BRANCH   8  28
ATOM     28  O   UNL     1     -35.167  -2.613   6.514  1.00  0.00    -0.508 OA
ATOM     29  H   UNL     1     -35.954  -2.001   6.696  1.00  0.00     0.293 HD
ENDBRANCH   8  28
TORSDOF 7
ENDMDL
MODEL 5
REMARK VINA RESULT:    -6.161      1.456      7.258
REMARK INTER + INTRA:          -7.906
REMARK INTER:                  -7.557
REMARK INTRA:                  -0.349
REMARK UNBOUND:                -0.305
REMARK SMILES O=c1c(O)c(-c2cc(O)c(O)c(O)c2)oc2cc(O)cc(O)c12
REMARK SMILES IDX 5 1 3 2 2 3 1 4 23 5 21 6 20 7 18 8 17 9 16 10 15 11 6 12
REMARK SMILES IDX 7 13 8 14 14 15 10 16 12 17 9 18 11 20 13 22 4 24 22 26
REMARK SMILES IDX 19 28
REMARK H PARENT 9 19 11 21 13 23 4 25 22 27 19 29
REMARK Flexibility Score: inf
ROOT
ATOM      1  C   UNL     1     -34.698  -8.112   2.835  1.00  0.00     0.180 A 
ATOM      2  C   UNL     1     -34.392  -6.788   3.188  1.00  0.00     0.208 A 
ATOM      3  C   UNL     1     -34.643  -6.357   4.501  1.00  0.00     0.238 A 
ATOM      4  O   UNL     1     -34.417  -5.155   4.796  1.00  0.00    -0.285 OA
ATOM      5  C   UNL     1     -35.181  -7.261   5.448  1.00  0.00     0.111 A 
ATOM      6  C   UNL     1     -35.439  -6.945   6.815  1.00  0.00     0.134 A 
ATOM      7  C   UNL     1     -36.095  -7.877   7.629  1.00  0.00     0.093 A 
ATOM      8  C   UNL     1     -36.444  -9.139   7.140  1.00  0.00     0.123 A 
ATOM      9  C   UNL     1     -36.143  -9.479   5.823  1.00  0.00     0.094 A 
ATOM     10  C   UNL     1     -35.522  -8.556   4.977  1.00  0.00     0.146 A 
ATOM     11  O   UNL     1     -35.263  -8.917   3.727  1.00  0.00    -0.452 OA
ENDROOT
BRANCH   1  12
ATOM     12  C   UNL     1     -34.439  -8.646   1.478  1.00  0.00     0.029 A 
ATOM     13  C   UNL     1     -35.432  -8.635   0.487  1.00  0.00     0.062 A 
ATOM     14  C   UNL     1     -35.160  -9.123  -0.798  1.00  0.00     0.162 A 
ATOM     15  C   UNL     1     -33.158  -9.117   1.153  1.00  0.00     0.062 A 
ATOM     16  C   UNL     1     -33.886  -9.616  -1.112  1.00  0.00     0.200 A 
ATOM     17  C   UNL     1     -32.872  -9.607  -0.126  1.00  0.00     0.162 A 
BRANCH  14  18
ATOM     18  O   UNL     1     -36.155  -9.117  -1.775  1.00  0.00    -0.504 OA
ATOM     19  H   UNL     1     -37.026  -8.615  -1.642  1.00  0.00     0.293 HD
ENDBRANCH  14  18
BRANCH  16  20
ATOM     20  O   UNL     1     -33.669 -10.096  -2.407  1.00  0.00    -0.502 OA
ATOM     21  H   UNL     1     -33.311 -11.016  -2.617  1.00  0.00     0.293 HD
ENDBRANCH  16  20
BRANCH  17  22
ATOM     22  O   UNL     1     -31.577 -10.070  -0.370  1.00  0.00    -0.504 OA
ATOM     23  H   UNL     1     -30.966 -10.443   0.343  1.00  0.00     0.293 HD
ENDBRANCH  17  22
ENDBRANCH   1  12
BRANCH   2  24
ATOM     24  O   UNL     1     -33.881  -5.905   2.232  1.00  0.00    -0.502 OA
ATOM     25  H   UNL     1     -32.904  -5.637   2.207  1.00  0.00     0.293 HD
ENDBRANCH   2  24
BRANCH   6  26
ATOM     26  O   UNL     1     -35.049  -5.750   7.426  1.00  0.00    -0.507 OA
ATOM     27  H   UNL     1     -34.205  -5.241   7.209  1.00  0.00     0.293 HD
ENDBRANCH   6  26
BRANCH   8  28
ATOM     28  O   UNL     1     -37.081 -10.066   7.960  1.00  0.00    -0.508 OA
ATOM     29  H   UNL     1     -38.045  -9.944   8.251  1.00  0.00     0.293 HD
ENDBRANCH   8  28
TORSDOF 7
ENDMDL
