MODEL 1
REMARK VINA RESULT:    -3.211      0.000      0.000
REMARK INTER + INTRA:          -3.864
REMARK INTER:                  -3.774
REMARK INTRA:                  -0.090
REMARK UNBOUND:                -0.090
REMARK SMILES CCCCC(=O)[O-]
REMARK SMILES IDX 4 1 5 2 6 3 7 4 3 5 2 6 1 7
REMARK H PARENT
REMARK Flexibility Score: inf
ROOT
ATOM      1  C   UNL     1       7.241  10.301  32.245  1.00  0.00     0.053 C 
ENDROOT
BRANCH   1   2
ATOM      2  C   UNL     1       8.286  10.093  31.193  1.00  0.00     0.041 C 
ATOM      3  O   UNL     1       8.236  10.741  30.115  1.00  0.00    -0.550 OA
ATOM      4  O   UNL     1       9.341   9.221  31.425  1.00  0.00    -0.550 OA
ENDBRANCH   1   2
BRANCH   1   5
ATOM      5  C   UNL     1       6.076  11.125  31.685  1.00  0.00     0.006 C 
BRANCH   5   6
ATOM      6  C   UNL     1       4.737  10.374  31.752  1.00  0.00    -0.003 C 
ATOM      7  C   UNL     1       4.537   9.417  30.577  1.00  0.00     0.004 C 
ENDBRANCH   5   6
ENDBRANCH   1   5
TORSDOF 3
ENDMDL
MODEL 2
REMARK VINA RESULT:    -3.139      2.050      3.423
REMARK INTER + INTRA:          -3.779
REMARK INTER:                  -3.668
REMARK INTRA:                  -0.112
REMARK UNBOUND:                -0.090
REMARK SMILES CCCCC(=O)[O-]
REMARK SMILES IDX 4 1 5 2 6 3 7 4 3 5 2 6 1 7
REMARK H PARENT
REMARK Flexibility Score: inf
ROOT
ATOM      1  C   UNL     1       4.791  10.046  31.533  1.00  0.00     0.053 C 
ENDROOT
BRANCH   1   2
ATOM      2  C   UNL     1       5.004   9.345  30.229  1.00  0.00     0.041 C 
ATOM      3  O   UNL     1       4.536   8.190  30.047  1.00  0.00    -0.550 OA
ATOM      4  O   UNL     1       5.678   9.985  29.197  1.00  0.00    -0.550 OA
ENDBRANCH   1   2
BRANCH   1   5
ATOM      5  C   UNL     1       5.868  11.115  31.749  1.00  0.00     0.006 C 
BRANCH   5   6
ATOM      6  C   UNL     1       7.165  10.536  32.335  1.00  0.00    -0.003 C 
ATOM      7  C   UNL     1       8.391  10.841  31.473  1.00  0.00     0.004 C 
ENDBRANCH   5   6
ENDBRANCH   1   5
TORSDOF 3
ENDMDL
MODEL 3
REMARK VINA RESULT:    -3.109      2.259      3.542
REMARK INTER + INTRA:          -3.744
REMARK INTER:                  -3.659
REMARK INTRA:                  -0.086
REMARK UNBOUND:                -0.090
REMARK SMILES CCCCC(=O)[O-]
REMARK SMILES IDX 4 1 5 2 6 3 7 4 3 5 2 6 1 7
REMARK H PARENT
REMARK Flexibility Score: inf
ROOT
ATOM      1  C   UNL     1       6.573  10.717  32.506  1.00  0.00     0.053 C 
ENDROOT
BRANCH   1   2
ATOM      2  C   UNL     1       5.299  10.394  31.791  1.00  0.00     0.041 C 
ATOM      3  O   UNL     1       4.209  10.886  32.184  1.00  0.00    -0.550 OA
ATOM      4  O   UNL     1       5.322   9.588  30.660  1.00  0.00    -0.550 OA
ENDBRANCH   1   2
BRANCH   1   5
ATOM      5  C   UNL     1       7.733  10.829  31.510  1.00  0.00     0.006 C 
BRANCH   5   6
ATOM      6  C   UNL     1       8.745   9.683  31.652  1.00  0.00    -0.003 C 
ATOM      7  C   UNL     1       9.087   9.027  30.313  1.00  0.00     0.004 C 
ENDBRANCH   5   6
ENDBRANCH   1   5
TORSDOF 3
ENDMDL
MODEL 4
REMARK VINA RESULT:    -3.073      2.427      3.285
REMARK INTER + INTRA:          -3.702
REMARK INTER:                  -3.628
REMARK INTRA:                  -0.074
REMARK UNBOUND:                -0.090
REMARK SMILES CCCCC(=O)[O-]
REMARK SMILES IDX 4 1 5 2 6 3 7 4 3 5 2 6 1 7
REMARK H PARENT
REMARK Flexibility Score: inf
ROOT
ATOM      1  C   UNL     1       4.892   8.435  29.100  1.00  0.00     0.053 C 
ENDROOT
BRANCH   1   2
ATOM      2  C   UNL     1       5.840   9.365  28.411  1.00  0.00     0.041 C 
ATOM      3  O   UNL     1       5.412  10.194  27.567  1.00  0.00    -0.550 OA
ATOM      4  O   UNL     1       7.190   9.350  28.737  1.00  0.00    -0.550 OA
ENDBRANCH   1   2
BRANCH   1   5
ATOM      5  C   UNL     1       3.983   9.212  30.060  1.00  0.00     0.006 C 
BRANCH   5   6
ATOM      6  C   UNL     1       4.766   9.904  31.185  1.00  0.00    -0.003 C 
ATOM      7  C   UNL     1       3.875  10.763  32.084  1.00  0.00     0.004 C 
ENDBRANCH   5   6
ENDBRANCH   1   5
TORSDOF 3
ENDMDL
MODEL 5
REMARK VINA RESULT:    -3.067      2.481      3.985
REMARK INTER + INTRA:          -3.695
REMARK INTER:                  -3.581
REMARK INTRA:                  -0.113
REMARK UNBOUND:                -0.090
REMARK SMILES CCCCC(=O)[O-]
REMARK SMILES IDX 4 1 5 2 6 3 7 4 3 5 2 6 1 7
REMARK H PARENT
REMARK Flexibility Score: inf
ROOT
ATOM      1  C   UNL     1       3.875   9.104  28.790  1.00  0.00     0.053 C 
ENDROOT
BRANCH   1   2
ATOM      2  C   UNL     1       5.056   9.634  28.039  1.00  0.00     0.041 C 
ATOM      3  O   UNL     1       6.224   9.349  28.413  1.00  0.00    -0.550 OA
ATOM      4  O   UNL     1       4.867  10.404  26.899  1.00  0.00    -0.550 OA
ENDBRANCH   1   2
BRANCH   1   5
ATOM      5  C   UNL     1       4.253   8.813  30.247  1.00  0.00     0.006 C 
BRANCH   5   6
ATOM      6  C   UNL     1       4.019  10.018  31.169  1.00  0.00    -0.003 C 
ATOM      7  C   UNL     1       5.310  10.541  31.800  1.00  0.00     0.004 C 
ENDBRANCH   5   6
ENDBRANCH   1   5
TORSDOF 3
ENDMDL
MODEL 6
REMARK VINA RESULT:    -3.042     17.316     17.477
REMARK INTER + INTRA:          -3.665
REMARK INTER:                  -3.640
REMARK INTRA:                  -0.025
REMARK UNBOUND:                -0.090
REMARK SMILES CCCCC(=O)[O-]
REMARK SMILES IDX 4 1 5 2 6 3 7 4 3 5 2 6 1 7
REMARK H PARENT
REMARK Flexibility Score: inf
ROOT
ATOM      1  C   UNL     1       6.955  -6.348  36.848  1.00  0.00     0.053 C 
ENDROOT
BRANCH   1   2
ATOM      2  C   UNL     1       8.445  -6.445  36.744  1.00  0.00     0.041 C 
ATOM      3  O   UNL     1       9.165  -6.236  37.756  1.00  0.00    -0.550 OA
ATOM      4  O   UNL     1       9.036  -6.815  35.543  1.00  0.00    -0.550 OA
ENDBRANCH   1   2
BRANCH   1   5
ATOM      5  C   UNL     1       6.289  -7.068  35.670  1.00  0.00     0.006 C 
BRANCH   5   6
ATOM      6  C   UNL     1       4.937  -6.447  35.287  1.00  0.00    -0.003 C 
ATOM      7  C   UNL     1       4.547  -6.727  33.835  1.00  0.00     0.004 C 
ENDBRANCH   5   6
ENDBRANCH   1   5
TORSDOF 3
ENDMDL
MODEL 7
REMARK VINA RESULT:    -2.941      2.847      3.897
REMARK INTER + INTRA:          -3.547
REMARK INTER:                  -3.500
REMARK INTRA:                  -0.047
REMARK UNBOUND:                -0.090
REMARK SMILES CCCCC(=O)[O-]
REMARK SMILES IDX 4 1 5 2 6 3 7 4 3 5 2 6 1 7
REMARK H PARENT
REMARK Flexibility Score: inf
ROOT
ATOM      1  C   UNL     1       4.085   9.272  30.224  1.00  0.00     0.053 C 
ENDROOT
BRANCH   1   2
ATOM      2  C   UNL     1       4.639  10.089  31.349  1.00  0.00     0.041 C 
ATOM      3  O   UNL     1       3.875  10.802  32.050  1.00  0.00    -0.550 OA
ATOM      4  O   UNL     1       5.993  10.024  31.654  1.00  0.00    -0.550 OA
ENDBRANCH   1   2
BRANCH   1   5
ATOM      5  C   UNL     1       5.220   8.637  29.413  1.00  0.00     0.006 C 
BRANCH   5   6
ATOM      6  C   UNL     1       5.425   9.317  28.051  1.00  0.00    -0.003 C 
ATOM      7  C   UNL     1       6.488   8.624  27.198  1.00  0.00     0.004 C 
ENDBRANCH   5   6
ENDBRANCH   1   5
TORSDOF 3
ENDMDL
