MODEL 1
REMARK VINA RESULT:    -6.625      0.000      0.000
REMARK INTER + INTRA:          -6.625
REMARK INTER:                  -6.625
REMARK INTRA:                   0.000
REMARK UNBOUND:                 0.000
REMARK SMILES C=C1CCC[C@]2(C)CC(=O)C(=C(C)C)C[C@@H]12
REMARK SMILES IDX 13 1 12 2 11 3 15 4 16 5 2 6 1 7 3 8 4 9 5 10 6 11 8 12 9 13
REMARK SMILES IDX 10 14 7 15 14 16
REMARK H PARENT
REMARK Flexibility Score: inf
ROOT
ATOM      1  C   UNL     1      -9.769  18.780  11.582  1.00  0.00     0.039 C 
ATOM      2  C   UNL     1      -9.667  17.499  10.784  1.00  0.00    -0.070 C 
ATOM      3  C   UNL     1      -9.655  17.513   9.418  1.00  0.00    -0.006 C 
ATOM      4  C   UNL     1      -9.769  18.821   8.646  1.00  0.00     0.047 C 
ATOM      5  C   UNL     1     -10.415  18.658   7.244  1.00  0.00     0.025 C 
ATOM      6  C   UNL     1     -10.437  19.935   6.398  1.00  0.00    -0.073 C 
ATOM      7  C   UNL     1     -10.087  21.149   6.864  1.00  0.00     0.008 C 
ATOM      8  C   UNL     1     -10.903  19.830   4.965  1.00  0.00     0.031 C 
ATOM      9  C   UNL     1     -11.483  18.448   4.662  1.00  0.00     0.005 C 
ATOM     10  C   UNL     1     -10.500  17.320   5.021  1.00  0.00     0.008 C 
ATOM     11  C   UNL     1      -9.785  17.486   6.416  1.00  0.00    -0.018 C 
ATOM     12  C   UNL     1      -9.958  16.175   7.222  1.00  0.00     0.088 C 
ATOM     13  C   UNL     1      -9.407  16.285   8.612  1.00  0.00     0.159 C 
ATOM     14  O   UNL     1      -8.721  15.331   9.067  1.00  0.00    -0.295 OA
ATOM     15  C   UNL     1      -8.272  17.735   6.164  1.00  0.00     0.012 C 
ATOM     16  C   UNL     1      -9.614  16.207  11.567  1.00  0.00     0.039 C 
ENDROOT
TORSDOF 0
ENDMDL
MODEL 2
REMARK VINA RESULT:    -6.199      1.979      5.822
REMARK INTER + INTRA:          -6.199
REMARK INTER:                  -6.199
REMARK INTRA:                   0.000
REMARK UNBOUND:                 0.000
REMARK SMILES C=C1CCC[C@]2(C)CC(=O)C(=C(C)C)C[C@@H]12
REMARK SMILES IDX 13 1 12 2 11 3 15 4 16 5 2 6 1 7 3 8 4 9 5 10 6 11 8 12 9 13
REMARK SMILES IDX 10 14 7 15 14 16
REMARK H PARENT
REMARK Flexibility Score: inf
ROOT
ATOM      1  C   UNL     1      -9.664  14.855   6.699  1.00  0.00     0.039 C 
ATOM      2  C   UNL     1      -9.621  16.324   7.054  1.00  0.00    -0.070 C 
ATOM      3  C   UNL     1      -9.654  16.740   8.355  1.00  0.00    -0.006 C 
ATOM      4  C   UNL     1      -9.760  15.738   9.497  1.00  0.00     0.047 C 
ATOM      5  C   UNL     1     -10.455  16.311  10.760  1.00  0.00     0.025 C 
ATOM      6  C   UNL     1     -10.473  15.365  11.966  1.00  0.00    -0.073 C 
ATOM      7  C   UNL     1     -10.077  14.079  11.914  1.00  0.00     0.008 C 
ATOM      8  C   UNL     1     -10.989  15.899  13.281  1.00  0.00     0.031 C 
ATOM      9  C   UNL     1     -11.614  17.286  13.119  1.00  0.00     0.005 C 
ATOM     10  C   UNL     1     -10.648  18.276  12.446  1.00  0.00     0.008 C 
ATOM     11  C   UNL     1      -9.884  17.705  11.191  1.00  0.00    -0.018 C 
ATOM     12  C   UNL     1     -10.063  18.690  10.010  1.00  0.00     0.088 C 
ATOM     13  C   UNL     1      -9.464  18.167   8.739  1.00  0.00     0.159 C 
ATOM     14  O   UNL     1      -8.787  18.953   8.022  1.00  0.00    -0.295 OA
ATOM     15  C   UNL     1      -8.373  17.600  11.544  1.00  0.00     0.012 C 
ATOM     16  C   UNL     1      -9.575  17.305   5.905  1.00  0.00     0.039 C 
ENDROOT
TORSDOF 0
ENDMDL
MODEL 3
REMARK VINA RESULT:    -5.894      1.784      5.428
REMARK INTER + INTRA:          -5.894
REMARK INTER:                  -5.894
REMARK INTRA:                   0.000
REMARK UNBOUND:                 0.000
REMARK SMILES C=C1CCC[C@]2(C)CC(=O)C(=C(C)C)C[C@@H]12
REMARK SMILES IDX 13 1 12 2 11 3 15 4 16 5 2 6 1 7 3 8 4 9 5 10 6 11 8 12 9 13
REMARK SMILES IDX 10 14 7 15 14 16
REMARK H PARENT
REMARK Flexibility Score: inf
ROOT
ATOM      1  C   UNL     1     -10.522  17.700   4.829  1.00  0.00     0.039 C 
ATOM      2  C   UNL     1     -10.496  18.571   6.065  1.00  0.00    -0.070 C 
ATOM      3  C   UNL     1     -10.067  18.084   7.267  1.00  0.00    -0.006 C 
ATOM      4  C   UNL     1      -9.619  16.636   7.411  1.00  0.00     0.047 C 
ATOM      5  C   UNL     1      -9.827  16.064   8.839  1.00  0.00     0.025 C 
ATOM      6  C   UNL     1      -9.279  14.648   9.047  1.00  0.00    -0.073 C 
ATOM      7  C   UNL     1      -8.804  13.875   8.051  1.00  0.00     0.008 C 
ATOM      8  C   UNL     1      -9.298  14.076  10.445  1.00  0.00     0.031 C 
ATOM      9  C   UNL     1     -10.077  14.973  11.409  1.00  0.00     0.005 C 
ATOM     10  C   UNL     1      -9.555  16.420  11.396  1.00  0.00     0.008 C 
ATOM     11  C   UNL     1      -9.280  17.011   9.961  1.00  0.00    -0.018 C 
ATOM     12  C   UNL     1     -10.003  18.376   9.839  1.00  0.00     0.088 C 
ATOM     13  C   UNL     1      -9.892  18.957   8.462  1.00  0.00     0.159 C 
ATOM     14  O   UNL     1      -9.630  20.184   8.343  1.00  0.00    -0.295 OA
ATOM     15  C   UNL     1      -7.749  17.229   9.805  1.00  0.00     0.012 C 
ATOM     16  C   UNL     1     -11.000  19.988   5.914  1.00  0.00     0.039 C 
ENDROOT
TORSDOF 0
ENDMDL
MODEL 4
REMARK VINA RESULT:    -5.641      1.896      5.182
REMARK INTER + INTRA:          -5.641
REMARK INTER:                  -5.641
REMARK INTRA:                   0.000
REMARK UNBOUND:                 0.000
REMARK SMILES C=C1CCC[C@]2(C)CC(=O)C(=C(C)C)C[C@@H]12
REMARK SMILES IDX 13 1 12 2 11 3 15 4 16 5 2 6 1 7 3 8 4 9 5 10 6 11 8 12 9 13
REMARK SMILES IDX 10 14 7 15 14 16
REMARK H PARENT
REMARK Flexibility Score: inf
ROOT
ATOM      1  C   UNL     1     -11.488  18.466   4.506  1.00  0.00     0.039 C 
ATOM      2  C   UNL     1     -11.111  19.093   5.829  1.00  0.00    -0.070 C 
ATOM      3  C   UNL     1     -10.402  18.398   6.768  1.00  0.00    -0.006 C 
ATOM      4  C   UNL     1      -9.984  16.954   6.523  1.00  0.00     0.047 C 
ATOM      5  C   UNL     1      -9.834  16.125   7.827  1.00  0.00     0.025 C 
ATOM      6  C   UNL     1      -9.303  14.702   7.623  1.00  0.00    -0.073 C 
ATOM      7  C   UNL     1      -9.130  14.133   6.414  1.00  0.00     0.008 C 
ATOM      8  C   UNL     1      -8.979  13.881   8.849  1.00  0.00     0.031 C 
ATOM      9  C   UNL     1      -9.448  14.574  10.129  1.00  0.00     0.005 C 
ATOM     10  C   UNL     1      -8.895  16.005  10.244  1.00  0.00     0.008 C 
ATOM     11  C   UNL     1      -8.982  16.855   8.919  1.00  0.00    -0.018 C 
ATOM     12  C   UNL     1      -9.662  18.209   9.242  1.00  0.00     0.088 C 
ATOM     13  C   UNL     1      -9.891  19.036   8.013  1.00  0.00     0.159 C 
ATOM     14  O   UNL     1      -9.626  20.268   8.055  1.00  0.00    -0.295 OA
ATOM     15  C   UNL     1      -7.537  17.119   8.411  1.00  0.00     0.012 C 
ATOM     16  C   UNL     1     -11.586  20.507   6.076  1.00  0.00     0.039 C 
ENDROOT
TORSDOF 0
ENDMDL
MODEL 5
REMARK VINA RESULT:    -5.610      1.872      2.260
REMARK INTER + INTRA:          -5.610
REMARK INTER:                  -5.610
REMARK INTRA:                   0.000
REMARK UNBOUND:                 0.000
REMARK SMILES C=C1CCC[C@]2(C)CC(=O)C(=C(C)C)C[C@@H]12
REMARK SMILES IDX 13 1 12 2 11 3 15 4 16 5 2 6 1 7 3 8 4 9 5 10 6 11 8 12 9 13
REMARK SMILES IDX 10 14 7 15 14 16
REMARK H PARENT
REMARK Flexibility Score: inf
ROOT
ATOM      1  C   UNL     1      -7.577  16.502   9.961  1.00  0.00     0.039 C 
ATOM      2  C   UNL     1      -7.827  15.845   8.622  1.00  0.00    -0.070 C 
ATOM      3  C   UNL     1      -8.433  16.523   7.601  1.00  0.00    -0.006 C 
ATOM      4  C   UNL     1      -8.899  17.961   7.783  1.00  0.00     0.047 C 
ATOM      5  C   UNL     1     -10.104  18.338   6.881  1.00  0.00     0.025 C 
ATOM      6  C   UNL     1     -10.522  19.811   6.956  1.00  0.00    -0.073 C 
ATOM      7  C   UNL     1     -10.016  20.689   7.842  1.00  0.00     0.008 C 
ATOM      8  C   UNL     1     -11.583  20.299   5.997  1.00  0.00     0.031 C 
ATOM      9  C   UNL     1     -12.218  19.141   5.225  1.00  0.00     0.005 C 
ATOM     10  C   UNL     1     -11.164  18.277   4.512  1.00  0.00     0.008 C 
ATOM     11  C   UNL     1      -9.899  17.922   5.385  1.00  0.00    -0.018 C 
ATOM     12  C   UNL     1      -9.673  16.391   5.332  1.00  0.00     0.088 C 
ATOM     13  C   UNL     1      -8.557  15.951   6.231  1.00  0.00     0.159 C 
ATOM     14  O   UNL     1      -7.727  15.109   5.795  1.00  0.00    -0.295 OA
ATOM     15  C   UNL     1      -8.665  18.642   4.773  1.00  0.00     0.012 C 
ATOM     16  C   UNL     1      -7.410  14.399   8.481  1.00  0.00     0.039 C 
ENDROOT
TORSDOF 0
ENDMDL
MODEL 6
REMARK VINA RESULT:    -5.470      1.595      2.278
REMARK INTER + INTRA:          -5.470
REMARK INTER:                  -5.470
REMARK INTRA:                   0.000
REMARK UNBOUND:                 0.000
REMARK SMILES C=C1CCC[C@]2(C)CC(=O)C(=C(C)C)C[C@@H]12
REMARK SMILES IDX 13 1 12 2 11 3 15 4 16 5 2 6 1 7 3 8 4 9 5 10 6 11 8 12 9 13
REMARK SMILES IDX 10 14 7 15 14 16
REMARK H PARENT
REMARK Flexibility Score: inf
ROOT
ATOM      1  C   UNL     1     -11.418  18.003  12.586  1.00  0.00     0.039 C 
ATOM      2  C   UNL     1     -10.627  16.783  12.172  1.00  0.00    -0.070 C 
ATOM      3  C   UNL     1      -9.924  16.757  11.000  1.00  0.00    -0.006 C 
ATOM      4  C   UNL     1      -9.931  17.951  10.055  1.00  0.00     0.047 C 
ATOM      5  C   UNL     1      -9.712  17.563   8.568  1.00  0.00     0.025 C 
ATOM      6  C   UNL     1      -9.597  18.752   7.608  1.00  0.00    -0.073 C 
ATOM      7  C   UNL     1      -9.829  20.030   7.966  1.00  0.00     0.008 C 
ATOM      8  C   UNL     1      -9.228  18.472   6.170  1.00  0.00     0.031 C 
ATOM      9  C   UNL     1      -9.231  16.971   5.871  1.00  0.00     0.005 C 
ATOM     10  C   UNL     1      -8.336  16.189   6.848  1.00  0.00     0.008 C 
ATOM     11  C   UNL     1      -8.495  16.599   8.363  1.00  0.00    -0.018 C 
ATOM     12  C   UNL     1      -8.742  15.319   9.200  1.00  0.00     0.088 C 
ATOM     13  C   UNL     1      -9.020  15.629  10.640  1.00  0.00     0.159 C 
ATOM     14  O   UNL     1      -8.461  14.928  11.527  1.00  0.00    -0.295 OA
ATOM     15  C   UNL     1      -7.172  17.267   8.830  1.00  0.00     0.012 C 
ATOM     16  C   UNL     1     -10.681  15.587  13.095  1.00  0.00     0.039 C 
ENDROOT
TORSDOF 0
ENDMDL
MODEL 7
REMARK VINA RESULT:    -5.416     10.133     12.559
REMARK INTER + INTRA:          -5.416
REMARK INTER:                  -5.416
REMARK INTRA:                   0.000
REMARK UNBOUND:                 0.000
REMARK SMILES C=C1CCC[C@]2(C)CC(=O)C(=C(C)C)C[C@@H]12
REMARK SMILES IDX 13 1 12 2 11 3 15 4 16 5 2 6 1 7 3 8 4 9 5 10 6 11 8 12 9 13
REMARK SMILES IDX 10 14 7 15 14 16
REMARK H PARENT
REMARK Flexibility Score: inf
ROOT
ATOM      1  C   UNL     1      -8.908  23.998  20.643  1.00  0.00     0.039 C 
ATOM      2  C   UNL     1      -8.861  22.631  21.287  1.00  0.00    -0.070 C 
ATOM      3  C   UNL     1      -8.227  21.582  20.682  1.00  0.00    -0.006 C 
ATOM      4  C   UNL     1      -7.563  21.747  19.322  1.00  0.00     0.047 C 
ATOM      5  C   UNL     1      -7.516  20.435  18.494  1.00  0.00     0.025 C 
ATOM      6  C   UNL     1      -6.752  20.542  17.170  1.00  0.00    -0.073 C 
ATOM      7  C   UNL     1      -6.291  21.701  16.662  1.00  0.00     0.008 C 
ATOM      8  C   UNL     1      -6.523  19.276  16.377  1.00  0.00     0.031 C 
ATOM      9  C   UNL     1      -7.303  18.097  16.963  1.00  0.00     0.005 C 
ATOM     10  C   UNL     1      -6.998  17.892  18.457  1.00  0.00     0.008 C 
ATOM     11  C   UNL     1      -6.982  19.214  19.316  1.00  0.00    -0.018 C 
ATOM     12  C   UNL     1      -7.902  19.017  20.547  1.00  0.00     0.088 C 
ATOM     13  C   UNL     1      -8.038  20.269  21.360  1.00  0.00     0.159 C 
ATOM     14  O   UNL     1      -7.971  20.184  22.616  1.00  0.00    -0.295 OA
ATOM     15  C   UNL     1      -5.527  19.465  19.802  1.00  0.00     0.012 C 
ATOM     16  C   UNL     1      -9.576  22.473  22.610  1.00  0.00     0.039 C 
ENDROOT
TORSDOF 0
ENDMDL
MODEL 8
REMARK VINA RESULT:    -5.354      4.536      6.503
REMARK INTER + INTRA:          -5.354
REMARK INTER:                  -5.354
REMARK INTRA:                   0.000
REMARK UNBOUND:                 0.000
REMARK SMILES C=C1CCC[C@]2(C)CC(=O)C(=C(C)C)C[C@@H]12
REMARK SMILES IDX 13 1 12 2 11 3 15 4 16 5 2 6 1 7 3 8 4 9 5 10 6 11 8 12 9 13
REMARK SMILES IDX 10 14 7 15 14 16
REMARK H PARENT
REMARK Flexibility Score: inf
ROOT
ATOM      1  C   UNL     1      -9.898  16.442  17.262  1.00  0.00     0.039 C 
ATOM      2  C   UNL     1      -8.888  17.271  16.502  1.00  0.00    -0.070 C 
ATOM      3  C   UNL     1      -8.930  17.369  15.140  1.00  0.00    -0.006 C 
ATOM      4  C   UNL     1      -9.985  16.624  14.334  1.00  0.00     0.047 C 
ATOM      5  C   UNL     1      -9.525  16.268  12.895  1.00  0.00     0.025 C 
ATOM      6  C   UNL     1     -10.605  15.622  12.020  1.00  0.00    -0.073 C 
ATOM      7  C   UNL     1     -11.809  15.231  12.481  1.00  0.00     0.008 C 
ATOM      8  C   UNL     1     -10.291  15.386  10.561  1.00  0.00     0.031 C 
ATOM      9  C   UNL     1      -8.819  15.662  10.250  1.00  0.00     0.005 C 
ATOM     10  C   UNL     1      -8.390  17.069  10.702  1.00  0.00     0.008 C 
ATOM     11  C   UNL     1      -8.890  17.484  12.139  1.00  0.00    -0.018 C 
ATOM     12  C   UNL     1      -7.677  17.987  12.960  1.00  0.00     0.088 C 
ATOM     13  C   UNL     1      -8.042  18.293  14.382  1.00  0.00     0.159 C 
ATOM     14  O   UNL     1      -7.598  19.351  14.905  1.00  0.00    -0.295 OA
ATOM     15  C   UNL     1      -9.917  18.640  11.985  1.00  0.00     0.012 C 
ATOM     16  C   UNL     1      -7.813  17.955  17.317  1.00  0.00     0.039 C 
ENDROOT
TORSDOF 0
ENDMDL
MODEL 9
REMARK VINA RESULT:    -5.276      3.320      5.198
REMARK INTER + INTRA:          -5.276
REMARK INTER:                  -5.276
REMARK INTRA:                   0.000
REMARK UNBOUND:                 0.000
REMARK SMILES C=C1CCC[C@]2(C)CC(=O)C(=C(C)C)C[C@@H]12
REMARK SMILES IDX 13 1 12 2 11 3 15 4 16 5 2 6 1 7 3 8 4 9 5 10 6 11 8 12 9 13
REMARK SMILES IDX 10 14 7 15 14 16
REMARK H PARENT
REMARK Flexibility Score: inf
ROOT
ATOM      1  C   UNL     1      -4.299  18.562   7.235  1.00  0.00     0.039 C 
ATOM      2  C   UNL     1      -4.738  19.481   6.118  1.00  0.00    -0.070 C 
ATOM      3  C   UNL     1      -6.057  19.619   5.790  1.00  0.00    -0.006 C 
ATOM      4  C   UNL     1      -7.134  18.831   6.524  1.00  0.00     0.047 C 
ATOM      5  C   UNL     1      -8.393  18.553   5.660  1.00  0.00     0.025 C 
ATOM      6  C   UNL     1      -9.541  17.864   6.406  1.00  0.00    -0.073 C 
ATOM      7  C   UNL     1      -9.436  17.378   7.658  1.00  0.00     0.008 C 
ATOM      8  C   UNL     1     -10.858  17.696   5.685  1.00  0.00     0.031 C 
ATOM      9  C   UNL     1     -10.744  18.081   4.209  1.00  0.00     0.005 C 
ATOM     10  C   UNL     1     -10.175  19.499   4.026  1.00  0.00     0.008 C 
ATOM     11  C   UNL     1      -8.929  19.832   4.932  1.00  0.00    -0.018 C 
ATOM     12  C   UNL     1      -7.797  20.390   4.033  1.00  0.00     0.088 C 
ATOM     13  C   UNL     1      -6.529  20.625   4.798  1.00  0.00     0.159 C 
ATOM     14  O   UNL     1      -5.891  21.694   4.594  1.00  0.00    -0.295 OA
ATOM     15  C   UNL     1      -9.347  20.921   5.960  1.00  0.00     0.012 C 
ATOM     16  C   UNL     1      -3.649  20.210   5.364  1.00  0.00     0.039 C 
ENDROOT
TORSDOF 0
ENDMDL
