MODEL 1
REMARK VINA RESULT:    -5.691      0.000      0.000
REMARK INTER + INTRA:          -6.705
REMARK INTER:                  -6.689
REMARK INTRA:                  -0.016
REMARK UNBOUND:                -0.016
REMARK SMILES O=c1c(O)c(-c2ccc(O)c(O)c2)oc2cc(O)ccc12
REMARK SMILES IDX 5 1 3 2 2 3 1 4 21 5 15 6 14 7 16 8 17 9 19 10 20 11 6 12
REMARK SMILES IDX 7 13 8 14 9 15 13 16 11 17 10 18 12 20 4 22 18 24
REMARK H PARENT 10 19 12 21 4 23 18 25
REMARK Flexibility Score: inf
ROOT
ATOM      1  C   UNL     1     -57.708  17.801 -17.578  1.00  0.00     0.180 A 
ATOM      2  C   UNL     1     -57.748  19.047 -16.918  1.00  0.00     0.208 A 
ATOM      3  C   UNL     1     -56.559  19.572 -16.390  1.00  0.00     0.235 A 
ATOM      4  O   UNL     1     -56.566  20.689 -15.805  1.00  0.00    -0.285 OA
ATOM      5  C   UNL     1     -55.368  18.839 -16.513  1.00  0.00     0.069 A 
ATOM      6  C   UNL     1     -55.415  17.588 -17.167  1.00  0.00     0.142 A 
ATOM      7  O   UNL     1     -56.560  17.132 -17.661  1.00  0.00    -0.452 OA
ATOM      8  C   UNL     1     -54.251  16.825 -17.301  1.00  0.00     0.094 A 
ATOM      9  C   UNL     1     -53.034  17.296 -16.790  1.00  0.00     0.119 A 
ATOM     10  C   UNL     1     -52.983  18.536 -16.143  1.00  0.00     0.047 A 
ATOM     11  C   UNL     1     -54.142  19.306 -16.003  1.00  0.00     0.020 A 
ENDROOT
BRANCH   1  12
ATOM     12  C   UNL     1     -58.916  17.190 -18.177  1.00  0.00     0.025 A 
ATOM     13  C   UNL     1     -58.907  16.829 -19.533  1.00  0.00     0.016 A 
ATOM     14  C   UNL     1     -60.042  16.270 -20.125  1.00  0.00     0.051 A 
ATOM     15  C   UNL     1     -61.208  16.078 -19.377  1.00  0.00     0.157 A 
ATOM     16  C   UNL     1     -60.096  17.015 -17.431  1.00  0.00     0.062 A 
ATOM     17  C   UNL     1     -61.237  16.456 -18.024  1.00  0.00     0.158 A 
BRANCH  15  18
ATOM     18  O   UNL     1     -62.325  15.516 -19.994  1.00  0.00    -0.504 OA
ATOM     19  H   UNL     1     -63.072  15.083 -19.464  1.00  0.00     0.293 HD
ENDBRANCH  15  18
BRANCH  17  20
ATOM     20  O   UNL     1     -62.400  16.281 -17.275  1.00  0.00    -0.504 OA
ATOM     21  H   UNL     1     -63.318  16.306 -17.705  1.00  0.00     0.293 HD
ENDBRANCH  17  20
ENDBRANCH   1  12
BRANCH   2  22
ATOM     22  O   UNL     1     -58.958  19.730 -16.768  1.00  0.00    -0.502 OA
ATOM     23  H   UNL     1     -59.486  20.076 -17.560  1.00  0.00     0.293 HD
ENDBRANCH   2  22
BRANCH   9  24
ATOM     24  O   UNL     1     -51.870  16.542 -16.920  1.00  0.00    -0.508 OA
ATOM     25  H   UNL     1     -51.848  15.692 -17.469  1.00  0.00     0.293 HD
ENDBRANCH   9  24
TORSDOF 5
ENDMDL
MODEL 2
REMARK VINA RESULT:    -5.590      1.323      2.960
REMARK INTER + INTRA:          -6.587
REMARK INTER:                  -6.318
REMARK INTRA:                  -0.269
REMARK UNBOUND:                -0.016
REMARK SMILES O=c1c(O)c(-c2ccc(O)c(O)c2)oc2cc(O)ccc12
REMARK SMILES IDX 5 1 3 2 2 3 1 4 21 5 15 6 14 7 16 8 17 9 19 10 20 11 6 12
REMARK SMILES IDX 7 13 8 14 9 15 13 16 11 17 10 18 12 20 4 22 18 24
REMARK H PARENT 10 19 12 21 4 23 18 25
REMARK Flexibility Score: inf
ROOT
ATOM      1  C   UNL     1     -57.519  18.004 -17.438  1.00  0.00     0.180 A 
ATOM      2  C   UNL     1     -56.375  17.184 -17.516  1.00  0.00     0.208 A 
ATOM      3  C   UNL     1     -55.208  17.585 -16.847  1.00  0.00     0.235 A 
ATOM      4  O   UNL     1     -54.174  16.863 -16.892  1.00  0.00    -0.285 OA
ATOM      5  C   UNL     1     -55.202  18.796 -16.137  1.00  0.00     0.069 A 
ATOM      6  C   UNL     1     -56.381  19.573 -16.127  1.00  0.00     0.142 A 
ATOM      7  O   UNL     1     -57.467  19.151 -16.766  1.00  0.00    -0.452 OA
ATOM      8  C   UNL     1     -56.412  20.790 -15.439  1.00  0.00     0.094 A 
ATOM      9  C   UNL     1     -55.275  21.244 -14.757  1.00  0.00     0.119 A 
ATOM     10  C   UNL     1     -54.106  20.476 -14.763  1.00  0.00     0.047 A 
ATOM     11  C   UNL     1     -54.065  19.258 -15.449  1.00  0.00     0.020 A 
ENDROOT
BRANCH   1  12
ATOM     12  C   UNL     1     -58.793  17.641 -18.100  1.00  0.00     0.025 A 
ATOM     13  C   UNL     1     -58.935  17.845 -19.482  1.00  0.00     0.016 A 
ATOM     14  C   UNL     1     -60.134  17.529 -20.125  1.00  0.00     0.051 A 
ATOM     15  C   UNL     1     -61.214  17.019 -19.397  1.00  0.00     0.157 A 
ATOM     16  C   UNL     1     -59.887  17.147 -17.366  1.00  0.00     0.062 A 
ATOM     17  C   UNL     1     -61.092  16.831 -18.011  1.00  0.00     0.158 A 
BRANCH  15  18
ATOM     18  O   UNL     1     -62.397  16.711 -20.066  1.00  0.00    -0.504 OA
ATOM     19  H   UNL     1     -62.457  15.946 -20.728  1.00  0.00     0.293 HD
ENDBRANCH  15  18
BRANCH  17  20
ATOM     20  O   UNL     1     -62.169  16.336 -17.275  1.00  0.00    -0.504 OA
ATOM     21  H   UNL     1     -63.066  16.806 -17.266  1.00  0.00     0.293 HD
ENDBRANCH  17  20
ENDBRANCH   1  12
BRANCH   2  22
ATOM     22  O   UNL     1     -56.396  16.008 -18.270  1.00  0.00    -0.502 OA
ATOM     23  H   UNL     1     -56.950  15.203 -18.003  1.00  0.00     0.293 HD
ENDBRANCH   2  22
BRANCH   9  24
ATOM     24  O   UNL     1     -55.297  22.455 -14.068  1.00  0.00    -0.508 OA
ATOM     25  H   UNL     1     -55.382  23.339 -14.555  1.00  0.00     0.293 HD
ENDBRANCH   9  24
TORSDOF 5
ENDMDL
MODEL 3
REMARK VINA RESULT:    -5.418      8.102      9.638
REMARK INTER + INTRA:          -6.385
REMARK INTER:                  -6.384
REMARK INTRA:                  -0.001
REMARK UNBOUND:                -0.016
REMARK SMILES O=c1c(O)c(-c2ccc(O)c(O)c2)oc2cc(O)ccc12
REMARK SMILES IDX 5 1 3 2 2 3 1 4 21 5 15 6 14 7 16 8 17 9 19 10 20 11 6 12
REMARK SMILES IDX 7 13 8 14 9 15 13 16 11 17 10 18 12 20 4 22 18 24
REMARK H PARENT 10 19 12 21 4 23 18 25
REMARK Flexibility Score: inf
ROOT
ATOM      1  C   UNL     1     -58.089  24.817 -13.086  1.00  0.00     0.180 A 
ATOM      2  C   UNL     1     -58.790  25.645 -12.185  1.00  0.00     0.208 A 
ATOM      3  C   UNL     1     -59.278  25.086 -10.993  1.00  0.00     0.235 A 
ATOM      4  O   UNL     1     -59.900  25.807 -10.165  1.00  0.00    -0.285 OA
ATOM      5  C   UNL     1     -59.075  23.721 -10.738  1.00  0.00     0.069 A 
ATOM      6  C   UNL     1     -58.384  22.955 -11.702  1.00  0.00     0.142 A 
ATOM      7  O   UNL     1     -57.931  23.525 -12.813  1.00  0.00    -0.452 OA
ATOM      8  C   UNL     1     -58.171  21.589 -11.488  1.00  0.00     0.094 A 
ATOM      9  C   UNL     1     -58.639  20.975 -10.318  1.00  0.00     0.119 A 
ATOM     10  C   UNL     1     -59.323  21.732  -9.361  1.00  0.00     0.047 A 
ATOM     11  C   UNL     1     -59.543  23.098  -9.566  1.00  0.00     0.020 A 
ENDROOT
BRANCH   1  12
ATOM     12  C   UNL     1     -57.528  25.336 -14.355  1.00  0.00     0.025 A 
ATOM     13  C   UNL     1     -56.167  25.141 -14.638  1.00  0.00     0.016 A 
ATOM     14  C   UNL     1     -55.612  25.640 -15.819  1.00  0.00     0.051 A 
ATOM     15  C   UNL     1     -56.401  26.354 -16.726  1.00  0.00     0.157 A 
ATOM     16  C   UNL     1     -58.316  26.072 -15.258  1.00  0.00     0.062 A 
ATOM     17  C   UNL     1     -57.759  26.575 -16.443  1.00  0.00     0.158 A 
BRANCH  15  18
ATOM     18  O   UNL     1     -55.819  26.838 -17.897  1.00  0.00    -0.504 OA
ATOM     19  H   UNL     1     -56.180  26.602 -18.814  1.00  0.00     0.293 HD
ENDBRANCH  15  18
BRANCH  17  20
ATOM     20  O   UNL     1     -58.550  27.298 -17.336  1.00  0.00    -0.504 OA
ATOM     21  H   UNL     1     -58.376  28.278 -17.526  1.00  0.00     0.293 HD
ENDBRANCH  17  20
ENDBRANCH   1  12
BRANCH   2  22
ATOM     22  O   UNL     1     -59.020  26.989 -12.489  1.00  0.00    -0.502 OA
ATOM     23  H   UNL     1     -58.703  27.410 -13.354  1.00  0.00     0.293 HD
ENDBRANCH   2  22
BRANCH   9  24
ATOM     24  O   UNL     1     -58.430  19.616 -10.098  1.00  0.00    -0.508 OA
ATOM     25  H   UNL     1     -58.884  19.126  -9.337  1.00  0.00     0.293 HD
ENDBRANCH   9  24
TORSDOF 5
ENDMDL
MODEL 4
REMARK VINA RESULT:    -5.342      1.670      6.917
REMARK INTER + INTRA:          -6.295
REMARK INTER:                  -6.263
REMARK INTRA:                  -0.032
REMARK UNBOUND:                -0.016
REMARK SMILES O=c1c(O)c(-c2ccc(O)c(O)c2)oc2cc(O)ccc12
REMARK SMILES IDX 5 1 3 2 2 3 1 4 21 5 15 6 14 7 16 8 17 9 19 10 20 11 6 12
REMARK SMILES IDX 7 13 8 14 9 15 13 16 11 17 10 18 12 20 4 22 18 24
REMARK H PARENT 10 19 12 21 4 23 18 25
REMARK Flexibility Score: inf
ROOT
ATOM      1  C   UNL     1     -57.076  18.088 -17.169  1.00  0.00     0.180 A 
ATOM      2  C   UNL     1     -56.542  17.411 -18.285  1.00  0.00     0.208 A 
ATOM      3  C   UNL     1     -57.395  16.617 -19.066  1.00  0.00     0.235 A 
ATOM      4  O   UNL     1     -56.944  16.009 -20.076  1.00  0.00    -0.285 OA
ATOM      5  C   UNL     1     -58.748  16.500 -18.710  1.00  0.00     0.069 A 
ATOM      6  C   UNL     1     -59.200  17.191 -17.564  1.00  0.00     0.142 A 
ATOM      7  O   UNL     1     -58.361  17.939 -16.857  1.00  0.00    -0.452 OA
ATOM      8  C   UNL     1     -60.539  17.092 -17.171  1.00  0.00     0.094 A 
ATOM      9  C   UNL     1     -61.436  16.310 -17.911  1.00  0.00     0.119 A 
ATOM     10  C   UNL     1     -60.991  15.626 -19.047  1.00  0.00     0.047 A 
ATOM     11  C   UNL     1     -59.655  15.717 -19.448  1.00  0.00     0.020 A 
ENDROOT
BRANCH   1  12
ATOM     12  C   UNL     1     -56.245  18.958 -16.306  1.00  0.00     0.025 A 
ATOM     13  C   UNL     1     -55.093  18.432 -15.700  1.00  0.00     0.016 A 
ATOM     14  C   UNL     1     -54.305  19.228 -14.866  1.00  0.00     0.051 A 
ATOM     15  C   UNL     1     -54.662  20.556 -14.612  1.00  0.00     0.157 A 
ATOM     16  C   UNL     1     -56.614  20.288 -16.033  1.00  0.00     0.062 A 
ATOM     17  C   UNL     1     -55.824  21.088 -15.194  1.00  0.00     0.158 A 
BRANCH  15  18
ATOM     18  O   UNL     1     -53.855  21.327 -13.777  1.00  0.00    -0.504 OA
ATOM     19  H   UNL     1     -53.866  21.221 -12.770  1.00  0.00     0.293 HD
ENDBRANCH  15  18
BRANCH  17  20
ATOM     20  O   UNL     1     -56.195  22.407 -14.934  1.00  0.00    -0.504 OA
ATOM     21  H   UNL     1     -55.516  23.104 -14.653  1.00  0.00     0.293 HD
ENDBRANCH  17  20
ENDBRANCH   1  12
BRANCH   2  22
ATOM     22  O   UNL     1     -55.181  17.506 -18.586  1.00  0.00    -0.502 OA
ATOM     23  H   UNL     1     -54.603  18.266 -18.246  1.00  0.00     0.293 HD
ENDBRANCH   2  22
BRANCH   9  24
ATOM     24  O   UNL     1     -62.771  16.207 -17.526  1.00  0.00    -0.508 OA
ATOM     25  H   UNL     1     -63.339  17.028 -17.357  1.00  0.00     0.293 HD
ENDBRANCH   9  24
TORSDOF 5
ENDMDL
MODEL 5
REMARK VINA RESULT:    -5.243      5.707      9.144
REMARK INTER + INTRA:          -6.179
REMARK INTER:                  -5.858
REMARK INTRA:                  -0.321
REMARK UNBOUND:                -0.016
REMARK SMILES O=c1c(O)c(-c2ccc(O)c(O)c2)oc2cc(O)ccc12
REMARK SMILES IDX 5 1 3 2 2 3 1 4 21 5 15 6 14 7 16 8 17 9 19 10 20 11 6 12
REMARK SMILES IDX 7 13 8 14 9 15 13 16 11 17 10 18 12 20 4 22 18 24
REMARK H PARENT 10 19 12 21 4 23 18 25
REMARK Flexibility Score: inf
ROOT
ATOM      1  C   UNL     1     -56.551  23.969 -14.348  1.00  0.00     0.180 A 
ATOM      2  C   UNL     1     -57.371  24.185 -13.222  1.00  0.00     0.208 A 
ATOM      3  C   UNL     1     -58.316  25.222 -13.261  1.00  0.00     0.235 A 
ATOM      4  O   UNL     1     -59.068  25.429 -12.270  1.00  0.00    -0.285 OA
ATOM      5  C   UNL     1     -58.407  26.028 -14.407  1.00  0.00     0.069 A 
ATOM      6  C   UNL     1     -57.533  25.763 -15.484  1.00  0.00     0.142 A 
ATOM      7  O   UNL     1     -56.660  24.764 -15.409  1.00  0.00    -0.452 OA
ATOM      8  C   UNL     1     -57.588  26.550 -16.639  1.00  0.00     0.094 A 
ATOM      9  C   UNL     1     -58.508  27.603 -16.733  1.00  0.00     0.119 A 
ATOM     10  C   UNL     1     -59.375  27.867 -15.669  1.00  0.00     0.047 A 
ATOM     11  C   UNL     1     -59.328  27.087 -14.509  1.00  0.00     0.020 A 
ENDROOT
BRANCH   1  12
ATOM     12  C   UNL     1     -55.544  22.884 -14.390  1.00  0.00     0.025 A 
ATOM     13  C   UNL     1     -54.208  23.169 -14.068  1.00  0.00     0.016 A 
ATOM     14  C   UNL     1     -53.237  22.166 -14.121  1.00  0.00     0.051 A 
ATOM     15  C   UNL     1     -53.582  20.868 -14.511  1.00  0.00     0.157 A 
ATOM     16  C   UNL     1     -55.885  21.582 -14.802  1.00  0.00     0.062 A 
ATOM     17  C   UNL     1     -54.911  20.575 -14.858  1.00  0.00     0.158 A 
BRANCH  15  18
ATOM     18  O   UNL     1     -52.592  19.887 -14.552  1.00  0.00    -0.504 OA
ATOM     19  H   UNL     1     -52.799  18.907 -14.400  1.00  0.00     0.293 HD
ENDBRANCH  15  18
BRANCH  17  20
ATOM     20  O   UNL     1     -55.260  19.287 -15.261  1.00  0.00    -0.504 OA
ATOM     21  H   UNL     1     -54.590  18.527 -15.249  1.00  0.00     0.293 HD
ENDBRANCH  17  20
ENDBRANCH   1  12
BRANCH   2  22
ATOM     22  O   UNL     1     -57.223  23.398 -12.076  1.00  0.00    -0.502 OA
ATOM     23  H   UNL     1     -56.980  22.415 -12.123  1.00  0.00     0.293 HD
ENDBRANCH   2  22
BRANCH   9  24
ATOM     24  O   UNL     1     -58.568  28.391 -17.881  1.00  0.00    -0.508 OA
ATOM     25  H   UNL     1     -57.820  29.028 -18.126  1.00  0.00     0.293 HD
ENDBRANCH   9  24
TORSDOF 5
ENDMDL
MODEL 6
REMARK VINA RESULT:    -5.218      7.595      8.943
REMARK INTER + INTRA:          -6.150
REMARK INTER:                  -5.915
REMARK INTRA:                  -0.234
REMARK UNBOUND:                -0.016
REMARK SMILES O=c1c(O)c(-c2ccc(O)c(O)c2)oc2cc(O)ccc12
REMARK SMILES IDX 5 1 3 2 2 3 1 4 21 5 15 6 14 7 16 8 17 9 19 10 20 11 6 12
REMARK SMILES IDX 7 13 8 14 9 15 13 16 11 17 10 18 12 20 4 22 18 24
REMARK H PARENT 10 19 12 21 4 23 18 25
REMARK Flexibility Score: inf
ROOT
ATOM      1  C   UNL     1     -53.623  14.074 -11.876  1.00  0.00     0.180 A 
ATOM      2  C   UNL     1     -53.982  12.925 -12.612  1.00  0.00     0.208 A 
ATOM      3  C   UNL     1     -53.009  12.299 -13.407  1.00  0.00     0.235 A 
ATOM      4  O   UNL     1     -53.302  11.264 -14.067  1.00  0.00    -0.285 OA
ATOM      5  C   UNL     1     -51.715  12.840 -13.466  1.00  0.00     0.069 A 
ATOM      6  C   UNL     1     -51.442  14.007 -12.719  1.00  0.00     0.142 A 
ATOM      7  O   UNL     1     -52.389  14.562 -11.972  1.00  0.00    -0.452 OA
ATOM      8  C   UNL     1     -50.167  14.581 -12.760  1.00  0.00     0.094 A 
ATOM      9  C   UNL     1     -49.157  14.003 -13.540  1.00  0.00     0.119 A 
ATOM     10  C   UNL     1     -49.424  12.847 -14.280  1.00  0.00     0.047 A 
ATOM     11  C   UNL     1     -50.696  12.265 -14.247  1.00  0.00     0.020 A 
ENDROOT
BRANCH   1  12
ATOM     12  C   UNL     1     -54.587  14.778 -11.001  1.00  0.00     0.025 A 
ATOM     13  C   UNL     1     -55.591  15.571 -11.578  1.00  0.00     0.016 A 
ATOM     14  C   UNL     1     -56.499  16.262 -10.772  1.00  0.00     0.051 A 
ATOM     15  C   UNL     1     -56.409  16.185  -9.379  1.00  0.00     0.157 A 
ATOM     16  C   UNL     1     -54.485  14.718  -9.599  1.00  0.00     0.062 A 
ATOM     17  C   UNL     1     -55.395  15.413  -8.789  1.00  0.00     0.158 A 
BRANCH  15  18
ATOM     18  O   UNL     1     -57.330  16.883  -8.600  1.00  0.00    -0.504 OA
ATOM     19  H   UNL     1     -57.314  16.851  -7.587  1.00  0.00     0.293 HD
ENDBRANCH  15  18
BRANCH  17  20
ATOM     20  O   UNL     1     -55.289  15.343  -7.400  1.00  0.00    -0.504 OA
ATOM     21  H   UNL     1     -54.780  14.596  -6.943  1.00  0.00     0.293 HD
ENDBRANCH  17  20
ENDBRANCH   1  12
BRANCH   2  22
ATOM     22  O   UNL     1     -55.291  12.438 -12.571  1.00  0.00    -0.502 OA
ATOM     23  H   UNL     1     -55.628  11.736 -13.219  1.00  0.00     0.293 HD
ENDBRANCH   2  22
BRANCH   9  24
ATOM     24  O   UNL     1     -47.884  14.569 -13.586  1.00  0.00    -0.508 OA
ATOM     25  H   UNL     1     -47.100  14.076 -13.995  1.00  0.00     0.293 HD
ENDBRANCH   9  24
TORSDOF 5
ENDMDL
MODEL 7
REMARK VINA RESULT:    -5.194      7.911     10.106
REMARK INTER + INTRA:          -6.122
REMARK INTER:                  -6.420
REMARK INTRA:                   0.298
REMARK UNBOUND:                -0.016
REMARK SMILES O=c1c(O)c(-c2ccc(O)c(O)c2)oc2cc(O)ccc12
REMARK SMILES IDX 5 1 3 2 2 3 1 4 21 5 15 6 14 7 16 8 17 9 19 10 20 11 6 12
REMARK SMILES IDX 7 13 8 14 9 15 13 16 11 17 10 18 12 20 4 22 18 24
REMARK H PARENT 10 19 12 21 4 23 18 25
REMARK Flexibility Score: inf
ROOT
ATOM      1  C   UNL     1     -58.153  24.841 -13.382  1.00  0.00     0.180 A 
ATOM      2  C   UNL     1     -57.402  23.647 -13.419  1.00  0.00     0.208 A 
ATOM      3  C   UNL     1     -57.432  22.794 -12.305  1.00  0.00     0.235 A 
ATOM      4  O   UNL     1     -56.778  21.715 -12.318  1.00  0.00    -0.285 OA
ATOM      5  C   UNL     1     -58.189  23.156 -11.180  1.00  0.00     0.069 A 
ATOM      6  C   UNL     1     -58.894  24.379 -11.212  1.00  0.00     0.142 A 
ATOM      7  O   UNL     1     -58.846  25.153 -12.290  1.00  0.00    -0.452 OA
ATOM      8  C   UNL     1     -59.651  24.778 -10.106  1.00  0.00     0.094 A 
ATOM      9  C   UNL     1     -59.716  23.969  -8.963  1.00  0.00     0.119 A 
ATOM     10  C   UNL     1     -59.020  22.756  -8.930  1.00  0.00     0.047 A 
ATOM     11  C   UNL     1     -58.259  22.348 -10.030  1.00  0.00     0.020 A 
ENDROOT
BRANCH   1  12
ATOM     12  C   UNL     1     -58.186  25.783 -14.523  1.00  0.00     0.025 A 
ATOM     13  C   UNL     1     -59.345  26.540 -14.760  1.00  0.00     0.016 A 
ATOM     14  C   UNL     1     -59.407  27.420 -15.842  1.00  0.00     0.051 A 
ATOM     15  C   UNL     1     -58.321  27.547 -16.714  1.00  0.00     0.157 A 
ATOM     16  C   UNL     1     -57.102  25.897 -15.413  1.00  0.00     0.062 A 
ATOM     17  C   UNL     1     -57.164  26.779 -16.501  1.00  0.00     0.158 A 
BRANCH  15  18
ATOM     18  O   UNL     1     -58.411  28.435 -17.785  1.00  0.00    -0.504 OA
ATOM     19  H   UNL     1     -58.208  28.153 -18.737  1.00  0.00     0.293 HD
ENDBRANCH  15  18
BRANCH  17  20
ATOM     20  O   UNL     1     -56.082  26.889 -17.374  1.00  0.00    -0.504 OA
ATOM     21  H   UNL     1     -55.960  27.700 -17.969  1.00  0.00     0.293 HD
ENDBRANCH  17  20
ENDBRANCH   1  12
BRANCH   2  22
ATOM     22  O   UNL     1     -56.619  23.338 -14.534  1.00  0.00    -0.502 OA
ATOM     23  H   UNL     1     -55.758  22.809 -14.461  1.00  0.00     0.293 HD
ENDBRANCH   2  22
BRANCH   9  24
ATOM     24  O   UNL     1     -60.469  24.360  -7.858  1.00  0.00    -0.508 OA
ATOM     25  H   UNL     1     -61.467  24.194  -7.812  1.00  0.00     0.293 HD
ENDBRANCH   9  24
TORSDOF 5
ENDMDL
MODEL 8
REMARK VINA RESULT:    -5.186      9.331     10.962
REMARK INTER + INTRA:          -6.112
REMARK INTER:                  -6.577
REMARK INTRA:                   0.464
REMARK UNBOUND:                -0.016
REMARK SMILES O=c1c(O)c(-c2ccc(O)c(O)c2)oc2cc(O)ccc12
REMARK SMILES IDX 5 1 3 2 2 3 1 4 21 5 15 6 14 7 16 8 17 9 19 10 20 11 6 12
REMARK SMILES IDX 7 13 8 14 9 15 13 16 11 17 10 18 12 20 4 22 18 24
REMARK H PARENT 10 19 12 21 4 23 18 25
REMARK Flexibility Score: inf
ROOT
ATOM      1  C   UNL     1     -59.422  26.142 -13.344  1.00  0.00     0.180 A 
ATOM      2  C   UNL     1     -60.628  26.854 -13.176  1.00  0.00     0.208 A 
ATOM      3  C   UNL     1     -61.403  26.614 -12.031  1.00  0.00     0.235 A 
ATOM      4  O   UNL     1     -62.480  27.247 -11.853  1.00  0.00    -0.285 OA
ATOM      5  C   UNL     1     -60.972  25.662 -11.095  1.00  0.00     0.069 A 
ATOM      6  C   UNL     1     -59.765  24.972 -11.346  1.00  0.00     0.142 A 
ATOM      7  O   UNL     1     -59.057  25.237 -12.439  1.00  0.00    -0.452 OA
ATOM      8  C   UNL     1     -59.308  24.009 -10.442  1.00  0.00     0.094 A 
ATOM      9  C   UNL     1     -60.042  23.724  -9.282  1.00  0.00     0.119 A 
ATOM     10  C   UNL     1     -61.236  24.406  -9.029  1.00  0.00     0.047 A 
ATOM     11  C   UNL     1     -61.703  25.370  -9.928  1.00  0.00     0.020 A 
ENDROOT
BRANCH   1  12
ATOM     12  C   UNL     1     -58.542  26.352 -14.515  1.00  0.00     0.025 A 
ATOM     13  C   UNL     1     -57.279  25.740 -14.548  1.00  0.00     0.016 A 
ATOM     14  C   UNL     1     -56.423  25.941 -15.634  1.00  0.00     0.051 A 
ATOM     15  C   UNL     1     -56.807  26.768 -16.694  1.00  0.00     0.157 A 
ATOM     16  C   UNL     1     -58.919  27.201 -15.573  1.00  0.00     0.062 A 
ATOM     17  C   UNL     1     -58.059  27.405 -16.662  1.00  0.00     0.158 A 
BRANCH  15  18
ATOM     18  O   UNL     1     -55.933  26.948 -17.765  1.00  0.00    -0.504 OA
ATOM     19  H   UNL     1     -56.125  26.572 -18.685  1.00  0.00     0.293 HD
ENDBRANCH  15  18
BRANCH  17  20
ATOM     20  O   UNL     1     -58.443  28.242 -17.708  1.00  0.00    -0.504 OA
ATOM     21  H   UNL     1     -58.440  29.251 -17.610  1.00  0.00     0.293 HD
ENDBRANCH  17  20
ENDBRANCH   1  12
BRANCH   2  22
ATOM     22  O   UNL     1     -61.056  27.761 -14.150  1.00  0.00    -0.502 OA
ATOM     23  H   UNL     1     -61.739  27.515 -14.856  1.00  0.00     0.293 HD
ENDBRANCH   2  22
BRANCH   9  24
ATOM     24  O   UNL     1     -59.592  22.766  -8.376  1.00  0.00    -0.508 OA
ATOM     25  H   UNL     1     -60.237  22.233  -7.804  1.00  0.00     0.293 HD
ENDBRANCH   9  24
TORSDOF 5
ENDMDL
MODEL 9
REMARK VINA RESULT:    -5.186      8.036      9.360
REMARK INTER + INTRA:          -6.111
REMARK INTER:                  -6.040
REMARK INTRA:                  -0.072
REMARK UNBOUND:                -0.016
REMARK SMILES O=c1c(O)c(-c2ccc(O)c(O)c2)oc2cc(O)ccc12
REMARK SMILES IDX 5 1 3 2 2 3 1 4 21 5 15 6 14 7 16 8 17 9 19 10 20 11 6 12
REMARK SMILES IDX 7 13 8 14 9 15 13 16 11 17 10 18 12 20 4 22 18 24
REMARK H PARENT 10 19 12 21 4 23 18 25
REMARK Flexibility Score: inf
ROOT
ATOM      1  C   UNL     1     -56.867  24.709 -13.269  1.00  0.00     0.180 A 
ATOM      2  C   UNL     1     -55.711  24.968 -12.503  1.00  0.00     0.208 A 
ATOM      3  C   UNL     1     -55.396  24.107 -11.441  1.00  0.00     0.235 A 
ATOM      4  O   UNL     1     -54.362  24.311 -10.747  1.00  0.00    -0.285 OA
ATOM      5  C   UNL     1     -56.245  23.026 -11.154  1.00  0.00     0.069 A 
ATOM      6  C   UNL     1     -57.396  22.849 -11.953  1.00  0.00     0.142 A 
ATOM      7  O   UNL     1     -57.652  23.682 -12.955  1.00  0.00    -0.452 OA
ATOM      8  C   UNL     1     -58.271  21.789 -11.693  1.00  0.00     0.094 A 
ATOM      9  C   UNL     1     -58.011  20.899 -10.642  1.00  0.00     0.119 A 
ATOM     10  C   UNL     1     -56.871  21.072  -9.850  1.00  0.00     0.047 A 
ATOM     11  C   UNL     1     -55.990  22.129 -10.101  1.00  0.00     0.020 A 
ENDROOT
BRANCH   1  12
ATOM     12  C   UNL     1     -57.255  25.560 -14.416  1.00  0.00     0.025 A 
ATOM     13  C   UNL     1     -58.557  26.081 -14.479  1.00  0.00     0.016 A 
ATOM     14  C   UNL     1     -58.953  26.870 -15.562  1.00  0.00     0.051 A 
ATOM     15  C   UNL     1     -58.061  27.137 -16.606  1.00  0.00     0.157 A 
ATOM     16  C   UNL     1     -56.366  25.813 -15.477  1.00  0.00     0.062 A 
ATOM     17  C   UNL     1     -56.763  26.603 -16.565  1.00  0.00     0.158 A 
BRANCH  15  18
ATOM     18  O   UNL     1     -58.484  27.929 -17.672  1.00  0.00    -0.504 OA
ATOM     19  H   UNL     1     -57.881  28.137 -18.460  1.00  0.00     0.293 HD
ENDBRANCH  15  18
BRANCH  17  20
ATOM     20  O   UNL     1     -55.872  26.853 -17.609  1.00  0.00    -0.504 OA
ATOM     21  H   UNL     1     -54.965  27.272 -17.444  1.00  0.00     0.293 HD
ENDBRANCH  17  20
ENDBRANCH   1  12
BRANCH   2  22
ATOM     22  O   UNL     1     -54.911  26.080 -12.781  1.00  0.00    -0.502 OA
ATOM     23  H   UNL     1     -54.114  26.031 -13.405  1.00  0.00     0.293 HD
ENDBRANCH   2  22
BRANCH   9  24
ATOM     24  O   UNL     1     -58.878  19.841 -10.377  1.00  0.00    -0.508 OA
ATOM     25  H   UNL     1     -59.843  20.000 -10.116  1.00  0.00     0.293 HD
ENDBRANCH   9  24
TORSDOF 5
ENDMDL
