MODEL 1
REMARK VINA RESULT:    -4.327      0.000      0.000
REMARK INTER + INTRA:          -5.270
REMARK INTER:                  -5.212
REMARK INTRA:                  -0.058
REMARK UNBOUND:                -0.058
REMARK SMILES CC[C@@H](C)[C@H]([NH3+])C(=O)[O-]
REMARK SMILES IDX 3 1 4 2 5 3 6 4 7 8 8 9 9 10 2 11 1 12
REMARK H PARENT 6 5 6 6 6 7
REMARK Flexibility Score: inf
ROOT
ATOM      1  C   UNL     1      23.360 -36.768 -27.879  1.00  0.00     0.050 C 
ATOM      2  C   UNL     1      23.982 -35.666 -26.999  1.00  0.00     0.014 C 
ENDROOT
BRANCH   1   3
ATOM      3  C   UNL     1      23.225 -36.345 -29.377  1.00  0.00     0.230 C 
BRANCH   3   4
ATOM      4  N   UNL     1      23.836 -35.037 -29.665  1.00  0.00    -0.350 N 
ATOM      5  H   UNL     1      23.092 -34.302 -29.690  1.00  0.00     0.345 HD
ATOM      6  H   UNL     1      24.538 -34.776 -28.937  1.00  0.00     0.345 HD
ATOM      7  H   UNL     1      24.293 -35.047 -30.603  1.00  0.00     0.345 HD
ENDBRANCH   3   4
BRANCH   3   8
ATOM      8  C   UNL     1      21.781 -36.377 -29.821  1.00  0.00     0.099 C 
ATOM      9  O   UNL     1      21.415 -37.109 -30.779  1.00  0.00    -0.544 OA
ATOM     10  O   UNL     1      20.852 -35.555 -29.195  1.00  0.00    -0.544 OA
ENDBRANCH   3   8
ENDBRANCH   1   3
BRANCH   1  11
ATOM     11  C   UNL     1      24.141 -38.090 -27.671  1.00  0.00     0.006 C 
ATOM     12  C   UNL     1      24.993 -38.102 -26.400  1.00  0.00     0.004 C 
ENDBRANCH   1  11
TORSDOF 4
ENDMDL
MODEL 2
REMARK VINA RESULT:    -4.285     17.495     18.450
REMARK INTER + INTRA:          -5.220
REMARK INTER:                  -5.162
REMARK INTRA:                  -0.057
REMARK UNBOUND:                -0.058
REMARK SMILES CC[C@@H](C)[C@H]([NH3+])C(=O)[O-]
REMARK SMILES IDX 3 1 4 2 5 3 6 4 7 8 8 9 9 10 2 11 1 12
REMARK H PARENT 6 5 6 6 6 7
REMARK Flexibility Score: inf
ROOT
ATOM      1  C   UNL     1      17.289 -19.414 -25.985  1.00  0.00     0.050 C 
ATOM      2  C   UNL     1      16.760 -20.622 -25.189  1.00  0.00     0.014 C 
ENDROOT
BRANCH   1   3
ATOM      3  C   UNL     1      17.669 -19.776 -27.457  1.00  0.00     0.230 C 
BRANCH   3   4
ATOM      4  N   UNL     1      17.793 -21.227 -27.681  1.00  0.00    -0.350 N 
ATOM      5  H   UNL     1      18.767 -21.450 -27.990  1.00  0.00     0.345 HD
ATOM      6  H   UNL     1      17.587 -21.765 -26.810  1.00  0.00     0.345 HD
ATOM      7  H   UNL     1      17.148 -21.533 -28.442  1.00  0.00     0.345 HD
ENDBRANCH   3   4
BRANCH   3   8
ATOM      8  C   UNL     1      18.924 -19.054 -27.887  1.00  0.00     0.099 C 
ATOM      9  O   UNL     1      18.877 -18.122 -28.733  1.00  0.00    -0.544 OA
ATOM     10  O   UNL     1      20.154 -19.451 -27.377  1.00  0.00    -0.544 OA
ENDBRANCH   3   8
ENDBRANCH   1   3
BRANCH   1  11
ATOM     11  C   UNL     1      16.280 -18.243 -25.871  1.00  0.00     0.006 C 
ATOM     12  C   UNL     1      15.930 -17.880 -24.427  1.00  0.00     0.004 C 
ENDBRANCH   1  11
TORSDOF 4
ENDMDL
MODEL 3
REMARK VINA RESULT:    -4.085     10.434     11.724
REMARK INTER + INTRA:          -4.979
REMARK INTER:                  -4.910
REMARK INTRA:                  -0.068
REMARK UNBOUND:                -0.058
REMARK SMILES CC[C@@H](C)[C@H]([NH3+])C(=O)[O-]
REMARK SMILES IDX 3 1 4 2 5 3 6 4 7 8 8 9 9 10 2 11 1 12
REMARK H PARENT 6 5 6 6 6 7
REMARK Flexibility Score: inf
ROOT
ATOM      1  C   UNL     1      14.745 -29.381 -30.471  1.00  0.00     0.050 C 
ATOM      2  C   UNL     1      14.755 -29.179 -28.944  1.00  0.00     0.014 C 
ENDROOT
BRANCH   1   3
ATOM      3  C   UNL     1      14.839 -28.036 -31.262  1.00  0.00     0.230 C 
BRANCH   3   4
ATOM      4  N   UNL     1      14.317 -26.885 -30.507  1.00  0.00    -0.350 N 
ATOM      5  H   UNL     1      14.701 -26.903 -29.534  1.00  0.00     0.345 HD
ATOM      6  H   UNL     1      14.586 -25.981 -30.955  1.00  0.00     0.345 HD
ATOM      7  H   UNL     1      13.277 -26.941 -30.430  1.00  0.00     0.345 HD
ENDBRANCH   3   4
BRANCH   3   8
ATOM      8  C   UNL     1      14.165 -28.151 -32.608  1.00  0.00     0.099 C 
ATOM      9  O   UNL     1      12.912 -28.066 -32.714  1.00  0.00    -0.544 OA
ATOM     10  O   UNL     1      14.930 -28.400 -33.741  1.00  0.00    -0.544 OA
ENDBRANCH   3   8
ENDBRANCH   1   3
BRANCH   1  11
ATOM     11  C   UNL     1      15.836 -30.410 -30.859  1.00  0.00     0.006 C 
ATOM     12  C   UNL     1      16.957 -30.530 -29.824  1.00  0.00     0.004 C 
ENDBRANCH   1  11
TORSDOF 4
ENDMDL
MODEL 4
REMARK VINA RESULT:    -4.069      8.414      9.741
REMARK INTER + INTRA:          -4.959
REMARK INTER:                  -4.863
REMARK INTRA:                  -0.096
REMARK UNBOUND:                -0.058
REMARK SMILES CC[C@@H](C)[C@H]([NH3+])C(=O)[O-]
REMARK SMILES IDX 3 1 4 2 5 3 6 4 7 8 8 9 9 10 2 11 1 12
REMARK H PARENT 6 5 6 6 6 7
REMARK Flexibility Score: inf
ROOT
ATOM      1  C   UNL     1      16.406 -30.629 -29.709  1.00  0.00     0.050 C 
ATOM      2  C   UNL     1      15.827 -29.883 -28.492  1.00  0.00     0.014 C 
ENDROOT
BRANCH   1   3
ATOM      3  C   UNL     1      15.541 -30.450 -30.999  1.00  0.00     0.230 C 
BRANCH   3   4
ATOM      4  N   UNL     1      15.575 -31.627 -31.884  1.00  0.00    -0.350 N 
ATOM      5  H   UNL     1      14.643 -31.744 -32.344  1.00  0.00     0.345 HD
ATOM      6  H   UNL     1      16.303 -31.525 -32.625  1.00  0.00     0.345 HD
ATOM      7  H   UNL     1      15.758 -32.493 -31.330  1.00  0.00     0.345 HD
ENDBRANCH   3   4
BRANCH   3   8
ATOM      8  C   UNL     1      15.936 -29.199 -31.747  1.00  0.00     0.099 C 
ATOM      9  O   UNL     1      15.552 -28.064 -31.357  1.00  0.00    -0.544 OA
ATOM     10  O   UNL     1      16.693 -29.302 -32.907  1.00  0.00    -0.544 OA
ENDBRANCH   3   8
ENDBRANCH   1   3
BRANCH   1  11
ATOM     11  C   UNL     1      17.892 -30.231 -29.894  1.00  0.00     0.006 C 
ATOM     12  C   UNL     1      18.780 -31.387 -30.357  1.00  0.00     0.004 C 
ENDBRANCH   1  11
TORSDOF 4
ENDMDL
MODEL 5
REMARK VINA RESULT:    -4.004      8.581      9.923
REMARK INTER + INTRA:          -4.881
REMARK INTER:                  -4.762
REMARK INTRA:                  -0.119
REMARK UNBOUND:                -0.058
REMARK SMILES CC[C@@H](C)[C@H]([NH3+])C(=O)[O-]
REMARK SMILES IDX 3 1 4 2 5 3 6 4 7 8 8 9 9 10 2 11 1 12
REMARK H PARENT 6 5 6 6 6 7
REMARK Flexibility Score: inf
ROOT
ATOM      1  C   UNL     1      16.972 -29.996 -30.034  1.00  0.00     0.050 C 
ATOM      2  C   UNL     1      18.180 -30.949 -30.092  1.00  0.00     0.014 C 
ENDROOT
BRANCH   1   3
ATOM      3  C   UNL     1      16.047 -30.110 -31.290  1.00  0.00     0.230 C 
BRANCH   3   4
ATOM      4  N   UNL     1      15.612 -31.490 -31.563  1.00  0.00    -0.350 N 
ATOM      5  H   UNL     1      16.407 -32.031 -31.975  1.00  0.00     0.345 HD
ATOM      6  H   UNL     1      15.300 -31.971 -30.690  1.00  0.00     0.345 HD
ATOM      7  H   UNL     1      14.838 -31.496 -32.262  1.00  0.00     0.345 HD
ENDBRANCH   3   4
BRANCH   3   8
ATOM      8  C   UNL     1      16.705 -29.499 -32.504  1.00  0.00     0.099 C 
ATOM      9  O   UNL     1      17.266 -28.373 -32.438  1.00  0.00    -0.544 OA
ATOM     10  O   UNL     1      16.652 -30.165 -33.722  1.00  0.00    -0.544 OA
ENDBRANCH   3   8
ENDBRANCH   1   3
BRANCH   1  11
ATOM     11  C   UNL     1      16.227 -30.195 -28.690  1.00  0.00     0.006 C 
ATOM     12  C   UNL     1      14.894 -29.449 -28.615  1.00  0.00     0.004 C 
ENDBRANCH   1  11
TORSDOF 4
ENDMDL
MODEL 6
REMARK VINA RESULT:    -3.920      8.896      9.491
REMARK INTER + INTRA:          -4.779
REMARK INTER:                  -4.652
REMARK INTRA:                  -0.127
REMARK UNBOUND:                -0.058
REMARK SMILES CC[C@@H](C)[C@H]([NH3+])C(=O)[O-]
REMARK SMILES IDX 3 1 4 2 5 3 6 4 7 8 8 9 9 10 2 11 1 12
REMARK H PARENT 6 5 6 6 6 7
REMARK Flexibility Score: inf
ROOT
ATOM      1  C   UNL     1      17.416 -29.960 -30.647  1.00  0.00     0.050 C 
ATOM      2  C   UNL     1      16.998 -30.318 -29.208  1.00  0.00     0.014 C 
ENDROOT
BRANCH   1   3
ATOM      3  C   UNL     1      16.390 -30.455 -31.717  1.00  0.00     0.230 C 
BRANCH   3   4
ATOM      4  N   UNL     1      15.083 -30.815 -31.142  1.00  0.00    -0.350 N 
ATOM      5  H   UNL     1      14.327 -30.289 -31.637  1.00  0.00     0.345 HD
ATOM      6  H   UNL     1      14.894 -31.838 -31.235  1.00  0.00     0.345 HD
ATOM      7  H   UNL     1      15.042 -30.542 -30.135  1.00  0.00     0.345 HD
ENDBRANCH   3   4
BRANCH   3   8
ATOM      8  C   UNL     1      16.959 -31.597 -32.525  1.00  0.00     0.099 C 
ATOM      9  O   UNL     1      16.221 -32.536 -32.927  1.00  0.00    -0.544 OA
ATOM     10  O   UNL     1      18.322 -31.640 -32.790  1.00  0.00    -0.544 OA
ENDBRANCH   3   8
ENDBRANCH   1   3
BRANCH   1  11
ATOM     11  C   UNL     1      17.722 -28.444 -30.729  1.00  0.00     0.006 C 
ATOM     12  C   UNL     1      18.629 -28.068 -31.902  1.00  0.00     0.004 C 
ENDBRANCH   1  11
TORSDOF 4
ENDMDL
MODEL 7
REMARK VINA RESULT:    -3.902      8.205      9.003
REMARK INTER + INTRA:          -4.758
REMARK INTER:                  -4.668
REMARK INTRA:                  -0.091
REMARK UNBOUND:                -0.058
REMARK SMILES CC[C@@H](C)[C@H]([NH3+])C(=O)[O-]
REMARK SMILES IDX 3 1 4 2 5 3 6 4 7 8 8 9 9 10 2 11 1 12
REMARK H PARENT 6 5 6 6 6 7
REMARK Flexibility Score: inf
ROOT
ATOM      1  C   UNL     1      17.161 -29.532 -31.060  1.00  0.00     0.050 C 
ATOM      2  C   UNL     1      18.231 -28.435 -30.909  1.00  0.00     0.014 C 
ENDROOT
BRANCH   1   3
ATOM      3  C   UNL     1      17.762 -30.975 -31.031  1.00  0.00     0.230 C 
BRANCH   3   4
ATOM      4  N   UNL     1      19.150 -31.012 -30.541  1.00  0.00    -0.350 N 
ATOM      5  H   UNL     1      19.518 -31.989 -30.609  1.00  0.00     0.345 HD
ATOM      6  H   UNL     1      19.768 -30.384 -31.101  1.00  0.00     0.345 HD
ATOM      7  H   UNL     1      19.188 -30.735 -29.536  1.00  0.00     0.345 HD
ENDBRANCH   3   4
BRANCH   3   8
ATOM      8  C   UNL     1      17.647 -31.637 -32.384  1.00  0.00     0.099 C 
ATOM      9  O   UNL     1      18.608 -31.616 -33.198  1.00  0.00    -0.544 OA
ATOM     10  O   UNL     1      16.451 -32.239 -32.755  1.00  0.00    -0.544 OA
ENDBRANCH   3   8
ENDBRANCH   1   3
BRANCH   1  11
ATOM     11  C   UNL     1      16.040 -29.301 -30.016  1.00  0.00     0.006 C 
ATOM     12  C   UNL     1      16.186 -30.167 -28.763  1.00  0.00     0.004 C 
ENDBRANCH   1  11
TORSDOF 4
ENDMDL
MODEL 8
REMARK VINA RESULT:    -3.898     10.172     11.849
REMARK INTER + INTRA:          -4.753
REMARK INTER:                  -4.633
REMARK INTRA:                  -0.120
REMARK UNBOUND:                -0.058
REMARK SMILES CC[C@@H](C)[C@H]([NH3+])C(=O)[O-]
REMARK SMILES IDX 3 1 4 2 5 3 6 4 7 8 8 9 9 10 2 11 1 12
REMARK H PARENT 6 5 6 6 6 7
REMARK Flexibility Score: inf
ROOT
ATOM      1  C   UNL     1      14.266 -28.579 -30.783  1.00  0.00     0.050 C 
ATOM      2  C   UNL     1      13.993 -28.002 -29.381  1.00  0.00     0.014 C 
ENDROOT
BRANCH   1   3
ATOM      3  C   UNL     1      14.748 -30.065 -30.746  1.00  0.00     0.230 C 
BRANCH   3   4
ATOM      4  N   UNL     1      14.990 -30.559 -29.380  1.00  0.00    -0.350 N 
ATOM      5  H   UNL     1      15.457 -29.811 -28.816  1.00  0.00     0.345 HD
ATOM      6  H   UNL     1      14.098 -30.824 -28.907  1.00  0.00     0.345 HD
ATOM      7  H   UNL     1      15.633 -31.380 -29.399  1.00  0.00     0.345 HD
ENDBRANCH   3   4
BRANCH   3   8
ATOM      8  C   UNL     1      15.967 -30.261 -31.616  1.00  0.00     0.099 C 
ATOM      9  O   UNL     1      16.498 -31.397 -31.739  1.00  0.00    -0.544 OA
ATOM     10  O   UNL     1      16.539 -29.168 -32.254  1.00  0.00    -0.544 OA
ENDBRANCH   3   8
ENDBRANCH   1   3
BRANCH   1  11
ATOM     11  C   UNL     1      13.025 -28.347 -31.682  1.00  0.00     0.006 C 
ATOM     12  C   UNL     1      13.270 -27.348 -32.814  1.00  0.00     0.004 C 
ENDBRANCH   1  11
TORSDOF 4
ENDMDL
MODEL 9
REMARK VINA RESULT:    -3.890      9.402     10.711
REMARK INTER + INTRA:          -4.743
REMARK INTER:                  -4.632
REMARK INTRA:                  -0.111
REMARK UNBOUND:                -0.058
REMARK SMILES CC[C@@H](C)[C@H]([NH3+])C(=O)[O-]
REMARK SMILES IDX 3 1 4 2 5 3 6 4 7 8 8 9 9 10 2 11 1 12
REMARK H PARENT 6 5 6 6 6 7
REMARK Flexibility Score: inf
ROOT
ATOM      1  C   UNL     1      16.537 -29.172 -30.107  1.00  0.00     0.050 C 
ATOM      2  C   UNL     1      17.416 -28.679 -31.273  1.00  0.00     0.014 C 
ENDROOT
BRANCH   1   3
ATOM      3  C   UNL     1      15.068 -29.480 -30.542  1.00  0.00     0.230 C 
BRANCH   3   4
ATOM      4  N   UNL     1      14.949 -30.715 -31.335  1.00  0.00    -0.350 N 
ATOM      5  H   UNL     1      13.970 -31.080 -31.267  1.00  0.00     0.345 HD
ATOM      6  H   UNL     1      15.171 -30.545 -32.341  1.00  0.00     0.345 HD
ATOM      7  H   UNL     1      15.582 -31.453 -30.957  1.00  0.00     0.345 HD
ENDBRANCH   3   4
BRANCH   3   8
ATOM      8  C   UNL     1      14.461 -28.306 -31.273  1.00  0.00     0.099 C 
ATOM      9  O   UNL     1      14.195 -27.235 -30.667  1.00  0.00    -0.544 OA
ATOM     10  O   UNL     1      14.148 -28.424 -32.621  1.00  0.00    -0.544 OA
ENDBRANCH   3   8
ENDBRANCH   1   3
BRANCH   1  11
ATOM     11  C   UNL     1      17.242 -30.357 -29.401  1.00  0.00     0.006 C 
ATOM     12  C   UNL     1      18.368 -30.978 -30.229  1.00  0.00     0.004 C 
ENDBRANCH   1  11
TORSDOF 4
ENDMDL
