MODEL 1
REMARK VINA RESULT:    -3.040      0.000      0.000
REMARK INTER + INTRA:          -3.833
REMARK INTER:                  -3.662
REMARK INTRA:                  -0.172
REMARK UNBOUND:                -0.172
REMARK SMILES OCC(O)CO
REMARK SMILES IDX 3 1 5 2 6 3 2 5 1 6 4 8
REMARK H PARENT 6 4 1 7 4 9
REMARK Flexibility Score: inf
ROOT
ATOM      1  C   UNL     1      35.990  -4.039  23.655  1.00  0.00     0.165 C 
ENDROOT
BRANCH   1   2
ATOM      2  C   UNL     1      35.875  -5.300  24.532  1.00  0.00     0.190 C 
BRANCH   2   3
ATOM      3  O   UNL     1      34.645  -5.939  24.322  1.00  0.00    -0.394 OA
ATOM      4  H   UNL     1      33.954  -5.391  24.778  1.00  0.00     0.210 HD
ENDBRANCH   2   3
ENDBRANCH   1   2
BRANCH   1   5
ATOM      5  C   UNL     1      34.623  -3.458  23.252  1.00  0.00     0.190 C 
BRANCH   5   6
ATOM      6  O   UNL     1      34.266  -3.846  21.952  1.00  0.00    -0.394 OA
ATOM      7  H   UNL     1      34.716  -3.218  21.328  1.00  0.00     0.210 HD
ENDBRANCH   5   6
ENDBRANCH   1   5
BRANCH   1   8
ATOM      8  O   UNL     1      36.774  -3.061  24.293  1.00  0.00    -0.388 OA
ATOM      9  H   UNL     1      37.458  -3.532  24.837  1.00  0.00     0.211 HD
ENDBRANCH   1   8
TORSDOF 5
ENDMDL
MODEL 2
REMARK VINA RESULT:    -2.854     16.675     17.864
REMARK INTER + INTRA:          -3.610
REMARK INTER:                  -3.606
REMARK INTRA:                  -0.004
REMARK UNBOUND:                -0.172
REMARK SMILES OCC(O)CO
REMARK SMILES IDX 3 1 5 2 6 3 2 5 1 6 4 8
REMARK H PARENT 6 4 1 7 4 9
REMARK Flexibility Score: inf
ROOT
ATOM      1  C   UNL     1      30.637 -21.365  21.476  1.00  0.00     0.165 C 
ENDROOT
BRANCH   1   2
ATOM      2  C   UNL     1      29.866 -22.677  21.713  1.00  0.00     0.190 C 
BRANCH   2   3
ATOM      3  O   UNL     1      29.847 -23.000  23.078  1.00  0.00    -0.394 OA
ATOM      4  H   UNL     1      29.042 -22.568  23.465  1.00  0.00     0.210 HD
ENDBRANCH   2   3
ENDBRANCH   1   2
BRANCH   1   5
ATOM      5  C   UNL     1      30.313 -20.278  22.516  1.00  0.00     0.190 C 
BRANCH   5   6
ATOM      6  O   UNL     1      30.666 -19.003  22.049  1.00  0.00    -0.394 OA
ATOM      7  H   UNL     1      31.617 -18.857  22.296  1.00  0.00     0.210 HD
ENDBRANCH   5   6
ENDBRANCH   1   5
BRANCH   1   8
ATOM      8  O   UNL     1      32.022 -21.607  21.428  1.00  0.00    -0.388 OA
ATOM      9  H   UNL     1      32.369 -21.203  20.590  1.00  0.00     0.211 HD
ENDBRANCH   1   8
TORSDOF 5
ENDMDL
MODEL 3
REMARK VINA RESULT:    -2.814     16.637     17.969
REMARK INTER + INTRA:          -3.562
REMARK INTER:                  -3.559
REMARK INTRA:                  -0.002
REMARK UNBOUND:                -0.172
REMARK SMILES OCC(O)CO
REMARK SMILES IDX 3 1 5 2 6 3 2 5 1 6 4 8
REMARK H PARENT 6 4 1 7 4 9
REMARK Flexibility Score: inf
ROOT
ATOM      1  C   UNL     1      30.786 -21.366  22.182  1.00  0.00     0.165 C 
ENDROOT
BRANCH   1   2
ATOM      2  C   UNL     1      30.045 -20.099  21.716  1.00  0.00     0.190 C 
BRANCH   2   3
ATOM      3  O   UNL     1      30.707 -18.945  22.164  1.00  0.00    -0.394 OA
ATOM      4  H   UNL     1      31.127 -19.173  23.033  1.00  0.00     0.210 HD
ENDBRANCH   2   3
ENDBRANCH   1   2
BRANCH   1   5
ATOM      5  C   UNL     1      29.915 -22.634  22.113  1.00  0.00     0.190 C 
BRANCH   5   6
ATOM      6  O   UNL     1      29.537 -23.062  23.395  1.00  0.00    -0.394 OA
ATOM      7  H   UNL     1      29.947 -22.433  24.044  1.00  0.00     0.210 HD
ENDBRANCH   5   6
ENDBRANCH   1   5
BRANCH   1   8
ATOM      8  O   UNL     1      31.974 -21.542  21.449  1.00  0.00    -0.388 OA
ATOM      9  H   UNL     1      32.587 -22.097  21.998  1.00  0.00     0.211 HD
ENDBRANCH   1   8
TORSDOF 5
ENDMDL
MODEL 4
REMARK VINA RESULT:    -2.794     16.694     18.022
REMARK INTER + INTRA:          -3.537
REMARK INTER:                  -3.336
REMARK INTRA:                  -0.201
REMARK UNBOUND:                -0.172
REMARK SMILES OCC(O)CO
REMARK SMILES IDX 3 1 5 2 6 3 2 5 1 6 4 8
REMARK H PARENT 6 4 1 7 4 9
REMARK Flexibility Score: inf
ROOT
ATOM      1  C   UNL     1      29.921 -21.777  22.045  1.00  0.00     0.165 C 
ENDROOT
BRANCH   1   2
ATOM      2  C   UNL     1      30.139 -20.479  22.846  1.00  0.00     0.190 C 
BRANCH   2   3
ATOM      3  O   UNL     1      30.704 -19.485  22.034  1.00  0.00    -0.394 OA
ATOM      4  H   UNL     1      31.630 -19.338  22.359  1.00  0.00     0.210 HD
ENDBRANCH   2   3
ENDBRANCH   1   2
BRANCH   1   5
ATOM      5  C   UNL     1      30.897 -21.928  20.864  1.00  0.00     0.190 C 
BRANCH   5   6
ATOM      6  O   UNL     1      32.217 -21.659  21.255  1.00  0.00    -0.394 OA
ATOM      7  H   UNL     1      32.247 -21.735  22.245  1.00  0.00     0.210 HD
ENDBRANCH   5   6
ENDBRANCH   1   5
BRANCH   1   8
ATOM      8  O   UNL     1      29.991 -22.898  22.892  1.00  0.00    -0.388 OA
ATOM      9  H   UNL     1      30.116 -23.700  22.320  1.00  0.00     0.211 HD
ENDBRANCH   1   8
TORSDOF 5
ENDMDL
MODEL 5
REMARK VINA RESULT:    -2.726      1.467      3.195
REMARK INTER + INTRA:          -3.456
REMARK INTER:                  -3.453
REMARK INTRA:                  -0.003
REMARK UNBOUND:                -0.172
REMARK SMILES OCC(O)CO
REMARK SMILES IDX 3 1 5 2 6 3 2 5 1 6 4 8
REMARK H PARENT 6 4 1 7 4 9
REMARK Flexibility Score: inf
ROOT
ATOM      1  C   UNL     1      35.626  -5.025  23.721  1.00  0.00     0.165 C 
ENDROOT
BRANCH   1   2
ATOM      2  C   UNL     1      35.163  -3.605  23.344  1.00  0.00     0.190 C 
BRANCH   2   3
ATOM      3  O   UNL     1      34.328  -3.640  22.218  1.00  0.00    -0.394 OA
ATOM      4  H   UNL     1      34.912  -3.536  21.423  1.00  0.00     0.210 HD
ENDBRANCH   2   3
ENDBRANCH   1   2
BRANCH   1   5
ATOM      5  C   UNL     1      36.963  -5.041  24.484  1.00  0.00     0.190 C 
BRANCH   5   6
ATOM      6  O   UNL     1      37.121  -6.230  25.213  1.00  0.00    -0.394 OA
ATOM      7  H   UNL     1      36.300  -6.769  25.069  1.00  0.00     0.210 HD
ENDBRANCH   5   6
ENDBRANCH   1   5
BRANCH   1   8
ATOM      8  O   UNL     1      34.629  -5.692  24.457  1.00  0.00    -0.388 OA
ATOM      9  H   UNL     1      35.074  -6.164  25.208  1.00  0.00     0.211 HD
ENDBRANCH   1   8
TORSDOF 5
ENDMDL
MODEL 6
REMARK VINA RESULT:    -2.693     16.898     17.987
REMARK INTER + INTRA:          -3.416
REMARK INTER:                  -3.231
REMARK INTRA:                  -0.185
REMARK UNBOUND:                -0.172
REMARK SMILES OCC(O)CO
REMARK SMILES IDX 3 1 5 2 6 3 2 5 1 6 4 8
REMARK H PARENT 6 4 1 7 4 9
REMARK Flexibility Score: inf
ROOT
ATOM      1  C   UNL     1      30.073 -20.818  21.666  1.00  0.00     0.165 C 
ENDROOT
BRANCH   1   2
ATOM      2  C   UNL     1      30.965 -21.718  20.789  1.00  0.00     0.190 C 
BRANCH   2   3
ATOM      3  O   UNL     1      32.294 -21.684  21.235  1.00  0.00    -0.394 OA
ATOM      4  H   UNL     1      32.565 -22.623  21.405  1.00  0.00     0.210 HD
ENDBRANCH   2   3
ENDBRANCH   1   2
BRANCH   1   5
ATOM      5  C   UNL     1      29.567 -21.525  22.936  1.00  0.00     0.190 C 
BRANCH   5   6
ATOM      6  O   UNL     1      29.939 -22.878  22.950  1.00  0.00    -0.394 OA
ATOM      7  H   UNL     1      29.490 -23.310  22.176  1.00  0.00     0.210 HD
ENDBRANCH   5   6
ENDBRANCH   1   5
BRANCH   1   8
ATOM      8  O   UNL     1      30.746 -19.628  21.997  1.00  0.00    -0.388 OA
ATOM      9  H   UNL     1      30.193 -19.146  22.666  1.00  0.00     0.211 HD
ENDBRANCH   1   8
TORSDOF 5
ENDMDL
MODEL 7
REMARK VINA RESULT:    -2.653     17.644     18.921
REMARK INTER + INTRA:          -3.367
REMARK INTER:                  -3.143
REMARK INTRA:                  -0.224
REMARK UNBOUND:                -0.172
REMARK SMILES OCC(O)CO
REMARK SMILES IDX 3 1 5 2 6 3 2 5 1 6 4 8
REMARK H PARENT 6 4 1 7 4 9
REMARK Flexibility Score: inf
ROOT
ATOM      1  C   UNL     1      29.355 -22.053  22.406  1.00  0.00     0.165 C 
ENDROOT
BRANCH   1   2
ATOM      2  C   UNL     1      30.440 -20.968  22.533  1.00  0.00     0.190 C 
BRANCH   2   3
ATOM      3  O   UNL     1      31.719 -21.544  22.533  1.00  0.00    -0.394 OA
ATOM      4  H   UNL     1      31.864 -21.924  21.627  1.00  0.00     0.210 HD
ENDBRANCH   2   3
ENDBRANCH   1   2
BRANCH   1   5
ATOM      5  C   UNL     1      29.174 -22.560  20.964  1.00  0.00     0.190 C 
BRANCH   5   6
ATOM      6  O   UNL     1      30.359 -23.125  20.469  1.00  0.00    -0.394 OA
ATOM      7  H   UNL     1      30.844 -22.405  19.988  1.00  0.00     0.210 HD
ENDBRANCH   5   6
ENDBRANCH   1   5
BRANCH   1   8
ATOM      8  O   UNL     1      29.623 -23.125  23.277  1.00  0.00    -0.388 OA
ATOM      9  H   UNL     1      28.762 -23.402  23.688  1.00  0.00     0.211 HD
ENDBRANCH   1   8
TORSDOF 5
ENDMDL
MODEL 8
REMARK VINA RESULT:    -2.644     16.800     17.893
REMARK INTER + INTRA:          -3.356
REMARK INTER:                  -3.344
REMARK INTRA:                  -0.012
REMARK UNBOUND:                -0.172
REMARK SMILES OCC(O)CO
REMARK SMILES IDX 3 1 5 2 6 3 2 5 1 6 4 8
REMARK H PARENT 6 4 1 7 4 9
REMARK Flexibility Score: inf
ROOT
ATOM      1  C   UNL     1      30.845 -20.956  22.266  1.00  0.00     0.165 C 
ENDROOT
BRANCH   1   2
ATOM      2  C   UNL     1      29.527 -21.520  22.831  1.00  0.00     0.190 C 
BRANCH   2   3
ATOM      3  O   UNL     1      29.678 -22.867  23.189  1.00  0.00    -0.394 OA
ATOM      4  H   UNL     1      28.828 -23.324  22.958  1.00  0.00     0.210 HD
ENDBRANCH   2   3
ENDBRANCH   1   2
BRANCH   1   5
ATOM      5  C   UNL     1      31.335 -21.707  21.015  1.00  0.00     0.190 C 
BRANCH   5   6
ATOM      6  O   UNL     1      32.736 -21.753  20.964  1.00  0.00    -0.394 OA
ATOM      7  H   UNL     1      33.062 -20.827  21.110  1.00  0.00     0.210 HD
ENDBRANCH   5   6
ENDBRANCH   1   5
BRANCH   1   8
ATOM      8  O   UNL     1      30.720 -19.580  22.000  1.00  0.00    -0.388 OA
ATOM      9  H   UNL     1      30.166 -19.480  21.183  1.00  0.00     0.211 HD
ENDBRANCH   1   8
TORSDOF 5
ENDMDL
MODEL 9
REMARK VINA RESULT:    -2.592     21.769     22.813
REMARK INTER + INTRA:          -3.294
REMARK INTER:                  -3.070
REMARK INTRA:                  -0.224
REMARK UNBOUND:                -0.172
REMARK SMILES OCC(O)CO
REMARK SMILES IDX 3 1 5 2 6 3 2 5 1 6 4 8
REMARK H PARENT 6 4 1 7 4 9
REMARK Flexibility Score: inf
ROOT
ATOM      1  C   UNL     1      28.443 -22.539  36.578  1.00  0.00     0.165 C 
ENDROOT
BRANCH   1   2
ATOM      2  C   UNL     1      27.931 -21.342  35.754  1.00  0.00     0.190 C 
BRANCH   2   3
ATOM      3  O   UNL     1      28.725 -20.208  35.982  1.00  0.00    -0.394 OA
ATOM      4  H   UNL     1      28.900 -20.170  36.958  1.00  0.00     0.210 HD
ENDBRANCH   2   3
ENDBRANCH   1   2
BRANCH   1   5
ATOM      5  C   UNL     1      29.935 -22.837  36.347  1.00  0.00     0.190 C 
BRANCH   5   6
ATOM      6  O   UNL     1      30.332 -22.481  35.049  1.00  0.00    -0.394 OA
ATOM      7  H   UNL     1      29.541 -22.603  34.461  1.00  0.00     0.210 HD
ENDBRANCH   5   6
ENDBRANCH   1   5
BRANCH   1   8
ATOM      8  O   UNL     1      28.184 -22.343  37.947  1.00  0.00    -0.388 OA
ATOM      9  H   UNL     1      27.439 -21.691  38.022  1.00  0.00     0.211 HD
ENDBRANCH   1   8
TORSDOF 5
ENDMDL
