MODEL 1
REMARK VINA RESULT:    -3.726      0.000      0.000
REMARK INTER + INTRA:          -4.703
REMARK INTER:                  -4.597
REMARK INTRA:                  -0.105
REMARK UNBOUND:                -0.105
REMARK SMILES CCCCCC(=O)[O-]
REMARK SMILES IDX 4 1 5 2 6 3 7 4 8 5 3 6 2 7 1 8
REMARK H PARENT
REMARK Flexibility Score: inf
ROOT
ATOM      1  C   UNL     1      -6.355 -21.691  47.224  1.00  0.00     0.006 C 
ENDROOT
BRANCH   1   2
ATOM      2  C   UNL     1      -6.140 -23.149  47.656  1.00  0.00     0.053 C 
BRANCH   2   3
ATOM      3  C   UNL     1      -4.698 -23.545  47.570  1.00  0.00     0.041 C 
ATOM      4  O   UNL     1      -4.321 -24.665  48.005  1.00  0.00    -0.550 OA
ATOM      5  O   UNL     1      -3.776 -22.691  46.979  1.00  0.00    -0.550 OA
ENDBRANCH   2   3
ENDBRANCH   1   2
BRANCH   1   6
ATOM      6  C   UNL     1      -7.832 -21.385  46.928  1.00  0.00     0.000 C 
BRANCH   6   7
ATOM      7  C   UNL     1      -8.758 -22.564  47.264  1.00  0.00    -0.003 C 
ATOM      8  C   UNL     1     -10.200 -22.128  47.521  1.00  0.00     0.004 C 
ENDBRANCH   6   7
ENDBRANCH   1   6
TORSDOF 4
ENDMDL
MODEL 2
REMARK VINA RESULT:    -3.554      1.629      2.490
REMARK INTER + INTRA:          -4.490
REMARK INTER:                  -4.410
REMARK INTRA:                  -0.080
REMARK UNBOUND:                -0.105
REMARK SMILES CCCCCC(=O)[O-]
REMARK SMILES IDX 4 1 5 2 6 3 7 4 8 5 3 6 2 7 1 8
REMARK H PARENT
REMARK Flexibility Score: inf
ROOT
ATOM      1  C   UNL     1      -6.291 -23.243  47.685  1.00  0.00     0.006 C 
ENDROOT
BRANCH   1   2
ATOM      2  C   UNL     1      -6.336 -24.582  48.435  1.00  0.00     0.053 C 
BRANCH   2   3
ATOM      3  C   UNL     1      -5.219 -25.489  48.016  1.00  0.00     0.041 C 
ATOM      4  O   UNL     1      -4.042 -25.265  48.402  1.00  0.00    -0.550 OA
ATOM      5  O   UNL     1      -5.485 -26.601  47.228  1.00  0.00    -0.550 OA
ENDBRANCH   2   3
ENDBRANCH   1   2
BRANCH   1   6
ATOM      6  C   UNL     1      -7.658 -22.863  47.092  1.00  0.00     0.000 C 
BRANCH   6   7
ATOM      7  C   UNL     1      -7.837 -21.345  46.948  1.00  0.00    -0.003 C 
ATOM      8  C   UNL     1      -6.507 -20.605  46.794  1.00  0.00     0.004 C 
ENDBRANCH   6   7
ENDBRANCH   1   6
TORSDOF 4
ENDMDL
MODEL 3
REMARK VINA RESULT:    -3.486      9.543     11.496
REMARK INTER + INTRA:          -4.407
REMARK INTER:                  -4.253
REMARK INTRA:                  -0.153
REMARK UNBOUND:                -0.105
REMARK SMILES CCCCCC(=O)[O-]
REMARK SMILES IDX 4 1 5 2 6 3 7 4 8 5 3 6 2 7 1 8
REMARK H PARENT
REMARK Flexibility Score: inf
ROOT
ATOM      1  C   UNL     1       3.712 -22.465  47.539  1.00  0.00     0.006 C 
ENDROOT
BRANCH   1   2
ATOM      2  C   UNL     1       2.483 -21.689  47.044  1.00  0.00     0.053 C 
BRANCH   2   3
ATOM      3  C   UNL     1       2.850 -20.315  46.570  1.00  0.00     0.041 C 
ATOM      4  O   UNL     1       3.626 -19.596  47.252  1.00  0.00    -0.550 OA
ATOM      5  O   UNL     1       2.361 -19.843  45.360  1.00  0.00    -0.550 OA
ENDBRANCH   2   3
ENDBRANCH   1   2
BRANCH   1   6
ATOM      6  C   UNL     1       4.687 -22.798  46.397  1.00  0.00     0.000 C 
BRANCH   6   7
ATOM      7  C   UNL     1       6.126 -22.358  46.703  1.00  0.00    -0.003 C 
ATOM      8  C   UNL     1       6.826 -23.280  47.702  1.00  0.00     0.004 C 
ENDBRANCH   6   7
ENDBRANCH   1   6
TORSDOF 4
ENDMDL
MODEL 4
REMARK VINA RESULT:    -3.441     11.712     12.743
REMARK INTER + INTRA:          -4.351
REMARK INTER:                  -4.163
REMARK INTRA:                  -0.189
REMARK UNBOUND:                -0.105
REMARK SMILES CCCCCC(=O)[O-]
REMARK SMILES IDX 4 1 5 2 6 3 7 4 8 5 3 6 2 7 1 8
REMARK H PARENT
REMARK Flexibility Score: inf
ROOT
ATOM      1  C   UNL     1      -5.480 -35.321  44.108  1.00  0.00     0.006 C 
ENDROOT
BRANCH   1   2
ATOM      2  C   UNL     1      -4.878 -36.276  45.147  1.00  0.00     0.053 C 
BRANCH   2   3
ATOM      3  C   UNL     1      -3.457 -35.922  45.467  1.00  0.00     0.041 C 
ATOM      4  O   UNL     1      -2.516 -36.663  45.079  1.00  0.00    -0.550 OA
ATOM      5  O   UNL     1      -3.171 -34.755  46.164  1.00  0.00    -0.550 OA
ENDBRANCH   2   3
ENDBRANCH   1   2
BRANCH   1   6
ATOM      6  C   UNL     1      -6.299 -34.195  44.761  1.00  0.00     0.000 C 
BRANCH   6   7
ATOM      7  C   UNL     1      -6.893 -34.606  46.116  1.00  0.00    -0.003 C 
ATOM      8  C   UNL     1      -6.857 -33.476  47.145  1.00  0.00     0.004 C 
ENDBRANCH   6   7
ENDBRANCH   1   6
TORSDOF 4
ENDMDL
MODEL 5
REMARK VINA RESULT:    -3.409     11.062     12.429
REMARK INTER + INTRA:          -4.311
REMARK INTER:                  -4.082
REMARK INTRA:                  -0.229
REMARK UNBOUND:                -0.105
REMARK SMILES CCCCCC(=O)[O-]
REMARK SMILES IDX 4 1 5 2 6 3 7 4 8 5 3 6 2 7 1 8
REMARK H PARENT
REMARK Flexibility Score: inf
ROOT
ATOM      1  C   UNL     1      -6.035 -34.075  44.811  1.00  0.00     0.006 C 
ENDROOT
BRANCH   1   2
ATOM      2  C   UNL     1      -6.799 -34.315  46.121  1.00  0.00     0.053 C 
BRANCH   2   3
ATOM      3  C   UNL     1      -6.239 -33.499  47.246  1.00  0.00     0.041 C 
ATOM      4  O   UNL     1      -5.208 -33.885  47.857  1.00  0.00    -0.550 OA
ATOM      5  O   UNL     1      -6.835 -32.295  47.596  1.00  0.00    -0.550 OA
ENDBRANCH   2   3
ENDBRANCH   1   2
BRANCH   1   6
ATOM      6  C   UNL     1      -5.597 -35.391  44.146  1.00  0.00     0.000 C 
BRANCH   6   7
ATOM      7  C   UNL     1      -4.951 -36.368  45.139  1.00  0.00    -0.003 C 
ATOM      8  C   UNL     1      -3.510 -35.992  45.484  1.00  0.00     0.004 C 
ENDBRANCH   6   7
ENDBRANCH   1   6
TORSDOF 4
ENDMDL
MODEL 6
REMARK VINA RESULT:    -3.310      2.453      4.213
REMARK INTER + INTRA:          -4.189
REMARK INTER:                  -4.081
REMARK INTRA:                  -0.108
REMARK UNBOUND:                -0.105
REMARK SMILES CCCCCC(=O)[O-]
REMARK SMILES IDX 4 1 5 2 6 3 7 4 8 5 3 6 2 7 1 8
REMARK H PARENT
REMARK Flexibility Score: inf
ROOT
ATOM      1  C   UNL     1      -5.468 -23.339  47.517  1.00  0.00     0.006 C 
ENDROOT
BRANCH   1   2
ATOM      2  C   UNL     1      -6.835 -22.756  47.902  1.00  0.00     0.053 C 
BRANCH   2   3
ATOM      3  C   UNL     1      -7.142 -21.509  47.131  1.00  0.00     0.041 C 
ATOM      4  O   UNL     1      -8.336 -21.155  46.946  1.00  0.00    -0.550 OA
ATOM      5  O   UNL     1      -6.108 -20.718  46.647  1.00  0.00    -0.550 OA
ENDBRANCH   2   3
ENDBRANCH   1   2
BRANCH   1   6
ATOM      6  C   UNL     1      -4.779 -24.036  48.702  1.00  0.00     0.000 C 
BRANCH   6   7
ATOM      7  C   UNL     1      -4.353 -25.474  48.373  1.00  0.00    -0.003 C 
ATOM      8  C   UNL     1      -5.418 -26.241  47.587  1.00  0.00     0.004 C 
ENDBRANCH   6   7
ENDBRANCH   1   6
TORSDOF 4
ENDMDL
MODEL 7
REMARK VINA RESULT:    -3.288      3.216      4.824
REMARK INTER + INTRA:          -4.163
REMARK INTER:                  -4.091
REMARK INTRA:                  -0.072
REMARK UNBOUND:                -0.105
REMARK SMILES CCCCCC(=O)[O-]
REMARK SMILES IDX 4 1 5 2 6 3 7 4 8 5 3 6 2 7 1 8
REMARK H PARENT
REMARK Flexibility Score: inf
ROOT
ATOM      1  C   UNL     1      -7.019 -22.793  47.252  1.00  0.00     0.006 C 
ENDROOT
BRANCH   1   2
ATOM      2  C   UNL     1      -8.436 -23.327  47.502  1.00  0.00     0.053 C 
BRANCH   2   3
ATOM      3  C   UNL     1      -9.467 -22.251  47.351  1.00  0.00     0.041 C 
ATOM      4  O   UNL     1      -9.115 -21.051  47.212  1.00  0.00    -0.550 OA
ATOM      5  O   UNL     1     -10.817 -22.579  47.330  1.00  0.00    -0.550 OA
ENDBRANCH   2   3
ENDBRANCH   1   2
BRANCH   1   6
ATOM      6  C   UNL     1      -6.004 -23.340  48.270  1.00  0.00     0.000 C 
BRANCH   6   7
ATOM      7  C   UNL     1      -4.755 -23.930  47.599  1.00  0.00    -0.003 C 
ATOM      8  C   UNL     1      -3.831 -22.856  47.022  1.00  0.00     0.004 C 
ENDBRANCH   6   7
ENDBRANCH   1   6
TORSDOF 4
ENDMDL
MODEL 8
REMARK VINA RESULT:    -3.223     10.856     11.663
REMARK INTER + INTRA:          -4.081
REMARK INTER:                  -3.841
REMARK INTRA:                  -0.241
REMARK UNBOUND:                -0.105
REMARK SMILES CCCCCC(=O)[O-]
REMARK SMILES IDX 4 1 5 2 6 3 7 4 8 5 3 6 2 7 1 8
REMARK H PARENT
REMARK Flexibility Score: inf
ROOT
ATOM      1  C   UNL     1      -6.154 -33.580  47.203  1.00  0.00     0.006 C 
ENDROOT
BRANCH   1   2
ATOM      2  C   UNL     1      -4.941 -34.296  47.813  1.00  0.00     0.053 C 
BRANCH   2   3
ATOM      3  C   UNL     1      -3.654 -33.631  47.427  1.00  0.00     0.041 C 
ATOM      4  O   UNL     1      -3.007 -34.037  46.426  1.00  0.00    -0.550 OA
ATOM      5  O   UNL     1      -3.189 -32.542  48.152  1.00  0.00    -0.550 OA
ENDBRANCH   2   3
ENDBRANCH   1   2
BRANCH   1   6
ATOM      6  C   UNL     1      -6.829 -34.417  46.104  1.00  0.00     0.000 C 
BRANCH   6   7
ATOM      7  C   UNL     1      -6.232 -34.155  44.713  1.00  0.00    -0.003 C 
ATOM      8  C   UNL     1      -5.448 -35.351  44.172  1.00  0.00     0.004 C 
ENDBRANCH   6   7
ENDBRANCH   1   6
TORSDOF 4
ENDMDL
MODEL 9
REMARK VINA RESULT:    -3.200     11.862     12.689
REMARK INTER + INTRA:          -4.054
REMARK INTER:                  -3.790
REMARK INTRA:                  -0.265
REMARK UNBOUND:                -0.105
REMARK SMILES CCCCCC(=O)[O-]
REMARK SMILES IDX 4 1 5 2 6 3 7 4 8 5 3 6 2 7 1 8
REMARK H PARENT
REMARK Flexibility Score: inf
ROOT
ATOM      1  C   UNL     1      -4.950 -36.211  45.270  1.00  0.00     0.006 C 
ENDROOT
BRANCH   1   2
ATOM      2  C   UNL     1      -3.428 -36.087  45.433  1.00  0.00     0.053 C 
BRANCH   2   3
ATOM      3  C   UNL     1      -3.055 -34.888  46.250  1.00  0.00     0.041 C 
ATOM      4  O   UNL     1      -2.238 -34.043  45.800  1.00  0.00    -0.550 OA
ATOM      5  O   UNL     1      -3.636 -34.687  47.496  1.00  0.00    -0.550 OA
ENDBRANCH   2   3
ENDBRANCH   1   2
BRANCH   1   6
ATOM      6  C   UNL     1      -5.504 -35.223  44.230  1.00  0.00     0.000 C 
BRANCH   6   7
ATOM      7  C   UNL     1      -6.431 -34.169  44.853  1.00  0.00    -0.003 C 
ATOM      8  C   UNL     1      -6.949 -34.578  46.232  1.00  0.00     0.004 C 
ENDBRANCH   6   7
ENDBRANCH   1   6
TORSDOF 4
ENDMDL
