MODEL 1
REMARK VINA RESULT:    -1.509      0.000      0.000
REMARK INTER + INTRA:          -1.724
REMARK INTER:                  -1.730
REMARK INTRA:                   0.006
REMARK UNBOUND:                 0.006
REMARK SMILES COc1cc(C(C)=O)ccc1O
REMARK SMILES IDX 5 1 4 2 3 3 11 4 10 5 9 6 6 7 7 8 8 9 2 10 1 11 12 12
REMARK H PARENT 12 13
REMARK Flexibility Score: inf
ROOT
ATOM      1  C   UNL     1      32.098  23.369  28.722  1.00  0.00     0.021 A 
ATOM      2  C   UNL     1      33.296  23.891  29.246  1.00  0.00     0.062 A 
ATOM      3  C   UNL     1      34.535  23.617  28.633  1.00  0.00     0.161 A 
ATOM      4  C   UNL     1      34.571  22.812  27.486  1.00  0.00     0.157 A 
ATOM      5  C   UNL     1      33.385  22.290  26.958  1.00  0.00     0.051 A 
ATOM      6  C   UNL     1      32.159  22.564  27.568  1.00  0.00     0.016 A 
ENDROOT
BRANCH   1   7
ATOM      7  C   UNL     1      30.800  23.671  29.385  1.00  0.00     0.159 C 
ATOM      8  C   UNL     1      30.719  24.044  30.835  1.00  0.00     0.093 C 
ATOM      9  O   UNL     1      29.729  23.617  28.721  1.00  0.00    -0.295 OA
ENDBRANCH   1   7
BRANCH   3  10
ATOM     10  O   UNL     1      35.747  24.121  29.132  1.00  0.00    -0.493 OA
ATOM     11  C   UNL     1      36.688  23.362  29.883  1.00  0.00     0.278 C 
ENDBRANCH   3  10
BRANCH   4  12
ATOM     12  O   UNL     1      35.793  22.538  26.875  1.00  0.00    -0.504 OA
ATOM     13  H   UNL     1      35.843  22.080  25.972  1.00  0.00     0.293 HD
ENDBRANCH   4  12
TORSDOF 3
ENDMDL
MODEL 2
REMARK VINA RESULT:     0.514     19.875     21.869
REMARK INTER + INTRA:           0.595
REMARK INTER:                  -0.238
REMARK INTRA:                   0.833
REMARK UNBOUND:                 0.006
REMARK SMILES COc1cc(C(C)=O)ccc1O
REMARK SMILES IDX 5 1 4 2 3 3 11 4 10 5 9 6 6 7 7 8 8 9 2 10 1 11 12 12
REMARK H PARENT 12 13
REMARK Flexibility Score: inf
ROOT
ATOM      1  C   UNL     1      21.380  22.496  45.861  1.00  0.00     0.021 A 
ATOM      2  C   UNL     1      20.737  23.110  44.768  1.00  0.00     0.062 A 
ATOM      3  C   UNL     1      19.386  23.499  44.849  1.00  0.00     0.161 A 
ATOM      4  C   UNL     1      18.674  23.270  46.034  1.00  0.00     0.157 A 
ATOM      5  C   UNL     1      19.306  22.661  47.125  1.00  0.00     0.051 A 
ATOM      6  C   UNL     1      20.645  22.277  47.041  1.00  0.00     0.016 A 
ENDROOT
BRANCH   1   7
ATOM      7  C   UNL     1      22.810  22.093  45.755  1.00  0.00     0.159 C 
ATOM      8  C   UNL     1      23.925  23.087  45.885  1.00  0.00     0.093 C 
ATOM      9  O   UNL     1      23.107  20.885  45.551  1.00  0.00    -0.295 OA
ENDBRANCH   1   7
BRANCH   3  10
ATOM     10  O   UNL     1      18.716  24.112  43.778  1.00  0.00    -0.493 OA
ATOM     11  C   UNL     1      17.302  24.125  43.611  1.00  0.00     0.278 C 
ENDBRANCH   3  10
BRANCH   4  12
ATOM     12  O   UNL     1      17.337  23.652  46.120  1.00  0.00    -0.504 OA
ATOM     13  H   UNL     1      16.890  24.187  45.384  1.00  0.00     0.293 HD
ENDBRANCH   4  12
TORSDOF 3
ENDMDL
