MODEL 1
REMARK VINA RESULT:    -4.153      0.000      0.000
REMARK INTER + INTRA:          -6.996
REMARK INTER:                  -6.339
REMARK INTRA:                  -0.658
REMARK UNBOUND:                -0.658
REMARK SMILES O=C([O-])CCCCCCCCC(=O)[O-]
REMARK SMILES IDX 7 1 6 2 5 3 4 4 2 5 1 6 3 7 8 8 9 9 10 10 11 11 12 12 13 13
REMARK SMILES IDX 14 14
REMARK H PARENT
REMARK Flexibility Score: inf
ROOT
ATOM      1  C   UNL     1     -35.988  80.646 -19.664  1.00  0.00     0.000 C 
ENDROOT
BRANCH   1   2
ATOM      2  C   UNL     1     -34.489  80.774 -19.993  1.00  0.00     0.000 C 
BRANCH   2   3
ATOM      3  C   UNL     1     -33.639  81.140 -18.763  1.00  0.00     0.006 C 
BRANCH   3   4
ATOM      4  C   UNL     1     -32.147  80.795 -18.901  1.00  0.00     0.053 C 
BRANCH   4   5
ATOM      5  C   UNL     1     -31.315  82.006 -19.194  1.00  0.00     0.041 C 
ATOM      6  O   UNL     1     -31.689  83.141 -18.797  1.00  0.00    -0.550 OA
ATOM      7  O   UNL     1     -30.147  81.885 -19.934  1.00  0.00    -0.550 OA
ENDBRANCH   4   5
ENDBRANCH   3   4
ENDBRANCH   2   3
ENDBRANCH   1   2
BRANCH   1   8
ATOM      8  C   UNL     1     -36.800  81.857 -20.171  1.00  0.00     0.000 C 
BRANCH   8   9
ATOM      9  C   UNL     1     -37.474  82.661 -19.047  1.00  0.00     0.000 C 
BRANCH   9  10
ATOM     10  C   UNL     1     -36.533  82.939 -17.863  1.00  0.00     0.006 C 
BRANCH  10  11
ATOM     11  C   UNL     1     -36.266  84.439 -17.675  1.00  0.00     0.053 C 
BRANCH  11  12
ATOM     12  C   UNL     1     -34.978  84.861 -18.313  1.00  0.00     0.041 C 
ATOM     13  O   UNL     1     -34.135  85.527 -17.656  1.00  0.00    -0.550 OA
ATOM     14  O   UNL     1     -34.696  84.493 -19.622  1.00  0.00    -0.550 OA
ENDBRANCH  11  12
ENDBRANCH  10  11
ENDBRANCH   9  10
ENDBRANCH   8   9
ENDBRANCH   1   8
TORSDOF 9
ENDMDL
MODEL 2
REMARK VINA RESULT:    -4.103      1.109      4.605
REMARK INTER + INTRA:          -6.920
REMARK INTER:                  -6.182
REMARK INTRA:                  -0.738
REMARK UNBOUND:                -0.658
REMARK SMILES O=C([O-])CCCCCCCCC(=O)[O-]
REMARK SMILES IDX 7 1 6 2 5 3 4 4 2 5 1 6 3 7 8 8 9 9 10 10 11 11 12 12 13 13
REMARK SMILES IDX 14 14
REMARK H PARENT
REMARK Flexibility Score: inf
ROOT
ATOM      1  C   UNL     1     -35.630  81.196 -19.297  1.00  0.00     0.000 C 
ENDROOT
BRANCH   1   2
ATOM      2  C   UNL     1     -36.756  82.092 -18.749  1.00  0.00     0.000 C 
BRANCH   2   3
ATOM      3  C   UNL     1     -36.333  82.884 -17.499  1.00  0.00     0.006 C 
BRANCH   3   4
ATOM      4  C   UNL     1     -36.364  84.411 -17.677  1.00  0.00     0.053 C 
BRANCH   4   5
ATOM      5  C   UNL     1     -35.177  84.912 -18.441  1.00  0.00     0.041 C 
ATOM      6  O   UNL     1     -35.182  84.899 -19.700  1.00  0.00    -0.550 OA
ATOM      7  O   UNL     1     -34.052  85.361 -17.762  1.00  0.00    -0.550 OA
ENDBRANCH   4   5
ENDBRANCH   3   4
ENDBRANCH   2   3
ENDBRANCH   1   2
BRANCH   1   8
ATOM      8  C   UNL     1     -34.425  81.126 -18.336  1.00  0.00     0.000 C 
BRANCH   8   9
ATOM      9  C   UNL     1     -33.064  81.145 -19.051  1.00  0.00     0.000 C 
BRANCH   9  10
ATOM     10  C   UNL     1     -32.838  82.424 -19.874  1.00  0.00     0.006 C 
BRANCH  10  11
ATOM     11  C   UNL     1     -31.545  83.148 -19.476  1.00  0.00     0.053 C 
BRANCH  11  12
ATOM     12  C   UNL     1     -30.415  82.825 -20.405  1.00  0.00     0.041 C 
ATOM     13  O   UNL     1     -29.857  81.698 -20.354  1.00  0.00    -0.550 OA
ATOM     14  O   UNL     1     -30.000  83.757 -21.347  1.00  0.00    -0.550 OA
ENDBRANCH  11  12
ENDBRANCH  10  11
ENDBRANCH   9  10
ENDBRANCH   8   9
ENDBRANCH   1   8
TORSDOF 9
ENDMDL
MODEL 3
REMARK VINA RESULT:    -4.015     16.715     18.580
REMARK INTER + INTRA:          -6.785
REMARK INTER:                  -6.209
REMARK INTRA:                  -0.576
REMARK UNBOUND:                -0.658
REMARK SMILES O=C([O-])CCCCCCCCC(=O)[O-]
REMARK SMILES IDX 7 1 6 2 5 3 4 4 2 5 1 6 3 7 8 8 9 9 10 10 11 11 12 12 13 13
REMARK SMILES IDX 14 14
REMARK H PARENT
REMARK Flexibility Score: inf
ROOT
ATOM      1  C   UNL     1     -24.741  95.241 -30.726  1.00  0.00     0.000 C 
ENDROOT
BRANCH   1   2
ATOM      2  C   UNL     1     -24.408  96.275 -29.636  1.00  0.00     0.000 C 
BRANCH   2   3
ATOM      3  C   UNL     1     -25.105  95.977 -28.297  1.00  0.00     0.006 C 
BRANCH   3   4
ATOM      4  C   UNL     1     -25.372  94.485 -28.042  1.00  0.00     0.053 C 
BRANCH   4   5
ATOM      5  C   UNL     1     -26.265  94.268 -26.859  1.00  0.00     0.041 C 
ATOM      6  O   UNL     1     -26.968  93.226 -26.779  1.00  0.00    -0.550 OA
ATOM      7  O   UNL     1     -26.349  95.233 -25.864  1.00  0.00    -0.550 OA
ENDBRANCH   4   5
ENDBRANCH   3   4
ENDBRANCH   2   3
ENDBRANCH   1   2
BRANCH   1   8
ATOM      8  C   UNL     1     -23.557  95.007 -31.688  1.00  0.00     0.000 C 
BRANCH   8   9
ATOM      9  C   UNL     1     -23.188  93.525 -31.863  1.00  0.00     0.000 C 
BRANCH   9  10
ATOM     10  C   UNL     1     -23.698  92.641 -30.713  1.00  0.00     0.006 C 
BRANCH  10  11
ATOM     11  C   UNL     1     -22.911  91.329 -30.597  1.00  0.00     0.053 C 
BRANCH  11  12
ATOM     12  C   UNL     1     -23.175  90.633 -29.297  1.00  0.00     0.041 C 
ATOM     13  O   UNL     1     -23.434  91.302 -28.262  1.00  0.00    -0.550 OA
ATOM     14  O   UNL     1     -23.164  89.246 -29.235  1.00  0.00    -0.550 OA
ENDBRANCH  11  12
ENDBRANCH  10  11
ENDBRANCH   9  10
ENDBRANCH   8   9
ENDBRANCH   1   8
TORSDOF 9
ENDMDL
MODEL 4
REMARK VINA RESULT:    -3.985      1.594      5.260
REMARK INTER + INTRA:          -6.740
REMARK INTER:                  -6.048
REMARK INTRA:                  -0.691
REMARK UNBOUND:                -0.658
REMARK SMILES O=C([O-])CCCCCCCCC(=O)[O-]
REMARK SMILES IDX 7 1 6 2 5 3 4 4 2 5 1 6 3 7 8 8 9 9 10 10 11 11 12 12 13 13
REMARK SMILES IDX 14 14
REMARK H PARENT
REMARK Flexibility Score: inf
ROOT
ATOM      1  C   UNL     1     -35.539  81.090 -19.405  1.00  0.00     0.000 C 
ENDROOT
BRANCH   1   2
ATOM      2  C   UNL     1     -36.676  81.852 -18.701  1.00  0.00     0.000 C 
BRANCH   2   3
ATOM      3  C   UNL     1     -36.186  82.672 -17.494  1.00  0.00     0.006 C 
BRANCH   3   4
ATOM      4  C   UNL     1     -36.342  84.193 -17.657  1.00  0.00     0.053 C 
BRANCH   4   5
ATOM      5  C   UNL     1     -35.175  84.804 -18.370  1.00  0.00     0.041 C 
ATOM      6  O   UNL     1     -35.119  84.785 -19.627  1.00  0.00    -0.550 OA
ATOM      7  O   UNL     1     -34.132  85.364 -17.643  1.00  0.00    -0.550 OA
ENDBRANCH   4   5
ENDBRANCH   3   4
ENDBRANCH   2   3
ENDBRANCH   1   2
BRANCH   1   8
ATOM      8  C   UNL     1     -34.200  81.216 -18.649  1.00  0.00     0.000 C 
BRANCH   8   9
ATOM      9  C   UNL     1     -33.098  81.921 -19.458  1.00  0.00     0.000 C 
BRANCH   9  10
ATOM     10  C   UNL     1     -31.684  81.611 -18.940  1.00  0.00     0.006 C 
BRANCH  10  11
ATOM     11  C   UNL     1     -30.844  80.845 -19.971  1.00  0.00     0.053 C 
BRANCH  11  12
ATOM     12  C   UNL     1     -30.974  79.362 -19.806  1.00  0.00     0.041 C 
ATOM     13  O   UNL     1     -30.977  78.611 -20.817  1.00  0.00    -0.550 OA
ATOM     14  O   UNL     1     -31.060  78.807 -18.537  1.00  0.00    -0.550 OA
ENDBRANCH  11  12
ENDBRANCH  10  11
ENDBRANCH   9  10
ENDBRANCH   8   9
ENDBRANCH   1   8
TORSDOF 9
ENDMDL
MODEL 5
REMARK VINA RESULT:    -3.944     11.656     13.143
REMARK INTER + INTRA:          -6.677
REMARK INTER:                  -5.781
REMARK INTRA:                  -0.896
REMARK UNBOUND:                -0.658
REMARK SMILES O=C([O-])CCCCCCCCC(=O)[O-]
REMARK SMILES IDX 7 1 6 2 5 3 4 4 2 5 1 6 3 7 8 8 9 9 10 10 11 11 12 12 13 13
REMARK SMILES IDX 14 14
REMARK H PARENT
REMARK Flexibility Score: inf
ROOT
ATOM      1  C   UNL     1     -21.696  83.225 -23.821  1.00  0.00     0.000 C 
ENDROOT
BRANCH   1   2
ATOM      2  C   UNL     1     -21.098  84.286 -22.879  1.00  0.00     0.000 C 
BRANCH   2   3
ATOM      3  C   UNL     1     -21.982  85.539 -22.755  1.00  0.00     0.006 C 
BRANCH   3   4
ATOM      4  C   UNL     1     -23.041  85.678 -23.861  1.00  0.00     0.053 C 
BRANCH   4   5
ATOM      5  C   UNL     1     -23.043  87.048 -24.468  1.00  0.00     0.041 C 
ATOM      6  O   UNL     1     -21.996  87.508 -24.994  1.00  0.00    -0.550 OA
ATOM      7  O   UNL     1     -24.190  87.828 -24.422  1.00  0.00    -0.550 OA
ENDBRANCH   4   5
ENDBRANCH   3   4
ENDBRANCH   2   3
ENDBRANCH   1   2
BRANCH   1   8
ATOM      8  C   UNL     1     -21.907  81.871 -23.111  1.00  0.00     0.000 C 
BRANCH   8   9
ATOM      9  C   UNL     1     -23.309  81.708 -22.499  1.00  0.00     0.000 C 
BRANCH   9  10
ATOM     10  C   UNL     1     -23.283  81.592 -20.967  1.00  0.00     0.006 C 
BRANCH  10  11
ATOM     11  C   UNL     1     -23.368  82.962 -20.280  1.00  0.00     0.053 C 
BRANCH  11  12
ATOM     12  C   UNL     1     -22.063  83.359 -19.662  1.00  0.00     0.041 C 
ATOM     13  O   UNL     1     -21.170  82.494 -19.459  1.00  0.00    -0.550 OA
ATOM     14  O   UNL     1     -21.821  84.687 -19.338  1.00  0.00    -0.550 OA
ENDBRANCH  11  12
ENDBRANCH  10  11
ENDBRANCH   9  10
ENDBRANCH   8   9
ENDBRANCH   1   8
TORSDOF 9
ENDMDL
MODEL 6
REMARK VINA RESULT:    -3.922      2.661      4.556
REMARK INTER + INTRA:          -6.644
REMARK INTER:                  -6.034
REMARK INTRA:                  -0.610
REMARK UNBOUND:                -0.658
REMARK SMILES O=C([O-])CCCCCCCCC(=O)[O-]
REMARK SMILES IDX 7 1 6 2 5 3 4 4 2 5 1 6 3 7 8 8 9 9 10 10 11 11 12 12 13 13
REMARK SMILES IDX 14 14
REMARK H PARENT
REMARK Flexibility Score: inf
ROOT
ATOM      1  C   UNL     1     -37.590  81.788 -19.904  1.00  0.00     0.000 C 
ENDROOT
BRANCH   1   2
ATOM      2  C   UNL     1     -37.260  82.335 -21.305  1.00  0.00     0.000 C 
BRANCH   2   3
ATOM      3  C   UNL     1     -37.575  83.834 -21.449  1.00  0.00     0.006 C 
BRANCH   3   4
ATOM      4  C   UNL     1     -37.502  84.360 -22.891  1.00  0.00     0.053 C 
BRANCH   4   5
ATOM      5  C   UNL     1     -36.563  85.521 -23.019  1.00  0.00     0.041 C 
ATOM      6  O   UNL     1     -35.367  85.413 -22.641  1.00  0.00    -0.550 OA
ATOM      7  O   UNL     1     -37.019  86.732 -23.523  1.00  0.00    -0.550 OA
ENDBRANCH   4   5
ENDBRANCH   3   4
ENDBRANCH   2   3
ENDBRANCH   1   2
BRANCH   1   8
ATOM      8  C   UNL     1     -36.320  81.424 -19.107  1.00  0.00     0.000 C 
BRANCH   8   9
ATOM      9  C   UNL     1     -36.141  82.248 -17.822  1.00  0.00     0.000 C 
BRANCH   9  10
ATOM     10  C   UNL     1     -36.931  83.567 -17.842  1.00  0.00     0.006 C 
BRANCH  10  11
ATOM     11  C   UNL     1     -36.103  84.748 -17.317  1.00  0.00     0.053 C 
BRANCH  11  12
ATOM     12  C   UNL     1     -34.920  85.033 -18.191  1.00  0.00     0.041 C 
ATOM     13  O   UNL     1     -35.018  84.923 -19.442  1.00  0.00    -0.550 OA
ATOM     14  O   UNL     1     -33.721  85.448 -17.628  1.00  0.00    -0.550 OA
ENDBRANCH  11  12
ENDBRANCH  10  11
ENDBRANCH   9  10
ENDBRANCH   8   9
ENDBRANCH   1   8
TORSDOF 9
ENDMDL
MODEL 7
REMARK VINA RESULT:    -3.894     17.070     18.816
REMARK INTER + INTRA:          -6.601
REMARK INTER:                  -5.605
REMARK INTRA:                  -0.996
REMARK UNBOUND:                -0.658
REMARK SMILES O=C([O-])CCCCCCCCC(=O)[O-]
REMARK SMILES IDX 7 1 6 2 5 3 4 4 2 5 1 6 3 7 8 8 9 9 10 10 11 11 12 12 13 13
REMARK SMILES IDX 14 14
REMARK H PARENT
REMARK Flexibility Score: inf
ROOT
ATOM      1  C   UNL     1     -24.498  95.711 -28.394  1.00  0.00     0.000 C 
ENDROOT
BRANCH   1   2
ATOM      2  C   UNL     1     -24.640  96.573 -29.661  1.00  0.00     0.000 C 
BRANCH   2   3
ATOM      3  C   UNL     1     -23.656  96.166 -30.772  1.00  0.00     0.006 C 
BRANCH   3   4
ATOM      4  C   UNL     1     -23.876  94.748 -31.324  1.00  0.00     0.053 C 
BRANCH   4   5
ATOM      5  C   UNL     1     -25.240  94.584 -31.921  1.00  0.00     0.041 C 
ATOM      6  O   UNL     1     -25.581  95.269 -32.921  1.00  0.00    -0.550 OA
ATOM      7  O   UNL     1     -26.147  93.698 -31.353  1.00  0.00    -0.550 OA
ENDBRANCH   4   5
ENDBRANCH   3   4
ENDBRANCH   2   3
ENDBRANCH   1   2
BRANCH   1   8
ATOM      8  C   UNL     1     -25.777  94.899 -28.097  1.00  0.00     0.000 C 
BRANCH   8   9
ATOM      9  C   UNL     1     -25.513  93.406 -27.841  1.00  0.00     0.000 C 
BRANCH   9  10
ATOM     10  C   UNL     1     -24.076  92.984 -28.186  1.00  0.00     0.006 C 
BRANCH  10  11
ATOM     11  C   UNL     1     -24.036  91.734 -29.076  1.00  0.00     0.053 C 
BRANCH  11  12
ATOM     12  C   UNL     1     -23.199  90.647 -28.476  1.00  0.00     0.041 C 
ATOM     13  O   UNL     1     -22.992  90.621 -27.233  1.00  0.00    -0.550 OA
ATOM     14  O   UNL     1     -22.673  89.647 -29.282  1.00  0.00    -0.550 OA
ENDBRANCH  11  12
ENDBRANCH  10  11
ENDBRANCH   9  10
ENDBRANCH   8   9
ENDBRANCH   1   8
TORSDOF 9
ENDMDL
MODEL 8
REMARK VINA RESULT:    -3.876     17.529     18.890
REMARK INTER + INTRA:          -6.573
REMARK INTER:                  -5.939
REMARK INTRA:                  -0.635
REMARK UNBOUND:                -0.658
REMARK SMILES O=C([O-])CCCCCCCCC(=O)[O-]
REMARK SMILES IDX 7 1 6 2 5 3 4 4 2 5 1 6 3 7 8 8 9 9 10 10 11 11 12 12 13 13
REMARK SMILES IDX 14 14
REMARK H PARENT
REMARK Flexibility Score: inf
ROOT
ATOM      1  C   UNL     1     -23.377  95.939 -31.073  1.00  0.00     0.000 C 
ENDROOT
BRANCH   1   2
ATOM      2  C   UNL     1     -23.903  95.326 -32.384  1.00  0.00     0.000 C 
BRANCH   2   3
ATOM      3  C   UNL     1     -23.394  93.892 -32.618  1.00  0.00     0.006 C 
BRANCH   3   4
ATOM      4  C   UNL     1     -23.221  93.066 -31.333  1.00  0.00     0.053 C 
BRANCH   4   5
ATOM      5  C   UNL     1     -23.108  91.600 -31.620  1.00  0.00     0.041 C 
ATOM      6  O   UNL     1     -23.430  91.150 -32.752  1.00  0.00    -0.550 OA
ATOM      7  O   UNL     1     -22.682  90.727 -30.628  1.00  0.00    -0.550 OA
ENDBRANCH   4   5
ENDBRANCH   3   4
ENDBRANCH   2   3
ENDBRANCH   1   2
BRANCH   1   8
ATOM      8  C   UNL     1     -24.472  96.721 -30.317  1.00  0.00     0.000 C 
BRANCH   8   9
ATOM      9  C   UNL     1     -24.764  96.170 -28.912  1.00  0.00     0.000 C 
BRANCH   9  10
ATOM     10  C   UNL     1     -25.514  94.828 -28.940  1.00  0.00     0.006 C 
BRANCH  10  11
ATOM     11  C   UNL     1     -25.497  94.126 -27.575  1.00  0.00     0.053 C 
BRANCH  11  12
ATOM     12  C   UNL     1     -26.610  94.598 -26.690  1.00  0.00     0.041 C 
ATOM     13  O   UNL     1     -26.380  95.435 -25.778  1.00  0.00    -0.550 OA
ATOM     14  O   UNL     1     -27.903  94.137 -26.892  1.00  0.00    -0.550 OA
ENDBRANCH  11  12
ENDBRANCH  10  11
ENDBRANCH   9  10
ENDBRANCH   8   9
ENDBRANCH   1   8
TORSDOF 9
ENDMDL
MODEL 9
REMARK VINA RESULT:    -3.862     17.110     18.732
REMARK INTER + INTRA:          -6.551
REMARK INTER:                  -5.689
REMARK INTRA:                  -0.863
REMARK UNBOUND:                -0.658
REMARK SMILES O=C([O-])CCCCCCCCC(=O)[O-]
REMARK SMILES IDX 7 1 6 2 5 3 4 4 2 5 1 6 3 7 8 8 9 9 10 10 11 11 12 12 13 13
REMARK SMILES IDX 14 14
REMARK H PARENT
REMARK Flexibility Score: inf
ROOT
ATOM      1  C   UNL     1     -24.596  91.059 -29.525  1.00  0.00     0.000 C 
ENDROOT
BRANCH   1   2
ATOM      2  C   UNL     1     -24.248  91.754 -28.196  1.00  0.00     0.000 C 
BRANCH   2   3
ATOM      3  C   UNL     1     -24.268  93.289 -28.303  1.00  0.00     0.006 C 
BRANCH   3   4
ATOM      4  C   UNL     1     -25.677  93.904 -28.329  1.00  0.00     0.053 C 
BRANCH   4   5
ATOM      5  C   UNL     1     -25.745  95.185 -27.556  1.00  0.00     0.041 C 
ATOM      6  O   UNL     1     -26.219  95.196 -26.389  1.00  0.00    -0.550 OA
ATOM      7  O   UNL     1     -25.316  96.372 -28.136  1.00  0.00    -0.550 OA
ENDBRANCH   4   5
ENDBRANCH   3   4
ENDBRANCH   2   3
ENDBRANCH   1   2
BRANCH   1   8
ATOM      8  C   UNL     1     -23.356  90.430 -30.194  1.00  0.00     0.000 C 
BRANCH   8   9
ATOM      9  C   UNL     1     -22.655  91.363 -31.195  1.00  0.00     0.000 C 
BRANCH   9  10
ATOM     10  C   UNL     1     -23.633  92.292 -31.933  1.00  0.00     0.006 C 
BRANCH  10  11
ATOM     11  C   UNL     1     -23.050  93.695 -32.147  1.00  0.00     0.053 C 
BRANCH  11  12
ATOM     12  C   UNL     1     -23.909  94.756 -31.530  1.00  0.00     0.041 C 
ATOM     13  O   UNL     1     -23.383  95.694 -30.875  1.00  0.00    -0.550 OA
ATOM     14  O   UNL     1     -25.286  94.726 -31.704  1.00  0.00    -0.550 OA
ENDBRANCH  11  12
ENDBRANCH  10  11
ENDBRANCH   9  10
ENDBRANCH   8   9
ENDBRANCH   1   8
TORSDOF 9
ENDMDL
