MODEL 1
REMARK VINA RESULT:     0.000      0.000      0.000
REMARK INTER + INTRA:          -3.009
REMARK INTER:                   0.000
REMARK INTRA:                  -3.009
REMARK UNBOUND:                -3.009
REMARK SMILES CCCCCCCCCCCCCCCCO
REMARK SMILES IDX 9 1 8 2 7 3 6 4 5 5 4 6 3 7 2 8 1 9 10 10 11 11 12 12 13 13
REMARK SMILES IDX 14 14 15 15 16 16 17 17
REMARK H PARENT 17 18
REMARK Flexibility Score: inf
ROOT
ATOM      1  C   UNL     1     173.750 185.862 192.227  1.00  0.00     0.000 C 
ENDROOT
BRANCH   1   2
ATOM      2  C   UNL     1     174.192 184.396 192.340  1.00  0.00    -0.000 C 
BRANCH   2   3
ATOM      3  C   UNL     1     173.536 183.492 191.280  1.00  0.00    -0.000 C 
BRANCH   3   4
ATOM      4  C   UNL     1     173.006 184.226 190.033  1.00  0.00    -0.000 C 
BRANCH   4   5
ATOM      5  C   UNL     1     173.891 184.100 188.776  1.00  0.00    -0.000 C 
BRANCH   5   6
ATOM      6  C   UNL     1     174.170 185.427 188.043  1.00  0.00    -0.000 C 
BRANCH   6   7
ATOM      7  C   UNL     1     173.416 186.652 188.600  1.00  0.00    -0.000 C 
BRANCH   7   8
ATOM      8  C   UNL     1     174.213 187.967 188.580  1.00  0.00    -0.003 C 
ATOM      9  C   UNL     1     175.378 187.944 187.591  1.00  0.00     0.004 C 
ENDBRANCH   7   8
ENDBRANCH   6   7
ENDBRANCH   5   6
ENDBRANCH   4   5
ENDBRANCH   3   4
ENDBRANCH   2   3
ENDBRANCH   1   2
BRANCH   1  10
ATOM     10  C   UNL     1     174.959 186.787 192.036  1.00  0.00     0.000 C 
BRANCH  10  11
ATOM     11  C   UNL     1     176.251 185.976 191.868  1.00  0.00     0.000 C 
BRANCH  11  12
ATOM     12  C   UNL     1     176.916 186.184 190.496  1.00  0.00     0.000 C 
BRANCH  12  13
ATOM     13  C   UNL     1     177.393 184.894 189.801  1.00  0.00     0.000 C 
BRANCH  13  14
ATOM     14  C   UNL     1     177.467 183.650 190.709  1.00  0.00     0.002 C 
BRANCH  14  15
ATOM     15  C   UNL     1     176.901 182.359 190.088  1.00  0.00     0.028 C 
BRANCH  15  16
ATOM     16  C   UNL     1     176.568 181.273 191.117  1.00  0.00     0.156 C 
BRANCH  16  17
ATOM     17  O   UNL     1     176.645 181.794 192.416  1.00  0.00    -0.396 OA
ATOM     18  H   UNL     1     175.746 181.670 192.815  1.00  0.00     0.210 HD
ENDBRANCH  16  17
ENDBRANCH  15  16
ENDBRANCH  14  15
ENDBRANCH  13  14
ENDBRANCH  12  13
ENDBRANCH  11  12
ENDBRANCH  10  11
ENDBRANCH   1  10
TORSDOF 15
ENDMDL
MODEL 2
REMARK VINA RESULT:     0.006      5.073      7.434
REMARK INTER + INTRA:          -2.999
REMARK INTER:                   0.000
REMARK INTRA:                  -2.999
REMARK UNBOUND:                -3.009
REMARK SMILES CCCCCCCCCCCCCCCCO
REMARK SMILES IDX 9 1 8 2 7 3 6 4 5 5 4 6 3 7 2 8 1 9 10 10 11 11 12 12 13 13
REMARK SMILES IDX 14 14 15 15 16 16 17 17
REMARK H PARENT 17 18
REMARK Flexibility Score: inf
ROOT
ATOM      1  C   UNL     1     180.612 187.190 193.759  1.00  0.00     0.000 C 
ENDROOT
BRANCH   1   2
ATOM      2  C   UNL     1     180.883 187.412 195.254  1.00  0.00    -0.000 C 
BRANCH   2   3
ATOM      3  C   UNL     1     179.801 186.790 196.157  1.00  0.00    -0.000 C 
BRANCH   3   4
ATOM      4  C   UNL     1     179.057 187.789 197.066  1.00  0.00    -0.000 C 
BRANCH   4   5
ATOM      5  C   UNL     1     179.142 189.263 196.622  1.00  0.00    -0.000 C 
BRANCH   5   6
ATOM      6  C   UNL     1     177.865 189.815 195.956  1.00  0.00    -0.000 C 
BRANCH   6   7
ATOM      7  C   UNL     1     178.070 190.413 194.550  1.00  0.00    -0.000 C 
BRANCH   7   8
ATOM      8  C   UNL     1     179.525 190.771 194.204  1.00  0.00    -0.003 C 
ATOM      9  C   UNL     1     179.816 190.702 192.705  1.00  0.00     0.004 C 
ENDBRANCH   7   8
ENDBRANCH   6   7
ENDBRANCH   5   6
ENDBRANCH   4   5
ENDBRANCH   3   4
ENDBRANCH   2   3
ENDBRANCH   1   2
BRANCH   1  10
ATOM     10  C   UNL     1     179.281 186.460 193.545  1.00  0.00     0.000 C 
BRANCH  10  11
ATOM     11  C   UNL     1     178.355 187.264 192.621  1.00  0.00     0.000 C 
BRANCH  11  12
ATOM     12  C   UNL     1     176.892 187.270 193.098  1.00  0.00     0.000 C 
BRANCH  12  13
ATOM     13  C   UNL     1     176.614 186.424 194.357  1.00  0.00     0.000 C 
BRANCH  13  14
ATOM     14  C   UNL     1     175.575 187.018 195.329  1.00  0.00     0.002 C 
BRANCH  14  15
ATOM     15  C   UNL     1     175.646 186.472 196.768  1.00  0.00     0.028 C 
BRANCH  15  16
ATOM     16  C   UNL     1     176.350 185.115 196.880  1.00  0.00     0.156 C 
BRANCH  16  17
ATOM     17  O   UNL     1     177.057 185.033 198.086  1.00  0.00    -0.396 OA
ATOM     18  H   UNL     1     176.853 185.867 198.581  1.00  0.00     0.210 HD
ENDBRANCH  16  17
ENDBRANCH  15  16
ENDBRANCH  14  15
ENDBRANCH  13  14
ENDBRANCH  12  13
ENDBRANCH  11  12
ENDBRANCH  10  11
ENDBRANCH   1  10
TORSDOF 15
ENDMDL
MODEL 3
REMARK VINA RESULT:     0.013      8.336     10.783
REMARK INTER + INTRA:          -2.986
REMARK INTER:                   0.000
REMARK INTRA:                  -2.986
REMARK UNBOUND:                -3.009
REMARK SMILES CCCCCCCCCCCCCCCCO
REMARK SMILES IDX 9 1 8 2 7 3 6 4 5 5 4 6 3 7 2 8 1 9 10 10 11 11 12 12 13 13
REMARK SMILES IDX 14 14 15 15 16 16 17 17
REMARK H PARENT 17 18
REMARK Flexibility Score: inf
ROOT
ATOM      1  C   UNL     1     183.960 186.982 195.336  1.00  0.00     0.000 C 
ENDROOT
BRANCH   1   2
ATOM      2  C   UNL     1     184.996 187.594 194.382  1.00  0.00    -0.000 C 
BRANCH   2   3
ATOM      3  C   UNL     1     185.373 189.039 194.755  1.00  0.00    -0.000 C 
BRANCH   3   4
ATOM      4  C   UNL     1     184.459 189.701 195.806  1.00  0.00    -0.000 C 
BRANCH   4   5
ATOM      5  C   UNL     1     183.475 190.747 195.248  1.00  0.00    -0.000 C 
BRANCH   5   6
ATOM      6  C   UNL     1     182.004 190.543 195.664  1.00  0.00    -0.000 C 
BRANCH   6   7
ATOM      7  C   UNL     1     181.793 189.615 196.878  1.00  0.00    -0.000 C 
BRANCH   7   8
ATOM      8  C   UNL     1     180.660 188.588 196.718  1.00  0.00    -0.003 C 
ATOM      9  C   UNL     1     179.533 189.078 195.810  1.00  0.00     0.004 C 
ENDBRANCH   7   8
ENDBRANCH   6   7
ENDBRANCH   5   6
ENDBRANCH   4   5
ENDBRANCH   3   4
ENDBRANCH   2   3
ENDBRANCH   1   2
BRANCH   1  10
ATOM     10  C   UNL     1     182.746 186.455 194.563  1.00  0.00     0.000 C 
BRANCH  10  11
ATOM     11  C   UNL     1     182.707 187.028 193.139  1.00  0.00     0.000 C 
BRANCH  11  12
ATOM     12  C   UNL     1     181.563 188.037 192.931  1.00  0.00     0.000 C 
BRANCH  12  13
ATOM     13  C   UNL     1     181.953 189.311 192.156  1.00  0.00     0.000 C 
BRANCH  13  14
ATOM     14  C   UNL     1     183.356 189.288 191.519  1.00  0.00     0.002 C 
BRANCH  14  15
ATOM     15  C   UNL     1     184.118 190.625 191.577  1.00  0.00     0.028 C 
BRANCH  15  16
ATOM     16  C   UNL     1     185.622 190.492 191.317  1.00  0.00     0.156 C 
BRANCH  16  17
ATOM     17  O   UNL     1     185.976 189.142 191.191  1.00  0.00    -0.396 OA
ATOM     18  H   UNL     1     185.434 188.785 190.441  1.00  0.00     0.210 HD
ENDBRANCH  16  17
ENDBRANCH  15  16
ENDBRANCH  14  15
ENDBRANCH  13  14
ENDBRANCH  12  13
ENDBRANCH  11  12
ENDBRANCH  10  11
ENDBRANCH   1  10
TORSDOF 15
ENDMDL
MODEL 4
REMARK VINA RESULT:     0.014      3.693      6.045
REMARK INTER + INTRA:          -2.984
REMARK INTER:                   0.000
REMARK INTRA:                  -2.984
REMARK UNBOUND:                -3.009
REMARK SMILES CCCCCCCCCCCCCCCCO
REMARK SMILES IDX 9 1 8 2 7 3 6 4 5 5 4 6 3 7 2 8 1 9 10 10 11 11 12 12 13 13
REMARK SMILES IDX 14 14 15 15 16 16 17 17
REMARK H PARENT 17 18
REMARK Flexibility Score: inf
ROOT
ATOM      1  C   UNL     1     178.197 184.744 189.796  1.00  0.00     0.000 C 
ENDROOT
BRANCH   1   2
ATOM      2  C   UNL     1     179.026 184.859 191.083  1.00  0.00    -0.000 C 
BRANCH   2   3
ATOM      3  C   UNL     1     178.716 183.742 192.096  1.00  0.00    -0.000 C 
BRANCH   3   4
ATOM      4  C   UNL     1     179.951 183.000 192.647  1.00  0.00    -0.000 C 
BRANCH   4   5
ATOM      5  C   UNL     1     181.033 182.667 191.600  1.00  0.00    -0.000 C 
BRANCH   5   6
ATOM      6  C   UNL     1     180.743 181.421 190.740  1.00  0.00    -0.000 C 
BRANCH   6   7
ATOM      7  C   UNL     1     180.952 181.611 189.224  1.00  0.00    -0.000 C 
BRANCH   7   8
ATOM      8  C   UNL     1     181.384 183.026 188.802  1.00  0.00    -0.003 C 
ATOM      9  C   UNL     1     180.809 183.447 187.450  1.00  0.00     0.004 C 
ENDBRANCH   7   8
ENDBRANCH   6   7
ENDBRANCH   5   6
ENDBRANCH   4   5
ENDBRANCH   3   4
ENDBRANCH   2   3
ENDBRANCH   1   2
BRANCH   1  10
ATOM     10  C   UNL     1     177.197 183.585 189.889  1.00  0.00     0.000 C 
BRANCH  10  11
ATOM     11  C   UNL     1     177.385 182.601 188.726  1.00  0.00     0.000 C 
BRANCH  11  12
ATOM     12  C   UNL     1     177.296 181.129 189.167  1.00  0.00     0.000 C 
BRANCH  12  13
ATOM     13  C   UNL     1     176.797 180.911 190.609  1.00  0.00     0.000 C 
BRANCH  13  14
ATOM     14  C   UNL     1     177.528 179.806 191.396  1.00  0.00     0.002 C 
BRANCH  14  15
ATOM     15  C   UNL     1     177.715 180.092 192.898  1.00  0.00     0.028 C 
BRANCH  15  16
ATOM     16  C   UNL     1     178.970 179.451 193.498  1.00  0.00     0.156 C 
BRANCH  16  17
ATOM     17  O   UNL     1     179.563 178.582 192.571  1.00  0.00    -0.396 OA
ATOM     18  H   UNL     1     180.453 178.967 192.365  1.00  0.00     0.210 HD
ENDBRANCH  16  17
ENDBRANCH  15  16
ENDBRANCH  14  15
ENDBRANCH  13  14
ENDBRANCH  12  13
ENDBRANCH  11  12
ENDBRANCH  10  11
ENDBRANCH   1  10
TORSDOF 15
ENDMDL
MODEL 5
REMARK VINA RESULT:     0.016      6.425      8.863
REMARK INTER + INTRA:          -2.980
REMARK INTER:                   0.000
REMARK INTRA:                  -2.980
REMARK UNBOUND:                -3.009
REMARK SMILES CCCCCCCCCCCCCCCCO
REMARK SMILES IDX 9 1 8 2 7 3 6 4 5 5 4 6 3 7 2 8 1 9 10 10 11 11 12 12 13 13
REMARK SMILES IDX 14 14 15 15 16 16 17 17
REMARK H PARENT 17 18
REMARK Flexibility Score: inf
ROOT
ATOM      1  C   UNL     1     177.622 189.334 185.133  1.00  0.00     0.000 C 
ENDROOT
BRANCH   1   2
ATOM      2  C   UNL     1     178.280 190.671 184.761  1.00  0.00    -0.000 C 
BRANCH   2   3
ATOM      3  C   UNL     1     179.552 190.495 183.911  1.00  0.00    -0.000 C 
BRANCH   3   4
ATOM      4  C   UNL     1     180.853 190.987 184.576  1.00  0.00    -0.000 C 
BRANCH   4   5
ATOM      5  C   UNL     1     180.747 191.267 186.088  1.00  0.00    -0.000 C 
BRANCH   5   6
ATOM      6  C   UNL     1     181.464 190.243 186.991  1.00  0.00    -0.000 C 
BRANCH   6   7
ATOM      7  C   UNL     1     180.614 189.692 188.154  1.00  0.00    -0.000 C 
BRANCH   7   8
ATOM      8  C   UNL     1     179.257 190.389 188.352  1.00  0.00    -0.003 C 
ATOM      9  C   UNL     1     178.162 189.437 188.832  1.00  0.00     0.004 C 
ENDBRANCH   7   8
ENDBRANCH   6   7
ENDBRANCH   5   6
ENDBRANCH   4   5
ENDBRANCH   3   4
ENDBRANCH   2   3
ENDBRANCH   1   2
BRANCH   1  10
ATOM     10  C   UNL     1     178.477 188.152 184.663  1.00  0.00     0.000 C 
BRANCH  10  11
ATOM     11  C   UNL     1     178.928 187.291 185.852  1.00  0.00     0.000 C 
BRANCH  11  12
ATOM     12  C   UNL     1     180.399 186.851 185.748  1.00  0.00     0.000 C 
BRANCH  12  13
ATOM     13  C   UNL     1     181.086 187.187 184.409  1.00  0.00     0.000 C 
BRANCH  13  14
ATOM     14  C   UNL     1     182.556 187.637 184.521  1.00  0.00     0.002 C 
BRANCH  14  15
ATOM     15  C   UNL     1     183.262 187.228 185.828  1.00  0.00     0.028 C 
BRANCH  15  16
ATOM     16  C   UNL     1     184.285 186.101 185.651  1.00  0.00     0.156 C 
BRANCH  16  17
ATOM     17  O   UNL     1     183.636 184.904 185.318  1.00  0.00    -0.396 OA
ATOM     18  H   UNL     1     183.568 184.895 184.329  1.00  0.00     0.210 HD
ENDBRANCH  16  17
ENDBRANCH  15  16
ENDBRANCH  14  15
ENDBRANCH  13  14
ENDBRANCH  12  13
ENDBRANCH  11  12
ENDBRANCH  10  11
ENDBRANCH   1  10
TORSDOF 15
ENDMDL
MODEL 6
REMARK VINA RESULT:     0.020      7.023      9.479
REMARK INTER + INTRA:          -2.972
REMARK INTER:                   0.000
REMARK INTRA:                  -2.972
REMARK UNBOUND:                -3.009
REMARK SMILES CCCCCCCCCCCCCCCCO
REMARK SMILES IDX 9 1 8 2 7 3 6 4 5 5 4 6 3 7 2 8 1 9 10 10 11 11 12 12 13 13
REMARK SMILES IDX 14 14 15 15 16 16 17 17
REMARK H PARENT 17 18
REMARK Flexibility Score: inf
ROOT
ATOM      1  C   UNL     1     182.492 187.880 191.451  1.00  0.00     0.000 C 
ENDROOT
BRANCH   1   2
ATOM      2  C   UNL     1     183.200 186.656 192.048  1.00  0.00    -0.000 C 
BRANCH   2   3
ATOM      3  C   UNL     1     182.340 185.915 193.088  1.00  0.00    -0.000 C 
BRANCH   3   4
ATOM      4  C   UNL     1     182.987 185.761 194.479  1.00  0.00    -0.000 C 
BRANCH   4   5
ATOM      5  C   UNL     1     182.382 186.652 195.582  1.00  0.00    -0.000 C 
BRANCH   5   6
ATOM      6  C   UNL     1     183.274 187.828 196.028  1.00  0.00    -0.000 C 
BRANCH   6   7
ATOM      7  C   UNL     1     182.899 189.197 195.424  1.00  0.00    -0.000 C 
BRANCH   7   8
ATOM      8  C   UNL     1     183.874 189.722 194.357  1.00  0.00    -0.003 C 
ATOM      9  C   UNL     1     185.165 188.908 194.275  1.00  0.00     0.004 C 
ENDBRANCH   7   8
ENDBRANCH   6   7
ENDBRANCH   5   6
ENDBRANCH   4   5
ENDBRANCH   3   4
ENDBRANCH   2   3
ENDBRANCH   1   2
BRANCH   1  10
ATOM     10  C   UNL     1     181.023 187.931 191.886  1.00  0.00     0.000 C 
BRANCH  10  11
ATOM     11  C   UNL     1     180.662 189.314 192.447  1.00  0.00     0.000 C 
BRANCH  11  12
ATOM     12  C   UNL     1     179.678 189.242 193.629  1.00  0.00     0.000 C 
BRANCH  12  13
ATOM     13  C   UNL     1     179.212 187.821 194.002  1.00  0.00     0.000 C 
BRANCH  13  14
ATOM     14  C   UNL     1     178.832 187.624 195.483  1.00  0.00     0.002 C 
BRANCH  14  15
ATOM     15  C   UNL     1     179.320 188.735 196.432  1.00  0.00     0.028 C 
BRANCH  15  16
ATOM     16  C   UNL     1     179.779 188.220 197.801  1.00  0.00     0.156 C 
BRANCH  16  17
ATOM     17  O   UNL     1     180.791 189.042 198.315  1.00  0.00    -0.396 OA
ATOM     18  H   UNL     1     180.719 188.981 199.302  1.00  0.00     0.210 HD
ENDBRANCH  16  17
ENDBRANCH  15  16
ENDBRANCH  14  15
ENDBRANCH  13  14
ENDBRANCH  12  13
ENDBRANCH  11  12
ENDBRANCH  10  11
ENDBRANCH   1  10
TORSDOF 15
ENDMDL
MODEL 7
REMARK VINA RESULT:     0.023      5.151      7.890
REMARK INTER + INTRA:          -2.966
REMARK INTER:                   0.000
REMARK INTRA:                  -2.966
REMARK UNBOUND:                -3.009
REMARK SMILES CCCCCCCCCCCCCCCCO
REMARK SMILES IDX 9 1 8 2 7 3 6 4 5 5 4 6 3 7 2 8 1 9 10 10 11 11 12 12 13 13
REMARK SMILES IDX 14 14 15 15 16 16 17 17
REMARK H PARENT 17 18
REMARK Flexibility Score: inf
ROOT
ATOM      1  C   UNL     1     180.712 187.054 184.075  1.00  0.00     0.000 C 
ENDROOT
BRANCH   1   2
ATOM      2  C   UNL     1     180.465 186.719 185.553  1.00  0.00    -0.000 C 
BRANCH   2   3
ATOM      3  C   UNL     1     180.171 187.965 186.407  1.00  0.00    -0.000 C 
BRANCH   3   4
ATOM      4  C   UNL     1     179.769 189.223 185.611  1.00  0.00    -0.000 C 
BRANCH   4   5
ATOM      5  C   UNL     1     178.306 189.672 185.795  1.00  0.00    -0.000 C 
BRANCH   5   6
ATOM      6  C   UNL     1     177.526 189.897 184.484  1.00  0.00    -0.000 C 
BRANCH   6   7
ATOM      7  C   UNL     1     178.370 189.799 183.197  1.00  0.00    -0.000 C 
BRANCH   7   8
ATOM      8  C   UNL     1     177.565 189.536 181.913  1.00  0.00    -0.003 C 
ATOM      9  C   UNL     1     178.344 188.727 180.876  1.00  0.00     0.004 C 
ENDBRANCH   7   8
ENDBRANCH   6   7
ENDBRANCH   5   6
ENDBRANCH   4   5
ENDBRANCH   3   4
ENDBRANCH   2   3
ENDBRANCH   1   2
BRANCH   1  10
ATOM     10  C   UNL     1     179.762 186.265 183.166  1.00  0.00     0.000 C 
BRANCH  10  11
ATOM     11  C   UNL     1     178.617 185.641 183.977  1.00  0.00     0.000 C 
BRANCH  11  12
ATOM     12  C   UNL     1     177.238 186.217 183.607  1.00  0.00     0.000 C 
BRANCH  12  13
ATOM     13  C   UNL     1     176.304 186.485 184.803  1.00  0.00     0.000 C 
BRANCH  13  14
ATOM     14  C   UNL     1     176.867 186.078 186.179  1.00  0.00     0.002 C 
BRANCH  14  15
ATOM     15  C   UNL     1     176.400 186.954 187.357  1.00  0.00     0.028 C 
BRANCH  15  16
ATOM     16  C   UNL     1     177.316 186.879 188.583  1.00  0.00     0.156 C 
BRANCH  16  17
ATOM     17  O   UNL     1     177.648 188.168 189.021  1.00  0.00    -0.396 OA
ATOM     18  H   UNL     1     176.854 188.733 188.839  1.00  0.00     0.210 HD
ENDBRANCH  16  17
ENDBRANCH  15  16
ENDBRANCH  14  15
ENDBRANCH  13  14
ENDBRANCH  12  13
ENDBRANCH  11  12
ENDBRANCH  10  11
ENDBRANCH   1  10
TORSDOF 15
ENDMDL
MODEL 8
REMARK VINA RESULT:     0.027     10.624     12.658
REMARK INTER + INTRA:          -2.960
REMARK INTER:                   0.000
REMARK INTRA:                  -2.960
REMARK UNBOUND:                -3.009
REMARK SMILES CCCCCCCCCCCCCCCCO
REMARK SMILES IDX 9 1 8 2 7 3 6 4 5 5 4 6 3 7 2 8 1 9 10 10 11 11 12 12 13 13
REMARK SMILES IDX 14 14 15 15 16 16 17 17
REMARK H PARENT 17 18
REMARK Flexibility Score: inf
ROOT
ATOM      1  C   UNL     1     183.341 191.719 195.576  1.00  0.00     0.000 C 
ENDROOT
BRANCH   1   2
ATOM      2  C   UNL     1     184.564 191.724 194.649  1.00  0.00    -0.000 C 
BRANCH   2   3
ATOM      3  C   UNL     1     184.324 190.954 193.338  1.00  0.00    -0.000 C 
BRANCH   3   4
ATOM      4  C   UNL     1     184.679 191.728 192.052  1.00  0.00    -0.000 C 
BRANCH   4   5
ATOM      5  C   UNL     1     183.472 192.296 191.279  1.00  0.00    -0.000 C 
BRANCH   5   6
ATOM      6  C   UNL     1     182.142 191.552 191.512  1.00  0.00    -0.000 C 
BRANCH   6   7
ATOM      7  C   UNL     1     181.021 192.402 192.143  1.00  0.00    -0.000 C 
BRANCH   7   8
ATOM      8  C   UNL     1     180.112 191.647 193.128  1.00  0.00    -0.003 C 
ATOM      9  C   UNL     1     180.634 190.252 193.471  1.00  0.00     0.004 C 
ENDBRANCH   7   8
ENDBRANCH   6   7
ENDBRANCH   5   6
ENDBRANCH   4   5
ENDBRANCH   3   4
ENDBRANCH   2   3
ENDBRANCH   1   2
BRANCH   1  10
ATOM     10  C   UNL     1     182.575 193.044 195.482  1.00  0.00     0.000 C 
BRANCH  10  11
ATOM     11  C   UNL     1     183.516 194.200 195.114  1.00  0.00     0.000 C 
BRANCH  11  12
ATOM     12  C   UNL     1     183.022 195.012 193.903  1.00  0.00     0.000 C 
BRANCH  12  13
ATOM     13  C   UNL     1     184.131 195.496 192.948  1.00  0.00     0.000 C 
BRANCH  13  14
ATOM     14  C   UNL     1     185.566 195.117 193.365  1.00  0.00     0.002 C 
BRANCH  14  15
ATOM     15  C   UNL     1     186.553 194.927 192.198  1.00  0.00     0.028 C 
BRANCH  15  16
ATOM     16  C   UNL     1     185.949 195.232 190.823  1.00  0.00     0.156 C 
BRANCH  16  17
ATOM     17  O   UNL     1     186.219 194.186 189.930  1.00  0.00    -0.396 OA
ATOM     18  H   UNL     1     185.420 194.110 189.348  1.00  0.00     0.210 HD
ENDBRANCH  16  17
ENDBRANCH  15  16
ENDBRANCH  14  15
ENDBRANCH  13  14
ENDBRANCH  12  13
ENDBRANCH  11  12
ENDBRANCH  10  11
ENDBRANCH   1  10
TORSDOF 15
ENDMDL
MODEL 9
REMARK VINA RESULT:     0.027      3.328      5.758
REMARK INTER + INTRA:          -2.959
REMARK INTER:                   0.000
REMARK INTRA:                  -2.959
REMARK UNBOUND:                -3.009
REMARK SMILES CCCCCCCCCCCCCCCCO
REMARK SMILES IDX 9 1 8 2 7 3 6 4 5 5 4 6 3 7 2 8 1 9 10 10 11 11 12 12 13 13
REMARK SMILES IDX 14 14 15 15 16 16 17 17
REMARK H PARENT 17 18
REMARK Flexibility Score: inf
ROOT
ATOM      1  C   UNL     1     179.076 182.426 191.387  1.00  0.00     0.000 C 
ENDROOT
BRANCH   1   2
ATOM      2  C   UNL     1     178.227 182.940 192.559  1.00  0.00    -0.000 C 
BRANCH   2   3
ATOM      3  C   UNL     1     176.890 183.554 192.105  1.00  0.00    -0.000 C 
BRANCH   3   4
ATOM      4  C   UNL     1     175.634 182.929 192.745  1.00  0.00    -0.000 C 
BRANCH   4   5
ATOM      5  C   UNL     1     174.731 182.141 191.776  1.00  0.00    -0.000 C 
BRANCH   5   6
ATOM      6  C   UNL     1     174.837 180.607 191.890  1.00  0.00    -0.000 C 
BRANCH   6   7
ATOM      7  C   UNL     1     175.829 179.948 190.910  1.00  0.00    -0.000 C 
BRANCH   7   8
ATOM      8  C   UNL     1     177.075 179.331 191.567  1.00  0.00    -0.003 C 
ATOM      9  C   UNL     1     177.057 179.432 193.092  1.00  0.00     0.004 C 
ENDBRANCH   7   8
ENDBRANCH   6   7
ENDBRANCH   5   6
ENDBRANCH   4   5
ENDBRANCH   3   4
ENDBRANCH   2   3
ENDBRANCH   1   2
BRANCH   1  10
ATOM     10  C   UNL     1     178.507 182.904 190.046  1.00  0.00     0.000 C 
BRANCH  10  11
ATOM     11  C   UNL     1     178.477 181.761 189.022  1.00  0.00     0.000 C 
BRANCH  11  12
ATOM     12  C   UNL     1     177.262 181.834 188.080  1.00  0.00     0.000 C 
BRANCH  12  13
ATOM     13  C   UNL     1     176.213 182.900 188.452  1.00  0.00     0.000 C 
BRANCH  13  14
ATOM     14  C   UNL     1     174.755 182.532 188.111  1.00  0.00     0.002 C 
BRANCH  14  15
ATOM     15  C   UNL     1     174.550 181.090 187.609  1.00  0.00     0.028 C 
BRANCH  15  16
ATOM     16  C   UNL     1     173.297 180.412 188.172  1.00  0.00     0.156 C 
BRANCH  16  17
ATOM     17  O   UNL     1     172.629 181.277 189.050  1.00  0.00    -0.396 OA
ATOM     18  H   UNL     1     172.197 181.965 188.481  1.00  0.00     0.210 HD
ENDBRANCH  16  17
ENDBRANCH  15  16
ENDBRANCH  14  15
ENDBRANCH  13  14
ENDBRANCH  12  13
ENDBRANCH  11  12
ENDBRANCH  10  11
ENDBRANCH   1  10
TORSDOF 15
ENDMDL
