MODEL 1
REMARK VINA RESULT:    -5.060      0.000      0.000
REMARK INTER + INTRA:          -6.338
REMARK INTER:                  -6.095
REMARK INTRA:                  -0.243
REMARK UNBOUND:                -0.243
REMARK SMILES O=c1c(O)c(-c2ccc(O)c(O)c2)oc2cc(O)cc(O)c12
REMARK SMILES IDX 5 1 3 2 2 3 1 4 22 5 20 6 19 7 17 8 16 9 15 10 14 11 6 12
REMARK SMILES IDX 7 13 8 14 9 15 13 16 11 17 10 18 12 20 4 22 21 24 18 26
REMARK H PARENT 10 19 12 21 4 23 21 25 18 27
REMARK Flexibility Score: inf
ROOT
ATOM      1  C   UNL     1       1.639   2.305   8.149  1.00  0.00     0.180 A 
ATOM      2  C   UNL     1       1.936   3.404   7.325  1.00  0.00     0.208 A 
ATOM      3  C   UNL     1       3.280   3.757   7.120  1.00  0.00     0.238 A 
ATOM      4  O   UNL     1       3.542   4.694   6.323  1.00  0.00    -0.285 OA
ATOM      5  C   UNL     1       4.307   3.043   7.787  1.00  0.00     0.111 A 
ATOM      6  C   UNL     1       5.699   3.344   7.689  1.00  0.00     0.134 A 
ATOM      7  C   UNL     1       6.631   2.502   8.308  1.00  0.00     0.093 A 
ATOM      8  C   UNL     1       6.222   1.411   9.074  1.00  0.00     0.123 A 
ATOM      9  C   UNL     1       4.861   1.141   9.222  1.00  0.00     0.094 A 
ATOM     10  C   UNL     1       3.908   1.939   8.585  1.00  0.00     0.146 A 
ATOM     11  O   UNL     1       2.624   1.634   8.734  1.00  0.00    -0.452 OA
ENDROOT
BRANCH   1  12
ATOM     12  C   UNL     1       0.248   1.862   8.400  1.00  0.00     0.025 A 
ATOM     13  C   UNL     1      -0.234   0.709   7.760  1.00  0.00     0.016 A 
ATOM     14  C   UNL     1      -1.550   0.284   7.965  1.00  0.00     0.051 A 
ATOM     15  C   UNL     1      -2.405   1.013   8.800  1.00  0.00     0.157 A 
ATOM     16  C   UNL     1      -0.621   2.602   9.220  1.00  0.00     0.062 A 
ATOM     17  C   UNL     1      -1.941   2.178   9.426  1.00  0.00     0.158 A 
BRANCH  15  18
ATOM     18  O   UNL     1      -3.716   0.592   9.010  1.00  0.00    -0.504 OA
ATOM     19  H   UNL     1      -4.199   0.777   9.881  1.00  0.00     0.293 HD
ENDBRANCH  15  18
BRANCH  17  20
ATOM     20  O   UNL     1      -2.799   2.910  10.245  1.00  0.00    -0.504 OA
ATOM     21  H   UNL     1      -3.191   3.795   9.945  1.00  0.00     0.293 HD
ENDBRANCH  17  20
ENDBRANCH   1  12
BRANCH   2  22
ATOM     22  O   UNL     1       0.906   4.142   6.738  1.00  0.00    -0.502 OA
ATOM     23  H   UNL     1       1.078   4.864   6.048  1.00  0.00     0.293 HD
ENDBRANCH   2  22
BRANCH   6  24
ATOM     24  O   UNL     1       6.215   4.459   7.023  1.00  0.00    -0.507 OA
ATOM     25  H   UNL     1       6.546   5.298   7.472  1.00  0.00     0.293 HD
ENDBRANCH   6  24
BRANCH   8  26
ATOM     26  O   UNL     1       7.176   0.606   9.691  1.00  0.00    -0.508 OA
ATOM     27  H   UNL     1       7.646  -0.139   9.190  1.00  0.00     0.293 HD
ENDBRANCH   8  26
TORSDOF 6
ENDMDL
MODEL 2
REMARK VINA RESULT:    -4.726      1.645      3.237
REMARK INTER + INTRA:          -5.936
REMARK INTER:                  -5.606
REMARK INTRA:                  -0.330
REMARK UNBOUND:                -0.243
REMARK SMILES O=c1c(O)c(-c2ccc(O)c(O)c2)oc2cc(O)cc(O)c12
REMARK SMILES IDX 5 1 3 2 2 3 1 4 22 5 20 6 19 7 17 8 16 9 15 10 14 11 6 12
REMARK SMILES IDX 7 13 8 14 9 15 13 16 11 17 10 18 12 20 4 22 21 24 18 26
REMARK H PARENT 10 19 12 21 4 23 21 25 18 27
REMARK Flexibility Score: inf
ROOT
ATOM      1  C   UNL     1       2.514   0.830   9.099  1.00  0.00     0.180 A 
ATOM      2  C   UNL     1       3.195  -0.237   9.709  1.00  0.00     0.208 A 
ATOM      3  C   UNL     1       4.599  -0.240   9.702  1.00  0.00     0.238 A 
ATOM      4  O   UNL     1       5.203  -1.159  10.315  1.00  0.00    -0.285 OA
ATOM      5  C   UNL     1       5.305   0.793   9.037  1.00  0.00     0.111 A 
ATOM      6  C   UNL     1       6.726   0.865   8.927  1.00  0.00     0.134 A 
ATOM      7  C   UNL     1       7.316   1.990   8.338  1.00  0.00     0.093 A 
ATOM      8  C   UNL     1       6.539   3.012   7.796  1.00  0.00     0.123 A 
ATOM      9  C   UNL     1       5.147   2.925   7.848  1.00  0.00     0.094 A 
ATOM     10  C   UNL     1       4.529   1.834   8.464  1.00  0.00     0.146 A 
ATOM     11  O   UNL     1       3.203   1.801   8.511  1.00  0.00    -0.452 OA
ENDROOT
BRANCH   1  12
ATOM     12  C   UNL     1       1.035   0.912   9.078  1.00  0.00     0.025 A 
ATOM     13  C   UNL     1       0.329   0.362   7.997  1.00  0.00     0.016 A 
ATOM     14  C   UNL     1      -1.065   0.446   7.945  1.00  0.00     0.051 A 
ATOM     15  C   UNL     1      -1.770   1.094   8.966  1.00  0.00     0.157 A 
ATOM     16  C   UNL     1       0.324   1.581  10.090  1.00  0.00     0.062 A 
ATOM     17  C   UNL     1      -1.074   1.667  10.039  1.00  0.00     0.158 A 
BRANCH  15  18
ATOM     18  O   UNL     1      -3.161   1.178   8.920  1.00  0.00    -0.504 OA
ATOM     19  H   UNL     1      -3.733   0.374   8.691  1.00  0.00     0.293 HD
ENDBRANCH  15  18
BRANCH  17  20
ATOM     20  O   UNL     1      -1.779   2.325  11.046  1.00  0.00    -0.504 OA
ATOM     21  H   UNL     1      -1.992   1.870  11.927  1.00  0.00     0.293 HD
ENDBRANCH  17  20
ENDBRANCH   1  12
BRANCH   2  22
ATOM     22  O   UNL     1       2.481  -1.285  10.294  1.00  0.00    -0.502 OA
ATOM     23  H   UNL     1       2.743  -2.257  10.173  1.00  0.00     0.293 HD
ENDBRANCH   2  22
BRANCH   6  24
ATOM     24  O   UNL     1       7.597  -0.141   9.355  1.00  0.00    -0.507 OA
ATOM     25  H   UNL     1       8.464   0.016   9.846  1.00  0.00     0.293 HD
ENDBRANCH   6  24
BRANCH   8  26
ATOM     26  O   UNL     1       7.159   4.108   7.201  1.00  0.00    -0.508 OA
ATOM     27  H   UNL     1       7.810   4.692   7.713  1.00  0.00     0.293 HD
ENDBRANCH   8  26
TORSDOF 6
ENDMDL
MODEL 3
REMARK VINA RESULT:    -4.588      2.254      6.838
REMARK INTER + INTRA:          -5.770
REMARK INTER:                  -5.447
REMARK INTRA:                  -0.323
REMARK UNBOUND:                -0.243
REMARK SMILES O=c1c(O)c(-c2ccc(O)c(O)c2)oc2cc(O)cc(O)c12
REMARK SMILES IDX 5 1 3 2 2 3 1 4 22 5 20 6 19 7 17 8 16 9 15 10 14 11 6 12
REMARK SMILES IDX 7 13 8 14 9 15 13 16 11 17 10 18 12 20 4 22 21 24 18 26
REMARK H PARENT 10 19 12 21 4 23 21 25 18 27
REMARK Flexibility Score: inf
ROOT
ATOM      1  C   UNL     1       3.420   1.821   8.766  1.00  0.00     0.180 A 
ATOM      2  C   UNL     1       2.364   2.657   8.365  1.00  0.00     0.208 A 
ATOM      3  C   UNL     1       1.075   2.114   8.243  1.00  0.00     0.238 A 
ATOM      4  O   UNL     1       0.121   2.882   7.957  1.00  0.00    -0.285 OA
ATOM      5  C   UNL     1       0.868   0.730   8.467  1.00  0.00     0.111 A 
ATOM      6  C   UNL     1      -0.387   0.064   8.326  1.00  0.00     0.134 A 
ATOM      7  C   UNL     1      -0.494  -1.288   8.678  1.00  0.00     0.093 A 
ATOM      8  C   UNL     1       0.619  -2.013   9.102  1.00  0.00     0.123 A 
ATOM      9  C   UNL     1       1.862  -1.385   9.190  1.00  0.00     0.094 A 
ATOM     10  C   UNL     1       1.993  -0.029   8.883  1.00  0.00     0.146 A 
ATOM     11  O   UNL     1       3.189   0.535   9.001  1.00  0.00    -0.452 OA
ENDROOT
BRANCH   1  12
ATOM     12  C   UNL     1       4.803   2.324   8.932  1.00  0.00     0.025 A 
ATOM     13  C   UNL     1       5.207   2.832  10.177  1.00  0.00     0.016 A 
ATOM     14  C   UNL     1       6.500   3.331  10.352  1.00  0.00     0.051 A 
ATOM     15  C   UNL     1       7.402   3.343   9.281  1.00  0.00     0.157 A 
ATOM     16  C   UNL     1       5.706   2.358   7.855  1.00  0.00     0.062 A 
ATOM     17  C   UNL     1       7.003   2.860   8.028  1.00  0.00     0.158 A 
BRANCH  15  18
ATOM     18  O   UNL     1       8.694   3.838   9.451  1.00  0.00    -0.504 OA
ATOM     19  H   UNL     1       8.900   4.557  10.135  1.00  0.00     0.293 HD
ENDBRANCH  15  18
BRANCH  17  20
ATOM     20  O   UNL     1       7.899   2.887   6.961  1.00  0.00    -0.504 OA
ATOM     21  H   UNL     1       7.587   2.762   6.004  1.00  0.00     0.293 HD
ENDBRANCH  17  20
ENDBRANCH   1  12
BRANCH   2  22
ATOM     22  O   UNL     1       2.603   4.002   8.075  1.00  0.00    -0.502 OA
ATOM     23  H   UNL     1       1.854   4.667   7.921  1.00  0.00     0.293 HD
ENDBRANCH   2  22
BRANCH   6  24
ATOM     24  O   UNL     1      -1.544   0.669   7.828  1.00  0.00    -0.507 OA
ATOM     25  H   UNL     1      -2.228   1.156   8.386  1.00  0.00     0.293 HD
ENDBRANCH   6  24
BRANCH   8  26
ATOM     26  O   UNL     1       0.479  -3.360   9.426  1.00  0.00    -0.508 OA
ATOM     27  H   UNL     1       1.281  -3.935   9.658  1.00  0.00     0.293 HD
ENDBRANCH   8  26
TORSDOF 6
ENDMDL
MODEL 4
REMARK VINA RESULT:    -4.569      1.232      2.883
REMARK INTER + INTRA:          -5.747
REMARK INTER:                  -5.457
REMARK INTRA:                  -0.290
REMARK UNBOUND:                -0.243
REMARK SMILES O=c1c(O)c(-c2ccc(O)c(O)c2)oc2cc(O)cc(O)c12
REMARK SMILES IDX 5 1 3 2 2 3 1 4 22 5 20 6 19 7 17 8 16 9 15 10 14 11 6 12
REMARK SMILES IDX 7 13 8 14 9 15 13 16 11 17 10 18 12 20 4 22 21 24 18 26
REMARK H PARENT 10 19 12 21 4 23 21 25 18 27
REMARK Flexibility Score: inf
ROOT
ATOM      1  C   UNL     1       2.194   1.588   8.734  1.00  0.00     0.180 A 
ATOM      2  C   UNL     1       3.070   0.658   9.318  1.00  0.00     0.208 A 
ATOM      3  C   UNL     1       4.453   0.889   9.249  1.00  0.00     0.238 A 
ATOM      4  O   UNL     1       5.228   0.092   9.838  1.00  0.00    -0.285 OA
ATOM      5  C   UNL     1       4.946   2.018   8.549  1.00  0.00     0.111 A 
ATOM      6  C   UNL     1       6.329   2.326   8.376  1.00  0.00     0.134 A 
ATOM      7  C   UNL     1       6.696   3.527   7.756  1.00  0.00     0.093 A 
ATOM      8  C   UNL     1       5.735   4.398   7.246  1.00  0.00     0.123 A 
ATOM      9  C   UNL     1       4.381   4.080   7.360  1.00  0.00     0.094 A 
ATOM     10  C   UNL     1       3.982   2.908   8.007  1.00  0.00     0.146 A 
ATOM     11  O   UNL     1       2.684   2.654   8.113  1.00  0.00    -0.452 OA
ENDROOT
BRANCH   1  12
ATOM     12  C   UNL     1       0.723   1.421   8.779  1.00  0.00     0.025 A 
ATOM     13  C   UNL     1       0.100   0.552   7.870  1.00  0.00     0.016 A 
ATOM     14  C   UNL     1      -1.289   0.394   7.879  1.00  0.00     0.051 A 
ATOM     15  C   UNL     1      -2.075   1.115   8.787  1.00  0.00     0.157 A 
ATOM     16  C   UNL     1      -0.072   2.159   9.674  1.00  0.00     0.062 A 
ATOM     17  C   UNL     1      -1.465   2.003   9.683  1.00  0.00     0.158 A 
BRANCH  15  18
ATOM     18  O   UNL     1      -3.459   0.960   8.802  1.00  0.00    -0.504 OA
ATOM     19  H   UNL     1      -4.059   1.604   9.304  1.00  0.00     0.293 HD
ENDBRANCH  15  18
BRANCH  17  20
ATOM     20  O   UNL     1      -2.252   2.730  10.576  1.00  0.00    -0.504 OA
ATOM     21  H   UNL     1      -3.262   2.750  10.496  1.00  0.00     0.293 HD
ENDBRANCH  17  20
ENDBRANCH   1  12
BRANCH   2  22
ATOM     22  O   UNL     1       2.567  -0.489   9.939  1.00  0.00    -0.502 OA
ATOM     23  H   UNL     1       2.218  -1.283   9.415  1.00  0.00     0.293 HD
ENDBRANCH   2  22
BRANCH   6  24
ATOM     24  O   UNL     1       7.374   1.485   8.770  1.00  0.00    -0.507 OA
ATOM     25  H   UNL     1       8.287   1.461   8.344  1.00  0.00     0.293 HD
ENDBRANCH   6  24
BRANCH   8  26
ATOM     26  O   UNL     1       6.137   5.575   6.618  1.00  0.00    -0.508 OA
ATOM     27  H   UNL     1       6.782   6.219   7.063  1.00  0.00     0.293 HD
ENDBRANCH   8  26
TORSDOF 6
ENDMDL
MODEL 5
REMARK VINA RESULT:    -4.563      2.852      4.981
REMARK INTER + INTRA:          -5.740
REMARK INTER:                  -5.458
REMARK INTRA:                  -0.282
REMARK UNBOUND:                -0.243
REMARK SMILES O=c1c(O)c(-c2ccc(O)c(O)c2)oc2cc(O)cc(O)c12
REMARK SMILES IDX 5 1 3 2 2 3 1 4 22 5 20 6 19 7 17 8 16 9 15 10 14 11 6 12
REMARK SMILES IDX 7 13 8 14 9 15 13 16 11 17 10 18 12 20 4 22 21 24 18 26
REMARK H PARENT 10 19 12 21 4 23 21 25 18 27
REMARK Flexibility Score: inf
ROOT
ATOM      1  C   UNL     1       1.116   2.251   8.422  1.00  0.00     0.180 A 
ATOM      2  C   UNL     1       2.395   2.185   9.000  1.00  0.00     0.208 A 
ATOM      3  C   UNL     1       2.935   0.928   9.314  1.00  0.00     0.238 A 
ATOM      4  O   UNL     1       4.110   0.870   9.762  1.00  0.00    -0.285 OA
ATOM      5  C   UNL     1       2.167  -0.244   9.101  1.00  0.00     0.111 A 
ATOM      6  C   UNL     1       2.597  -1.566   9.426  1.00  0.00     0.134 A 
ATOM      7  C   UNL     1       1.795  -2.659   9.072  1.00  0.00     0.093 A 
ATOM      8  C   UNL     1       0.554  -2.475   8.464  1.00  0.00     0.123 A 
ATOM      9  C   UNL     1       0.100  -1.184   8.192  1.00  0.00     0.094 A 
ATOM     10  C   UNL     1       0.893  -0.076   8.499  1.00  0.00     0.146 A 
ATOM     11  O   UNL     1       0.433   1.133   8.203  1.00  0.00    -0.452 OA
ENDROOT
BRANCH   1  12
ATOM     12  C   UNL     1       0.486   3.538   8.048  1.00  0.00     0.025 A 
ATOM     13  C   UNL     1       0.890   4.187   6.871  1.00  0.00     0.016 A 
ATOM     14  C   UNL     1       0.325   5.413   6.508  1.00  0.00     0.051 A 
ATOM     15  C   UNL     1      -0.640   6.014   7.326  1.00  0.00     0.157 A 
ATOM     16  C   UNL     1      -0.468   4.156   8.876  1.00  0.00     0.062 A 
ATOM     17  C   UNL     1      -1.034   5.386   8.515  1.00  0.00     0.158 A 
BRANCH  15  18
ATOM     18  O   UNL     1      -1.208   7.235   6.968  1.00  0.00    -0.504 OA
ATOM     19  H   UNL     1      -1.543   7.888   7.666  1.00  0.00     0.293 HD
ENDBRANCH  15  18
BRANCH  17  20
ATOM     20  O   UNL     1      -1.985   5.994   9.334  1.00  0.00    -0.504 OA
ATOM     21  H   UNL     1      -2.336   5.537  10.168  1.00  0.00     0.293 HD
ENDBRANCH  17  20
ENDBRANCH   1  12
BRANCH   2  22
ATOM     22  O   UNL     1       3.105   3.356   9.272  1.00  0.00    -0.502 OA
ATOM     23  H   UNL     1       3.838   3.399   9.971  1.00  0.00     0.293 HD
ENDBRANCH   2  22
BRANCH   6  24
ATOM     24  O   UNL     1       3.779  -1.860  10.112  1.00  0.00    -0.507 OA
ATOM     25  H   UNL     1       3.883  -1.848  11.115  1.00  0.00     0.293 HD
ENDBRANCH   6  24
BRANCH   8  26
ATOM     26  O   UNL     1      -0.225  -3.584   8.142  1.00  0.00    -0.508 OA
ATOM     27  H   UNL     1      -1.032  -3.506   7.534  1.00  0.00     0.293 HD
ENDBRANCH   8  26
TORSDOF 6
ENDMDL
MODEL 6
REMARK VINA RESULT:    -4.557      8.484     11.385
REMARK INTER + INTRA:          -5.732
REMARK INTER:                  -5.409
REMARK INTRA:                  -0.324
REMARK UNBOUND:                -0.243
REMARK SMILES O=c1c(O)c(-c2ccc(O)c(O)c2)oc2cc(O)cc(O)c12
REMARK SMILES IDX 5 1 3 2 2 3 1 4 22 5 20 6 19 7 17 8 16 9 15 10 14 11 6 12
REMARK SMILES IDX 7 13 8 14 9 15 13 16 11 17 10 18 12 20 4 22 21 24 18 26
REMARK H PARENT 10 19 12 21 4 23 21 25 18 27
REMARK Flexibility Score: inf
ROOT
ATOM      1  C   UNL     1      -4.119   6.500   2.791  1.00  0.00     0.180 A 
ATOM      2  C   UNL     1      -3.287   6.656   3.912  1.00  0.00     0.208 A 
ATOM      3  C   UNL     1      -3.863   6.646   5.193  1.00  0.00     0.238 A 
ATOM      4  O   UNL     1      -3.106   6.711   6.196  1.00  0.00    -0.285 OA
ATOM      5  C   UNL     1      -5.269   6.538   5.334  1.00  0.00     0.111 A 
ATOM      6  C   UNL     1      -5.964   6.563   6.581  1.00  0.00     0.134 A 
ATOM      7  C   UNL     1      -7.347   6.340   6.604  1.00  0.00     0.093 A 
ATOM      8  C   UNL     1      -8.068   6.157   5.425  1.00  0.00     0.123 A 
ATOM      9  C   UNL     1      -7.407   6.186   4.197  1.00  0.00     0.094 A 
ATOM     10  C   UNL     1      -6.023   6.368   4.143  1.00  0.00     0.146 A 
ATOM     11  O   UNL     1      -5.430   6.367   2.955  1.00  0.00    -0.452 OA
ENDROOT
BRANCH   1  12
ATOM     12  C   UNL     1      -3.584   6.484   1.409  1.00  0.00     0.025 A 
ATOM     13  C   UNL     1      -3.444   7.693   0.711  1.00  0.00     0.016 A 
ATOM     14  C   UNL     1      -2.962   7.702  -0.601  1.00  0.00     0.051 A 
ATOM     15  C   UNL     1      -2.628   6.500  -1.237  1.00  0.00     0.157 A 
ATOM     16  C   UNL     1      -3.268   5.278   0.759  1.00  0.00     0.062 A 
ATOM     17  C   UNL     1      -2.785   5.285  -0.557  1.00  0.00     0.158 A 
BRANCH  15  18
ATOM     18  O   UNL     1      -2.144   6.503  -2.544  1.00  0.00    -0.504 OA
ATOM     19  H   UNL     1      -1.284   6.980  -2.789  1.00  0.00     0.293 HD
ENDBRANCH  15  18
BRANCH  17  20
ATOM     20  O   UNL     1      -2.466   4.089  -1.199  1.00  0.00    -0.504 OA
ATOM     21  H   UNL     1      -3.179   3.513  -1.631  1.00  0.00     0.293 HD
ENDBRANCH  17  20
ENDBRANCH   1  12
BRANCH   2  22
ATOM     22  O   UNL     1      -1.912   6.838   3.749  1.00  0.00    -0.502 OA
ATOM     23  H   UNL     1      -1.363   7.422   4.368  1.00  0.00     0.293 HD
ENDBRANCH   2  22
BRANCH   6  24
ATOM     24  O   UNL     1      -5.356   6.824   7.812  1.00  0.00    -0.507 OA
ATOM     25  H   UNL     1      -4.914   7.694   8.064  1.00  0.00     0.293 HD
ENDBRANCH   6  24
BRANCH   8  26
ATOM     26  O   UNL     1      -9.445   5.956   5.485  1.00  0.00    -0.508 OA
ATOM     27  H   UNL     1     -10.046   6.163   4.696  1.00  0.00     0.293 HD
ENDBRANCH   8  26
TORSDOF 6
ENDMDL
MODEL 7
REMARK VINA RESULT:    -4.515      1.593      3.555
REMARK INTER + INTRA:          -5.682
REMARK INTER:                  -5.486
REMARK INTRA:                  -0.195
REMARK UNBOUND:                -0.243
REMARK SMILES O=c1c(O)c(-c2ccc(O)c(O)c2)oc2cc(O)cc(O)c12
REMARK SMILES IDX 5 1 3 2 2 3 1 4 22 5 20 6 19 7 17 8 16 9 15 10 14 11 6 12
REMARK SMILES IDX 7 13 8 14 9 15 13 16 11 17 10 18 12 20 4 22 21 24 18 26
REMARK H PARENT 10 19 12 21 4 23 21 25 18 27
REMARK Flexibility Score: inf
ROOT
ATOM      1  C   UNL     1       0.106   1.810   8.853  1.00  0.00     0.180 A 
ATOM      2  C   UNL     1       0.983   0.895   9.459  1.00  0.00     0.208 A 
ATOM      3  C   UNL     1       2.365   1.042   9.257  1.00  0.00     0.238 A 
ATOM      4  O   UNL     1       3.148   0.265   9.862  1.00  0.00    -0.285 OA
ATOM      5  C   UNL     1       2.850   2.066   8.407  1.00  0.00     0.111 A 
ATOM      6  C   UNL     1       4.226   2.279   8.095  1.00  0.00     0.134 A 
ATOM      7  C   UNL     1       4.596   3.390   7.327  1.00  0.00     0.093 A 
ATOM      8  C   UNL     1       3.638   4.258   6.807  1.00  0.00     0.123 A 
ATOM      9  C   UNL     1       2.285   4.029   7.060  1.00  0.00     0.094 A 
ATOM     10  C   UNL     1       1.887   2.951   7.854  1.00  0.00     0.146 A 
ATOM     11  O   UNL     1       0.591   2.781   8.088  1.00  0.00    -0.452 OA
ENDROOT
BRANCH   1  12
ATOM     12  C   UNL     1      -1.363   1.730   9.031  1.00  0.00     0.025 A 
ATOM     13  C   UNL     1      -2.019   2.709   9.795  1.00  0.00     0.016 A 
ATOM     14  C   UNL     1      -3.400   2.642   9.994  1.00  0.00     0.051 A 
ATOM     15  C   UNL     1      -4.142   1.589   9.446  1.00  0.00     0.157 A 
ATOM     16  C   UNL     1      -2.109   0.663   8.501  1.00  0.00     0.062 A 
ATOM     17  C   UNL     1      -3.494   0.594   8.702  1.00  0.00     0.158 A 
BRANCH  15  18
ATOM     18  O   UNL     1      -5.520   1.520   9.640  1.00  0.00    -0.504 OA
ATOM     19  H   UNL     1      -5.929   0.889  10.320  1.00  0.00     0.293 HD
ENDBRANCH  15  18
BRANCH  17  20
ATOM     20  O   UNL     1      -4.234  -0.461   8.170  1.00  0.00    -0.504 OA
ATOM     21  H   UNL     1      -3.872  -1.035   7.417  1.00  0.00     0.293 HD
ENDBRANCH  17  20
ENDBRANCH   1  12
BRANCH   2  22
ATOM     22  O   UNL     1       0.481  -0.155  10.232  1.00  0.00    -0.502 OA
ATOM     23  H   UNL     1       0.811  -1.108  10.135  1.00  0.00     0.293 HD
ENDBRANCH   2  22
BRANCH   6  24
ATOM     24  O   UNL     1       5.260   1.424   8.489  1.00  0.00    -0.507 OA
ATOM     25  H   UNL     1       5.442   1.136   9.438  1.00  0.00     0.293 HD
ENDBRANCH   6  24
BRANCH   8  26
ATOM     26  O   UNL     1       4.041   5.344   6.032  1.00  0.00    -0.508 OA
ATOM     27  H   UNL     1       4.546   5.216   5.163  1.00  0.00     0.293 HD
ENDBRANCH   8  26
TORSDOF 6
ENDMDL
MODEL 8
REMARK VINA RESULT:    -4.458     12.259     14.961
REMARK INTER + INTRA:          -5.614
REMARK INTER:                  -5.617
REMARK INTRA:                   0.004
REMARK UNBOUND:                -0.243
REMARK SMILES O=c1c(O)c(-c2ccc(O)c(O)c2)oc2cc(O)cc(O)c12
REMARK SMILES IDX 5 1 3 2 2 3 1 4 22 5 20 6 19 7 17 8 16 9 15 10 14 11 6 12
REMARK SMILES IDX 7 13 8 14 9 15 13 16 11 17 10 18 12 20 4 22 21 24 18 26
REMARK H PARENT 10 19 12 21 4 23 21 25 18 27
REMARK Flexibility Score: inf
ROOT
ATOM      1  C   UNL     1       0.033  -3.939  -2.674  1.00  0.00     0.180 A 
ATOM      2  C   UNL     1      -0.090  -5.077  -1.860  1.00  0.00     0.208 A 
ATOM      3  C   UNL     1      -1.302  -5.787  -1.860  1.00  0.00     0.238 A 
ATOM      4  O   UNL     1      -1.380  -6.847  -1.187  1.00  0.00    -0.285 OA
ATOM      5  C   UNL     1      -2.395  -5.317  -2.630  1.00  0.00     0.111 A 
ATOM      6  C   UNL     1      -3.683  -5.931  -2.670  1.00  0.00     0.134 A 
ATOM      7  C   UNL     1      -4.654  -5.439  -3.551  1.00  0.00     0.093 A 
ATOM      8  C   UNL     1      -4.408  -4.319  -4.344  1.00  0.00     0.123 A 
ATOM      9  C   UNL     1      -3.171  -3.678  -4.273  1.00  0.00     0.094 A 
ATOM     10  C   UNL     1      -2.168  -4.168  -3.432  1.00  0.00     0.146 A 
ATOM     11  O   UNL     1      -0.998  -3.541  -3.410  1.00  0.00    -0.452 OA
ENDROOT
BRANCH   1  12
ATOM     12  C   UNL     1       1.283  -3.148  -2.739  1.00  0.00     0.025 A 
ATOM     13  C   UNL     1       1.218  -1.748  -2.660  1.00  0.00     0.016 A 
ATOM     14  C   UNL     1       2.383  -0.979  -2.741  1.00  0.00     0.051 A 
ATOM     15  C   UNL     1       3.626  -1.599  -2.917  1.00  0.00     0.157 A 
ATOM     16  C   UNL     1       2.531  -3.764  -2.937  1.00  0.00     0.062 A 
ATOM     17  C   UNL     1       3.700  -2.995  -3.020  1.00  0.00     0.158 A 
BRANCH  15  18
ATOM     18  O   UNL     1       4.790  -0.837  -2.995  1.00  0.00    -0.504 OA
ATOM     19  H   UNL     1       4.927  -0.017  -2.415  1.00  0.00     0.293 HD
ENDBRANCH  15  18
BRANCH  17  20
ATOM     20  O   UNL     1       4.938  -3.607  -3.209  1.00  0.00    -0.504 OA
ATOM     21  H   UNL     1       5.732  -3.392  -2.617  1.00  0.00     0.293 HD
ENDBRANCH  17  20
ENDBRANCH   1  12
BRANCH   2  22
ATOM     22  O   UNL     1       0.974  -5.481  -1.049  1.00  0.00    -0.502 OA
ATOM     23  H   UNL     1       1.205  -6.457  -0.900  1.00  0.00     0.293 HD
ENDBRANCH   2  22
BRANCH   6  24
ATOM     24  O   UNL     1      -4.067  -7.000  -1.856  1.00  0.00    -0.507 OA
ATOM     25  H   UNL     1      -3.519  -7.832  -1.699  1.00  0.00     0.293 HD
ENDBRANCH   6  24
BRANCH   8  26
ATOM     26  O   UNL     1      -5.404  -3.846  -5.196  1.00  0.00    -0.508 OA
ATOM     27  H   UNL     1      -6.382  -4.061  -5.038  1.00  0.00     0.293 HD
ENDBRANCH   8  26
TORSDOF 6
ENDMDL
MODEL 9
REMARK VINA RESULT:    -4.389     10.816     14.657
REMARK INTER + INTRA:          -5.530
REMARK INTER:                  -5.370
REMARK INTRA:                  -0.160
REMARK UNBOUND:                -0.243
REMARK SMILES O=c1c(O)c(-c2ccc(O)c(O)c2)oc2cc(O)cc(O)c12
REMARK SMILES IDX 5 1 3 2 2 3 1 4 22 5 20 6 19 7 17 8 16 9 15 10 14 11 6 12
REMARK SMILES IDX 7 13 8 14 9 15 13 16 11 17 10 18 12 20 4 22 21 24 18 26
REMARK H PARENT 10 19 12 21 4 23 21 25 18 27
REMARK Flexibility Score: inf
ROOT
ATOM      1  C   UNL     1      -8.702  -6.798   5.642  1.00  0.00     0.180 A 
ATOM      2  C   UNL     1      -9.871  -6.374   6.295  1.00  0.00     0.208 A 
ATOM      3  C   UNL     1      -9.757  -5.577   7.446  1.00  0.00     0.238 A 
ATOM      4  O   UNL     1     -10.808  -5.139   7.983  1.00  0.00    -0.285 OA
ATOM      5  C   UNL     1      -8.476  -5.262   7.963  1.00  0.00     0.111 A 
ATOM      6  C   UNL     1      -8.243  -4.502   9.148  1.00  0.00     0.134 A 
ATOM      7  C   UNL     1      -6.932  -4.163   9.504  1.00  0.00     0.093 A 
ATOM      8  C   UNL     1      -5.843  -4.609   8.756  1.00  0.00     0.123 A 
ATOM      9  C   UNL     1      -6.057  -5.400   7.626  1.00  0.00     0.094 A 
ATOM     10  C   UNL     1      -7.355  -5.723   7.224  1.00  0.00     0.146 A 
ATOM     11  O   UNL     1      -7.514  -6.459   6.131  1.00  0.00    -0.452 OA
ENDROOT
BRANCH   1  12
ATOM     12  C   UNL     1      -8.741  -7.626   4.415  1.00  0.00     0.025 A 
ATOM     13  C   UNL     1      -9.240  -8.936   4.484  1.00  0.00     0.016 A 
ATOM     14  C   UNL     1      -9.266  -9.744   3.343  1.00  0.00     0.051 A 
ATOM     15  C   UNL     1      -8.781  -9.258   2.123  1.00  0.00     0.157 A 
ATOM     16  C   UNL     1      -8.234  -7.150   3.193  1.00  0.00     0.062 A 
ATOM     17  C   UNL     1      -8.259  -7.960   2.049  1.00  0.00     0.158 A 
BRANCH  15  18
ATOM     18  O   UNL     1      -8.808 -10.059   0.983  1.00  0.00    -0.504 OA
ATOM     19  H   UNL     1      -9.214 -10.987   0.997  1.00  0.00     0.293 HD
ENDBRANCH  15  18
BRANCH  17  20
ATOM     20  O   UNL     1      -7.763  -7.485   0.835  1.00  0.00    -0.504 OA
ATOM     21  H   UNL     1      -6.774  -7.308   0.701  1.00  0.00     0.293 HD
ENDBRANCH  17  20
ENDBRANCH   1  12
BRANCH   2  22
ATOM     22  O   UNL     1     -11.125  -6.758   5.814  1.00  0.00    -0.502 OA
ATOM     23  H   UNL     1     -11.306  -7.685   5.445  1.00  0.00     0.293 HD
ENDBRANCH   2  22
BRANCH   6  24
ATOM     24  O   UNL     1      -9.252  -4.078  10.018  1.00  0.00    -0.507 OA
ATOM     25  H   UNL     1      -9.102  -3.743  10.957  1.00  0.00     0.293 HD
ENDBRANCH   6  24
BRANCH   8  26
ATOM     26  O   UNL     1      -4.551  -4.268   9.149  1.00  0.00    -0.508 OA
ATOM     27  H   UNL     1      -4.214  -4.460  10.086  1.00  0.00     0.293 HD
ENDBRANCH   8  26
TORSDOF 6
ENDMDL
