MODEL 1
REMARK VINA RESULT:    -4.210      0.000      0.000
REMARK INTER + INTRA:          -6.522
REMARK INTER:                  -6.179
REMARK INTRA:                  -0.343
REMARK UNBOUND:                -0.343
REMARK SMILES O=C([O-])CCCCCCCC(=O)[O-]
REMARK SMILES IDX 7 1 6 2 5 3 4 4 2 5 1 6 3 7 8 8 9 9 10 10 11 11 12 12 13 13
REMARK H PARENT
REMARK Flexibility Score: inf
ROOT
ATOM      1  C   UNL     1      14.711  25.995  33.353  1.00  0.00     0.000 C 
ENDROOT
BRANCH   1   2
ATOM      2  C   UNL     1      15.830  24.942  33.401  1.00  0.00     0.000 C 
BRANCH   2   3
ATOM      3  C   UNL     1      15.342  23.539  32.998  1.00  0.00     0.006 C 
BRANCH   3   4
ATOM      4  C   UNL     1      16.355  22.448  33.369  1.00  0.00     0.053 C 
BRANCH   4   5
ATOM      5  C   UNL     1      15.802  21.500  34.389  1.00  0.00     0.041 C 
ATOM      6  O   UNL     1      15.481  21.916  35.534  1.00  0.00    -0.550 OA
ATOM      7  O   UNL     1      15.614  20.162  34.066  1.00  0.00    -0.550 OA
ENDBRANCH   4   5
ENDBRANCH   3   4
ENDBRANCH   2   3
ENDBRANCH   1   2
BRANCH   1   8
ATOM      8  C   UNL     1      13.306  25.365  33.358  1.00  0.00     0.000 C 
BRANCH   8   9
ATOM      9  C   UNL     1      12.242  26.305  33.949  1.00  0.00     0.006 C 
BRANCH   9  10
ATOM     10  C   UNL     1      12.842  27.382  34.861  1.00  0.00     0.053 C 
BRANCH  10  11
ATOM     11  C   UNL     1      11.757  28.128  35.572  1.00  0.00     0.041 C 
ATOM     12  O   UNL     1      11.735  28.169  36.830  1.00  0.00    -0.550 OA
ATOM     13  O   UNL     1      10.797  28.819  34.843  1.00  0.00    -0.550 OA
ENDBRANCH  10  11
ENDBRANCH   9  10
ENDBRANCH   8   9
ENDBRANCH   1   8
TORSDOF 8
ENDMDL
MODEL 2
REMARK VINA RESULT:    -4.183      0.546      6.616
REMARK INTER + INTRA:          -6.482
REMARK INTER:                  -6.190
REMARK INTRA:                  -0.293
REMARK UNBOUND:                -0.343
REMARK SMILES O=C([O-])CCCCCCCC(=O)[O-]
REMARK SMILES IDX 7 1 6 2 5 3 4 4 2 5 1 6 3 7 8 8 9 9 10 10 11 11 12 12 13 13
REMARK H PARENT
REMARK Flexibility Score: inf
ROOT
ATOM      1  C   UNL     1      14.924  25.941  33.138  1.00  0.00     0.000 C 
ENDROOT
BRANCH   1   2
ATOM      2  C   UNL     1      13.479  25.436  33.277  1.00  0.00     0.000 C 
BRANCH   2   3
ATOM      3  C   UNL     1      12.772  25.998  34.523  1.00  0.00     0.006 C 
BRANCH   3   4
ATOM      4  C   UNL     1      11.778  27.113  34.170  1.00  0.00     0.053 C 
BRANCH   4   5
ATOM      5  C   UNL     1      11.437  27.952  35.363  1.00  0.00     0.041 C 
ATOM      6  O   UNL     1      11.565  27.484  36.525  1.00  0.00    -0.550 OA
ATOM      7  O   UNL     1      11.004  29.260  35.192  1.00  0.00    -0.550 OA
ENDBRANCH   4   5
ENDBRANCH   3   4
ENDBRANCH   2   3
ENDBRANCH   1   2
BRANCH   1   8
ATOM      8  C   UNL     1      15.964  24.834  33.385  1.00  0.00     0.000 C 
BRANCH   8   9
ATOM      9  C   UNL     1      15.386  23.425  33.173  1.00  0.00     0.006 C 
BRANCH   9  10
ATOM     10  C   UNL     1      16.405  22.316  33.463  1.00  0.00     0.053 C 
BRANCH  10  11
ATOM     11  C   UNL     1      15.835  21.322  34.424  1.00  0.00     0.041 C 
ATOM     12  O   UNL     1      15.446  21.691  35.563  1.00  0.00    -0.550 OA
ATOM     13  O   UNL     1      15.686  19.993  34.043  1.00  0.00    -0.550 OA
ENDBRANCH  10  11
ENDBRANCH   9  10
ENDBRANCH   8   9
ENDBRANCH   1   8
TORSDOF 8
ENDMDL
MODEL 3
REMARK VINA RESULT:    -4.096      0.825      6.674
REMARK INTER + INTRA:          -6.355
REMARK INTER:                  -5.989
REMARK INTRA:                  -0.366
REMARK UNBOUND:                -0.343
REMARK SMILES O=C([O-])CCCCCCCC(=O)[O-]
REMARK SMILES IDX 7 1 6 2 5 3 4 4 2 5 1 6 3 7 8 8 9 9 10 10 11 11 12 12 13 13
REMARK H PARENT
REMARK Flexibility Score: inf
ROOT
ATOM      1  C   UNL     1      13.456  25.257  33.273  1.00  0.00     0.000 C 
ENDROOT
BRANCH   1   2
ATOM      2  C   UNL     1      12.420  26.196  33.913  1.00  0.00     0.000 C 
BRANCH   2   3
ATOM      3  C   UNL     1      12.847  26.686  35.308  1.00  0.00     0.006 C 
BRANCH   3   4
ATOM      4  C   UNL     1      11.691  27.355  36.064  1.00  0.00     0.053 C 
BRANCH   4   5
ATOM      5  C   UNL     1      11.444  28.750  35.578  1.00  0.00     0.041 C 
ATOM      6  O   UNL     1      10.618  28.963  34.652  1.00  0.00    -0.550 OA
ATOM      7  O   UNL     1      12.107  29.819  36.167  1.00  0.00    -0.550 OA
ENDBRANCH   4   5
ENDBRANCH   3   4
ENDBRANCH   2   3
ENDBRANCH   1   2
BRANCH   1   8
ATOM      8  C   UNL     1      14.877  25.846  33.287  1.00  0.00     0.000 C 
BRANCH   8   9
ATOM      9  C   UNL     1      15.954  24.781  33.548  1.00  0.00     0.006 C 
BRANCH   9  10
ATOM     10  C   UNL     1      15.562  23.396  33.017  1.00  0.00     0.053 C 
BRANCH  10  11
ATOM     11  C   UNL     1      15.695  22.367  34.094  1.00  0.00     0.041 C 
ATOM     12  O   UNL     1      16.217  21.249  33.842  1.00  0.00    -0.550 OA
ATOM     13  O   UNL     1      15.288  22.660  35.390  1.00  0.00    -0.550 OA
ENDBRANCH  10  11
ENDBRANCH   9  10
ENDBRANCH   8   9
ENDBRANCH   1   8
TORSDOF 8
ENDMDL
MODEL 4
REMARK VINA RESULT:    -4.089      1.285      1.752
REMARK INTER + INTRA:          -6.345
REMARK INTER:                  -5.726
REMARK INTRA:                  -0.618
REMARK UNBOUND:                -0.343
REMARK SMILES O=C([O-])CCCCCCCC(=O)[O-]
REMARK SMILES IDX 7 1 6 2 5 3 4 4 2 5 1 6 3 7 8 8 9 9 10 10 11 11 12 12 13 13
REMARK H PARENT
REMARK Flexibility Score: inf
ROOT
ATOM      1  C   UNL     1      15.112  25.893  33.105  1.00  0.00     0.000 C 
ENDROOT
BRANCH   1   2
ATOM      2  C   UNL     1      14.526  24.486  32.907  1.00  0.00     0.000 C 
BRANCH   2   3
ATOM      3  C   UNL     1      15.517  23.372  33.287  1.00  0.00     0.006 C 
BRANCH   3   4
ATOM      4  C   UNL     1      16.159  23.614  34.660  1.00  0.00     0.053 C 
BRANCH   4   5
ATOM      5  C   UNL     1      15.244  23.219  35.778  1.00  0.00     0.041 C 
ATOM      6  O   UNL     1      14.599  24.096  36.411  1.00  0.00    -0.550 OA
ATOM      7  O   UNL     1      15.083  21.879  36.104  1.00  0.00    -0.550 OA
ENDBRANCH   4   5
ENDBRANCH   3   4
ENDBRANCH   2   3
ENDBRANCH   1   2
BRANCH   1   8
ATOM      8  C   UNL     1      14.157  26.830  33.866  1.00  0.00     0.000 C 
BRANCH   8   9
ATOM      9  C   UNL     1      12.774  26.200  34.097  1.00  0.00     0.006 C 
BRANCH   9  10
ATOM     10  C   UNL     1      11.635  27.227  34.035  1.00  0.00     0.053 C 
BRANCH  10  11
ATOM     11  C   UNL     1      11.469  27.903  35.359  1.00  0.00     0.041 C 
ATOM     12  O   UNL     1      11.055  29.090  35.417  1.00  0.00    -0.550 OA
ATOM     13  O   UNL     1      11.725  27.204  36.533  1.00  0.00    -0.550 OA
ENDBRANCH  10  11
ENDBRANCH   9  10
ENDBRANCH   8   9
ENDBRANCH   1   8
TORSDOF 8
ENDMDL
MODEL 5
REMARK VINA RESULT:    -4.051      1.649      5.775
REMARK INTER + INTRA:          -6.288
REMARK INTER:                  -5.665
REMARK INTRA:                  -0.623
REMARK UNBOUND:                -0.343
REMARK SMILES O=C([O-])CCCCCCCC(=O)[O-]
REMARK SMILES IDX 7 1 6 2 5 3 4 4 2 5 1 6 3 7 8 8 9 9 10 10 11 11 12 12 13 13
REMARK H PARENT
REMARK Flexibility Score: inf
ROOT
ATOM      1  C   UNL     1      15.282  25.766  33.202  1.00  0.00     0.000 C 
ENDROOT
BRANCH   1   2
ATOM      2  C   UNL     1      14.355  26.565  34.132  1.00  0.00     0.000 C 
BRANCH   2   3
ATOM      3  C   UNL     1      12.934  25.977  34.200  1.00  0.00     0.006 C 
BRANCH   3   4
ATOM      4  C   UNL     1      11.855  27.058  34.057  1.00  0.00     0.053 C 
BRANCH   4   5
ATOM      5  C   UNL     1      11.546  27.712  35.369  1.00  0.00     0.041 C 
ATOM      6  O   UNL     1      11.081  28.882  35.401  1.00  0.00    -0.550 OA
ATOM      7  O   UNL     1      11.745  27.019  36.555  1.00  0.00    -0.550 OA
ENDBRANCH   4   5
ENDBRANCH   3   4
ENDBRANCH   2   3
ENDBRANCH   1   2
BRANCH   1   8
ATOM      8  C   UNL     1      14.816  24.312  33.008  1.00  0.00     0.000 C 
BRANCH   8   9
ATOM      9  C   UNL     1      15.888  23.290  33.421  1.00  0.00     0.006 C 
BRANCH   9  10
ATOM     10  C   UNL     1      15.514  22.518  34.693  1.00  0.00     0.053 C 
BRANCH  10  11
ATOM     11  C   UNL     1      15.580  23.418  35.887  1.00  0.00     0.041 C 
ATOM     12  O   UNL     1      16.667  23.964  36.210  1.00  0.00    -0.550 OA
ATOM     13  O   UNL     1      14.428  23.693  36.613  1.00  0.00    -0.550 OA
ENDBRANCH  10  11
ENDBRANCH   9  10
ENDBRANCH   8   9
ENDBRANCH   1   8
TORSDOF 8
ENDMDL
MODEL 6
REMARK VINA RESULT:    -3.953      3.109      5.417
REMARK INTER + INTRA:          -6.145
REMARK INTER:                  -5.567
REMARK INTRA:                  -0.578
REMARK UNBOUND:                -0.343
REMARK SMILES O=C([O-])CCCCCCCC(=O)[O-]
REMARK SMILES IDX 7 1 6 2 5 3 4 4 2 5 1 6 3 7 8 8 9 9 10 10 11 11 12 12 13 13
REMARK H PARENT
REMARK Flexibility Score: inf
ROOT
ATOM      1  C   UNL     1      14.777  24.471  33.107  1.00  0.00     0.000 C 
ENDROOT
BRANCH   1   2
ATOM      2  C   UNL     1      13.887  24.936  34.272  1.00  0.00     0.000 C 
BRANCH   2   3
ATOM      3  C   UNL     1      12.660  25.734  33.798  1.00  0.00     0.006 C 
BRANCH   3   4
ATOM      4  C   UNL     1      12.738  27.211  34.208  1.00  0.00     0.053 C 
BRANCH   4   5
ATOM      5  C   UNL     1      11.781  27.531  35.316  1.00  0.00     0.041 C 
ATOM      6  O   UNL     1      11.751  26.819  36.354  1.00  0.00    -0.550 OA
ATOM      7  O   UNL     1      10.941  28.632  35.212  1.00  0.00    -0.550 OA
ENDBRANCH   4   5
ENDBRANCH   3   4
ENDBRANCH   2   3
ENDBRANCH   1   2
BRANCH   1   8
ATOM      8  C   UNL     1      16.274  24.489  33.463  1.00  0.00     0.000 C 
BRANCH   8   9
ATOM      9  C   UNL     1      16.735  25.852  34.006  1.00  0.00     0.006 C 
BRANCH   9  10
ATOM     10  C   UNL     1      16.945  26.892  32.899  1.00  0.00     0.053 C 
BRANCH  10  11
ATOM     11  C   UNL     1      16.405  28.221  33.321  1.00  0.00     0.041 C 
ATOM     12  O   UNL     1      16.015  28.400  34.505  1.00  0.00    -0.550 OA
ATOM     13  O   UNL     1      16.377  29.279  32.421  1.00  0.00    -0.550 OA
ENDBRANCH  10  11
ENDBRANCH   9  10
ENDBRANCH   8   9
ENDBRANCH   1   8
TORSDOF 8
ENDMDL
MODEL 7
REMARK VINA RESULT:    -3.892      3.045      5.911
REMARK INTER + INTRA:          -6.055
REMARK INTER:                  -5.498
REMARK INTRA:                  -0.558
REMARK UNBOUND:                -0.343
REMARK SMILES O=C([O-])CCCCCCCC(=O)[O-]
REMARK SMILES IDX 7 1 6 2 5 3 4 4 2 5 1 6 3 7 8 8 9 9 10 10 11 11 12 12 13 13
REMARK H PARENT
REMARK Flexibility Score: inf
ROOT
ATOM      1  C   UNL     1      14.002  25.193  32.955  1.00  0.00     0.000 C 
ENDROOT
BRANCH   1   2
ATOM      2  C   UNL     1      13.017  25.403  34.116  1.00  0.00     0.000 C 
BRANCH   2   3
ATOM      3  C   UNL     1      12.393  26.810  34.117  1.00  0.00     0.006 C 
BRANCH   3   4
ATOM      4  C   UNL     1      12.154  27.335  35.538  1.00  0.00     0.053 C 
BRANCH   4   5
ATOM      5  C   UNL     1      11.507  28.687  35.530  1.00  0.00     0.041 C 
ATOM      6  O   UNL     1      10.619  28.960  34.680  1.00  0.00    -0.550 OA
ATOM      7  O   UNL     1      11.866  29.635  36.479  1.00  0.00    -0.550 OA
ENDBRANCH   4   5
ENDBRANCH   3   4
ENDBRANCH   2   3
ENDBRANCH   1   2
BRANCH   1   8
ATOM      8  C   UNL     1      15.301  24.498  33.400  1.00  0.00     0.000 C 
BRANCH   8   9
ATOM      9  C   UNL     1      16.350  25.491  33.926  1.00  0.00     0.006 C 
BRANCH   9  10
ATOM     10  C   UNL     1      16.555  26.690  32.991  1.00  0.00     0.053 C 
BRANCH  10  11
ATOM     11  C   UNL     1      16.146  27.958  33.670  1.00  0.00     0.041 C 
ATOM     12  O   UNL     1      16.192  29.053  33.051  1.00  0.00    -0.550 OA
ATOM     13  O   UNL     1      15.666  27.924  34.974  1.00  0.00    -0.550 OA
ENDBRANCH  10  11
ENDBRANCH   9  10
ENDBRANCH   8   9
ENDBRANCH   1   8
TORSDOF 8
ENDMDL
MODEL 8
REMARK VINA RESULT:    -3.716      1.598      2.460
REMARK INTER + INTRA:          -5.796
REMARK INTER:                  -5.482
REMARK INTRA:                  -0.314
REMARK UNBOUND:                -0.343
REMARK SMILES O=C([O-])CCCCCCCC(=O)[O-]
REMARK SMILES IDX 7 1 6 2 5 3 4 4 2 5 1 6 3 7 8 8 9 9 10 10 11 11 12 12 13 13
REMARK H PARENT
REMARK Flexibility Score: inf
ROOT
ATOM      1  C   UNL     1      16.148  24.152  33.709  1.00  0.00     0.000 C 
ENDROOT
BRANCH   1   2
ATOM      2  C   UNL     1      16.770  22.778  34.008  1.00  0.00     0.000 C 
BRANCH   2   3
ATOM      3  C   UNL     1      15.796  21.832  34.732  1.00  0.00     0.006 C 
BRANCH   3   4
ATOM      4  C   UNL     1      15.686  20.471  34.031  1.00  0.00     0.053 C 
BRANCH   4   5
ATOM      5  C   UNL     1      15.477  19.357  35.011  1.00  0.00     0.041 C 
ATOM      6  O   UNL     1      15.501  18.159  34.625  1.00  0.00    -0.550 OA
ATOM      7  O   UNL     1      15.282  19.642  36.357  1.00  0.00    -0.550 OA
ENDBRANCH   4   5
ENDBRANCH   3   4
ENDBRANCH   2   3
ENDBRANCH   1   2
BRANCH   1   8
ATOM      8  C   UNL     1      14.653  24.060  33.356  1.00  0.00     0.000 C 
BRANCH   8   9
ATOM      9  C   UNL     1      14.035  25.434  33.046  1.00  0.00     0.006 C 
BRANCH   9  10
ATOM     10  C   UNL     1      12.721  25.678  33.800  1.00  0.00     0.053 C 
BRANCH  10  11
ATOM     11  C   UNL     1      12.898  26.757  34.820  1.00  0.00     0.041 C 
ATOM     12  O   UNL     1      12.103  26.847  35.792  1.00  0.00    -0.550 OA
ATOM     13  O   UNL     1      13.971  27.635  34.725  1.00  0.00    -0.550 OA
ENDBRANCH  10  11
ENDBRANCH   9  10
ENDBRANCH   8   9
ENDBRANCH   1   8
TORSDOF 8
ENDMDL
MODEL 9
REMARK VINA RESULT:    -3.604      4.215      6.242
REMARK INTER + INTRA:          -5.632
REMARK INTER:                  -5.333
REMARK INTRA:                  -0.299
REMARK UNBOUND:                -0.343
REMARK SMILES O=C([O-])CCCCCCCC(=O)[O-]
REMARK SMILES IDX 7 1 6 2 5 3 4 4 2 5 1 6 3 7 8 8 9 9 10 10 11 11 12 12 13 13
REMARK H PARENT
REMARK Flexibility Score: inf
ROOT
ATOM      1  C   UNL     1      16.217  26.727  33.019  1.00  0.00     0.000 C 
ENDROOT
BRANCH   1   2
ATOM      2  C   UNL     1      16.327  28.261  33.014  1.00  0.00     0.000 C 
BRANCH   2   3
ATOM      3  C   UNL     1      16.883  28.810  31.689  1.00  0.00     0.006 C 
BRANCH   3   4
ATOM      4  C   UNL     1      16.781  30.339  31.609  1.00  0.00     0.053 C 
BRANCH   4   5
ATOM      5  C   UNL     1      16.669  30.816  30.193  1.00  0.00     0.041 C 
ATOM      6  O   UNL     1      16.364  30.010  29.275  1.00  0.00    -0.550 OA
ATOM      7  O   UNL     1      16.873  32.156  29.892  1.00  0.00    -0.550 OA
ENDBRANCH   4   5
ENDBRANCH   3   4
ENDBRANCH   2   3
ENDBRANCH   1   2
BRANCH   1   8
ATOM      8  C   UNL     1      15.073  26.219  33.914  1.00  0.00     0.000 C 
BRANCH   8   9
ATOM      9  C   UNL     1      14.097  27.337  34.314  1.00  0.00     0.006 C 
BRANCH   9  10
ATOM     10  C   UNL     1      12.627  26.922  34.169  1.00  0.00     0.053 C 
BRANCH  10  11
ATOM     11  C   UNL     1      11.813  27.481  35.293  1.00  0.00     0.041 C 
ATOM     12  O   UNL     1      11.082  28.488  35.107  1.00  0.00    -0.550 OA
ATOM     13  O   UNL     1      11.824  26.858  36.535  1.00  0.00    -0.550 OA
ENDBRANCH  10  11
ENDBRANCH   9  10
ENDBRANCH   8   9
ENDBRANCH   1   8
TORSDOF 8
ENDMDL
