MODEL 1
REMARK VINA RESULT:    -6.418      0.000      0.000
REMARK INTER + INTRA:          -7.831
REMARK INTER:                  -7.731
REMARK INTRA:                  -0.100
REMARK UNBOUND:                -0.100
REMARK SMILES O=c1c(O)c(-c2ccc(O)c(O)c2)oc2cc(O)cc(O)c12
REMARK SMILES IDX 5 1 3 2 2 3 1 4 22 5 20 6 19 7 17 8 16 9 15 10 14 11 6 12
REMARK SMILES IDX 7 13 8 14 9 15 13 16 11 17 10 18 12 20 4 22 21 24 18 26
REMARK H PARENT 10 19 12 21 4 23 21 25 18 27
REMARK Flexibility Score: inf
ROOT
ATOM      1  C   UNL     1      42.555  -8.293  40.567  1.00  0.00     0.180 A 
ATOM      2  C   UNL     1      43.385  -7.162  40.480  1.00  0.00     0.208 A 
ATOM      3  C   UNL     1      44.743  -7.336  40.168  1.00  0.00     0.238 A 
ATOM      4  O   UNL     1      45.469  -6.316  40.039  1.00  0.00    -0.285 OA
ATOM      5  C   UNL     1      45.257  -8.640  39.963  1.00  0.00     0.111 A 
ATOM      6  C   UNL     1      46.625  -8.936  39.681  1.00  0.00     0.134 A 
ATOM      7  C   UNL     1      46.995 -10.249  39.367  1.00  0.00     0.093 A 
ATOM      8  C   UNL     1      46.063 -11.285  39.388  1.00  0.00     0.123 A 
ATOM      9  C   UNL     1      44.735 -11.017  39.720  1.00  0.00     0.094 A 
ATOM     10  C   UNL     1      44.327  -9.711  40.003  1.00  0.00     0.146 A 
ATOM     11  O   UNL     1      43.052  -9.496  40.304  1.00  0.00    -0.452 OA
ENDROOT
BRANCH   1  12
ATOM     12  C   UNL     1      41.119  -8.192  40.916  1.00  0.00     0.025 A 
ATOM     13  C   UNL     1      40.590  -8.853  42.036  1.00  0.00     0.016 A 
ATOM     14  C   UNL     1      39.229  -8.762  42.332  1.00  0.00     0.051 A 
ATOM     15  C   UNL     1      38.368  -8.024  41.512  1.00  0.00     0.157 A 
ATOM     16  C   UNL     1      40.253  -7.469  40.081  1.00  0.00     0.062 A 
ATOM     17  C   UNL     1      38.886  -7.372  40.369  1.00  0.00     0.158 A 
BRANCH  15  18
ATOM     18  O   UNL     1      37.018  -7.970  41.866  1.00  0.00    -0.504 OA
ATOM     19  H   UNL     1      36.582  -8.595  42.528  1.00  0.00     0.293 HD
ENDBRANCH  15  18
BRANCH  17  20
ATOM     20  O   UNL     1      38.088  -6.626  39.499  1.00  0.00    -0.504 OA
ATOM     21  H   UNL     1      38.383  -6.319  38.584  1.00  0.00     0.293 HD
ENDBRANCH  17  20
ENDBRANCH   1  12
BRANCH   2  22
ATOM     22  O   UNL     1      42.853  -5.884  40.665  1.00  0.00    -0.502 OA
ATOM     23  H   UNL     1      42.982  -5.359  41.522  1.00  0.00     0.293 HD
ENDBRANCH   2  22
BRANCH   6  24
ATOM     24  O   UNL     1      47.653  -7.990  39.724  1.00  0.00    -0.507 OA
ATOM     25  H   UNL     1      47.838  -7.309  39.003  1.00  0.00     0.293 HD
ENDBRANCH   6  24
BRANCH   8  26
ATOM     26  O   UNL     1      46.472 -12.583  39.085  1.00  0.00    -0.508 OA
ATOM     27  H   UNL     1      47.149 -12.768  38.354  1.00  0.00     0.293 HD
ENDBRANCH   8  26
TORSDOF 6
ENDMDL
MODEL 2
REMARK VINA RESULT:    -6.036      1.171      1.825
REMARK INTER + INTRA:          -7.370
REMARK INTER:                  -7.286
REMARK INTRA:                  -0.085
REMARK UNBOUND:                -0.100
REMARK SMILES O=c1c(O)c(-c2ccc(O)c(O)c2)oc2cc(O)cc(O)c12
REMARK SMILES IDX 5 1 3 2 2 3 1 4 22 5 20 6 19 7 17 8 16 9 15 10 14 11 6 12
REMARK SMILES IDX 7 13 8 14 9 15 13 16 11 17 10 18 12 20 4 22 21 24 18 26
REMARK H PARENT 10 19 12 21 4 23 21 25 18 27
REMARK Flexibility Score: inf
ROOT
ATOM      1  C   UNL     1      43.485  -8.729  40.215  1.00  0.00     0.180 A 
ATOM      2  C   UNL     1      44.408  -7.679  40.070  1.00  0.00     0.208 A 
ATOM      3  C   UNL     1      45.767  -7.987  39.896  1.00  0.00     0.238 A 
ATOM      4  O   UNL     1      46.582  -7.044  39.714  1.00  0.00    -0.285 OA
ATOM      5  C   UNL     1      46.188  -9.339  39.887  1.00  0.00     0.111 A 
ATOM      6  C   UNL     1      47.545  -9.764  39.758  1.00  0.00     0.134 A 
ATOM      7  C   UNL     1      47.830 -11.129  39.629  1.00  0.00     0.093 A 
ATOM      8  C   UNL     1      46.818 -12.086  39.690  1.00  0.00     0.123 A 
ATOM      9  C   UNL     1      45.494 -11.685  39.875  1.00  0.00     0.094 A 
ATOM     10  C   UNL     1      45.174 -10.328  39.970  1.00  0.00     0.146 A 
ATOM     11  O   UNL     1      43.901  -9.987  40.135  1.00  0.00    -0.452 OA
ENDROOT
BRANCH   1  12
ATOM     12  C   UNL     1      42.040  -8.484  40.427  1.00  0.00     0.025 A 
ATOM     13  C   UNL     1      41.280  -7.750  39.502  1.00  0.00     0.016 A 
ATOM     14  C   UNL     1      39.924  -7.511  39.735  1.00  0.00     0.051 A 
ATOM     15  C   UNL     1      39.304  -7.985  40.895  1.00  0.00     0.157 A 
ATOM     16  C   UNL     1      41.425  -8.942  41.602  1.00  0.00     0.062 A 
ATOM     17  C   UNL     1      40.066  -8.708  41.845  1.00  0.00     0.158 A 
BRANCH  15  18
ATOM     18  O   UNL     1      37.944  -7.716  41.066  1.00  0.00    -0.504 OA
ATOM     19  H   UNL     1      37.407  -7.114  40.458  1.00  0.00     0.293 HD
ENDBRANCH  15  18
BRANCH  17  20
ATOM     20  O   UNL     1      39.519  -9.203  43.030  1.00  0.00    -0.504 OA
ATOM     21  H   UNL     1      39.814  -8.916  43.951  1.00  0.00     0.293 HD
ENDBRANCH  17  20
ENDBRANCH   1  12
BRANCH   2  22
ATOM     22  O   UNL     1      43.969  -6.353  40.061  1.00  0.00    -0.502 OA
ATOM     23  H   UNL     1      43.356  -5.987  39.344  1.00  0.00     0.293 HD
ENDBRANCH   2  22
BRANCH   6  24
ATOM     24  O   UNL     1      48.640  -8.897  39.779  1.00  0.00    -0.507 OA
ATOM     25  H   UNL     1      48.988  -8.391  38.979  1.00  0.00     0.293 HD
ENDBRANCH   6  24
BRANCH   8  26
ATOM     26  O   UNL     1      47.141 -13.437  39.573  1.00  0.00    -0.508 OA
ATOM     27  H   UNL     1      47.917 -13.748  38.999  1.00  0.00     0.293 HD
ENDBRANCH   8  26
TORSDOF 6
ENDMDL
MODEL 3
REMARK VINA RESULT:    -6.010      9.682     11.977
REMARK INTER + INTRA:          -7.340
REMARK INTER:                  -7.028
REMARK INTRA:                  -0.312
REMARK UNBOUND:                -0.100
REMARK SMILES O=c1c(O)c(-c2ccc(O)c(O)c2)oc2cc(O)cc(O)c12
REMARK SMILES IDX 5 1 3 2 2 3 1 4 22 5 20 6 19 7 17 8 16 9 15 10 14 11 6 12
REMARK SMILES IDX 7 13 8 14 9 15 13 16 11 17 10 18 12 20 4 22 21 24 18 26
REMARK H PARENT 10 19 12 21 4 23 21 25 18 27
REMARK Flexibility Score: inf
ROOT
ATOM      1  C   UNL     1      34.882 -11.571  34.588  1.00  0.00     0.180 A 
ATOM      2  C   UNL     1      34.842 -12.396  35.726  1.00  0.00     0.208 A 
ATOM      3  C   UNL     1      34.533 -11.824  36.971  1.00  0.00     0.238 A 
ATOM      4  O   UNL     1      34.447 -12.577  37.976  1.00  0.00    -0.285 OA
ATOM      5  C   UNL     1      34.284 -10.433  37.065  1.00  0.00     0.111 A 
ATOM      6  C   UNL     1      34.002  -9.742  38.282  1.00  0.00     0.134 A 
ATOM      7  C   UNL     1      33.642  -8.390  38.238  1.00  0.00     0.093 A 
ATOM      8  C   UNL     1      33.619  -7.688  37.033  1.00  0.00     0.123 A 
ATOM      9  C   UNL     1      33.952  -8.339  35.845  1.00  0.00     0.094 A 
ATOM     10  C   UNL     1      34.279  -9.698  35.851  1.00  0.00     0.146 A 
ATOM     11  O   UNL     1      34.579 -10.283  34.698  1.00  0.00    -0.452 OA
ENDROOT
BRANCH   1  12
ATOM     12  C   UNL     1      35.225 -12.096  33.246  1.00  0.00     0.025 A 
ATOM     13  C   UNL     1      34.228 -12.492  32.340  1.00  0.00     0.016 A 
ATOM     14  C   UNL     1      34.575 -13.005  31.089  1.00  0.00     0.051 A 
ATOM     15  C   UNL     1      35.918 -13.148  30.723  1.00  0.00     0.157 A 
ATOM     16  C   UNL     1      36.572 -12.258  32.889  1.00  0.00     0.062 A 
ATOM     17  C   UNL     1      36.931 -12.772  31.637  1.00  0.00     0.158 A 
BRANCH  15  18
ATOM     18  O   UNL     1      36.198 -13.664  29.456  1.00  0.00    -0.504 OA
ATOM     19  H   UNL     1      35.945 -13.208  28.592  1.00  0.00     0.293 HD
ENDBRANCH  15  18
BRANCH  17  20
ATOM     20  O   UNL     1      38.291 -12.894  31.347  1.00  0.00    -0.504 OA
ATOM     21  H   UNL     1      39.018 -12.922  32.047  1.00  0.00     0.293 HD
ENDBRANCH  17  20
ENDBRANCH   1  12
BRANCH   2  22
ATOM     22  O   UNL     1      35.070 -13.769  35.607  1.00  0.00    -0.502 OA
ATOM     23  H   UNL     1      35.993 -14.177  35.689  1.00  0.00     0.293 HD
ENDBRANCH   2  22
BRANCH   6  24
ATOM     24  O   UNL     1      34.086 -10.325  39.549  1.00  0.00    -0.507 OA
ATOM     25  H   UNL     1      33.854  -9.859  40.413  1.00  0.00     0.293 HD
ENDBRANCH   6  24
BRANCH   8  26
ATOM     26  O   UNL     1      33.272  -6.338  37.031  1.00  0.00    -0.508 OA
ATOM     27  H   UNL     1      33.036  -5.854  36.172  1.00  0.00     0.293 HD
ENDBRANCH   8  26
TORSDOF 6
ENDMDL
MODEL 4
REMARK VINA RESULT:    -5.987      2.589      6.728
REMARK INTER + INTRA:          -7.311
REMARK INTER:                  -6.998
REMARK INTRA:                  -0.313
REMARK UNBOUND:                -0.100
REMARK SMILES O=c1c(O)c(-c2ccc(O)c(O)c2)oc2cc(O)cc(O)c12
REMARK SMILES IDX 5 1 3 2 2 3 1 4 22 5 20 6 19 7 17 8 16 9 15 10 14 11 6 12
REMARK SMILES IDX 7 13 8 14 9 15 13 16 11 17 10 18 12 20 4 22 21 24 18 26
REMARK H PARENT 10 19 12 21 4 23 21 25 18 27
REMARK Flexibility Score: inf
ROOT
ATOM      1  C   UNL     1      44.821  -9.234  40.735  1.00  0.00     0.180 A 
ATOM      2  C   UNL     1      45.197  -8.068  40.045  1.00  0.00     0.208 A 
ATOM      3  C   UNL     1      44.566  -6.855  40.363  1.00  0.00     0.238 A 
ATOM      4  O   UNL     1      44.944  -5.806  39.779  1.00  0.00    -0.285 OA
ATOM      5  C   UNL     1      43.556  -6.825  41.355  1.00  0.00     0.111 A 
ATOM      6  C   UNL     1      42.823  -5.659  41.729  1.00  0.00     0.134 A 
ATOM      7  C   UNL     1      41.940  -5.718  42.815  1.00  0.00     0.093 A 
ATOM      8  C   UNL     1      41.715  -6.914  43.495  1.00  0.00     0.123 A 
ATOM      9  C   UNL     1      42.382  -8.074  43.100  1.00  0.00     0.094 A 
ATOM     10  C   UNL     1      43.297  -8.038  42.045  1.00  0.00     0.146 A 
ATOM     11  O   UNL     1      43.919  -9.161  41.706  1.00  0.00    -0.452 OA
ENDROOT
BRANCH   1  12
ATOM     12  C   UNL     1      45.423 -10.554  40.438  1.00  0.00     0.025 A 
ATOM     13  C   UNL     1      44.990 -11.327  39.350  1.00  0.00     0.016 A 
ATOM     14  C   UNL     1      45.556 -12.580  39.103  1.00  0.00     0.051 A 
ATOM     15  C   UNL     1      46.552 -13.090  39.942  1.00  0.00     0.157 A 
ATOM     16  C   UNL     1      46.408 -11.074  41.293  1.00  0.00     0.062 A 
ATOM     17  C   UNL     1      46.982 -12.328  41.055  1.00  0.00     0.158 A 
BRANCH  15  18
ATOM     18  O   UNL     1      47.080 -14.347  39.638  1.00  0.00    -0.504 OA
ATOM     19  H   UNL     1      47.256 -15.066  40.325  1.00  0.00     0.293 HD
ENDBRANCH  15  18
BRANCH  17  20
ATOM     20  O   UNL     1      47.963 -12.776  41.941  1.00  0.00    -0.504 OA
ATOM     21  H   UNL     1      47.971 -13.695  42.358  1.00  0.00     0.293 HD
ENDBRANCH  17  20
ENDBRANCH   1  12
BRANCH   2  22
ATOM     22  O   UNL     1      46.210  -8.116  39.084  1.00  0.00    -0.502 OA
ATOM     23  H   UNL     1      47.192  -8.048  39.323  1.00  0.00     0.293 HD
ENDBRANCH   2  22
BRANCH   6  24
ATOM     24  O   UNL     1      42.904  -4.437  41.057  1.00  0.00    -0.507 OA
ATOM     25  H   UNL     1      43.262  -3.583  41.457  1.00  0.00     0.293 HD
ENDBRANCH   6  24
BRANCH   8  26
ATOM     26  O   UNL     1      40.817  -6.939  44.561  1.00  0.00    -0.508 OA
ATOM     27  H   UNL     1      40.312  -6.108  44.848  1.00  0.00     0.293 HD
ENDBRANCH   8  26
TORSDOF 6
ENDMDL
MODEL 5
REMARK VINA RESULT:    -5.830      2.669      7.108
REMARK INTER + INTRA:          -7.123
REMARK INTER:                  -6.828
REMARK INTRA:                  -0.295
REMARK UNBOUND:                -0.100
REMARK SMILES O=c1c(O)c(-c2ccc(O)c(O)c2)oc2cc(O)cc(O)c12
REMARK SMILES IDX 5 1 3 2 2 3 1 4 22 5 20 6 19 7 17 8 16 9 15 10 14 11 6 12
REMARK SMILES IDX 7 13 8 14 9 15 13 16 11 17 10 18 12 20 4 22 21 24 18 26
REMARK H PARENT 10 19 12 21 4 23 21 25 18 27
REMARK Flexibility Score: inf
ROOT
ATOM      1  C   UNL     1      46.109 -11.297  39.573  1.00  0.00     0.180 A 
ATOM      2  C   UNL     1      47.244 -10.475  39.466  1.00  0.00     0.208 A 
ATOM      3  C   UNL     1      47.077  -9.081  39.456  1.00  0.00     0.238 A 
ATOM      4  O   UNL     1      48.101  -8.350  39.414  1.00  0.00    -0.285 OA
ATOM      5  C   UNL     1      45.776  -8.526  39.538  1.00  0.00     0.111 A 
ATOM      6  C   UNL     1      45.488  -7.129  39.497  1.00  0.00     0.134 A 
ATOM      7  C   UNL     1      44.177  -6.689  39.718  1.00  0.00     0.093 A 
ATOM      8  C   UNL     1      43.136  -7.596  39.912  1.00  0.00     0.123 A 
ATOM      9  C   UNL     1      43.397  -8.967  39.896  1.00  0.00     0.094 A 
ATOM     10  C   UNL     1      44.700  -9.435  39.714  1.00  0.00     0.146 A 
ATOM     11  O   UNL     1      44.909 -10.746  39.715  1.00  0.00    -0.452 OA
ENDROOT
BRANCH   1  12
ATOM     12  C   UNL     1      46.202 -12.775  39.565  1.00  0.00     0.025 A 
ATOM     13  C   UNL     1      45.906 -13.520  38.412  1.00  0.00     0.016 A 
ATOM     14  C   UNL     1      45.978 -14.914  38.435  1.00  0.00     0.051 A 
ATOM     15  C   UNL     1      46.333 -15.592  39.606  1.00  0.00     0.157 A 
ATOM     16  C   UNL     1      46.538 -13.454  40.747  1.00  0.00     0.062 A 
ATOM     17  C   UNL     1      46.613 -14.852  40.780  1.00  0.00     0.158 A 
BRANCH  15  18
ATOM     18  O   UNL     1      46.391 -16.986  39.561  1.00  0.00    -0.504 OA
ATOM     19  H   UNL     1      46.376 -17.525  38.707  1.00  0.00     0.293 HD
ENDBRANCH  15  18
BRANCH  17  20
ATOM     20  O   UNL     1      46.964 -15.458  41.988  1.00  0.00    -0.504 OA
ATOM     21  H   UNL     1      47.100 -16.451  42.102  1.00  0.00     0.293 HD
ENDBRANCH  17  20
ENDBRANCH   1  12
BRANCH   2  22
ATOM     22  O   UNL     1      48.519 -11.042  39.407  1.00  0.00    -0.502 OA
ATOM     23  H   UNL     1      49.359 -10.517  39.620  1.00  0.00     0.293 HD
ENDBRANCH   2  22
BRANCH   6  24
ATOM     24  O   UNL     1      46.438  -6.143  39.217  1.00  0.00    -0.507 OA
ATOM     25  H   UNL     1      47.211  -6.254  38.578  1.00  0.00     0.293 HD
ENDBRANCH   6  24
BRANCH   8  26
ATOM     26  O   UNL     1      41.840  -7.122  40.114  1.00  0.00    -0.508 OA
ATOM     27  H   UNL     1      41.162  -7.097  39.362  1.00  0.00     0.293 HD
ENDBRANCH   8  26
TORSDOF 6
ENDMDL
MODEL 6
REMARK VINA RESULT:    -5.645     10.024     11.761
REMARK INTER + INTRA:          -6.899
REMARK INTER:                  -6.754
REMARK INTRA:                  -0.145
REMARK UNBOUND:                -0.100
REMARK SMILES O=c1c(O)c(-c2ccc(O)c(O)c2)oc2cc(O)cc(O)c12
REMARK SMILES IDX 5 1 3 2 2 3 1 4 22 5 20 6 19 7 17 8 16 9 15 10 14 11 6 12
REMARK SMILES IDX 7 13 8 14 9 15 13 16 11 17 10 18 12 20 4 22 21 24 18 26
REMARK H PARENT 10 19 12 21 4 23 21 25 18 27
REMARK Flexibility Score: inf
ROOT
ATOM      1  C   UNL     1      34.676 -11.825  33.821  1.00  0.00     0.180 A 
ATOM      2  C   UNL     1      35.051 -12.813  34.748  1.00  0.00     0.208 A 
ATOM      3  C   UNL     1      35.582 -14.024  34.276  1.00  0.00     0.238 A 
ATOM      4  O   UNL     1      35.965 -14.882  35.114  1.00  0.00    -0.285 OA
ATOM      5  C   UNL     1      35.718 -14.238  32.883  1.00  0.00     0.111 A 
ATOM      6  C   UNL     1      36.206 -15.443  32.293  1.00  0.00     0.134 A 
ATOM      7  C   UNL     1      36.421 -15.495  30.911  1.00  0.00     0.093 A 
ATOM      8  C   UNL     1      36.104 -14.413  30.090  1.00  0.00     0.123 A 
ATOM      9  C   UNL     1      35.569 -13.252  30.650  1.00  0.00     0.094 A 
ATOM     10  C   UNL     1      35.378 -13.156  32.030  1.00  0.00     0.146 A 
ATOM     11  O   UNL     1      34.878 -12.030  32.524  1.00  0.00    -0.452 OA
ENDROOT
BRANCH   1  12
ATOM     12  C   UNL     1      34.086 -10.533  34.240  1.00  0.00     0.025 A 
ATOM     13  C   UNL     1      32.785 -10.166  33.861  1.00  0.00     0.016 A 
ATOM     14  C   UNL     1      32.258  -8.933  34.249  1.00  0.00     0.051 A 
ATOM     15  C   UNL     1      33.019  -8.038  35.008  1.00  0.00     0.157 A 
ATOM     16  C   UNL     1      34.859  -9.628  34.984  1.00  0.00     0.062 A 
ATOM     17  C   UNL     1      34.340  -8.389  35.378  1.00  0.00     0.158 A 
BRANCH  15  18
ATOM     18  O   UNL     1      32.432  -6.823  35.366  1.00  0.00    -0.504 OA
ATOM     19  H   UNL     1      31.675  -6.390  34.858  1.00  0.00     0.293 HD
ENDBRANCH  15  18
BRANCH  17  20
ATOM     20  O   UNL     1      35.162  -7.544  36.126  1.00  0.00    -0.504 OA
ATOM     21  H   UNL     1      35.542  -6.675  35.780  1.00  0.00     0.293 HD
ENDBRANCH  17  20
ENDBRANCH   1  12
BRANCH   2  22
ATOM     22  O   UNL     1      34.928 -12.572  36.119  1.00  0.00    -0.502 OA
ATOM     23  H   UNL     1      34.208 -11.973  36.504  1.00  0.00     0.293 HD
ENDBRANCH   2  22
BRANCH   6  24
ATOM     24  O   UNL     1      36.468 -16.613  33.010  1.00  0.00    -0.507 OA
ATOM     25  H   UNL     1      35.895 -16.967  33.761  1.00  0.00     0.293 HD
ENDBRANCH   6  24
BRANCH   8  26
ATOM     26  O   UNL     1      36.317 -14.507  28.716  1.00  0.00    -0.508 OA
ATOM     27  H   UNL     1      35.585 -14.286  28.050  1.00  0.00     0.293 HD
ENDBRANCH   8  26
TORSDOF 6
ENDMDL
MODEL 7
REMARK VINA RESULT:    -5.608      1.539      7.039
REMARK INTER + INTRA:          -6.855
REMARK INTER:                  -6.537
REMARK INTRA:                  -0.318
REMARK UNBOUND:                -0.100
REMARK SMILES O=c1c(O)c(-c2ccc(O)c(O)c2)oc2cc(O)cc(O)c12
REMARK SMILES IDX 5 1 3 2 2 3 1 4 22 5 20 6 19 7 17 8 16 9 15 10 14 11 6 12
REMARK SMILES IDX 7 13 8 14 9 15 13 16 11 17 10 18 12 20 4 22 21 24 18 26
REMARK H PARENT 10 19 12 21 4 23 21 25 18 27
REMARK Flexibility Score: inf
ROOT
ATOM      1  C   UNL     1      43.093  -9.007  40.927  1.00  0.00     0.180 A 
ATOM      2  C   UNL     1      42.891  -9.350  42.276  1.00  0.00     0.208 A 
ATOM      3  C   UNL     1      41.649  -9.073  42.870  1.00  0.00     0.238 A 
ATOM      4  O   UNL     1      41.457  -9.431  44.062  1.00  0.00    -0.285 OA
ATOM      5  C   UNL     1      40.631  -8.443  42.114  1.00  0.00     0.111 A 
ATOM      6  C   UNL     1      39.349  -8.080  42.626  1.00  0.00     0.134 A 
ATOM      7  C   UNL     1      38.374  -7.581  41.754  1.00  0.00     0.093 A 
ATOM      8  C   UNL     1      38.655  -7.370  40.405  1.00  0.00     0.123 A 
ATOM      9  C   UNL     1      39.924  -7.666  39.905  1.00  0.00     0.094 A 
ATOM     10  C   UNL     1      40.906  -8.200  40.743  1.00  0.00     0.146 A 
ATOM     11  O   UNL     1      42.097  -8.478  40.227  1.00  0.00    -0.452 OA
ENDROOT
BRANCH   1  12
ATOM     12  C   UNL     1      44.383  -9.245  40.239  1.00  0.00     0.025 A 
ATOM     13  C   UNL     1      44.675 -10.481  39.640  1.00  0.00     0.016 A 
ATOM     14  C   UNL     1      45.907 -10.689  39.017  1.00  0.00     0.051 A 
ATOM     15  C   UNL     1      46.873  -9.678  38.989  1.00  0.00     0.157 A 
ATOM     16  C   UNL     1      45.359  -8.237  40.231  1.00  0.00     0.062 A 
ATOM     17  C   UNL     1      46.598  -8.436  39.609  1.00  0.00     0.158 A 
BRANCH  15  18
ATOM     18  O   UNL     1      48.083  -9.949  38.347  1.00  0.00    -0.504 OA
ATOM     19  H   UNL     1      48.342 -10.858  37.989  1.00  0.00     0.293 HD
ENDBRANCH  15  18
BRANCH  17  20
ATOM     20  O   UNL     1      47.516  -7.384  39.631  1.00  0.00    -0.504 OA
ATOM     21  H   UNL     1      47.915  -6.965  38.804  1.00  0.00     0.293 HD
ENDBRANCH  17  20
ENDBRANCH   1  12
BRANCH   2  22
ATOM     22  O   UNL     1      43.902  -9.990  42.997  1.00  0.00    -0.502 OA
ATOM     23  H   UNL     1      44.285 -10.886  42.720  1.00  0.00     0.293 HD
ENDBRANCH   2  22
BRANCH   6  24
ATOM     24  O   UNL     1      38.996  -8.162  43.976  1.00  0.00    -0.507 OA
ATOM     25  H   UNL     1      38.522  -8.946  44.399  1.00  0.00     0.293 HD
ENDBRANCH   6  24
BRANCH   8  26
ATOM     26  O   UNL     1      37.664  -6.857  39.569  1.00  0.00    -0.508 OA
ATOM     27  H   UNL     1      37.813  -6.756  38.571  1.00  0.00     0.293 HD
ENDBRANCH   8  26
TORSDOF 6
ENDMDL
MODEL 8
REMARK VINA RESULT:    -5.577      1.676      6.835
REMARK INTER + INTRA:          -6.817
REMARK INTER:                  -6.545
REMARK INTRA:                  -0.272
REMARK UNBOUND:                -0.100
REMARK SMILES O=c1c(O)c(-c2ccc(O)c(O)c2)oc2cc(O)cc(O)c12
REMARK SMILES IDX 5 1 3 2 2 3 1 4 22 5 20 6 19 7 17 8 16 9 15 10 14 11 6 12
REMARK SMILES IDX 7 13 8 14 9 15 13 16 11 17 10 18 12 20 4 22 21 24 18 26
REMARK H PARENT 10 19 12 21 4 23 21 25 18 27
REMARK Flexibility Score: inf
ROOT
ATOM      1  C   UNL     1      42.637  -8.705  40.581  1.00  0.00     0.180 A 
ATOM      2  C   UNL     1      41.645  -8.019  39.858  1.00  0.00     0.208 A 
ATOM      3  C   UNL     1      40.381  -7.838  40.440  1.00  0.00     0.238 A 
ATOM      4  O   UNL     1      39.514  -7.177  39.809  1.00  0.00    -0.285 OA
ATOM      5  C   UNL     1      40.118  -8.358  41.730  1.00  0.00     0.111 A 
ATOM      6  C   UNL     1      38.860  -8.267  42.399  1.00  0.00     0.134 A 
ATOM      7  C   UNL     1      38.752  -8.701  43.726  1.00  0.00     0.093 A 
ATOM      8  C   UNL     1      39.835  -9.281  44.385  1.00  0.00     0.123 A 
ATOM      9  C   UNL     1      41.054  -9.429  43.721  1.00  0.00     0.094 A 
ATOM     10  C   UNL     1      41.203  -8.972  42.409  1.00  0.00     0.146 A 
ATOM     11  O   UNL     1      42.381  -9.122  41.815  1.00  0.00    -0.452 OA
ENDROOT
BRANCH   1  12
ATOM     12  C   UNL     1      43.986  -8.957  40.024  1.00  0.00     0.025 A 
ATOM     13  C   UNL     1      44.360 -10.228  39.560  1.00  0.00     0.016 A 
ATOM     14  C   UNL     1      45.645 -10.447  39.061  1.00  0.00     0.051 A 
ATOM     15  C   UNL     1      46.585  -9.412  39.028  1.00  0.00     0.157 A 
ATOM     16  C   UNL     1      44.934  -7.922  40.012  1.00  0.00     0.062 A 
ATOM     17  C   UNL     1      46.226  -8.131  39.514  1.00  0.00     0.158 A 
BRANCH  15  18
ATOM     18  O   UNL     1      47.852  -9.696  38.513  1.00  0.00    -0.504 OA
ATOM     19  H   UNL     1      48.630 -10.012  39.073  1.00  0.00     0.293 HD
ENDBRANCH  15  18
BRANCH  17  20
ATOM     20  O   UNL     1      47.112  -7.053  39.523  1.00  0.00    -0.504 OA
ATOM     21  H   UNL     1      48.038  -7.086  39.923  1.00  0.00     0.293 HD
ENDBRANCH  17  20
ENDBRANCH   1  12
BRANCH   2  22
ATOM     22  O   UNL     1      41.932  -7.496  38.594  1.00  0.00    -0.502 OA
ATOM     23  H   UNL     1      42.332  -8.056  37.851  1.00  0.00     0.293 HD
ENDBRANCH   2  22
BRANCH   6  24
ATOM     24  O   UNL     1      37.691  -7.789  41.802  1.00  0.00    -0.507 OA
ATOM     25  H   UNL     1      37.214  -6.941  42.069  1.00  0.00     0.293 HD
ENDBRANCH   6  24
BRANCH   8  26
ATOM     26  O   UNL     1      39.687  -9.716  45.701  1.00  0.00    -0.508 OA
ATOM     27  H   UNL     1      40.297  -9.386  46.440  1.00  0.00     0.293 HD
ENDBRANCH   8  26
TORSDOF 6
ENDMDL
MODEL 9
REMARK VINA RESULT:    -5.562      9.458     11.340
REMARK INTER + INTRA:          -6.799
REMARK INTER:                  -6.476
REMARK INTRA:                  -0.323
REMARK UNBOUND:                -0.100
REMARK SMILES O=c1c(O)c(-c2ccc(O)c(O)c2)oc2cc(O)cc(O)c12
REMARK SMILES IDX 5 1 3 2 2 3 1 4 22 5 20 6 19 7 17 8 16 9 15 10 14 11 6 12
REMARK SMILES IDX 7 13 8 14 9 15 13 16 11 17 10 18 12 20 4 22 21 24 18 26
REMARK H PARENT 10 19 12 21 4 23 21 25 18 27
REMARK Flexibility Score: inf
ROOT
ATOM      1  C   UNL     1      34.042 -10.801  35.113  1.00  0.00     0.180 A 
ATOM      2  C   UNL     1      32.843 -11.173  34.479  1.00  0.00     0.208 A 
ATOM      3  C   UNL     1      32.905 -11.860  33.256  1.00  0.00     0.238 A 
ATOM      4  O   UNL     1      31.829 -12.237  32.721  1.00  0.00    -0.285 OA
ATOM      5  C   UNL     1      34.162 -12.152  32.674  1.00  0.00     0.111 A 
ATOM      6  C   UNL     1      34.340 -12.807  31.418  1.00  0.00     0.134 A 
ATOM      7  C   UNL     1      35.630 -13.162  31.003  1.00  0.00     0.093 A 
ATOM      8  C   UNL     1      36.749 -12.826  31.763  1.00  0.00     0.123 A 
ATOM      9  C   UNL     1      36.591 -12.133  32.964  1.00  0.00     0.094 A 
ATOM     10  C   UNL     1      35.314 -11.798  33.423  1.00  0.00     0.146 A 
ATOM     11  O   UNL     1      35.205 -11.148  34.575  1.00  0.00    -0.452 OA
ENDROOT
BRANCH   1  12
ATOM     12  C   UNL     1      34.058 -10.054  36.391  1.00  0.00     0.025 A 
ATOM     13  C   UNL     1      34.046 -10.719  37.627  1.00  0.00     0.016 A 
ATOM     14  C   UNL     1      34.038  -9.992  38.820  1.00  0.00     0.051 A 
ATOM     15  C   UNL     1      34.028  -8.594  38.804  1.00  0.00     0.157 A 
ATOM     16  C   UNL     1      34.027  -8.650  36.373  1.00  0.00     0.062 A 
ATOM     17  C   UNL     1      34.019  -7.913  37.563  1.00  0.00     0.158 A 
BRANCH  15  18
ATOM     18  O   UNL     1      34.024  -7.927  40.031  1.00  0.00    -0.504 OA
ATOM     19  H   UNL     1      33.588  -8.287  40.868  1.00  0.00     0.293 HD
ENDBRANCH  15  18
BRANCH  17  20
ATOM     20  O   UNL     1      33.999  -6.520  37.468  1.00  0.00    -0.504 OA
ATOM     21  H   UNL     1      34.710  -5.976  37.001  1.00  0.00     0.293 HD
ENDBRANCH  17  20
ENDBRANCH   1  12
BRANCH   2  22
ATOM     22  O   UNL     1      31.614 -10.894  35.081  1.00  0.00    -0.502 OA
ATOM     23  H   UNL     1      30.851 -11.560  35.097  1.00  0.00     0.293 HD
ENDBRANCH   2  22
BRANCH   6  24
ATOM     24  O   UNL     1      33.297 -13.105  30.538  1.00  0.00    -0.507 OA
ATOM     25  H   UNL     1      33.218 -13.961  30.009  1.00  0.00     0.293 HD
ENDBRANCH   6  24
BRANCH   8  26
ATOM     26  O   UNL     1      38.019 -13.182  31.311  1.00  0.00    -0.508 OA
ATOM     27  H   UNL     1      38.703 -13.603  31.929  1.00  0.00     0.293 HD
ENDBRANCH   8  26
TORSDOF 6
ENDMDL
