MODEL 1
REMARK VINA RESULT:    -4.219      0.000      0.000
REMARK INTER + INTRA:          -6.478
REMARK INTER:                  -5.822
REMARK INTRA:                  -0.656
REMARK UNBOUND:                -0.656
REMARK SMILES OC[C@@H](O)[C@@H](O)[C@@H](O)CO
REMARK SMILES IDX 5 1 7 2 9 3 10 4 8 6 3 8 2 9 1 10 4 12 6 14
REMARK H PARENT 10 5 8 7 1 11 4 13 6 15
REMARK Flexibility Score: inf
ROOT
ATOM      1  C   UNL     1       4.883  28.507  17.442  1.00  0.00     0.176 C 
ENDROOT
BRANCH   1   2
ATOM      2  C   UNL     1       4.391  29.212  18.745  1.00  0.00     0.171 C 
BRANCH   2   3
ATOM      3  C   UNL     1       3.104  28.606  19.344  1.00  0.00     0.190 C 
BRANCH   3   4
ATOM      4  O   UNL     1       2.206  28.261  18.323  1.00  0.00    -0.394 OA
ATOM      5  H   UNL     1       2.020  29.094  17.816  1.00  0.00     0.210 HD
ENDBRANCH   3   4
ENDBRANCH   2   3
BRANCH   2   6
ATOM      6  O   UNL     1       4.196  30.585  18.506  1.00  0.00    -0.388 OA
ATOM      7  H   UNL     1       5.093  31.008  18.448  1.00  0.00     0.211 HD
ENDBRANCH   2   6
ENDBRANCH   1   2
BRANCH   1   8
ATOM      8  C   UNL     1       6.396  28.689  17.118  1.00  0.00     0.171 C 
BRANCH   8   9
ATOM      9  C   UNL     1       6.791  28.098  15.746  1.00  0.00     0.190 C 
BRANCH   9  10
ATOM     10  O   UNL     1       5.646  27.850  14.976  1.00  0.00    -0.394 OA
ATOM     11  H   UNL     1       4.945  27.529  15.601  1.00  0.00     0.210 HD
ENDBRANCH   9  10
ENDBRANCH   8   9
BRANCH   8  12
ATOM     12  O   UNL     1       6.798  30.032  17.238  1.00  0.00    -0.388 OA
ATOM     13  H   UNL     1       6.665  30.309  18.182  1.00  0.00     0.211 HD
ENDBRANCH   8  12
ENDBRANCH   1   8
BRANCH   1  14
ATOM     14  O   UNL     1       4.522  27.147  17.430  1.00  0.00    -0.388 OA
ATOM     15  H   UNL     1       4.002  26.960  18.255  1.00  0.00     0.211 HD
ENDBRANCH   1  14
TORSDOF 9
ENDMDL
MODEL 2
REMARK VINA RESULT:    -4.064      1.176      3.584
REMARK INTER + INTRA:          -6.264
REMARK INTER:                  -5.930
REMARK INTRA:                  -0.334
REMARK UNBOUND:                -0.656
REMARK SMILES OC[C@@H](O)[C@@H](O)[C@@H](O)CO
REMARK SMILES IDX 5 1 7 2 9 3 10 4 8 6 3 8 2 9 1 10 4 12 6 14
REMARK H PARENT 10 5 8 7 1 11 4 13 6 15
REMARK Flexibility Score: inf
ROOT
ATOM      1  C   UNL     1       4.415  29.838  17.914  1.00  0.00     0.176 C 
ENDROOT
BRANCH   1   2
ATOM      2  C   UNL     1       5.523  29.556  16.851  1.00  0.00     0.171 C 
BRANCH   2   3
ATOM      3  C   UNL     1       5.277  28.290  16.002  1.00  0.00     0.190 C 
BRANCH   3   4
ATOM      4  O   UNL     1       3.943  27.874  16.123  1.00  0.00    -0.394 OA
ATOM      5  H   UNL     1       3.664  28.083  17.052  1.00  0.00     0.210 HD
ENDBRANCH   3   4
ENDBRANCH   2   3
BRANCH   2   6
ATOM      6  O   UNL     1       6.779  29.465  17.477  1.00  0.00    -0.388 OA
ATOM      7  H   UNL     1       7.458  29.800  16.834  1.00  0.00     0.211 HD
ENDBRANCH   2   6
ENDBRANCH   1   2
BRANCH   1   8
ATOM      8  C   UNL     1       4.415  28.881  19.144  1.00  0.00     0.171 C 
BRANCH   8   9
ATOM      9  C   UNL     1       2.995  28.427  19.550  1.00  0.00     0.190 C 
BRANCH   9  10
ATOM     10  O   UNL     1       2.201  28.236  18.409  1.00  0.00    -0.394 OA
ATOM     11  H   UNL     1       1.813  27.325  18.481  1.00  0.00     0.210 HD
ENDBRANCH   9  10
ENDBRANCH   8   9
BRANCH   8  12
ATOM     12  O   UNL     1       5.275  27.785  18.953  1.00  0.00    -0.388 OA
ATOM     13  H   UNL     1       6.202  28.085  19.144  1.00  0.00     0.211 HD
ENDBRANCH   8  12
ENDBRANCH   1   8
BRANCH   1  14
ATOM     14  O   UNL     1       4.428  31.186  18.320  1.00  0.00    -0.388 OA
ATOM     15  H   UNL     1       4.560  31.748  17.513  1.00  0.00     0.211 HD
ENDBRANCH   1  14
TORSDOF 9
ENDMDL
MODEL 3
REMARK VINA RESULT:    -3.990      1.269      3.638
REMARK INTER + INTRA:          -6.161
REMARK INTER:                  -5.490
REMARK INTRA:                  -0.671
REMARK UNBOUND:                -0.656
REMARK SMILES OC[C@@H](O)[C@@H](O)[C@@H](O)CO
REMARK SMILES IDX 5 1 7 2 9 3 10 4 8 6 3 8 2 9 1 10 4 12 6 14
REMARK H PARENT 10 5 8 7 1 11 4 13 6 15
REMARK Flexibility Score: inf
ROOT
ATOM      1  C   UNL     1       4.872  28.125  17.419  1.00  0.00     0.176 C 
ENDROOT
BRANCH   1   2
ATOM      2  C   UNL     1       6.247  28.646  16.894  1.00  0.00     0.171 C 
BRANCH   2   3
ATOM      3  C   UNL     1       7.465  27.862  17.428  1.00  0.00     0.190 C 
BRANCH   3   4
ATOM      4  O   UNL     1       7.417  27.780  18.827  1.00  0.00    -0.394 OA
ATOM      5  H   UNL     1       6.462  27.872  19.084  1.00  0.00     0.210 HD
ENDBRANCH   3   4
ENDBRANCH   2   3
BRANCH   2   6
ATOM      6  O   UNL     1       6.394  30.010  17.202  1.00  0.00    -0.388 OA
ATOM      7  H   UNL     1       5.683  30.248  17.854  1.00  0.00     0.211 HD
ENDBRANCH   2   6
ENDBRANCH   1   2
BRANCH   1   8
ATOM      8  C   UNL     1       4.200  29.007  18.513  1.00  0.00     0.171 C 
BRANCH   8   9
ATOM      9  C   UNL     1       2.908  28.378  19.081  1.00  0.00     0.190 C 
BRANCH   9  10
ATOM     10  O   UNL     1       1.939  28.265  18.073  1.00  0.00    -0.394 OA
ATOM     11  H   UNL     1       2.139  27.428  17.577  1.00  0.00     0.210 HD
ENDBRANCH   9  10
ENDBRANCH   8   9
BRANCH   8  12
ATOM     12  O   UNL     1       5.103  29.349  19.536  1.00  0.00    -0.388 OA
ATOM     13  H   UNL     1       4.578  29.686  20.309  1.00  0.00     0.211 HD
ENDBRANCH   8  12
ENDBRANCH   1   8
BRANCH   1  14
ATOM     14  O   UNL     1       3.983  27.870  16.357  1.00  0.00    -0.388 OA
ATOM     15  H   UNL     1       4.301  28.374  15.564  1.00  0.00     0.211 HD
ENDBRANCH   1  14
TORSDOF 9
ENDMDL
MODEL 4
REMARK VINA RESULT:    -3.873      1.276      3.850
REMARK INTER + INTRA:          -6.001
REMARK INTER:                  -5.784
REMARK INTRA:                  -0.217
REMARK UNBOUND:                -0.656
REMARK SMILES OC[C@@H](O)[C@@H](O)[C@@H](O)CO
REMARK SMILES IDX 5 1 7 2 9 3 10 4 8 6 3 8 2 9 1 10 4 12 6 14
REMARK H PARENT 10 5 8 7 1 11 4 13 6 15
REMARK Flexibility Score: inf
ROOT
ATOM      1  C   UNL     1       5.189  29.566  17.010  1.00  0.00     0.176 C 
ENDROOT
BRANCH   1   2
ATOM      2  C   UNL     1       6.689  29.346  16.636  1.00  0.00     0.171 C 
BRANCH   2   3
ATOM      3  C   UNL     1       7.329  28.106  17.297  1.00  0.00     0.190 C 
BRANCH   3   4
ATOM      4  O   UNL     1       7.429  28.290  18.684  1.00  0.00    -0.394 OA
ATOM      5  H   UNL     1       7.369  27.388  19.094  1.00  0.00     0.210 HD
ENDBRANCH   3   4
ENDBRANCH   2   3
BRANCH   2   6
ATOM      6  O   UNL     1       7.438  30.491  16.960  1.00  0.00    -0.388 OA
ATOM      7  H   UNL     1       6.850  31.095  17.485  1.00  0.00     0.211 HD
ENDBRANCH   2   6
ENDBRANCH   1   2
BRANCH   1   8
ATOM      8  C   UNL     1       4.380  28.268  17.308  1.00  0.00     0.171 C 
BRANCH   8   9
ATOM      9  C   UNL     1       3.598  28.341  18.639  1.00  0.00     0.190 C 
BRANCH   9  10
ATOM     10  O   UNL     1       2.220  28.234  18.399  1.00  0.00    -0.394 OA
ATOM     11  H   UNL     1       1.875  27.545  19.025  1.00  0.00     0.210 HD
ENDBRANCH   9  10
ENDBRANCH   8   9
BRANCH   8  12
ATOM     12  O   UNL     1       3.543  27.916  16.234  1.00  0.00    -0.388 OA
ATOM     13  H   UNL     1       3.423  26.930  16.248  1.00  0.00     0.211 HD
ENDBRANCH   8  12
ENDBRANCH   1   8
BRANCH   1  14
ATOM     14  O   UNL     1       5.055  30.498  18.055  1.00  0.00    -0.388 OA
ATOM     15  H   UNL     1       4.113  30.813  18.066  1.00  0.00     0.211 HD
ENDBRANCH   1  14
TORSDOF 9
ENDMDL
MODEL 5
REMARK VINA RESULT:    -3.817     14.057     15.245
REMARK INTER + INTRA:          -5.924
REMARK INTER:                  -5.418
REMARK INTRA:                  -0.506
REMARK UNBOUND:                -0.656
REMARK SMILES OC[C@@H](O)[C@@H](O)[C@@H](O)CO
REMARK SMILES IDX 5 1 7 2 9 3 10 4 8 6 3 8 2 9 1 10 4 12 6 14
REMARK H PARENT 10 5 8 7 1 11 4 13 6 15
REMARK Flexibility Score: inf
ROOT
ATOM      1  C   UNL     1      -9.836  25.297  19.707  1.00  0.00     0.176 C 
ENDROOT
BRANCH   1   2
ATOM      2  C   UNL     1      -9.956  24.251  18.554  1.00  0.00     0.171 C 
BRANCH   2   3
ATOM      3  C   UNL     1     -10.764  22.989  18.927  1.00  0.00     0.190 C 
BRANCH   3   4
ATOM      4  O   UNL     1     -10.066  21.833  18.545  1.00  0.00    -0.394 OA
ATOM      5  H   UNL     1     -10.411  21.577  17.650  1.00  0.00     0.210 HD
ENDBRANCH   3   4
ENDBRANCH   2   3
BRANCH   2   6
ATOM      6  O   UNL     1      -8.675  23.875  18.110  1.00  0.00    -0.388 OA
ATOM      7  H   UNL     1      -8.791  23.137  17.456  1.00  0.00     0.211 HD
ENDBRANCH   2   6
ENDBRANCH   1   2
BRANCH   1   8
ATOM      8  C   UNL     1      -8.458  25.332  20.433  1.00  0.00     0.171 C 
BRANCH   8   9
ATOM      9  C   UNL     1      -8.442  26.293  21.643  1.00  0.00     0.190 C 
BRANCH   9  10
ATOM     10  O   UNL     1      -8.279  27.617  21.210  1.00  0.00    -0.394 OA
ATOM     11  H   UNL     1      -8.912  27.751  20.457  1.00  0.00     0.210 HD
ENDBRANCH   9  10
ENDBRANCH   8   9
BRANCH   8  12
ATOM     12  O   UNL     1      -8.023  24.043  20.790  1.00  0.00    -0.388 OA
ATOM     13  H   UNL     1      -8.113  23.457  19.993  1.00  0.00     0.211 HD
ENDBRANCH   8  12
ENDBRANCH   1   8
BRANCH   1  14
ATOM     14  O   UNL     1     -10.212  26.581  19.271  1.00  0.00    -0.388 OA
ATOM     15  H   UNL     1     -10.093  26.618  18.286  1.00  0.00     0.211 HD
ENDBRANCH   1  14
TORSDOF 9
ENDMDL
MODEL 6
REMARK VINA RESULT:    -3.786     14.179     15.828
REMARK INTER + INTRA:          -5.880
REMARK INTER:                  -5.275
REMARK INTRA:                  -0.605
REMARK UNBOUND:                -0.656
REMARK SMILES OC[C@@H](O)[C@@H](O)[C@@H](O)CO
REMARK SMILES IDX 5 1 7 2 9 3 10 4 8 6 3 8 2 9 1 10 4 12 6 14
REMARK H PARENT 10 5 8 7 1 11 4 13 6 15
REMARK Flexibility Score: inf
ROOT
ATOM      1  C   UNL     1     -10.038  24.130  18.627  1.00  0.00     0.176 C 
ENDROOT
BRANCH   1   2
ATOM      2  C   UNL     1     -10.748  22.802  19.039  1.00  0.00     0.171 C 
BRANCH   2   3
ATOM      3  C   UNL     1     -10.868  22.596  20.564  1.00  0.00     0.190 C 
BRANCH   3   4
ATOM      4  O   UNL     1      -9.748  21.905  21.052  1.00  0.00    -0.394 OA
ATOM      5  H   UNL     1     -10.028  21.474  21.901  1.00  0.00     0.210 HD
ENDBRANCH   3   4
ENDBRANCH   2   3
BRANCH   2   6
ATOM      6  O   UNL     1     -10.084  21.703  18.466  1.00  0.00    -0.388 OA
ATOM      7  H   UNL     1     -10.778  21.070  18.142  1.00  0.00     0.211 HD
ENDBRANCH   2   6
ENDBRANCH   1   2
BRANCH   1   8
ATOM      8  C   UNL     1      -9.959  25.216  19.742  1.00  0.00     0.171 C 
BRANCH   8   9
ATOM      9  C   UNL     1      -8.515  25.472  20.229  1.00  0.00     0.190 C 
BRANCH   9  10
ATOM     10  O   UNL     1      -7.936  24.279  20.685  1.00  0.00    -0.394 OA
ATOM     11  H   UNL     1      -7.433  24.503  21.511  1.00  0.00     0.210 HD
ENDBRANCH   9  10
ENDBRANCH   8   9
BRANCH   8  12
ATOM     12  O   UNL     1     -10.594  26.409  19.354  1.00  0.00    -0.388 OA
ATOM     13  H   UNL     1     -10.444  26.535  18.380  1.00  0.00     0.211 HD
ENDBRANCH   8  12
ENDBRANCH   1   8
BRANCH   1  14
ATOM     14  O   UNL     1      -8.768  23.878  18.074  1.00  0.00    -0.388 OA
ATOM     15  H   UNL     1      -8.391  23.078  18.523  1.00  0.00     0.211 HD
ENDBRANCH   1  14
TORSDOF 9
ENDMDL
MODEL 7
REMARK VINA RESULT:    -3.730     14.734     16.189
REMARK INTER + INTRA:          -5.803
REMARK INTER:                  -5.172
REMARK INTRA:                  -0.632
REMARK UNBOUND:                -0.656
REMARK SMILES OC[C@@H](O)[C@@H](O)[C@@H](O)CO
REMARK SMILES IDX 5 1 7 2 9 3 10 4 8 6 3 8 2 9 1 10 4 12 6 14
REMARK H PARENT 10 5 8 7 1 11 4 13 6 15
REMARK Flexibility Score: inf
ROOT
ATOM      1  C   UNL     1     -10.467  22.503  20.929  1.00  0.00     0.176 C 
ENDROOT
BRANCH   1   2
ATOM      2  C   UNL     1     -10.071  23.851  21.609  1.00  0.00     0.171 C 
BRANCH   2   3
ATOM      3  C   UNL     1      -8.639  23.870  22.188  1.00  0.00     0.190 C 
BRANCH   3   4
ATOM      4  O   UNL     1      -7.695  23.774  21.155  1.00  0.00    -0.394 OA
ATOM      5  H   UNL     1      -8.205  23.773  20.304  1.00  0.00     0.210 HD
ENDBRANCH   3   4
ENDBRANCH   2   3
BRANCH   2   6
ATOM      6  O   UNL     1     -10.992  24.168  22.623  1.00  0.00    -0.388 OA
ATOM      7  H   UNL     1     -11.229  23.322  23.088  1.00  0.00     0.211 HD
ENDBRANCH   2   6
ENDBRANCH   1   2
BRANCH   1   8
ATOM      8  C   UNL     1     -10.776  22.592  19.404  1.00  0.00     0.171 C 
BRANCH   8   9
ATOM      9  C   UNL     1     -10.262  23.901  18.764  1.00  0.00     0.190 C 
BRANCH   9  10
ATOM     10  O   UNL     1      -8.944  23.736  18.312  1.00  0.00    -0.394 OA
ATOM     11  H   UNL     1      -8.397  24.427  18.769  1.00  0.00     0.210 HD
ENDBRANCH   9  10
ENDBRANCH   8   9
BRANCH   8  12
ATOM     12  O   UNL     1     -10.312  21.459  18.711  1.00  0.00    -0.388 OA
ATOM     13  H   UNL     1      -9.411  21.669  18.349  1.00  0.00     0.211 HD
ENDBRANCH   8  12
ENDBRANCH   1   8
BRANCH   1  14
ATOM     14  O   UNL     1      -9.518  21.498  21.196  1.00  0.00    -0.388 OA
ATOM     15  H   UNL     1      -8.621  21.855  20.966  1.00  0.00     0.211 HD
ENDBRANCH   1  14
TORSDOF 9
ENDMDL
MODEL 8
REMARK VINA RESULT:    -3.687     14.032     15.282
REMARK INTER + INTRA:          -5.744
REMARK INTER:                  -4.970
REMARK INTRA:                  -0.775
REMARK UNBOUND:                -0.656
REMARK SMILES OC[C@@H](O)[C@@H](O)[C@@H](O)CO
REMARK SMILES IDX 5 1 7 2 9 3 10 4 8 6 3 8 2 9 1 10 4 12 6 14
REMARK H PARENT 10 5 8 7 1 11 4 13 6 15
REMARK Flexibility Score: inf
ROOT
ATOM      1  C   UNL     1      -9.010  25.063  19.563  1.00  0.00     0.176 C 
ENDROOT
BRANCH   1   2
ATOM      2  C   UNL     1     -10.164  24.033  19.356  1.00  0.00     0.171 C 
BRANCH   2   3
ATOM      3  C   UNL     1     -10.594  23.298  20.645  1.00  0.00     0.190 C 
BRANCH   3   4
ATOM      4  O   UNL     1      -9.485  22.691  21.253  1.00  0.00    -0.394 OA
ATOM      5  H   UNL     1      -9.787  21.799  21.566  1.00  0.00     0.210 HD
ENDBRANCH   3   4
ENDBRANCH   2   3
BRANCH   2   6
ATOM      6  O   UNL     1      -9.798  23.091  18.378  1.00  0.00    -0.388 OA
ATOM      7  H   UNL     1      -9.463  22.283  18.851  1.00  0.00     0.211 HD
ENDBRANCH   2   6
ENDBRANCH   1   2
BRANCH   1   8
ATOM      8  C   UNL     1      -9.345  26.258  20.507  1.00  0.00     0.171 C 
BRANCH   8   9
ATOM      9  C   UNL     1      -8.356  26.386  21.687  1.00  0.00     0.190 C 
BRANCH   9  10
ATOM     10  O   UNL     1      -8.511  25.308  22.570  1.00  0.00    -0.394 OA
ATOM     11  H   UNL     1      -7.938  24.573  22.228  1.00  0.00     0.210 HD
ENDBRANCH   9  10
ENDBRANCH   8   9
BRANCH   8  12
ATOM     12  O   UNL     1      -9.464  27.466  19.797  1.00  0.00    -0.388 OA
ATOM     13  H   UNL     1      -8.780  27.468  19.077  1.00  0.00     0.211 HD
ENDBRANCH   8  12
ENDBRANCH   1   8
BRANCH   1  14
ATOM     14  O   UNL     1      -7.819  24.425  19.958  1.00  0.00    -0.388 OA
ATOM     15  H   UNL     1      -8.054  23.521  20.296  1.00  0.00     0.211 HD
ENDBRANCH   1  14
TORSDOF 9
ENDMDL
MODEL 9
REMARK VINA RESULT:    -3.660     14.213     14.930
REMARK INTER + INTRA:          -5.706
REMARK INTER:                  -5.252
REMARK INTRA:                  -0.455
REMARK UNBOUND:                -0.656
REMARK SMILES OC[C@@H](O)[C@@H](O)[C@@H](O)CO
REMARK SMILES IDX 5 1 7 2 9 3 10 4 8 6 3 8 2 9 1 10 4 12 6 14
REMARK H PARENT 10 5 8 7 1 11 4 13 6 15
REMARK Flexibility Score: inf
ROOT
ATOM      1  C   UNL     1      -8.928  26.634  20.423  1.00  0.00     0.176 C 
ENDROOT
BRANCH   1   2
ATOM      2  C   UNL     1      -9.779  27.392  21.489  1.00  0.00     0.171 C 
BRANCH   2   3
ATOM      3  C   UNL     1     -11.081  28.009  20.936  1.00  0.00     0.190 C 
BRANCH   3   4
ATOM      4  O   UNL     1     -10.800  29.190  20.233  1.00  0.00    -0.394 OA
ATOM      5  H   UNL     1     -10.660  28.930  19.285  1.00  0.00     0.210 HD
ENDBRANCH   3   4
ENDBRANCH   2   3
BRANCH   2   6
ATOM      6  O   UNL     1      -9.004  28.396  22.097  1.00  0.00    -0.388 OA
ATOM      7  H   UNL     1      -9.296  28.466  23.045  1.00  0.00     0.211 HD
ENDBRANCH   2   6
ENDBRANCH   1   2
BRANCH   1   8
ATOM      8  C   UNL     1      -9.068  25.082  20.441  1.00  0.00     0.171 C 
BRANCH   8   9
ATOM      9  C   UNL     1      -9.798  24.530  19.196  1.00  0.00     0.190 C 
BRANCH   9  10
ATOM     10  O   UNL     1      -8.868  24.123  18.228  1.00  0.00    -0.394 OA
ATOM     11  H   UNL     1      -8.048  23.849  18.716  1.00  0.00     0.210 HD
ENDBRANCH   9  10
ENDBRANCH   8   9
BRANCH   8  12
ATOM     12  O   UNL     1      -7.827  24.448  20.637  1.00  0.00    -0.388 OA
ATOM     13  H   UNL     1      -7.960  23.470  20.521  1.00  0.00     0.211 HD
ENDBRANCH   8  12
ENDBRANCH   1   8
BRANCH   1  14
ATOM     14  O   UNL     1      -9.151  27.147  19.131  1.00  0.00    -0.388 OA
ATOM     15  H   UNL     1     -10.046  26.840  18.830  1.00  0.00     0.211 HD
ENDBRANCH   1  14
TORSDOF 9
ENDMDL
