MODEL 1
REMARK VINA RESULT:    -4.075      0.000      0.000
REMARK INTER + INTRA:          -6.479
REMARK INTER:                  -6.219
REMARK INTRA:                  -0.260
REMARK UNBOUND:                -0.260
REMARK SMILES CC1=CCC[C@H](C)C(=O)C[C@@H](C(C)C)C(=O)C1
REMARK SMILES IDX 8 1 9 2 6 3 7 4 5 5 4 6 3 7 2 8 1 9 10 11 11 12 15 13 16 14
REMARK SMILES IDX 17 15 12 17 13 18 14 19
REMARK H PARENT
REMARK Flexibility Score: 70.00
ROOT
ATOM      1  C   UNL     1     -39.322  16.895  13.086  1.00  0.00     0.136 C 
ATOM      2  O   UNL     1     -39.280  15.942  12.320  1.00  0.00    -0.299 OA
ENDROOT
BRANCH   1   3
ATOM      3  C   UNL     1     -39.598  18.293  12.554  1.00  0.00     0.053 C 
ATOM      4  C   UNL     1     -38.489  18.791  11.613  1.00  0.00     0.016 C 
BRANCH   3   5
ATOM      5  C   UNL     1     -40.986  18.379  11.889  1.00  0.00     0.015 C 
BRANCH   5   6
ATOM      6  C   UNL     1     -42.144  17.932  12.804  1.00  0.00     0.028 C 
BRANCH   6   7
ATOM      7  C   UNL     1     -42.356  18.924  13.918  1.00  0.00    -0.028 C 
ATOM      8  C   UNL     1     -42.473  18.598  15.227  1.00  0.00    -0.070 CG0
ATOM      9  C   UNL     1     -42.615  19.719  16.224  1.00  0.00     0.039 C 
ATOM     10  G   UNL     1     -42.487  17.160  15.726  1.00  0.00     0.000 G0
ENDBRANCH   6   7
ENDBRANCH   5   6
ENDBRANCH   3   5
ENDBRANCH   1   3
BRANCH   1  11
ATOM     11  C   UNL     1     -39.102  16.656  14.561  1.00  0.00     0.087 C 
BRANCH  11  12
ATOM     12  C   UNL     1     -40.249  15.829  15.198  1.00  0.00     0.066 C 
BRANCH  12  13
ATOM     13  C   UNL     1     -41.093  16.681  16.137  1.00  0.00     0.140 C 
ATOM     14  O   UNL     1     -40.679  16.945  17.257  1.00  0.00    -0.299 OA
BRANCH  13  15
ATOM     15  C   UNL     1     -42.469  17.149  15.731  1.00  0.00     0.106 CG0
ATOM     16  G   UNL     1     -42.470  18.585  15.225  1.00  0.00     0.000 G0
ENDBRANCH  13  15
ENDBRANCH  12  13
BRANCH  12  17
ATOM     17  C   UNL     1     -39.722  14.529  15.879  1.00  0.00    -0.006 C 
ATOM     18  C   UNL     1     -38.295  14.191  15.418  1.00  0.00     0.008 C 
ATOM     19  C   UNL     1     -40.639  13.306  15.700  1.00  0.00     0.008 C 
ENDBRANCH  12  17
ENDBRANCH  11  12
ENDBRANCH   1  11
TORSDOF 1
ENDMDL
MODEL 2
REMARK VINA RESULT:    -4.069      1.791      4.023
REMARK INTER + INTRA:          -6.470
REMARK INTER:                  -6.461
REMARK INTRA:                  -0.008
REMARK UNBOUND:                -0.260
REMARK SMILES CC1=CCC[C@H](C)C(=O)C[C@@H](C(C)C)C(=O)C1
REMARK SMILES IDX 8 1 9 2 6 3 7 4 5 5 4 6 3 7 2 8 1 9 10 11 11 12 15 13 16 14
REMARK SMILES IDX 17 15 12 17 13 18 14 19
REMARK H PARENT
REMARK Flexibility Score: 70.00
ROOT
ATOM      1  C   UNL     1     -40.212  16.064  16.114  1.00  0.00     0.136 C 
ATOM      2  O   UNL     1     -41.029  15.154  16.124  1.00  0.00    -0.299 OA
ENDROOT
BRANCH   1   3
ATOM      3  C   UNL     1     -38.796  15.816  15.618  1.00  0.00     0.053 C 
ATOM      4  C   UNL     1     -38.490  14.319  15.445  1.00  0.00     0.016 C 
BRANCH   3   5
ATOM      5  C   UNL     1     -38.504  16.607  14.327  1.00  0.00     0.015 C 
BRANCH   5   6
ATOM      6  C   UNL     1     -39.543  16.381  13.211  1.00  0.00     0.028 C 
BRANCH   6   7
ATOM      7  C   UNL     1     -39.893  17.683  12.538  1.00  0.00    -0.028 C 
ATOM      8  C   UNL     1     -41.044  18.369  12.741  1.00  0.00    -0.070 CG0
ATOM      9  C   UNL     1     -41.210  19.693  12.039  1.00  0.00     0.039 C 
ATOM     10  G   UNL     1     -42.172  17.854  13.623  1.00  0.00     0.000 G0
ENDBRANCH   6   7
ENDBRANCH   5   6
ENDBRANCH   3   5
ENDBRANCH   1   3
BRANCH   1  11
ATOM     11  C   UNL     1     -40.637  17.431  16.595  1.00  0.00     0.087 C 
BRANCH  11  12
ATOM     12  C   UNL     1     -42.119  17.736  16.257  1.00  0.00     0.066 C 
BRANCH  12  13
ATOM     13  C   UNL     1     -42.242  18.546  14.973  1.00  0.00     0.140 C 
ATOM     14  O   UNL     1     -42.436  19.752  15.030  1.00  0.00    -0.299 OA
BRANCH  13  15
ATOM     15  C   UNL     1     -42.198  17.869  13.625  1.00  0.00     0.106 CG0
ATOM     16  G   UNL     1     -41.044  18.363  12.764  1.00  0.00     0.000 G0
ENDBRANCH  13  15
ENDBRANCH  12  13
BRANCH  12  17
ATOM     17  C   UNL     1     -42.866  18.397  17.457  1.00  0.00    -0.006 C 
ATOM     18  C   UNL     1     -42.350  17.863  18.803  1.00  0.00     0.008 C 
ATOM     19  C   UNL     1     -44.399  18.275  17.392  1.00  0.00     0.008 C 
ENDBRANCH  12  17
ENDBRANCH  11  12
ENDBRANCH   1  11
TORSDOF 1
ENDMDL
MODEL 3
REMARK VINA RESULT:    -4.056      1.558      3.870
REMARK INTER + INTRA:          -6.450
REMARK INTER:                  -6.467
REMARK INTRA:                   0.017
REMARK UNBOUND:                -0.260
REMARK SMILES CC1=CCC[C@H](C)C(=O)C[C@@H](C(C)C)C(=O)C1
REMARK SMILES IDX 8 1 9 2 6 3 7 4 5 5 4 6 3 7 2 8 1 9 10 11 11 12 15 13 16 14
REMARK SMILES IDX 17 15 12 17 13 18 14 19
REMARK H PARENT
REMARK Flexibility Score: 70.00
ROOT
ATOM      1  C   UNL     1     -41.211  16.828  16.471  1.00  0.00     0.136 C 
ATOM      2  O   UNL     1     -40.477  17.202  17.376  1.00  0.00    -0.299 OA
ENDROOT
BRANCH   1   3
ATOM      3  C   UNL     1     -42.506  17.570  16.181  1.00  0.00     0.053 C 
ATOM      4  C   UNL     1     -42.583  18.922  16.909  1.00  0.00     0.016 C 
BRANCH   3   5
ATOM      5  C   UNL     1     -42.736  17.730  14.664  1.00  0.00     0.015 C 
BRANCH   5   6
ATOM      6  C   UNL     1     -41.973  18.916  14.041  1.00  0.00     0.028 C 
BRANCH   6   7
ATOM      7  C   UNL     1     -41.680  18.656  12.586  1.00  0.00    -0.028 C 
ATOM      8  C   UNL     1     -40.569  18.034  12.124  1.00  0.00    -0.070 CG0
ATOM      9  C   UNL     1     -40.460  17.792  10.641  1.00  0.00     0.039 C 
ATOM     10  G   UNL     1     -39.428  17.592  13.030  1.00  0.00     0.000 G0
ENDBRANCH   6   7
ENDBRANCH   5   6
ENDBRANCH   3   5
ENDBRANCH   1   3
BRANCH   1  11
ATOM     11  C   UNL     1     -40.805  15.626  15.652  1.00  0.00     0.087 C 
BRANCH  11  12
ATOM     12  C   UNL     1     -39.422  15.818  14.977  1.00  0.00     0.066 C 
BRANCH  12  13
ATOM     13  C   UNL     1     -39.566  16.158  13.500  1.00  0.00     0.140 C 
ATOM     14  O   UNL     1     -39.749  15.265  12.684  1.00  0.00    -0.299 OA
BRANCH  13  15
ATOM     15  C   UNL     1     -39.416  17.579  13.015  1.00  0.00     0.106 CG0
ATOM     16  G   UNL     1     -40.572  18.015  12.125  1.00  0.00     0.000 G0
ENDBRANCH  13  15
ENDBRANCH  12  13
BRANCH  12  17
ATOM     17  C   UNL     1     -38.479  14.600  15.223  1.00  0.00    -0.006 C 
ATOM     18  C   UNL     1     -39.261  13.377  15.729  1.00  0.00     0.008 C 
ATOM     19  C   UNL     1     -37.295  14.895  16.160  1.00  0.00     0.008 C 
ENDBRANCH  12  17
ENDBRANCH  11  12
ENDBRANCH   1  11
TORSDOF 1
ENDMDL
MODEL 4
REMARK VINA RESULT:    -3.852      2.012      4.166
REMARK INTER + INTRA:          -6.138
REMARK INTER:                  -6.322
REMARK INTRA:                   0.184
REMARK UNBOUND:                -0.260
REMARK SMILES CC1=CCC[C@H](C)C(=O)C[C@@H](C(C)C)C(=O)C1
REMARK SMILES IDX 8 1 9 2 6 3 7 4 5 5 4 6 3 7 2 8 1 9 10 11 11 12 15 13 16 14
REMARK SMILES IDX 17 15 12 17 13 18 14 19
REMARK H PARENT
REMARK Flexibility Score: 70.00
ROOT
ATOM      1  C   UNL     1     -42.215  18.956  14.451  1.00  0.00     0.136 C 
ATOM      2  O   UNL     1     -42.288  20.085  14.918  1.00  0.00    -0.299 OA
ENDROOT
BRANCH   1   3
ATOM      3  C   UNL     1     -41.799  18.753  13.003  1.00  0.00     0.053 C 
ATOM      4  C   UNL     1     -41.999  20.018  12.153  1.00  0.00     0.016 C 
BRANCH   3   5
ATOM      5  C   UNL     1     -40.354  18.225  12.901  1.00  0.00     0.015 C 
BRANCH   5   6
ATOM      6  C   UNL     1     -40.246  16.689  12.966  1.00  0.00     0.028 C 
BRANCH   6   7
ATOM      7  C   UNL     1     -39.110  16.271  13.863  1.00  0.00    -0.028 C 
ATOM      8  C   UNL     1     -39.259  15.789  15.121  1.00  0.00    -0.070 CG0
ATOM      9  C   UNL     1     -38.021  15.353  15.861  1.00  0.00     0.039 C 
ATOM     10  G   UNL     1     -40.609  15.690  15.817  1.00  0.00     0.000 G0
ENDBRANCH   6   7
ENDBRANCH   5   6
ENDBRANCH   3   5
ENDBRANCH   1   3
BRANCH   1  11
ATOM     11  C   UNL     1     -42.540  17.778  15.338  1.00  0.00     0.087 C 
BRANCH  11  12
ATOM     12  C   UNL     1     -41.838  17.872  16.717  1.00  0.00     0.066 C 
BRANCH  12  13
ATOM     13  C   UNL     1     -40.797  16.773  16.887  1.00  0.00     0.140 C 
ATOM     14  O   UNL     1     -40.053  16.783  17.859  1.00  0.00    -0.299 OA
BRANCH  13  15
ATOM     15  C   UNL     1     -40.620  15.706  15.835  1.00  0.00     0.106 CG0
ATOM     16  G   UNL     1     -39.273  15.801  15.131  1.00  0.00     0.000 G0
ENDBRANCH  13  15
ENDBRANCH  12  13
BRANCH  12  17
ATOM     17  C   UNL     1     -42.863  17.913  17.892  1.00  0.00    -0.006 C 
ATOM     18  C   UNL     1     -44.273  18.273  17.395  1.00  0.00     0.008 C 
ATOM     19  C   UNL     1     -42.458  18.839  19.052  1.00  0.00     0.008 C 
ENDBRANCH  12  17
ENDBRANCH  11  12
ENDBRANCH   1  11
TORSDOF 1
ENDMDL
MODEL 5
REMARK VINA RESULT:    -3.559      2.172      4.945
REMARK INTER + INTRA:          -5.691
REMARK INTER:                  -5.602
REMARK INTRA:                  -0.089
REMARK UNBOUND:                -0.260
REMARK SMILES CC1=CCC[C@H](C)C(=O)C[C@@H](C(C)C)C(=O)C1
REMARK SMILES IDX 8 1 9 2 6 3 7 4 5 5 4 6 3 7 2 8 1 9 10 11 11 12 15 13 16 14
REMARK SMILES IDX 17 15 12 17 13 18 14 19
REMARK H PARENT
REMARK Flexibility Score: 70.00
ROOT
ATOM      1  C   UNL     1     -41.905  18.236  13.953  1.00  0.00     0.136 C 
ATOM      2  O   UNL     1     -42.824  17.893  13.220  1.00  0.00    -0.299 OA
ENDROOT
BRANCH   1   3
ATOM      3  C   UNL     1     -42.153  18.461  15.435  1.00  0.00     0.053 C 
ATOM      4  C   UNL     1     -43.612  18.185  15.834  1.00  0.00     0.016 C 
BRANCH   3   5
ATOM      5  C   UNL     1     -41.167  17.652  16.301  1.00  0.00     0.015 C 
BRANCH   5   6
ATOM      6  C   UNL     1     -41.210  16.133  16.040  1.00  0.00     0.028 C 
BRANCH   6   7
ATOM      7  C   UNL     1     -39.852  15.517  16.254  1.00  0.00    -0.028 C 
ATOM      8  C   UNL     1     -39.039  15.081  15.262  1.00  0.00    -0.070 CG0
ATOM      9  C   UNL     1     -37.681  14.550  15.643  1.00  0.00     0.039 C 
ATOM     10  G   UNL     1     -39.444  15.086  13.795  1.00  0.00     0.000 G0
ENDBRANCH   6   7
ENDBRANCH   5   6
ENDBRANCH   3   5
ENDBRANCH   1   3
BRANCH   1  11
ATOM     11  C   UNL     1     -40.530  18.423  13.359  1.00  0.00     0.087 C 
BRANCH  11  12
ATOM     12  C   UNL     1     -40.128  17.250  12.428  1.00  0.00     0.066 C 
BRANCH  12  13
ATOM     13  C   UNL     1     -39.065  16.370  13.071  1.00  0.00     0.140 C 
ATOM     14  O   UNL     1     -37.883  16.668  12.967  1.00  0.00    -0.299 OA
BRANCH  13  15
ATOM     15  C   UNL     1     -39.442  15.091  13.778  1.00  0.00     0.106 CG0
ATOM     16  G   UNL     1     -39.031  15.094  15.244  1.00  0.00     0.000 G0
ENDBRANCH  13  15
ENDBRANCH  12  13
BRANCH  12  17
ATOM     17  C   UNL     1     -39.718  17.746  11.008  1.00  0.00    -0.006 C 
ATOM     18  C   UNL     1     -40.684  18.823  10.487  1.00  0.00     0.008 C 
ATOM     19  C   UNL     1     -39.564  16.624   9.965  1.00  0.00     0.008 C 
ENDBRANCH  12  17
ENDBRANCH  11  12
ENDBRANCH   1  11
TORSDOF 1
ENDMDL
MODEL 6
REMARK VINA RESULT:    -3.311      4.070      6.533
REMARK INTER + INTRA:          -5.314
REMARK INTER:                  -5.073
REMARK INTRA:                  -0.240
REMARK UNBOUND:                -0.260
REMARK SMILES CC1=CCC[C@H](C)C(=O)C[C@@H](C(C)C)C(=O)C1
REMARK SMILES IDX 8 1 9 2 6 3 7 4 5 5 4 6 3 7 2 8 1 9 10 11 11 12 15 13 16 14
REMARK SMILES IDX 17 15 12 17 13 18 14 19
REMARK H PARENT
REMARK Flexibility Score: 70.00
ROOT
ATOM      1  C   UNL     1     -40.316  18.642   9.716  1.00  0.00     0.136 C 
ATOM      2  O   UNL     1     -40.534  19.662  10.356  1.00  0.00    -0.299 OA
ENDROOT
BRANCH   1   3
ATOM      3  C   UNL     1     -40.132  18.710   8.209  1.00  0.00     0.053 C 
ATOM      4  C   UNL     1     -41.458  18.945   7.467  1.00  0.00     0.016 C 
BRANCH   3   5
ATOM      5  C   UNL     1     -39.071  19.758   7.817  1.00  0.00     0.015 C 
BRANCH   5   6
ATOM      6  C   UNL     1     -37.696  19.527   8.473  1.00  0.00     0.028 C 
BRANCH   6   7
ATOM      7  C   UNL     1     -37.031  18.302   7.900  1.00  0.00    -0.028 C 
ATOM      8  C   UNL     1     -36.588  17.252   8.632  1.00  0.00    -0.070 CG0
ATOM      9  C   UNL     1     -36.005  16.073   7.896  1.00  0.00     0.039 C 
ATOM     10  G   UNL     1     -36.637  17.222  10.153  1.00  0.00     0.000 G0
ENDBRANCH   6   7
ENDBRANCH   5   6
ENDBRANCH   3   5
ENDBRANCH   1   3
BRANCH   1  11
ATOM     11  C   UNL     1     -40.230  17.325  10.450  1.00  0.00     0.087 C 
BRANCH  11  12
ATOM     12  C   UNL     1     -38.985  17.249  11.372  1.00  0.00     0.066 C 
BRANCH  12  13
ATOM     13  C   UNL     1     -37.847  16.486  10.709  1.00  0.00     0.140 C 
ATOM     14  O   UNL     1     -37.882  15.264  10.656  1.00  0.00    -0.299 OA
BRANCH  13  15
ATOM     15  C   UNL     1     -36.636  17.211  10.175  1.00  0.00     0.106 CG0
ATOM     16  G   UNL     1     -36.594  17.231   8.653  1.00  0.00     0.000 G0
ENDBRANCH  13  15
ENDBRANCH  12  13
BRANCH  12  17
ATOM     17  C   UNL     1     -39.340  16.690  12.784  1.00  0.00    -0.006 C 
ATOM     18  C   UNL     1     -40.608  17.350  13.349  1.00  0.00     0.008 C 
ATOM     19  C   UNL     1     -38.194  16.784  13.808  1.00  0.00     0.008 C 
ENDBRANCH  12  17
ENDBRANCH  11  12
ENDBRANCH   1  11
TORSDOF 1
ENDMDL
MODEL 7
REMARK VINA RESULT:    -3.277      6.788      9.640
REMARK INTER + INTRA:          -5.261
REMARK INTER:                  -5.093
REMARK INTRA:                  -0.168
REMARK UNBOUND:                -0.260
REMARK SMILES CC1=CCC[C@H](C)C(=O)C[C@@H](C(C)C)C(=O)C1
REMARK SMILES IDX 8 1 9 2 6 3 7 4 5 5 4 6 3 7 2 8 1 9 10 11 11 12 15 13 16 14
REMARK SMILES IDX 17 15 12 17 13 18 14 19
REMARK H PARENT
REMARK Flexibility Score: 70.00
ROOT
ATOM      1  C   UNL     1     -34.089  16.540   5.817  1.00  0.00     0.136 C 
ATOM      2  O   UNL     1     -33.171  16.586   5.009  1.00  0.00    -0.299 OA
ENDROOT
BRANCH   1   3
ATOM      3  C   UNL     1     -34.228  15.349   6.750  1.00  0.00     0.053 C 
ATOM      4  C   UNL     1     -33.178  15.359   7.874  1.00  0.00     0.016 C 
BRANCH   3   5
ATOM      5  C   UNL     1     -35.659  15.237   7.314  1.00  0.00     0.015 C 
BRANCH   5   6
ATOM      6  C   UNL     1     -35.793  15.719   8.772  1.00  0.00     0.028 C 
BRANCH   6   7
ATOM      7  C   UNL     1     -37.155  16.316   9.014  1.00  0.00    -0.028 C 
ATOM      8  C   UNL     1     -37.405  17.642   9.131  1.00  0.00    -0.070 CG0
ATOM      9  C   UNL     1     -38.838  18.077   9.304  1.00  0.00     0.039 C 
ATOM     10  G   UNL     1     -36.309  18.697   9.116  1.00  0.00     0.000 G0
ENDBRANCH   6   7
ENDBRANCH   5   6
ENDBRANCH   3   5
ENDBRANCH   1   3
BRANCH   1  11
ATOM     11  C   UNL     1     -35.072  17.686   5.870  1.00  0.00     0.087 C 
BRANCH  11  12
ATOM     12  C   UNL     1     -34.731  18.697   6.995  1.00  0.00     0.066 C 
BRANCH  12  13
ATOM     13  C   UNL     1     -35.988  19.179   7.708  1.00  0.00     0.140 C 
ATOM     14  O   UNL     1     -36.716  20.002   7.169  1.00  0.00    -0.299 OA
BRANCH  13  15
ATOM     15  C   UNL     1     -36.313  18.709   9.105  1.00  0.00     0.106 CG0
ATOM     16  G   UNL     1     -37.400  17.643   9.121  1.00  0.00     0.000 G0
ENDBRANCH  13  15
ENDBRANCH  12  13
BRANCH  12  17
ATOM     17  C   UNL     1     -33.849  19.873   6.475  1.00  0.00    -0.006 C 
ATOM     18  C   UNL     1     -33.846  19.938   4.938  1.00  0.00     0.008 C 
ATOM     19  C   UNL     1     -32.405  19.863   7.006  1.00  0.00     0.008 C 
ENDBRANCH  12  17
ENDBRANCH  11  12
ENDBRANCH   1  11
TORSDOF 1
ENDMDL
MODEL 8
REMARK VINA RESULT:    -3.172      3.835      6.218
REMARK INTER + INTRA:          -5.100
REMARK INTER:                  -5.436
REMARK INTRA:                   0.335
REMARK UNBOUND:                -0.260
REMARK SMILES CC1=CCC[C@H](C)C(=O)C[C@@H](C(C)C)C(=O)C1
REMARK SMILES IDX 8 1 9 2 6 3 7 4 5 5 4 6 3 7 2 8 1 9 10 11 11 12 15 13 16 14
REMARK SMILES IDX 17 15 12 17 13 18 14 19
REMARK H PARENT
REMARK Flexibility Score: 70.00
ROOT
ATOM      1  C   UNL     1     -36.125  17.514  11.286  1.00  0.00     0.136 C 
ATOM      2  O   UNL     1     -36.121  16.730  12.226  1.00  0.00    -0.299 OA
ENDROOT
BRANCH   1   3
ATOM      3  C   UNL     1     -36.412  18.988  11.521  1.00  0.00     0.053 C 
ATOM      4  C   UNL     1     -36.452  19.793  10.211  1.00  0.00     0.016 C 
BRANCH   3   5
ATOM      5  C   UNL     1     -37.699  19.187  12.347  1.00  0.00     0.015 C 
BRANCH   5   6
ATOM      6  C   UNL     1     -38.968  18.643  11.662  1.00  0.00     0.028 C 
BRANCH   6   7
ATOM      7  C   UNL     1     -39.409  17.353  12.305  1.00  0.00    -0.028 C 
ATOM      8  C   UNL     1     -39.582  16.183  11.644  1.00  0.00    -0.070 CG0
ATOM      9  C   UNL     1     -39.962  14.967  12.449  1.00  0.00     0.039 C 
ATOM     10  G   UNL     1     -39.430  16.052  10.136  1.00  0.00     0.000 G0
ENDBRANCH   6   7
ENDBRANCH   5   6
ENDBRANCH   3   5
ENDBRANCH   1   3
BRANCH   1  11
ATOM     11  C   UNL     1     -35.834  16.991   9.900  1.00  0.00     0.087 C 
BRANCH  11  12
ATOM     12  C   UNL     1     -37.128  16.773   9.072  1.00  0.00     0.066 C 
BRANCH  12  13
ATOM     13  C   UNL     1     -38.019  15.712   9.705  1.00  0.00     0.140 C 
ATOM     14  O   UNL     1     -37.612  14.564   9.820  1.00  0.00    -0.299 OA
BRANCH  13  15
ATOM     15  C   UNL     1     -39.430  16.040  10.129  1.00  0.00     0.106 CG0
ATOM     16  G   UNL     1     -39.568  16.165  11.640  1.00  0.00     0.000 G0
ENDBRANCH  13  15
ENDBRANCH  12  13
BRANCH  12  17
ATOM     17  C   UNL     1     -36.818  16.479   7.572  1.00  0.00    -0.006 C 
ATOM     18  C   UNL     1     -35.995  15.191   7.409  1.00  0.00     0.008 C 
ATOM     19  C   UNL     1     -36.134  17.641   6.829  1.00  0.00     0.008 C 
ENDBRANCH  12  17
ENDBRANCH  11  12
ENDBRANCH   1  11
TORSDOF 1
ENDMDL
MODEL 9
REMARK VINA RESULT:    -3.024      3.894      6.276
REMARK INTER + INTRA:          -4.875
REMARK INTER:                  -5.118
REMARK INTRA:                   0.243
REMARK UNBOUND:                -0.260
REMARK SMILES CC1=CCC[C@H](C)C(=O)C[C@@H](C(C)C)C(=O)C1
REMARK SMILES IDX 8 1 9 2 6 3 7 4 5 5 4 6 3 7 2 8 1 9 10 11 11 12 15 13 16 14
REMARK SMILES IDX 17 15 12 17 13 18 14 19
REMARK H PARENT
REMARK Flexibility Score: 70.00
ROOT
ATOM      1  C   UNL     1     -39.093  18.151   8.577  1.00  0.00     0.136 C 
ATOM      2  O   UNL     1     -39.436  17.017   8.269  1.00  0.00    -0.299 OA
ENDROOT
BRANCH   1   3
ATOM      3  C   UNL     1     -40.128  19.259   8.688  1.00  0.00     0.053 C 
ATOM      4  C   UNL     1     -41.251  19.119   7.647  1.00  0.00     0.016 C 
BRANCH   3   5
ATOM      5  C   UNL     1     -40.692  19.363  10.119  1.00  0.00     0.015 C 
BRANCH   5   6
ATOM      6  C   UNL     1     -39.626  19.680  11.186  1.00  0.00     0.028 C 
BRANCH   6   7
ATOM      7  C   UNL     1     -39.480  18.532  12.151  1.00  0.00    -0.028 C 
ATOM      8  C   UNL     1     -38.320  17.877  12.398  1.00  0.00    -0.070 CG0
ATOM      9  C   UNL     1     -38.330  16.792  13.444  1.00  0.00     0.039 C 
ATOM     10  G   UNL     1     -37.025  18.174  11.654  1.00  0.00     0.000 G0
ENDBRANCH   6   7
ENDBRANCH   5   6
ENDBRANCH   3   5
ENDBRANCH   1   3
BRANCH   1  11
ATOM     11  C   UNL     1     -37.633  18.423   8.847  1.00  0.00     0.087 C 
BRANCH  11  12
ATOM     12  C   UNL     1     -36.856  17.133   9.221  1.00  0.00     0.066 C 
BRANCH  12  13
ATOM     13  C   UNL     1     -36.614  17.045  10.721  1.00  0.00     0.140 C 
ATOM     14  O   UNL     1     -36.134  16.028  11.203  1.00  0.00    -0.299 OA
BRANCH  13  15
ATOM     15  C   UNL     1     -37.025  18.171  11.639  1.00  0.00     0.106 CG0
ATOM     16  G   UNL     1     -38.321  17.874  12.380  1.00  0.00     0.000 G0
ENDBRANCH  13  15
ENDBRANCH  12  13
BRANCH  12  17
ATOM     17  C   UNL     1     -35.544  16.983   8.392  1.00  0.00    -0.006 C 
ATOM     18  C   UNL     1     -35.344  18.169   7.434  1.00  0.00     0.008 C 
ATOM     19  C   UNL     1     -35.431  15.655   7.621  1.00  0.00     0.008 C 
ENDBRANCH  12  17
ENDBRANCH  11  12
ENDBRANCH   1  11
TORSDOF 1
ENDMDL
