MODEL 1
REMARK VINA RESULT:     3.858      0.000      0.000
REMARK INTER + INTRA:           4.565
REMARK INTER:                   4.760
REMARK INTRA:                  -0.196
REMARK UNBOUND:                -0.196
REMARK SMILES C=CCc1ccc(OC)c(OC)c1
REMARK SMILES IDX 7 1 10 2 13 3 4 4 5 5 6 6 8 7 9 8 11 9 12 10 3 11 2 12 1 13
REMARK H PARENT
REMARK Flexibility Score: inf
ROOT
ATOM      1  C   UNL     1      12.426   3.396   6.947  1.00  0.00     0.160 A 
ATOM      2  C   UNL     1      13.556   4.015   6.388  1.00  0.00     0.160 A 
ATOM      3  C   UNL     1      13.506   5.382   6.052  1.00  0.00     0.054 A 
ATOM      4  C   UNL     1      12.341   6.130   6.276  1.00  0.00    -0.040 A 
ATOM      5  C   UNL     1      11.214   5.502   6.823  1.00  0.00     0.008 A 
ATOM      6  C   UNL     1      11.256   4.149   7.160  1.00  0.00     0.051 A 
ENDROOT
BRANCH   1   7
ATOM      7  O   UNL     1      12.505   2.033   7.274  1.00  0.00    -0.493 OA
ATOM      8  C   UNL     1      12.991   1.527   8.513  1.00  0.00     0.278 C 
ENDBRANCH   1   7
BRANCH   2   9
ATOM      9  O   UNL     1      14.707   3.238   6.180  1.00  0.00    -0.493 OA
ATOM     10  C   UNL     1      16.021   3.765   6.035  1.00  0.00     0.278 C 
ENDBRANCH   2   9
BRANCH   4  11
ATOM     11  C   UNL     1      12.281   7.584   5.886  1.00  0.00     0.062 C 
BRANCH  11  12
ATOM     12  C   UNL     1      13.657   8.189   5.877  1.00  0.00    -0.030 C 
ATOM     13  C   UNL     1      13.855   9.488   6.121  1.00  0.00     0.004 C 
ENDBRANCH  11  12
ENDBRANCH   4  11
TORSDOF 4
ENDMDL
MODEL 2
REMARK VINA RESULT:     5.753      1.932      3.970
REMARK INTER + INTRA:           6.902
REMARK INTER:                   7.116
REMARK INTRA:                  -0.214
REMARK UNBOUND:                -0.196
REMARK SMILES C=CCc1ccc(OC)c(OC)c1
REMARK SMILES IDX 7 1 10 2 13 3 4 4 5 5 6 6 8 7 9 8 11 9 12 10 3 11 2 12 1 13
REMARK H PARENT
REMARK Flexibility Score: inf
ROOT
ATOM      1  C   UNL     1      13.872   4.561   6.442  1.00  0.00     0.160 A 
ATOM      2  C   UNL     1      13.239   5.813   6.485  1.00  0.00     0.160 A 
ATOM      3  C   UNL     1      11.954   5.925   7.051  1.00  0.00     0.054 A 
ATOM      4  C   UNL     1      11.304   4.798   7.574  1.00  0.00    -0.040 A 
ATOM      5  C   UNL     1      11.938   3.549   7.517  1.00  0.00     0.008 A 
ATOM      6  C   UNL     1      13.212   3.430   6.960  1.00  0.00     0.051 A 
ENDROOT
BRANCH   1   7
ATOM      7  O   UNL     1      15.154   4.480   5.875  1.00  0.00    -0.493 OA
ATOM      8  C   UNL     1      16.097   3.451   6.156  1.00  0.00     0.278 C 
ENDBRANCH   1   7
BRANCH   2   9
ATOM      9  O   UNL     1      13.919   6.922   5.955  1.00  0.00    -0.493 OA
ATOM     10  C   UNL     1      13.391   8.243   5.902  1.00  0.00     0.278 C 
ENDBRANCH   2   9
BRANCH   4  11
ATOM     11  C   UNL     1       9.917   4.915   8.149  1.00  0.00     0.062 C 
BRANCH  11  12
ATOM     12  C   UNL     1       9.930   5.742   9.405  1.00  0.00    -0.030 C 
ATOM     13  C   UNL     1       8.866   5.811  10.211  1.00  0.00     0.004 C 
ENDBRANCH  11  12
ENDBRANCH   4  11
TORSDOF 4
ENDMDL
MODEL 3
REMARK VINA RESULT:     6.048      1.307      2.711
REMARK INTER + INTRA:           7.267
REMARK INTER:                   7.530
REMARK INTRA:                  -0.263
REMARK UNBOUND:                -0.196
REMARK SMILES C=CCc1ccc(OC)c(OC)c1
REMARK SMILES IDX 7 1 10 2 13 3 4 4 5 5 6 6 8 7 9 8 11 9 12 10 3 11 2 12 1 13
REMARK H PARENT
REMARK Flexibility Score: inf
ROOT
ATOM      1  C   UNL     1      14.070   3.951   6.017  1.00  0.00     0.160 A 
ATOM      2  C   UNL     1      12.694   4.227   6.083  1.00  0.00     0.160 A 
ATOM      3  C   UNL     1      12.249   5.562   6.040  1.00  0.00     0.054 A 
ATOM      4  C   UNL     1      13.167   6.617   5.929  1.00  0.00    -0.040 A 
ATOM      5  C   UNL     1      14.538   6.334   5.875  1.00  0.00     0.008 A 
ATOM      6  C   UNL     1      14.987   5.014   5.914  1.00  0.00     0.051 A 
ENDROOT
BRANCH   1   7
ATOM      7  O   UNL     1      14.485   2.610   6.059  1.00  0.00    -0.493 OA
ATOM      8  C   UNL     1      15.840   2.181   5.974  1.00  0.00     0.278 C 
ENDBRANCH   1   7
BRANCH   2   9
ATOM      9  O   UNL     1      11.803   3.147   6.191  1.00  0.00    -0.493 OA
ATOM     10  C   UNL     1      10.924   2.933   7.290  1.00  0.00     0.278 C 
ENDBRANCH   2   9
BRANCH   4  11
ATOM     11  C   UNL     1      12.689   8.045   5.916  1.00  0.00     0.062 C 
BRANCH  11  12
ATOM     12  C   UNL     1      13.852   8.996   5.987  1.00  0.00    -0.030 C 
ATOM     13  C   UNL     1      13.684  10.319   5.907  1.00  0.00     0.004 C 
ENDBRANCH  11  12
ENDBRANCH   4  11
TORSDOF 4
ENDMDL
MODEL 4
REMARK VINA RESULT:     6.461      1.171      2.696
REMARK INTER + INTRA:           7.777
REMARK INTER:                   8.040
REMARK INTRA:                  -0.263
REMARK UNBOUND:                -0.196
REMARK SMILES C=CCc1ccc(OC)c(OC)c1
REMARK SMILES IDX 7 1 10 2 13 3 4 4 5 5 6 6 8 7 9 8 11 9 12 10 3 11 2 12 1 13
REMARK H PARENT
REMARK Flexibility Score: inf
ROOT
ATOM      1  C   UNL     1      12.898   3.500   6.729  1.00  0.00     0.160 A 
ATOM      2  C   UNL     1      12.006   4.585   6.708  1.00  0.00     0.160 A 
ATOM      3  C   UNL     1      12.487   5.877   6.420  1.00  0.00     0.054 A 
ATOM      4  C   UNL     1      13.847   6.089   6.151  1.00  0.00    -0.040 A 
ATOM      5  C   UNL     1      14.733   5.004   6.185  1.00  0.00     0.008 A 
ATOM      6  C   UNL     1      14.264   3.720   6.466  1.00  0.00     0.051 A 
ENDROOT
BRANCH   1   7
ATOM      7  O   UNL     1      12.390   2.223   7.016  1.00  0.00    -0.493 OA
ATOM      8  C   UNL     1      12.910   1.355   8.016  1.00  0.00     0.278 C 
ENDBRANCH   1   7
BRANCH   2   9
ATOM      9  O   UNL     1      10.651   4.337   6.979  1.00  0.00    -0.493 OA
ATOM     10  C   UNL     1      10.035   4.522   8.250  1.00  0.00     0.278 C 
ENDBRANCH   2   9
BRANCH   4  11
ATOM     11  C   UNL     1      14.363   7.477   5.875  1.00  0.00     0.062 C 
BRANCH  11  12
ATOM     12  C   UNL     1      13.236   8.473   5.875  1.00  0.00    -0.030 C 
ATOM     13  C   UNL     1      13.463   9.789   5.899  1.00  0.00     0.004 C 
ENDBRANCH  11  12
ENDBRANCH   4  11
TORSDOF 4
ENDMDL
