MODEL 1
REMARK VINA RESULT:    -2.855      0.000      0.000
REMARK INTER + INTRA:          -3.400
REMARK INTER:                  -3.356
REMARK INTRA:                  -0.044
REMARK UNBOUND:                -0.044
REMARK SMILES CCCCC(=O)[O-]
REMARK SMILES IDX 4 1 5 2 6 3 7 4 3 5 2 6 1 7
REMARK H PARENT
REMARK Flexibility Score: inf
ROOT
ATOM      1  C   UNL     1      -2.003   7.850  38.814  1.00  0.00     0.053 C 
ENDROOT
BRANCH   1   2
ATOM      2  C   UNL     1      -3.012   7.320  39.783  1.00  0.00     0.041 C 
ATOM      3  O   UNL     1      -3.283   7.964  40.831  1.00  0.00    -0.550 OA
ATOM      4  O   UNL     1      -3.617   6.091  39.553  1.00  0.00    -0.550 OA
ENDBRANCH   1   2
BRANCH   1   5
ATOM      5  C   UNL     1      -2.236   9.343  38.560  1.00  0.00     0.006 C 
BRANCH   5   6
ATOM      6  C   UNL     1      -1.748   9.744  37.163  1.00  0.00    -0.003 C 
ATOM      7  C   UNL     1      -1.532   8.518  36.281  1.00  0.00     0.004 C 
ENDBRANCH   5   6
ENDBRANCH   1   5
TORSDOF 3
ENDMDL
MODEL 2
REMARK VINA RESULT:    -2.783      2.654      3.718
REMARK INTER + INTRA:          -3.315
REMARK INTER:                  -3.237
REMARK INTRA:                  -0.078
REMARK UNBOUND:                -0.044
REMARK SMILES CCCCC(=O)[O-]
REMARK SMILES IDX 4 1 5 2 6 3 7 4 3 5 2 6 1 7
REMARK H PARENT
REMARK Flexibility Score: inf
ROOT
ATOM      1  C   UNL     1      -2.261   9.428  38.238  1.00  0.00     0.053 C 
ENDROOT
BRANCH   1   2
ATOM      2  C   UNL     1      -1.484   9.105  37.001  1.00  0.00     0.041 C 
ATOM      3  O   UNL     1      -0.832  10.005  36.409  1.00  0.00    -0.550 OA
ATOM      4  O   UNL     1      -1.519   7.820  36.475  1.00  0.00    -0.550 OA
ENDBRANCH   1   2
BRANCH   1   5
ATOM      5  C   UNL     1      -1.830   8.520  39.394  1.00  0.00     0.006 C 
BRANCH   5   6
ATOM      6  C   UNL     1      -3.049   7.896  40.086  1.00  0.00    -0.003 C 
ATOM      7  C   UNL     1      -3.217   6.432  39.690  1.00  0.00     0.004 C 
ENDBRANCH   5   6
ENDBRANCH   1   5
TORSDOF 3
ENDMDL
MODEL 3
REMARK VINA RESULT:    -2.714      2.678      3.843
REMARK INTER + INTRA:          -3.234
REMARK INTER:                  -3.177
REMARK INTRA:                  -0.057
REMARK UNBOUND:                -0.044
REMARK SMILES CCCCC(=O)[O-]
REMARK SMILES IDX 4 1 5 2 6 3 7 4 3 5 2 6 1 7
REMARK H PARENT
REMARK Flexibility Score: inf
ROOT
ATOM      1  C   UNL     1      -2.250   9.378  38.208  1.00  0.00     0.053 C 
ENDROOT
BRANCH   1   2
ATOM      2  C   UNL     1      -0.859   9.901  38.379  1.00  0.00     0.041 C 
ATOM      3  O   UNL     1      -0.128  10.099  37.373  1.00  0.00    -0.550 OA
ATOM      4  O   UNL     1      -0.353  10.125  39.653  1.00  0.00    -0.550 OA
ENDBRANCH   1   2
BRANCH   1   5
ATOM      5  C   UNL     1      -2.625   8.460  39.376  1.00  0.00     0.006 C 
BRANCH   5   6
ATOM      6  C   UNL     1      -2.259   7.003  39.069  1.00  0.00    -0.003 C 
ATOM      7  C   UNL     1      -3.245   6.038  39.721  1.00  0.00     0.004 C 
ENDBRANCH   5   6
ENDBRANCH   1   5
TORSDOF 3
ENDMDL
MODEL 4
REMARK VINA RESULT:    -2.674     12.261     13.589
REMARK INTER + INTRA:          -3.187
REMARK INTER:                  -3.144
REMARK INTRA:                  -0.043
REMARK UNBOUND:                -0.044
REMARK SMILES CCCCC(=O)[O-]
REMARK SMILES IDX 4 1 5 2 6 3 7 4 3 5 2 6 1 7
REMARK H PARENT
REMARK Flexibility Score: inf
ROOT
ATOM      1  C   UNL     1       3.532   8.548  27.234  1.00  0.00     0.053 C 
ENDROOT
BRANCH   1   2
ATOM      2  C   UNL     1       3.691   8.571  25.747  1.00  0.00     0.041 C 
ATOM      3  O   UNL     1       4.066   7.537  25.133  1.00  0.00    -0.550 OA
ATOM      4  O   UNL     1       3.474   9.749  25.043  1.00  0.00    -0.550 OA
ENDBRANCH   1   2
BRANCH   1   5
ATOM      5  C   UNL     1       4.200   9.774  27.864  1.00  0.00     0.006 C 
BRANCH   5   6
ATOM      6  C   UNL     1       3.682  10.011  29.288  1.00  0.00    -0.003 C 
ATOM      7  C   UNL     1       2.364   9.279  29.523  1.00  0.00     0.004 C 
ENDBRANCH   5   6
ENDBRANCH   1   5
TORSDOF 3
ENDMDL
MODEL 5
REMARK VINA RESULT:    -2.641      3.280      4.157
REMARK INTER + INTRA:          -3.148
REMARK INTER:                  -3.101
REMARK INTRA:                  -0.047
REMARK UNBOUND:                -0.044
REMARK SMILES CCCCC(=O)[O-]
REMARK SMILES IDX 4 1 5 2 6 3 7 4 3 5 2 6 1 7
REMARK H PARENT
REMARK Flexibility Score: inf
ROOT
ATOM      1  C   UNL     1      -0.713   9.782  39.300  1.00  0.00     0.053 C 
ENDROOT
BRANCH   1   2
ATOM      2  C   UNL     1       0.462   9.908  38.384  1.00  0.00     0.041 C 
ATOM      3  O   UNL     1       1.612  10.124  38.852  1.00  0.00    -0.550 OA
ATOM      4  O   UNL     1       0.282   9.836  37.008  1.00  0.00    -0.550 OA
ENDBRANCH   1   2
BRANCH   1   5
ATOM      5  C   UNL     1      -1.937   9.268  38.535  1.00  0.00     0.006 C 
BRANCH   5   6
ATOM      6  C   UNL     1      -2.304   7.846  38.977  1.00  0.00    -0.003 C 
ATOM      7  C   UNL     1      -2.992   7.853  40.339  1.00  0.00     0.004 C 
ENDBRANCH   5   6
ENDBRANCH   1   5
TORSDOF 3
ENDMDL
MODEL 6
REMARK VINA RESULT:    -2.606      1.333      2.048
REMARK INTER + INTRA:          -3.108
REMARK INTER:                  -3.073
REMARK INTRA:                  -0.035
REMARK UNBOUND:                -0.044
REMARK SMILES CCCCC(=O)[O-]
REMARK SMILES IDX 4 1 5 2 6 3 7 4 3 5 2 6 1 7
REMARK H PARENT
REMARK Flexibility Score: inf
ROOT
ATOM      1  C   UNL     1      -3.082   7.916  40.109  1.00  0.00     0.053 C 
ENDROOT
BRANCH   1   2
ATOM      2  C   UNL     1      -2.412   7.437  41.358  1.00  0.00     0.041 C 
ATOM      3  O   UNL     1      -2.768   6.354  41.894  1.00  0.00    -0.550 OA
ATOM      4  O   UNL     1      -1.427   8.211  41.959  1.00  0.00    -0.550 OA
ENDBRANCH   1   2
BRANCH   1   5
ATOM      5  C   UNL     1      -2.055   8.106  38.989  1.00  0.00     0.006 C 
BRANCH   5   6
ATOM      6  C   UNL     1      -2.250   9.456  38.288  1.00  0.00    -0.003 C 
ATOM      7  C   UNL     1      -1.631   9.447  36.893  1.00  0.00     0.004 C 
ENDBRANCH   5   6
ENDBRANCH   1   5
TORSDOF 3
ENDMDL
MODEL 7
REMARK VINA RESULT:    -2.602      2.579      3.095
REMARK INTER + INTRA:          -3.103
REMARK INTER:                  -3.006
REMARK INTRA:                  -0.098
REMARK UNBOUND:                -0.044
REMARK SMILES CCCCC(=O)[O-]
REMARK SMILES IDX 4 1 5 2 6 3 7 4 3 5 2 6 1 7
REMARK H PARENT
REMARK Flexibility Score: inf
ROOT
ATOM      1  C   UNL     1      -0.679   8.214  39.673  1.00  0.00     0.053 C 
ENDROOT
BRANCH   1   2
ATOM      2  C   UNL     1      -0.026   9.225  40.561  1.00  0.00     0.041 C 
ATOM      3  O   UNL     1       0.726  10.109  40.070  1.00  0.00    -0.550 OA
ATOM      4  O   UNL     1      -0.209   9.163  41.936  1.00  0.00    -0.550 OA
ENDBRANCH   1   2
BRANCH   1   5
ATOM      5  C   UNL     1      -2.139   8.596  39.409  1.00  0.00     0.006 C 
BRANCH   5   6
ATOM      6  C   UNL     1      -2.254   9.521  38.191  1.00  0.00    -0.003 C 
ATOM      7  C   UNL     1      -1.562   8.916  36.973  1.00  0.00     0.004 C 
ENDBRANCH   5   6
ENDBRANCH   1   5
TORSDOF 3
ENDMDL
MODEL 8
REMARK VINA RESULT:    -2.583      2.653      2.869
REMARK INTER + INTRA:          -3.081
REMARK INTER:                  -2.993
REMARK INTRA:                  -0.088
REMARK UNBOUND:                -0.044
REMARK SMILES CCCCC(=O)[O-]
REMARK SMILES IDX 4 1 5 2 6 3 7 4 3 5 2 6 1 7
REMARK H PARENT
REMARK Flexibility Score: inf
ROOT
ATOM      1  C   UNL     1      -0.738   8.847  39.852  1.00  0.00     0.053 C 
ENDROOT
BRANCH   1   2
ATOM      2  C   UNL     1      -2.062   8.797  39.159  1.00  0.00     0.041 C 
ATOM      3  O   UNL     1      -3.001   8.104  39.633  1.00  0.00    -0.550 OA
ATOM      4  O   UNL     1      -2.245   9.477  37.962  1.00  0.00    -0.550 OA
ENDBRANCH   1   2
BRANCH   1   5
ATOM      5  C   UNL     1       0.018  10.125  39.475  1.00  0.00     0.006 C 
BRANCH   5   6
ATOM      6  C   UNL     1       1.463   9.809  39.070  1.00  0.00    -0.003 C 
ATOM      7  C   UNL     1       1.585   9.630  37.559  1.00  0.00     0.004 C 
ENDBRANCH   5   6
ENDBRANCH   1   5
TORSDOF 3
ENDMDL
