MODEL 1
REMARK VINA RESULT:    11.480      0.000      0.000
REMARK INTER + INTRA:          16.994
REMARK INTER:                  17.521
REMARK INTRA:                  -0.526
REMARK UNBOUND:                -0.526
REMARK SMILES CCCCCCCCCCC(=O)[O-]
REMARK SMILES IDX 7 1 8 2 9 3 10 4 11 5 12 6 13 7 6 8 5 9 4 10 3 11 2 12 1 13
REMARK H PARENT
REMARK Flexibility Score: inf
ROOT
ATOM      1  C   UNL     1      -3.682  -8.228  24.081  1.00  0.00     0.000 C 
ENDROOT
BRANCH   1   2
ATOM      2  C   UNL     1      -2.471  -9.161  23.921  1.00  0.00     0.000 C 
BRANCH   2   3
ATOM      3  C   UNL     1      -1.176  -8.551  24.486  1.00  0.00     0.006 C 
BRANCH   3   4
ATOM      4  C   UNL     1      -0.826  -9.117  25.869  1.00  0.00     0.053 C 
BRANCH   4   5
ATOM      5  C   UNL     1       0.427  -8.507  26.419  1.00  0.00     0.041 C 
ATOM      6  O   UNL     1       1.218  -9.198  27.114  1.00  0.00    -0.550 OA
ATOM      7  O   UNL     1       0.707  -7.166  26.186  1.00  0.00    -0.550 OA
ENDBRANCH   4   5
ENDBRANCH   3   4
ENDBRANCH   2   3
ENDBRANCH   1   2
BRANCH   1   8
ATOM      8  C   UNL     1      -3.486  -6.876  23.380  1.00  0.00     0.000 C 
BRANCH   8   9
ATOM      9  C   UNL     1      -4.140  -6.877  21.993  1.00  0.00    -0.000 C 
BRANCH   9  10
ATOM     10  C   UNL     1      -3.077  -6.891  20.883  1.00  0.00    -0.000 C 
BRANCH  10  11
ATOM     11  C   UNL     1      -3.671  -7.191  19.499  1.00  0.00    -0.000 C 
BRANCH  11  12
ATOM     12  C   UNL     1      -2.752  -8.069  18.637  1.00  0.00    -0.003 C 
ATOM     13  C   UNL     1      -1.761  -8.843  19.502  1.00  0.00     0.004 C 
ENDBRANCH  11  12
ENDBRANCH  10  11
ENDBRANCH   9  10
ENDBRANCH   8   9
ENDBRANCH   1   8
TORSDOF 9
ENDMDL
MODEL 2
REMARK VINA RESULT:    12.272     12.373     14.520
REMARK INTER + INTRA:          18.202
REMARK INTER:                  18.642
REMARK INTRA:                  -0.440
REMARK UNBOUND:                -0.526
REMARK SMILES CCCCCCCCCCC(=O)[O-]
REMARK SMILES IDX 7 1 8 2 9 3 10 4 11 5 12 6 13 7 6 8 5 9 4 10 3 11 2 12 1 13
REMARK H PARENT
REMARK Flexibility Score: inf
ROOT
ATOM      1  C   UNL     1       4.445 -16.948  13.897  1.00  0.00     0.000 C 
ENDROOT
BRANCH   1   2
ATOM      2  C   UNL     1       5.076 -17.700  15.081  1.00  0.00     0.000 C 
BRANCH   2   3
ATOM      3  C   UNL     1       5.125 -16.851  16.363  1.00  0.00     0.006 C 
BRANCH   3   4
ATOM      4  C   UNL     1       4.346 -17.499  17.516  1.00  0.00     0.053 C 
BRANCH   4   5
ATOM      5  C   UNL     1       3.994 -16.503  18.578  1.00  0.00     0.041 C 
ATOM      6  O   UNL     1       4.512 -15.356  18.569  1.00  0.00    -0.550 OA
ATOM      7  O   UNL     1       3.113 -16.853  19.594  1.00  0.00    -0.550 OA
ENDBRANCH   4   5
ENDBRANCH   3   4
ENDBRANCH   2   3
ENDBRANCH   1   2
BRANCH   1   8
ATOM      8  C   UNL     1       4.622 -17.688  12.563  1.00  0.00     0.000 C 
BRANCH   8   9
ATOM      9  C   UNL     1       4.746 -19.200  12.786  1.00  0.00    -0.000 C 
BRANCH   9  10
ATOM     10  C   UNL     1       3.423 -19.914  12.467  1.00  0.00    -0.000 C 
BRANCH  10  11
ATOM     11  C   UNL     1       2.349 -18.956  11.928  1.00  0.00    -0.000 C 
BRANCH  11  12
ATOM     12  C   UNL     1       1.017 -19.662  11.640  1.00  0.00    -0.003 C 
ATOM     13  C   UNL     1       1.079 -21.136  12.028  1.00  0.00     0.004 C 
ENDBRANCH  11  12
ENDBRANCH  10  11
ENDBRANCH   9  10
ENDBRANCH   8   9
ENDBRANCH   1   8
TORSDOF 9
ENDMDL
MODEL 3
REMARK VINA RESULT:    12.423      4.349      6.518
REMARK INTER + INTRA:          18.432
REMARK INTER:                  18.859
REMARK INTRA:                  -0.427
REMARK UNBOUND:                -0.526
REMARK SMILES CCCCCCCCCCC(=O)[O-]
REMARK SMILES IDX 7 1 8 2 9 3 10 4 11 5 12 6 13 7 6 8 5 9 4 10 3 11 2 12 1 13
REMARK H PARENT
REMARK Flexibility Score: inf
ROOT
ATOM      1  C   UNL     1      -3.546  -8.771  24.827  1.00  0.00     0.000 C 
ENDROOT
BRANCH   1   2
ATOM      2  C   UNL     1      -5.077  -8.672  24.719  1.00  0.00     0.000 C 
BRANCH   2   3
ATOM      3  C   UNL     1      -5.774 -10.026  24.935  1.00  0.00     0.006 C 
BRANCH   3   4
ATOM      4  C   UNL     1      -5.896 -10.828  23.632  1.00  0.00     0.053 C 
BRANCH   4   5
ATOM      5  C   UNL     1      -6.609 -12.129  23.844  1.00  0.00     0.041 C 
ATOM      6  O   UNL     1      -6.603 -12.678  24.977  1.00  0.00    -0.550 OA
ATOM      7  O   UNL     1      -7.255 -12.749  22.782  1.00  0.00    -0.550 OA
ENDBRANCH   4   5
ENDBRANCH   3   4
ENDBRANCH   2   3
ENDBRANCH   1   2
BRANCH   1   8
ATOM      8  C   UNL     1      -2.823  -8.048  23.681  1.00  0.00     0.000 C 
BRANCH   8   9
ATOM      9  C   UNL     1      -1.360  -8.498  23.585  1.00  0.00    -0.000 C 
BRANCH   9  10
ATOM     10  C   UNL     1      -0.774  -8.764  24.980  1.00  0.00    -0.000 C 
BRANCH  10  11
ATOM     11  C   UNL     1       0.096  -7.602  25.487  1.00  0.00    -0.000 C 
BRANCH  11  12
ATOM     12  C   UNL     1       1.027  -8.017  26.635  1.00  0.00    -0.003 C 
ATOM     13  C   UNL     1       0.707  -9.428  27.121  1.00  0.00     0.004 C 
ENDBRANCH  11  12
ENDBRANCH  10  11
ENDBRANCH   9  10
ENDBRANCH   8   9
ENDBRANCH   1   8
TORSDOF 9
ENDMDL
MODEL 4
REMARK VINA RESULT:    12.585     13.401     15.903
REMARK INTER + INTRA:          18.680
REMARK INTER:                  19.000
REMARK INTRA:                  -0.320
REMARK UNBOUND:                -0.526
REMARK SMILES CCCCCCCCCCC(=O)[O-]
REMARK SMILES IDX 7 1 8 2 9 3 10 4 11 5 12 6 13 7 6 8 5 9 4 10 3 11 2 12 1 13
REMARK H PARENT
REMARK Flexibility Score: inf
ROOT
ATOM      1  C   UNL     1       4.597 -17.625  12.934  1.00  0.00     0.000 C 
ENDROOT
BRANCH   1   2
ATOM      2  C   UNL     1       4.265 -19.100  13.213  1.00  0.00     0.000 C 
BRANCH   2   3
ATOM      3  C   UNL     1       3.895 -19.874  11.936  1.00  0.00     0.006 C 
BRANCH   3   4
ATOM      4  C   UNL     1       2.651 -20.751  12.130  1.00  0.00     0.053 C 
BRANCH   4   5
ATOM      5  C   UNL     1       1.390 -20.004  11.821  1.00  0.00     0.041 C 
ATOM      6  O   UNL     1       0.322 -20.629  11.589  1.00  0.00    -0.550 OA
ATOM      7  O   UNL     1       1.402 -18.616  11.761  1.00  0.00    -0.550 OA
ENDBRANCH   4   5
ENDBRANCH   3   4
ENDBRANCH   2   3
ENDBRANCH   1   2
BRANCH   1   8
ATOM      8  C   UNL     1       4.923 -16.839  14.214  1.00  0.00     0.000 C 
BRANCH   8   9
ATOM      9  C   UNL     1       4.750 -17.719  15.457  1.00  0.00    -0.000 C 
BRANCH   9  10
ATOM     10  C   UNL     1       5.125 -16.949  16.733  1.00  0.00    -0.000 C 
BRANCH  10  11
ATOM     11  C   UNL     1       4.418 -17.496  17.983  1.00  0.00    -0.000 C 
BRANCH  11  12
ATOM     12  C   UNL     1       3.637 -16.414  18.743  1.00  0.00    -0.003 C 
ATOM     13  C   UNL     1       4.456 -15.133  18.873  1.00  0.00     0.004 C 
ENDBRANCH  11  12
ENDBRANCH  10  11
ENDBRANCH   9  10
ENDBRANCH   8   9
ENDBRANCH   1   8
TORSDOF 9
ENDMDL
MODEL 5
REMARK VINA RESULT:    12.796     13.053     15.099
REMARK INTER + INTRA:          19.002
REMARK INTER:                  19.408
REMARK INTRA:                  -0.407
REMARK UNBOUND:                -0.526
REMARK SMILES CCCCCCCCCCC(=O)[O-]
REMARK SMILES IDX 7 1 8 2 9 3 10 4 11 5 12 6 13 7 6 8 5 9 4 10 3 11 2 12 1 13
REMARK H PARENT
REMARK Flexibility Score: inf
ROOT
ATOM      1  C   UNL     1       4.144 -17.473  14.252  1.00  0.00     0.000 C 
ENDROOT
BRANCH   1   2
ATOM      2  C   UNL     1       5.103 -17.838  15.397  1.00  0.00     0.000 C 
BRANCH   2   3
ATOM      3  C   UNL     1       4.986 -16.880  16.595  1.00  0.00     0.006 C 
BRANCH   3   4
ATOM      4  C   UNL     1       4.372 -17.563  17.825  1.00  0.00     0.053 C 
BRANCH   4   5
ATOM      5  C   UNL     1       3.850 -16.565  18.813  1.00  0.00     0.041 C 
ATOM      6  O   UNL     1       3.108 -16.938  19.759  1.00  0.00    -0.550 OA
ATOM      7  O   UNL     1       4.159 -15.218  18.670  1.00  0.00    -0.550 OA
ENDBRANCH   4   5
ENDBRANCH   3   4
ENDBRANCH   2   3
ENDBRANCH   1   2
BRANCH   1   8
ATOM      8  C   UNL     1       4.850 -17.392  12.890  1.00  0.00     0.000 C 
BRANCH   8   9
ATOM      9  C   UNL     1       4.934 -18.776  12.233  1.00  0.00    -0.000 C 
BRANCH   9  10
ATOM     10  C   UNL     1       3.630 -19.562  12.439  1.00  0.00    -0.000 C 
BRANCH  10  11
ATOM     11  C   UNL     1       3.745 -21.026  11.986  1.00  0.00    -0.000 C 
BRANCH  11  12
ATOM     12  C   UNL     1       5.124 -21.359  11.401  1.00  0.00    -0.003 C 
ATOM     13  C   UNL     1       5.087 -22.662  10.608  1.00  0.00     0.004 C 
ENDBRANCH  11  12
ENDBRANCH  10  11
ENDBRANCH   9  10
ENDBRANCH   8   9
ENDBRANCH   1   8
TORSDOF 9
ENDMDL
MODEL 6
REMARK VINA RESULT:    13.062      2.992      4.626
REMARK INTER + INTRA:          19.408
REMARK INTER:                  19.888
REMARK INTRA:                  -0.480
REMARK UNBOUND:                -0.526
REMARK SMILES CCCCCCCCCCC(=O)[O-]
REMARK SMILES IDX 7 1 8 2 9 3 10 4 11 5 12 6 13 7 6 8 5 9 4 10 3 11 2 12 1 13
REMARK H PARENT
REMARK Flexibility Score: inf
ROOT
ATOM      1  C   UNL     1      -3.571  -9.110  24.835  1.00  0.00     0.000 C 
ENDROOT
BRANCH   1   2
ATOM      2  C   UNL     1      -2.740  -8.150  23.968  1.00  0.00     0.000 C 
BRANCH   2   3
ATOM      3  C   UNL     1      -1.226  -8.387  24.108  1.00  0.00     0.006 C 
BRANCH   3   4
ATOM      4  C   UNL     1      -0.878  -9.157  25.390  1.00  0.00     0.053 C 
BRANCH   4   5
ATOM      5  C   UNL     1       0.231  -8.496  26.151  1.00  0.00     0.041 C 
ATOM      6  O   UNL     1       0.838  -9.122  27.059  1.00  0.00    -0.550 OA
ATOM      7  O   UNL     1       0.574  -7.178  25.875  1.00  0.00    -0.550 OA
ENDBRANCH   4   5
ENDBRANCH   3   4
ENDBRANCH   2   3
ENDBRANCH   1   2
BRANCH   1   8
ATOM      8  C   UNL     1      -5.067  -8.758  24.841  1.00  0.00     0.000 C 
BRANCH   8   9
ATOM      9  C   UNL     1      -5.926 -10.021  24.983  1.00  0.00    -0.000 C 
BRANCH   9  10
ATOM     10  C   UNL     1      -5.778 -10.928  23.751  1.00  0.00    -0.000 C 
BRANCH  10  11
ATOM     11  C   UNL     1      -6.531 -12.259  23.902  1.00  0.00    -0.000 C 
BRANCH  11  12
ATOM     12  C   UNL     1      -6.634 -12.718  25.363  1.00  0.00    -0.003 C 
ATOM     13  C   UNL     1      -5.628 -13.825  25.664  1.00  0.00     0.004 C 
ENDBRANCH  11  12
ENDBRANCH  10  11
ENDBRANCH   9  10
ENDBRANCH   8   9
ENDBRANCH   1   8
TORSDOF 9
ENDMDL
MODEL 7
REMARK VINA RESULT:    13.169      3.042      6.212
REMARK INTER + INTRA:          19.571
REMARK INTER:                  19.855
REMARK INTRA:                  -0.284
REMARK UNBOUND:                -0.526
REMARK SMILES CCCCCCCCCCC(=O)[O-]
REMARK SMILES IDX 7 1 8 2 9 3 10 4 11 5 12 6 13 7 6 8 5 9 4 10 3 11 2 12 1 13
REMARK H PARENT
REMARK Flexibility Score: inf
ROOT
ATOM      1  C   UNL     1      -2.801  -7.002  22.639  1.00  0.00     0.000 C 
ENDROOT
BRANCH   1   2
ATOM      2  C   UNL     1      -4.164  -6.876  21.939  1.00  0.00     0.000 C 
BRANCH   2   3
ATOM      3  C   UNL     1      -4.054  -6.973  20.407  1.00  0.00     0.006 C 
BRANCH   3   4
ATOM      4  C   UNL     1      -2.600  -6.881  19.925  1.00  0.00     0.053 C 
BRANCH   4   5
ATOM      5  C   UNL     1      -2.021  -8.234  19.643  1.00  0.00     0.041 C 
ATOM      6  O   UNL     1      -1.039  -8.656  20.308  1.00  0.00    -0.550 OA
ATOM      7  O   UNL     1      -2.552  -9.018  18.626  1.00  0.00    -0.550 OA
ENDBRANCH   4   5
ENDBRANCH   3   4
ENDBRANCH   2   3
ENDBRANCH   1   2
BRANCH   1   8
ATOM      8  C   UNL     1      -2.854  -7.906  23.880  1.00  0.00     0.000 C 
BRANCH   8   9
ATOM      9  C   UNL     1      -1.639  -8.840  23.930  1.00  0.00    -0.000 C 
BRANCH   9  10
ATOM     10  C   UNL     1      -1.033  -8.880  25.343  1.00  0.00    -0.000 C 
BRANCH  10  11
ATOM     11  C   UNL     1      -0.023  -7.748  25.585  1.00  0.00    -0.000 C 
BRANCH  11  12
ATOM     12  C   UNL     1       0.914  -8.034  26.768  1.00  0.00    -0.003 C 
ATOM     13  C   UNL     1       0.916  -9.518  27.122  1.00  0.00     0.004 C 
ENDBRANCH  11  12
ENDBRANCH  10  11
ENDBRANCH   9  10
ENDBRANCH   8   9
ENDBRANCH   1   8
TORSDOF 9
ENDMDL
MODEL 8
REMARK VINA RESULT:    13.719      7.616      8.915
REMARK INTER + INTRA:          20.411
REMARK INTER:                  20.856
REMARK INTRA:                  -0.444
REMARK UNBOUND:                -0.526
REMARK SMILES CCCCCCCCCCC(=O)[O-]
REMARK SMILES IDX 7 1 8 2 9 3 10 4 11 5 12 6 13 7 6 8 5 9 4 10 3 11 2 12 1 13
REMARK H PARENT
REMARK Flexibility Score: inf
ROOT
ATOM      1  C   UNL     1      -4.958 -14.364  26.502  1.00  0.00     0.000 C 
ENDROOT
BRANCH   1   2
ATOM      2  C   UNL     1      -5.227 -15.807  26.960  1.00  0.00     0.000 C 
BRANCH   2   3
ATOM      3  C   UNL     1      -4.565 -16.851  26.045  1.00  0.00     0.006 C 
BRANCH   3   4
ATOM      4  C   UNL     1      -5.507 -18.020  25.725  1.00  0.00     0.053 C 
BRANCH   4   5
ATOM      5  C   UNL     1      -5.481 -18.373  24.269  1.00  0.00     0.041 C 
ATOM      6  O   UNL     1      -6.168 -19.335  23.836  1.00  0.00    -0.550 OA
ATOM      7  O   UNL     1      -4.673 -17.655  23.395  1.00  0.00    -0.550 OA
ENDBRANCH   4   5
ENDBRANCH   3   4
ENDBRANCH   2   3
ENDBRANCH   1   2
BRANCH   1   8
ATOM      8  C   UNL     1      -5.558 -14.059  25.121  1.00  0.00     0.000 C 
BRANCH   8   9
ATOM      9  C   UNL     1      -6.411 -12.785  25.163  1.00  0.00    -0.000 C 
BRANCH   9  10
ATOM     10  C   UNL     1      -6.507 -12.141  23.771  1.00  0.00    -0.000 C 
BRANCH  10  11
ATOM     11  C   UNL     1      -6.028 -10.681  23.761  1.00  0.00    -0.000 C 
BRANCH  11  12
ATOM     12  C   UNL     1      -5.872 -10.099  25.174  1.00  0.00    -0.003 C 
ATOM     13  C   UNL     1      -4.914  -8.911  25.177  1.00  0.00     0.004 C 
ENDBRANCH  11  12
ENDBRANCH  10  11
ENDBRANCH   9  10
ENDBRANCH   8   9
ENDBRANCH   1   8
TORSDOF 9
ENDMDL
MODEL 9
REMARK VINA RESULT:    14.079      4.206      5.227
REMARK INTER + INTRA:          20.960
REMARK INTER:                  21.424
REMARK INTRA:                  -0.464
REMARK UNBOUND:                -0.526
REMARK SMILES CCCCCCCCCCC(=O)[O-]
REMARK SMILES IDX 7 1 8 2 9 3 10 4 11 5 12 6 13 7 6 8 5 9 4 10 3 11 2 12 1 13
REMARK H PARENT
REMARK Flexibility Score: inf
ROOT
ATOM      1  C   UNL     1      -4.034  -8.744  24.187  1.00  0.00     0.000 C 
ENDROOT
BRANCH   1   2
ATOM      2  C   UNL     1      -4.980  -8.863  25.394  1.00  0.00     0.000 C 
BRANCH   2   3
ATOM      3  C   UNL     1      -6.034  -9.969  25.211  1.00  0.00     0.006 C 
BRANCH   3   4
ATOM      4  C   UNL     1      -5.744 -10.849  23.988  1.00  0.00     0.053 C 
BRANCH   4   5
ATOM      5  C   UNL     1      -6.529 -12.125  24.023  1.00  0.00     0.041 C 
ATOM      6  O   UNL     1      -7.261 -12.446  23.050  1.00  0.00    -0.550 OA
ATOM      7  O   UNL     1      -6.473 -12.945  25.143  1.00  0.00    -0.550 OA
ENDBRANCH   4   5
ENDBRANCH   3   4
ENDBRANCH   2   3
ENDBRANCH   1   2
BRANCH   1   8
ATOM      8  C   UNL     1      -2.578  -9.085  24.539  1.00  0.00     0.000 C 
BRANCH   8   9
ATOM      9  C   UNL     1      -1.604  -8.379  23.587  1.00  0.00    -0.000 C 
BRANCH   9  10
ATOM     10  C   UNL     1      -2.334  -7.334  22.729  1.00  0.00    -0.000 C 
BRANCH  10  11
ATOM     11  C   UNL     1      -2.186  -7.597  21.223  1.00  0.00    -0.000 C 
BRANCH  11  12
ATOM     12  C   UNL     1      -3.259  -6.884  20.388  1.00  0.00    -0.003 C 
ATOM     13  C   UNL     1      -3.480  -7.591  19.054  1.00  0.00     0.004 C 
ENDBRANCH  11  12
ENDBRANCH  10  11
ENDBRANCH   9  10
ENDBRANCH   8   9
ENDBRANCH   1   8
TORSDOF 9
ENDMDL
