MODEL 1
REMARK VINA RESULT:    -5.402      0.000      0.000
REMARK INTER + INTRA:          -5.884
REMARK INTER:                  -5.718
REMARK INTRA:                  -0.166
REMARK UNBOUND:                -0.166
REMARK SMILES C=C(C)[C@@H]1CC[C@]2(C)CCCC(=C)[C@@H]2C1
REMARK SMILES IDX 4 1 5 2 6 3 7 4 9 5 10 6 11 7 12 8 13 9 14 10 15 11 8 12
REMARK SMILES IDX 2 13 3 14 1 15
REMARK H PARENT
REMARK Flexibility Score: inf
ROOT
ATOM      1  C   UNL     1     134.336 134.769 131.468  1.00  0.00     0.015 C 
ATOM      2  C   UNL     1     134.957 134.292 132.789  1.00  0.00     0.008 C 
ATOM      3  C   UNL     1     135.915 133.118 132.544  1.00  0.00     0.008 C 
ATOM      4  C   UNL     1     137.031 133.421 131.498  1.00  0.00    -0.026 C 
ATOM      5  C   UNL     1     138.086 134.395 132.107  1.00  0.00     0.008 C 
ATOM      6  C   UNL     1     139.185 134.794 131.106  1.00  0.00     0.005 C 
ATOM      7  C   UNL     1     138.608 135.386 129.817  1.00  0.00     0.031 C 
ATOM      8  C   UNL     1     137.505 134.513 129.259  1.00  0.00    -0.074 C 
ATOM      9  C   UNL     1     137.421 134.291 127.938  1.00  0.00     0.008 C 
ATOM     10  C   UNL     1     136.412 134.027 130.195  1.00  0.00     0.021 C 
ATOM     11  C   UNL     1     135.433 135.189 130.479  1.00  0.00     0.016 C 
ATOM     12  C   UNL     1     137.711 132.067 131.160  1.00  0.00     0.012 C 
ENDROOT
BRANCH   1  13
ATOM     13  C   UNL     1     133.345 135.903 131.705  1.00  0.00    -0.077 C 
ATOM     14  C   UNL     1     133.634 137.007 132.693  1.00  0.00     0.039 C 
ATOM     15  C   UNL     1     132.188 135.937 131.027  1.00  0.00     0.008 C 
ENDBRANCH   1  13
TORSDOF 1
ENDMDL
MODEL 2
REMARK VINA RESULT:    -5.364      3.853      5.627
REMARK INTER + INTRA:          -5.844
REMARK INTER:                  -5.668
REMARK INTRA:                  -0.176
REMARK UNBOUND:                -0.166
REMARK SMILES C=C(C)[C@@H]1CC[C@]2(C)CCCC(=C)[C@@H]2C1
REMARK SMILES IDX 4 1 5 2 6 3 7 4 9 5 10 6 11 7 12 8 13 9 14 10 15 11 8 12
REMARK SMILES IDX 2 13 3 14 1 15
REMARK H PARENT
REMARK Flexibility Score: inf
ROOT
ATOM      1  C   UNL     1     137.900 139.765 131.765  1.00  0.00     0.015 C 
ATOM      2  C   UNL     1     138.226 139.265 130.351  1.00  0.00     0.008 C 
ATOM      3  C   UNL     1     139.701 138.852 130.248  1.00  0.00     0.008 C 
ATOM      4  C   UNL     1     140.136 137.797 131.310  1.00  0.00    -0.026 C 
ATOM      5  C   UNL     1     139.531 136.403 130.960  1.00  0.00     0.008 C 
ATOM      6  C   UNL     1     139.864 135.323 132.005  1.00  0.00     0.005 C 
ATOM      7  C   UNL     1     139.446 135.736 133.419  1.00  0.00     0.031 C 
ATOM      8  C   UNL     1     139.930 137.131 133.748  1.00  0.00    -0.074 C 
ATOM      9  C   UNL     1     140.433 137.404 134.962  1.00  0.00     0.008 C 
ATOM     10  C   UNL     1     139.693 138.245 132.742  1.00  0.00     0.021 C 
ATOM     11  C   UNL     1     138.211 138.677 132.805  1.00  0.00     0.016 C 
ATOM     12  C   UNL     1     141.686 137.717 131.255  1.00  0.00     0.012 C 
ENDROOT
BRANCH   1  13
ATOM     13  C   UNL     1     136.450 140.224 131.866  1.00  0.00    -0.077 C 
ATOM     14  C   UNL     1     135.974 141.483 131.184  1.00  0.00     0.039 C 
ATOM     15  C   UNL     1     135.564 139.503 132.570  1.00  0.00     0.008 C 
ENDBRANCH   1  13
TORSDOF 1
ENDMDL
MODEL 3
REMARK VINA RESULT:    -5.362      3.929      5.807
REMARK INTER + INTRA:          -5.842
REMARK INTER:                  -5.666
REMARK INTRA:                  -0.175
REMARK UNBOUND:                -0.166
REMARK SMILES C=C(C)[C@@H]1CC[C@]2(C)CCCC(=C)[C@@H]2C1
REMARK SMILES IDX 4 1 5 2 6 3 7 4 9 5 10 6 11 7 12 8 13 9 14 10 15 11 8 12
REMARK SMILES IDX 2 13 3 14 1 15
REMARK H PARENT
REMARK Flexibility Score: inf
ROOT
ATOM      1  C   UNL     1     133.898 137.972 132.088  1.00  0.00     0.015 C 
ATOM      2  C   UNL     1     134.250 138.260 130.622  1.00  0.00     0.008 C 
ATOM      3  C   UNL     1     134.725 139.710 130.453  1.00  0.00     0.008 C 
ATOM      4  C   UNL     1     135.917 140.095 131.383  1.00  0.00    -0.026 C 
ATOM      5  C   UNL     1     137.228 139.414 130.885  1.00  0.00     0.008 C 
ATOM      6  C   UNL     1     138.436 139.695 131.795  1.00  0.00     0.005 C 
ATOM      7  C   UNL     1     138.166 139.310 133.253  1.00  0.00     0.031 C 
ATOM      8  C   UNL     1     136.845 139.871 133.732  1.00  0.00    -0.074 C 
ATOM      9  C   UNL     1     136.740 140.396 134.962  1.00  0.00     0.008 C 
ATOM     10  C   UNL     1     135.612 139.687 132.862  1.00  0.00     0.021 C 
ATOM     11  C   UNL     1     135.112 138.231 132.993  1.00  0.00     0.016 C 
ATOM     12  C   UNL     1     136.071 141.638 131.299  1.00  0.00     0.012 C 
ENDROOT
BRANCH   1  13
ATOM     13  C   UNL     1     133.378 136.549 132.259  1.00  0.00    -0.077 C 
ATOM     14  C   UNL     1     132.432 135.932 131.259  1.00  0.00     0.039 C 
ATOM     15  C   UNL     1     133.763 135.815 133.315  1.00  0.00     0.008 C 
ENDBRANCH   1  13
TORSDOF 1
ENDMDL
MODEL 4
REMARK VINA RESULT:    -5.362      1.770      5.326
REMARK INTER + INTRA:          -5.842
REMARK INTER:                  -5.666
REMARK INTRA:                  -0.175
REMARK UNBOUND:                -0.166
REMARK SMILES C=C(C)[C@@H]1CC[C@]2(C)CCCC(=C)[C@@H]2C1
REMARK SMILES IDX 4 1 5 2 6 3 7 4 9 5 10 6 11 7 12 8 13 9 14 10 15 11 8 12
REMARK SMILES IDX 2 13 3 14 1 15
REMARK H PARENT
REMARK Flexibility Score: inf
ROOT
ATOM      1  C   UNL     1     135.662 133.875 132.115  1.00  0.00     0.015 C 
ATOM      2  C   UNL     1     135.407 134.251 130.649  1.00  0.00     0.008 C 
ATOM      3  C   UNL     1     133.966 134.744 130.459  1.00  0.00     0.008 C 
ATOM      4  C   UNL     1     133.575 135.926 131.397  1.00  0.00    -0.026 C 
ATOM      5  C   UNL     1     134.280 137.237 130.932  1.00  0.00     0.008 C 
ATOM      6  C   UNL     1     133.993 138.435 131.854  1.00  0.00     0.005 C 
ATOM      7  C   UNL     1     134.347 138.140 133.315  1.00  0.00     0.031 C 
ATOM      8  C   UNL     1     133.762 136.819 133.764  1.00  0.00    -0.074 C 
ATOM      9  C   UNL     1     133.211 136.701 134.982  1.00  0.00     0.008 C 
ATOM     10  C   UNL     1     133.950 135.597 132.880  1.00  0.00     0.021 C 
ATOM     11  C   UNL     1     135.398 135.079 133.032  1.00  0.00     0.016 C 
ATOM     12  C   UNL     1     132.036 136.099 131.285  1.00  0.00     0.012 C 
ENDROOT
BRANCH   1  13
ATOM     13  C   UNL     1     137.075 133.337 132.307  1.00  0.00    -0.077 C 
ATOM     14  C   UNL     1     137.709 132.412 131.297  1.00  0.00     0.039 C 
ATOM     15  C   UNL     1     137.787 133.686 133.390  1.00  0.00     0.008 C 
ENDBRANCH   1  13
TORSDOF 1
ENDMDL
MODEL 5
REMARK VINA RESULT:    -5.347      2.609      4.640
REMARK INTER + INTRA:          -5.826
REMARK INTER:                  -5.660
REMARK INTRA:                  -0.166
REMARK UNBOUND:                -0.166
REMARK SMILES C=C(C)[C@@H]1CC[C@]2(C)CCCC(=C)[C@@H]2C1
REMARK SMILES IDX 4 1 5 2 6 3 7 4 9 5 10 6 11 7 12 8 13 9 14 10 15 11 8 12
REMARK SMILES IDX 2 13 3 14 1 15
REMARK H PARENT
REMARK Flexibility Score: inf
ROOT
ATOM      1  C   UNL     1     134.360 139.252 131.606  1.00  0.00     0.015 C 
ATOM      2  C   UNL     1     135.138 139.238 132.929  1.00  0.00     0.008 C 
ATOM      3  C   UNL     1     134.542 138.207 133.898  1.00  0.00     0.008 C 
ATOM      4  C   UNL     1     134.450 136.766 133.307  1.00  0.00    -0.026 C 
ATOM      5  C   UNL     1     135.872 136.132 133.216  1.00  0.00     0.008 C 
ATOM      6  C   UNL     1     135.867 134.732 132.578  1.00  0.00     0.005 C 
ATOM      7  C   UNL     1     135.200 134.726 131.199  1.00  0.00     0.031 C 
ATOM      8  C   UNL     1     133.862 135.430 131.234  1.00  0.00    -0.074 C 
ATOM      9  C   UNL     1     132.813 134.922 130.569  1.00  0.00     0.008 C 
ATOM     10  C   UNL     1     133.769 136.793 131.899  1.00  0.00     0.021 C 
ATOM     11  C   UNL     1     134.375 137.859 130.959  1.00  0.00     0.016 C 
ATOM     12  C   UNL     1     133.575 135.936 134.284  1.00  0.00     0.012 C 
ENDROOT
BRANCH   1  13
ATOM     13  C   UNL     1     134.912 140.307 130.654  1.00  0.00    -0.077 C 
ATOM     14  C   UNL     1     135.911 141.338 131.117  1.00  0.00     0.039 C 
ATOM     15  C   UNL     1     134.513 140.332 129.373  1.00  0.00     0.008 C 
ENDBRANCH   1  13
TORSDOF 1
ENDMDL
MODEL 6
REMARK VINA RESULT:    -5.335      2.648      4.659
REMARK INTER + INTRA:          -5.813
REMARK INTER:                  -5.648
REMARK INTRA:                  -0.165
REMARK UNBOUND:                -0.166
REMARK SMILES C=C(C)[C@@H]1CC[C@]2(C)CCCC(=C)[C@@H]2C1
REMARK SMILES IDX 4 1 5 2 6 3 7 4 9 5 10 6 11 7 12 8 13 9 14 10 15 11 8 12
REMARK SMILES IDX 2 13 3 14 1 15
REMARK H PARENT
REMARK Flexibility Score: inf
ROOT
ATOM      1  C   UNL     1     134.940 139.201 131.236  1.00  0.00     0.015 C 
ATOM      2  C   UNL     1     134.375 138.764 132.595  1.00  0.00     0.008 C 
ATOM      3  C   UNL     1     133.153 137.855 132.407  1.00  0.00     0.008 C 
ATOM      4  C   UNL     1     133.424 136.611 131.508  1.00  0.00    -0.026 C 
ATOM      5  C   UNL     1     134.305 135.577 132.275  1.00  0.00     0.008 C 
ATOM      6  C   UNL     1     134.671 134.349 131.423  1.00  0.00     0.005 C 
ATOM      7  C   UNL     1     135.347 134.739 130.104  1.00  0.00     0.031 C 
ATOM      8  C   UNL     1     134.568 135.819 129.388  1.00  0.00    -0.074 C 
ATOM      9  C   UNL     1     134.401 135.763 128.057  1.00  0.00     0.008 C 
ATOM     10  C   UNL     1     134.117 137.040 130.172  1.00  0.00     0.021 C 
ATOM     11  C   UNL     1     135.327 137.974 130.396  1.00  0.00     0.016 C 
ATOM     12  C   UNL     1     132.043 135.977 131.188  1.00  0.00     0.012 C 
ENDROOT
BRANCH   1  13
ATOM     13  C   UNL     1     136.125 140.144 131.411  1.00  0.00    -0.077 C 
ATOM     14  C   UNL     1     137.490 139.629 131.797  1.00  0.00     0.039 C 
ATOM     15  C   UNL     1     135.969 141.463 131.218  1.00  0.00     0.008 C 
ENDBRANCH   1  13
TORSDOF 1
ENDMDL
MODEL 7
REMARK VINA RESULT:    -5.310      1.998      5.184
REMARK INTER + INTRA:          -5.787
REMARK INTER:                  -5.610
REMARK INTRA:                  -0.176
REMARK UNBOUND:                -0.166
REMARK SMILES C=C(C)[C@@H]1CC[C@]2(C)CCCC(=C)[C@@H]2C1
REMARK SMILES IDX 4 1 5 2 6 3 7 4 9 5 10 6 11 7 12 8 13 9 14 10 15 11 8 12
REMARK SMILES IDX 2 13 3 14 1 15
REMARK H PARENT
REMARK Flexibility Score: inf
ROOT
ATOM      1  C   UNL     1     139.905 135.771 131.997  1.00  0.00     0.015 C 
ATOM      2  C   UNL     1     139.438 135.518 130.556  1.00  0.00     0.008 C 
ATOM      3  C   UNL     1     138.952 134.072 130.390  1.00  0.00     0.008 C 
ATOM      4  C   UNL     1     137.838 133.660 131.402  1.00  0.00    -0.026 C 
ATOM      5  C   UNL     1     136.491 134.350 131.027  1.00  0.00     0.008 C 
ATOM      6  C   UNL     1     135.359 134.043 132.023  1.00  0.00     0.005 C 
ATOM      7  C   UNL     1     135.745 134.393 133.464  1.00  0.00     0.031 C 
ATOM      8  C   UNL     1     137.100 133.824 133.822  1.00  0.00    -0.074 C 
ATOM      9  C   UNL     1     137.303 133.268 135.027  1.00  0.00     0.008 C 
ATOM     10  C   UNL     1     138.259 134.032 132.862  1.00  0.00     0.021 C 
ATOM     11  C   UNL     1     138.767 135.486 132.989  1.00  0.00     0.016 C 
ATOM     12  C   UNL     1     137.679 132.120 131.292  1.00  0.00     0.012 C 
ENDROOT
BRANCH   1  13
ATOM     13  C   UNL     1     140.436 137.190 132.162  1.00  0.00    -0.077 C 
ATOM     14  C   UNL     1     141.475 137.755 131.225  1.00  0.00     0.039 C 
ATOM     15  C   UNL     1     139.977 137.969 133.154  1.00  0.00     0.008 C 
ENDBRANCH   1  13
TORSDOF 1
ENDMDL
MODEL 8
REMARK VINA RESULT:    -5.309      2.615      4.671
REMARK INTER + INTRA:          -5.785
REMARK INTER:                  -5.619
REMARK INTRA:                  -0.166
REMARK UNBOUND:                -0.166
REMARK SMILES C=C(C)[C@@H]1CC[C@]2(C)CCCC(=C)[C@@H]2C1
REMARK SMILES IDX 4 1 5 2 6 3 7 4 9 5 10 6 11 7 12 8 13 9 14 10 15 11 8 12
REMARK SMILES IDX 2 13 3 14 1 15
REMARK H PARENT
REMARK Flexibility Score: inf
ROOT
ATOM      1  C   UNL     1     138.896 134.369 131.597  1.00  0.00     0.015 C 
ATOM      2  C   UNL     1     139.334 135.035 132.909  1.00  0.00     0.008 C 
ATOM      3  C   UNL     1     140.529 135.968 132.671  1.00  0.00     0.008 C 
ATOM      4  C   UNL     1     140.279 137.046 131.572  1.00  0.00    -0.026 C 
ATOM      5  C   UNL     1     139.300 138.136 132.103  1.00  0.00     0.008 C 
ATOM      6  C   UNL     1     138.953 139.200 131.047  1.00  0.00     0.005 C 
ATOM      7  C   UNL     1     138.399 138.580 129.760  1.00  0.00     0.031 C 
ATOM      8  C   UNL     1     139.276 137.446 129.278  1.00  0.00    -0.074 C 
ATOM      9  C   UNL     1     139.545 137.308 127.970  1.00  0.00     0.008 C 
ATOM     10  C   UNL     1     139.713 136.383 130.272  1.00  0.00     0.021 C 
ATOM     11  C   UNL     1     138.527 135.432 130.551  1.00  0.00     0.016 C 
ATOM     12  C   UNL     1     141.654 137.694 131.258  1.00  0.00     0.012 C 
ENDROOT
BRANCH   1  13
ATOM     13  C   UNL     1     137.740 133.403 131.830  1.00  0.00    -0.077 C 
ATOM     14  C   UNL     1     136.583 133.762 132.729  1.00  0.00     0.039 C 
ATOM     15  C   UNL     1     137.734 132.203 131.228  1.00  0.00     0.008 C 
ENDBRANCH   1  13
TORSDOF 1
ENDMDL
MODEL 9
REMARK VINA RESULT:    -5.305      4.307      6.724
REMARK INTER + INTRA:          -5.782
REMARK INTER:                  -5.616
REMARK INTRA:                  -0.166
REMARK UNBOUND:                -0.166
REMARK SMILES C=C(C)[C@@H]1CC[C@]2(C)CCCC(=C)[C@@H]2C1
REMARK SMILES IDX 4 1 5 2 6 3 7 4 9 5 10 6 11 7 12 8 13 9 14 10 15 11 8 12
REMARK SMILES IDX 2 13 3 14 1 15
REMARK H PARENT
REMARK Flexibility Score: inf
ROOT
ATOM      1  C   UNL     1     139.194 139.432 131.628  1.00  0.00     0.015 C 
ATOM      2  C   UNL     1     139.218 138.766 133.012  1.00  0.00     0.008 C 
ATOM      3  C   UNL     1     138.176 139.405 133.939  1.00  0.00     0.008 C 
ATOM      4  C   UNL     1     136.728 139.400 133.360  1.00  0.00    -0.026 C 
ATOM      5  C   UNL     1     136.142 137.956 133.395  1.00  0.00     0.008 C 
ATOM      6  C   UNL     1     134.737 137.862 132.775  1.00  0.00     0.005 C 
ATOM      7  C   UNL     1     134.696 138.411 131.345  1.00  0.00     0.031 C 
ATOM      8  C   UNL     1     135.354 139.770 131.262  1.00  0.00    -0.074 C 
ATOM      9  C   UNL     1     134.805 140.743 130.518  1.00  0.00     0.008 C 
ATOM     10  C   UNL     1     136.719 139.964 131.901  1.00  0.00     0.021 C 
ATOM     11  C   UNL     1     137.796 139.317 131.001  1.00  0.00     0.016 C 
ATOM     12  C   UNL     1     135.877 140.326 134.271  1.00  0.00     0.012 C 
ENDROOT
BRANCH   1  13
ATOM     13  C   UNL     1     140.258 138.838 130.713  1.00  0.00    -0.077 C 
ATOM     14  C   UNL     1     141.207 137.770 131.199  1.00  0.00     0.039 C 
ATOM     15  C   UNL     1     140.366 139.261 129.444  1.00  0.00     0.008 C 
ENDBRANCH   1  13
TORSDOF 1
ENDMDL
