MODEL 1
REMARK VINA RESULT:    -4.519      0.000      0.000
REMARK INTER + INTRA:          -6.696
REMARK INTER:                  -6.368
REMARK INTRA:                  -0.328
REMARK UNBOUND:                -0.328
REMARK SMILES CCCCCCCCC(=O)[O-]
REMARK SMILES IDX 6 1 7 2 8 3 9 4 10 5 11 6 5 7 4 8 3 9 2 10 1 11
REMARK H PARENT
REMARK Flexibility Score: inf
ROOT
ATOM      1  C   UNL     1    -120.153 -36.960 -56.143  1.00  0.00     0.000 C 
ENDROOT
BRANCH   1   2
ATOM      2  C   UNL     1    -121.312 -36.128 -56.719  1.00  0.00     0.006 C 
BRANCH   2   3
ATOM      3  C   UNL     1    -120.862 -34.723 -57.142  1.00  0.00     0.053 C 
BRANCH   3   4
ATOM      4  C   UNL     1    -122.013 -33.891 -57.618  1.00  0.00     0.041 C 
ATOM      5  O   UNL     1    -122.986 -33.655 -56.854  1.00  0.00    -0.550 OA
ATOM      6  O   UNL     1    -122.023 -33.397 -58.917  1.00  0.00    -0.550 OA
ENDBRANCH   3   4
ENDBRANCH   2   3
ENDBRANCH   1   2
BRANCH   1   7
ATOM      7  C   UNL     1    -118.801 -36.233 -56.234  1.00  0.00     0.000 C 
BRANCH   7   8
ATOM      8  C   UNL     1    -117.606 -37.200 -56.233  1.00  0.00    -0.000 C 
BRANCH   8   9
ATOM      9  C   UNL     1    -116.285 -36.436 -56.410  1.00  0.00    -0.000 C 
BRANCH   9  10
ATOM     10  C   UNL     1    -116.435 -35.195 -57.303  1.00  0.00    -0.003 C 
ATOM     11  C   UNL     1    -115.185 -34.912 -58.136  1.00  0.00     0.004 C 
ENDBRANCH   9  10
ENDBRANCH   8   9
ENDBRANCH   7   8
ENDBRANCH   1   7
TORSDOF 7
ENDMDL
MODEL 2
REMARK VINA RESULT:    -4.268      3.544      5.796
REMARK INTER + INTRA:          -6.343
REMARK INTER:                  -6.045
REMARK INTRA:                  -0.299
REMARK UNBOUND:                -0.328
REMARK SMILES CCCCCCCCC(=O)[O-]
REMARK SMILES IDX 6 1 7 2 8 3 9 4 10 5 11 6 5 7 4 8 3 9 2 10 1 11
REMARK H PARENT
REMARK Flexibility Score: inf
ROOT
ATOM      1  C   UNL     1    -117.913 -36.926 -56.107  1.00  0.00     0.000 C 
ENDROOT
BRANCH   1   2
ATOM      2  C   UNL     1    -117.092 -35.790 -56.741  1.00  0.00     0.006 C 
BRANCH   2   3
ATOM      3  C   UNL     1    -115.581 -36.020 -56.602  1.00  0.00     0.053 C 
BRANCH   3   4
ATOM      4  C   UNL     1    -114.806 -35.260 -57.634  1.00  0.00     0.041 C 
ATOM      5  O   UNL     1    -115.367 -34.871 -58.691  1.00  0.00    -0.550 OA
ATOM      6  O   UNL     1    -113.454 -35.004 -57.439  1.00  0.00    -0.550 OA
ENDBRANCH   3   4
ENDBRANCH   2   3
ENDBRANCH   1   2
BRANCH   1   7
ATOM      7  C   UNL     1    -119.426 -36.662 -56.158  1.00  0.00     0.000 C 
BRANCH   7   8
ATOM      8  C   UNL     1    -119.763 -35.193 -56.460  1.00  0.00    -0.000 C 
BRANCH   8   9
ATOM      9  C   UNL     1    -121.141 -35.074 -57.128  1.00  0.00    -0.000 C 
BRANCH   9  10
ATOM     10  C   UNL     1    -122.175 -34.377 -56.230  1.00  0.00    -0.003 C 
ATOM     11  C   UNL     1    -121.550 -33.757 -54.981  1.00  0.00     0.004 C 
ENDBRANCH   9  10
ENDBRANCH   8   9
ENDBRANCH   7   8
ENDBRANCH   1   7
TORSDOF 7
ENDMDL
MODEL 3
REMARK VINA RESULT:    -4.227      1.630      1.874
REMARK INTER + INTRA:          -6.286
REMARK INTER:                  -5.909
REMARK INTRA:                  -0.376
REMARK UNBOUND:                -0.328
REMARK SMILES CCCCCCCCC(=O)[O-]
REMARK SMILES IDX 6 1 7 2 8 3 9 4 10 5 11 6 5 7 4 8 3 9 2 10 1 11
REMARK H PARENT
REMARK Flexibility Score: inf
ROOT
ATOM      1  C   UNL     1    -119.777 -35.311 -56.652  1.00  0.00     0.000 C 
ENDROOT
BRANCH   1   2
ATOM      2  C   UNL     1    -121.111 -34.823 -56.060  1.00  0.00     0.006 C 
BRANCH   2   3
ATOM      3  C   UNL     1    -122.189 -35.916 -56.083  1.00  0.00     0.053 C 
BRANCH   3   4
ATOM      4  C   UNL     1    -122.648 -36.214 -57.477  1.00  0.00     0.041 C 
ATOM      5  O   UNL     1    -122.583 -37.386 -57.931  1.00  0.00    -0.550 OA
ATOM      6  O   UNL     1    -123.125 -35.189 -58.285  1.00  0.00    -0.550 OA
ENDBRANCH   3   4
ENDBRANCH   2   3
ENDBRANCH   1   2
BRANCH   1   7
ATOM      7  C   UNL     1    -119.301 -36.632 -56.027  1.00  0.00     0.000 C 
BRANCH   7   8
ATOM      8  C   UNL     1    -117.807 -36.900 -56.271  1.00  0.00    -0.000 C 
BRANCH   8   9
ATOM      9  C   UNL     1    -117.045 -35.585 -56.494  1.00  0.00    -0.000 C 
BRANCH   9  10
ATOM     10  C   UNL     1    -115.593 -35.813 -56.944  1.00  0.00    -0.003 C 
ATOM     11  C   UNL     1    -115.258 -35.090 -58.248  1.00  0.00     0.004 C 
ENDBRANCH   9  10
ENDBRANCH   8   9
ENDBRANCH   7   8
ENDBRANCH   1   7
TORSDOF 7
ENDMDL
MODEL 4
REMARK VINA RESULT:    -4.079      3.338      5.527
REMARK INTER + INTRA:          -6.076
REMARK INTER:                  -5.644
REMARK INTRA:                  -0.432
REMARK UNBOUND:                -0.328
REMARK SMILES CCCCCCCCC(=O)[O-]
REMARK SMILES IDX 6 1 7 2 8 3 9 4 10 5 11 6 5 7 4 8 3 9 2 10 1 11
REMARK H PARENT
REMARK Flexibility Score: inf
ROOT
ATOM      1  C   UNL     1    -119.418 -36.071 -55.978  1.00  0.00     0.000 C 
ENDROOT
BRANCH   1   2
ATOM      2  C   UNL     1    -117.973 -36.430 -56.367  1.00  0.00     0.006 C 
BRANCH   2   3
ATOM      3  C   UNL     1    -117.189 -35.209 -56.867  1.00  0.00     0.053 C 
BRANCH   3   4
ATOM      4  C   UNL     1    -115.789 -35.572 -57.261  1.00  0.00     0.041 C 
ATOM      5  O   UNL     1    -115.033 -36.162 -56.447  1.00  0.00    -0.550 OA
ATOM      6  O   UNL     1    -115.313 -35.232 -58.522  1.00  0.00    -0.550 OA
ENDBRANCH   3   4
ENDBRANCH   2   3
ENDBRANCH   1   2
BRANCH   1   7
ATOM      7  C   UNL     1    -120.458 -36.956 -56.684  1.00  0.00     0.000 C 
BRANCH   7   8
ATOM      8  C   UNL     1    -121.743 -36.193 -57.042  1.00  0.00    -0.000 C 
BRANCH   8   9
ATOM      9  C   UNL     1    -121.440 -34.715 -57.328  1.00  0.00    -0.000 C 
BRANCH   9  10
ATOM     10  C   UNL     1    -122.377 -33.762 -56.569  1.00  0.00    -0.003 C 
ATOM     11  C   UNL     1    -122.129 -33.766 -55.061  1.00  0.00     0.004 C 
ENDBRANCH   9  10
ENDBRANCH   8   9
ENDBRANCH   7   8
ENDBRANCH   1   7
TORSDOF 7
ENDMDL
MODEL 5
REMARK VINA RESULT:    -3.938      3.015      5.495
REMARK INTER + INTRA:          -5.877
REMARK INTER:                  -5.647
REMARK INTRA:                  -0.231
REMARK UNBOUND:                -0.328
REMARK SMILES CCCCCCCCC(=O)[O-]
REMARK SMILES IDX 6 1 7 2 8 3 9 4 10 5 11 6 5 7 4 8 3 9 2 10 1 11
REMARK H PARENT
REMARK Flexibility Score: inf
ROOT
ATOM      1  C   UNL     1    -120.945 -36.604 -56.582  1.00  0.00     0.000 C 
ENDROOT
BRANCH   1   2
ATOM      2  C   UNL     1    -119.671 -35.788 -56.304  1.00  0.00     0.006 C 
BRANCH   2   3
ATOM      3  C   UNL     1    -118.445 -36.685 -56.082  1.00  0.00     0.053 C 
BRANCH   3   4
ATOM      4  C   UNL     1    -117.185 -36.032 -56.560  1.00  0.00     0.041 C 
ATOM      5  O   UNL     1    -116.095 -36.662 -56.540  1.00  0.00    -0.550 OA
ATOM      6  O   UNL     1    -117.210 -34.715 -57.003  1.00  0.00    -0.550 OA
ENDBRANCH   3   4
ENDBRANCH   2   3
ENDBRANCH   1   2
BRANCH   1   7
ATOM      7  C   UNL     1    -122.039 -35.776 -57.275  1.00  0.00     0.000 C 
BRANCH   7   8
ATOM      8  C   UNL     1    -121.671 -34.289 -57.396  1.00  0.00    -0.000 C 
BRANCH   8   9
ATOM      9  C   UNL     1    -122.200 -33.700 -58.712  1.00  0.00    -0.000 C 
BRANCH   9  10
ATOM     10  C   UNL     1    -122.811 -32.301 -58.531  1.00  0.00    -0.003 C 
ATOM     11  C   UNL     1    -122.372 -31.319 -59.617  1.00  0.00     0.004 C 
ENDBRANCH   9  10
ENDBRANCH   8   9
ENDBRANCH   7   8
ENDBRANCH   1   7
TORSDOF 7
ENDMDL
MODEL 6
REMARK VINA RESULT:    -3.833     12.955     14.507
REMARK INTER + INTRA:          -5.729
REMARK INTER:                  -4.897
REMARK INTRA:                  -0.833
REMARK UNBOUND:                -0.328
REMARK SMILES CCCCCCCCC(=O)[O-]
REMARK SMILES IDX 6 1 7 2 8 3 9 4 10 5 11 6 5 7 4 8 3 9 2 10 1 11
REMARK H PARENT
REMARK Flexibility Score: inf
ROOT
ATOM      1  C   UNL     1    -114.428 -42.192 -66.325  1.00  0.00     0.000 C 
ENDROOT
BRANCH   1   2
ATOM      2  C   UNL     1    -114.055 -42.055 -67.812  1.00  0.00     0.006 C 
BRANCH   2   3
ATOM      3  C   UNL     1    -113.400 -43.329 -68.363  1.00  0.00     0.053 C 
BRANCH   3   4
ATOM      4  C   UNL     1    -111.980 -43.089 -68.778  1.00  0.00     0.041 C 
ATOM      5  O   UNL     1    -111.189 -44.058 -68.924  1.00  0.00    -0.550 OA
ATOM      6  O   UNL     1    -111.524 -41.792 -68.975  1.00  0.00    -0.550 OA
ENDBRANCH   3   4
ENDBRANCH   2   3
ENDBRANCH   1   2
BRANCH   1   7
ATOM      7  C   UNL     1    -113.760 -41.121 -65.447  1.00  0.00     0.000 C 
BRANCH   7   8
ATOM      8  C   UNL     1    -112.233 -41.277 -65.378  1.00  0.00    -0.000 C 
BRANCH   8   9
ATOM      9  C   UNL     1    -111.848 -42.670 -64.856  1.00  0.00    -0.000 C 
BRANCH   9  10
ATOM     10  C   UNL     1    -110.497 -43.154 -65.404  1.00  0.00    -0.003 C 
ATOM     11  C   UNL     1    -109.651 -42.019 -65.980  1.00  0.00     0.004 C 
ENDBRANCH   9  10
ENDBRANCH   8   9
ENDBRANCH   7   8
ENDBRANCH   1   7
TORSDOF 7
ENDMDL
MODEL 7
REMARK VINA RESULT:    -3.826     12.747     14.048
REMARK INTER + INTRA:          -5.721
REMARK INTER:                  -4.837
REMARK INTRA:                  -0.884
REMARK UNBOUND:                -0.328
REMARK SMILES CCCCCCCCC(=O)[O-]
REMARK SMILES IDX 6 1 7 2 8 3 9 4 10 5 11 6 5 7 4 8 3 9 2 10 1 11
REMARK H PARENT
REMARK Flexibility Score: inf
ROOT
ATOM      1  C   UNL     1    -113.172 -41.358 -65.005  1.00  0.00     0.000 C 
ENDROOT
BRANCH   1   2
ATOM      2  C   UNL     1    -114.226 -41.648 -66.088  1.00  0.00     0.006 C 
BRANCH   2   3
ATOM      3  C   UNL     1    -113.806 -41.110 -67.463  1.00  0.00     0.053 C 
BRANCH   3   4
ATOM      4  C   UNL     1    -113.407 -42.215 -68.393  1.00  0.00     0.041 C 
ATOM      5  O   UNL     1    -112.943 -41.949 -69.533  1.00  0.00    -0.550 OA
ATOM      6  O   UNL     1    -113.574 -43.540 -68.010  1.00  0.00    -0.550 OA
ENDBRANCH   3   4
ENDBRANCH   2   3
ENDBRANCH   1   2
BRANCH   1   7
ATOM      7  C   UNL     1    -112.595 -42.639 -64.383  1.00  0.00     0.000 C 
BRANCH   7   8
ATOM      8  C   UNL     1    -111.213 -43.004 -64.949  1.00  0.00    -0.000 C 
BRANCH   8   9
ATOM      9  C   UNL     1    -110.551 -41.784 -65.605  1.00  0.00    -0.000 C 
BRANCH   9  10
ATOM     10  C   UNL     1    -109.976 -42.099 -66.994  1.00  0.00    -0.003 C 
ATOM     11  C   UNL     1    -110.076 -43.581 -67.354  1.00  0.00     0.004 C 
ENDBRANCH   9  10
ENDBRANCH   8   9
ENDBRANCH   7   8
ENDBRANCH   1   7
TORSDOF 7
ENDMDL
MODEL 8
REMARK VINA RESULT:    -3.807     13.060     14.059
REMARK INTER + INTRA:          -5.694
REMARK INTER:                  -5.045
REMARK INTRA:                  -0.649
REMARK UNBOUND:                -0.328
REMARK SMILES CCCCCCCCC(=O)[O-]
REMARK SMILES IDX 6 1 7 2 8 3 9 4 10 5 11 6 5 7 4 8 3 9 2 10 1 11
REMARK H PARENT
REMARK Flexibility Score: inf
ROOT
ATOM      1  C   UNL     1    -112.753 -41.141 -65.379  1.00  0.00     0.000 C 
ENDROOT
BRANCH   1   2
ATOM      2  C   UNL     1    -113.737 -41.131 -66.561  1.00  0.00     0.006 C 
BRANCH   2   3
ATOM      3  C   UNL     1    -113.016 -41.110 -67.916  1.00  0.00     0.053 C 
BRANCH   3   4
ATOM      4  C   UNL     1    -112.942 -42.476 -68.527  1.00  0.00     0.041 C 
ATOM      5  O   UNL     1    -111.870 -43.134 -68.483  1.00  0.00    -0.550 OA
ATOM      6  O   UNL     1    -114.053 -43.010 -69.169  1.00  0.00    -0.550 OA
ENDBRANCH   3   4
ENDBRANCH   2   3
ENDBRANCH   1   2
BRANCH   1   7
ATOM      7  C   UNL     1    -111.343 -40.675 -65.779  1.00  0.00     0.000 C 
BRANCH   7   8
ATOM      8  C   UNL     1    -110.253 -41.692 -65.408  1.00  0.00    -0.000 C 
BRANCH   8   9
ATOM      9  C   UNL     1    -110.862 -43.078 -65.150  1.00  0.00    -0.000 C 
BRANCH   9  10
ATOM     10  C   UNL     1    -110.543 -43.612 -63.745  1.00  0.00    -0.003 C 
ATOM     11  C   UNL     1    -111.789 -43.770 -62.875  1.00  0.00     0.004 C 
ENDBRANCH   9  10
ENDBRANCH   8   9
ENDBRANCH   7   8
ENDBRANCH   1   7
TORSDOF 7
ENDMDL
MODEL 9
REMARK VINA RESULT:    -3.751     15.371     16.975
REMARK INTER + INTRA:          -5.614
REMARK INTER:                  -4.924
REMARK INTRA:                  -0.690
REMARK UNBOUND:                -0.328
REMARK SMILES CCCCCCCCC(=O)[O-]
REMARK SMILES IDX 6 1 7 2 8 3 9 4 10 5 11 6 5 7 4 8 3 9 2 10 1 11
REMARK H PARENT
REMARK Flexibility Score: inf
ROOT
ATOM      1  C   UNL     1    -106.552 -27.583 -58.586  1.00  0.00     0.000 C 
ENDROOT
BRANCH   1   2
ATOM      2  C   UNL     1    -107.534 -27.221 -59.715  1.00  0.00     0.006 C 
BRANCH   2   3
ATOM      3  C   UNL     1    -107.402 -25.755 -60.148  1.00  0.00     0.053 C 
BRANCH   3   4
ATOM      4  C   UNL     1    -106.308 -25.569 -61.155  1.00  0.00     0.041 C 
ATOM      5  O   UNL     1    -105.731 -24.456 -61.267  1.00  0.00    -0.550 OA
ATOM      6  O   UNL     1    -105.945 -26.620 -61.987  1.00  0.00    -0.550 OA
ENDBRANCH   3   4
ENDBRANCH   2   3
ENDBRANCH   1   2
BRANCH   1   7
ATOM      7  C   UNL     1    -105.451 -28.551 -59.048  1.00  0.00     0.000 C 
BRANCH   7   8
ATOM      8  C   UNL     1    -104.037 -27.986 -58.841  1.00  0.00    -0.000 C 
BRANCH   8   9
ATOM      9  C   UNL     1    -104.092 -26.619 -58.142  1.00  0.00    -0.000 C 
BRANCH   9  10
ATOM     10  C   UNL     1    -103.147 -25.590 -58.782  1.00  0.00    -0.003 C 
ATOM     11  C   UNL     1    -103.190 -24.232 -58.083  1.00  0.00     0.004 C 
ENDBRANCH   9  10
ENDBRANCH   8   9
ENDBRANCH   7   8
ENDBRANCH   1   7
TORSDOF 7
ENDMDL
