MODEL 1
REMARK VINA RESULT:    -3.799      0.000      0.000
REMARK INTER + INTRA:          -3.799
REMARK INTER:                  -3.799
REMARK INTRA:                   0.000
REMARK UNBOUND:                 0.000
REMARK SMILES CC1(C)[C@@H]2CC[C@@]1(C)C(=O)C2
REMARK SMILES IDX 1 1 2 2 4 3 5 4 6 5 7 6 9 7 10 8 11 9 8 10 3 11
REMARK H PARENT
REMARK Flexibility Score: inf
ROOT
ATOM      1  C   UNL     1     167.516 169.284 170.327  1.00  0.00     0.012 C 
ATOM      2  C   UNL     1     168.246 168.470 169.215  1.00  0.00    -0.020 C 
ATOM      3  C   UNL     1     167.579 167.112 168.894  1.00  0.00     0.003 C 
ATOM      4  C   UNL     1     167.745 166.325 170.224  1.00  0.00     0.005 C 
ATOM      5  C   UNL     1     169.128 166.800 170.736  1.00  0.00     0.015 C 
ATOM      6  C   UNL     1     169.570 167.802 169.643  1.00  0.00     0.032 C 
ATOM      7  C   UNL     1     169.855 166.949 168.431  1.00  0.00     0.139 C 
ATOM      8  O   UNL     1     170.960 166.634 168.020  1.00  0.00    -0.299 OA
ATOM      9  C   UNL     1     168.555 166.459 167.875  1.00  0.00     0.080 C 
ATOM     10  C   UNL     1     170.709 168.742 170.056  1.00  0.00     0.020 C 
ATOM     11  C   UNL     1     168.363 169.417 167.981  1.00  0.00     0.012 C 
ENDROOT
TORSDOF 0
ENDMDL
MODEL 2
REMARK VINA RESULT:    -3.787      1.925      2.785
REMARK INTER + INTRA:          -3.787
REMARK INTER:                  -3.787
REMARK INTRA:                   0.000
REMARK UNBOUND:                 0.000
REMARK SMILES CC1(C)[C@@H]2CC[C@@]1(C)C(=O)C2
REMARK SMILES IDX 1 1 2 2 4 3 5 4 6 5 7 6 9 7 10 8 11 9 8 10 3 11
REMARK H PARENT
REMARK Flexibility Score: inf
ROOT
ATOM      1  C   UNL     1     165.743 167.484 170.306  1.00  0.00     0.012 C 
ATOM      2  C   UNL     1     166.638 168.088 169.180  1.00  0.00    -0.020 C 
ATOM      3  C   UNL     1     167.941 167.295 168.924  1.00  0.00     0.003 C 
ATOM      4  C   UNL     1     168.712 167.460 170.263  1.00  0.00     0.005 C 
ATOM      5  C   UNL     1     168.346 168.902 170.697  1.00  0.00     0.015 C 
ATOM      6  C   UNL     1     167.407 169.371 169.561  1.00  0.00     0.032 C 
ATOM      7  C   UNL     1     168.305 169.524 168.358  1.00  0.00     0.139 C 
ATOM      8  O   UNL     1     168.720 170.578 167.902  1.00  0.00    -0.299 OA
ATOM      9  C   UNL     1     168.693 168.162 167.876  1.00  0.00     0.080 C 
ATOM     10  C   UNL     1     166.558 170.603 169.897  1.00  0.00     0.020 C 
ATOM     11  C   UNL     1     165.729 168.222 167.920  1.00  0.00     0.012 C 
ENDROOT
TORSDOF 0
ENDMDL
MODEL 3
REMARK VINA RESULT:    -3.778      2.513      3.929
REMARK INTER + INTRA:          -3.778
REMARK INTER:                  -3.778
REMARK INTRA:                   0.000
REMARK UNBOUND:                 0.000
REMARK SMILES CC1(C)[C@@H]2CC[C@@]1(C)C(=O)C2
REMARK SMILES IDX 1 1 2 2 4 3 5 4 6 5 7 6 9 7 10 8 11 9 8 10 3 11
REMARK H PARENT
REMARK Flexibility Score: inf
ROOT
ATOM      1  C   UNL     1     168.039 165.779 170.164  1.00  0.00     0.012 C 
ATOM      2  C   UNL     1     167.289 166.675 169.130  1.00  0.00    -0.020 C 
ATOM      3  C   UNL     1     168.020 167.998 168.803  1.00  0.00     0.003 C 
ATOM      4  C   UNL     1     167.998 168.748 170.164  1.00  0.00     0.005 C 
ATOM      5  C   UNL     1     166.625 168.345 170.758  1.00  0.00     0.015 C 
ATOM      6  C   UNL     1     166.045 167.411 169.671  1.00  0.00     0.032 C 
ATOM      7  C   UNL     1     165.733 168.321 168.508  1.00  0.00     0.139 C 
ATOM      8  O   UNL     1     164.625 168.719 168.185  1.00  0.00    -0.299 OA
ATOM      9  C   UNL     1     167.022 168.745 167.875  1.00  0.00     0.080 C 
ATOM     10  C   UNL     1     164.878 166.531 170.136  1.00  0.00     0.020 C 
ATOM     11  C   UNL     1     167.026 165.780 167.880  1.00  0.00     0.012 C 
ENDROOT
TORSDOF 0
ENDMDL
MODEL 4
REMARK VINA RESULT:    -3.776      2.623      3.918
REMARK INTER + INTRA:          -3.776
REMARK INTER:                  -3.776
REMARK INTRA:                   0.000
REMARK UNBOUND:                 0.000
REMARK SMILES CC1(C)[C@@H]2CC[C@@]1(C)C(=O)C2
REMARK SMILES IDX 1 1 2 2 4 3 5 4 6 5 7 6 9 7 10 8 11 9 8 10 3 11
REMARK H PARENT
REMARK Flexibility Score: inf
ROOT
ATOM      1  C   UNL     1     167.396 167.135 168.191  1.00  0.00     0.012 C 
ATOM      2  C   UNL     1     166.942 168.589 168.524  1.00  0.00    -0.020 C 
ATOM      3  C   UNL     1     167.823 169.683 167.875  1.00  0.00     0.003 C 
ATOM      4  C   UNL     1     169.202 169.463 168.558  1.00  0.00     0.005 C 
ATOM      5  C   UNL     1     168.812 169.049 169.999  1.00  0.00     0.015 C 
ATOM      6  C   UNL     1     167.266 169.074 169.954  1.00  0.00     0.032 C 
ATOM      7  C   UNL     1     166.908 170.535 169.839  1.00  0.00     0.139 C 
ATOM      8  O   UNL     1     166.491 171.244 170.741  1.00  0.00    -0.299 OA
ATOM      9  C   UNL     1     167.251 171.004 168.460  1.00  0.00     0.080 C 
ATOM     10  C   UNL     1     166.577 168.326 171.102  1.00  0.00     0.020 C 
ATOM     11  C   UNL     1     165.436 168.682 168.130  1.00  0.00     0.012 C 
ENDROOT
TORSDOF 0
ENDMDL
MODEL 5
REMARK VINA RESULT:    -3.760      2.020      3.441
REMARK INTER + INTRA:          -3.760
REMARK INTER:                  -3.760
REMARK INTRA:                   0.000
REMARK UNBOUND:                 0.000
REMARK SMILES CC1(C)[C@@H]2CC[C@@]1(C)C(=O)C2
REMARK SMILES IDX 1 1 2 2 4 3 5 4 6 5 7 6 9 7 10 8 11 9 8 10 3 11
REMARK H PARENT
REMARK Flexibility Score: inf
ROOT
ATOM      1  C   UNL     1     166.836 168.995 170.379  1.00  0.00     0.012 C 
ATOM      2  C   UNL     1     166.916 167.453 170.160  1.00  0.00    -0.020 C 
ATOM      3  C   UNL     1     168.360 166.899 170.134  1.00  0.00     0.003 C 
ATOM      4  C   UNL     1     168.963 167.575 168.871  1.00  0.00     0.005 C 
ATOM      5  C   UNL     1     167.762 167.616 167.893  1.00  0.00     0.015 C 
ATOM      6  C   UNL     1     166.627 166.971 168.723  1.00  0.00     0.032 C 
ATOM      7  C   UNL     1     167.011 165.516 168.835  1.00  0.00     0.139 C 
ATOM      8  O   UNL     1     166.523 164.594 168.200  1.00  0.00    -0.299 OA
ATOM      9  C   UNL     1     168.168 165.399 169.777  1.00  0.00     0.080 C 
ATOM     10  C   UNL     1     165.213 167.228 168.186  1.00  0.00     0.020 C 
ATOM     11  C   UNL     1     166.017 166.804 171.258  1.00  0.00     0.012 C 
ENDROOT
TORSDOF 0
ENDMDL
MODEL 6
REMARK VINA RESULT:    -3.749      1.862      2.765
REMARK INTER + INTRA:          -3.749
REMARK INTER:                  -3.749
REMARK INTRA:                   0.000
REMARK UNBOUND:                 0.000
REMARK SMILES CC1(C)[C@@H]2CC[C@@]1(C)C(=O)C2
REMARK SMILES IDX 1 1 2 2 4 3 5 4 6 5 7 6 9 7 10 8 11 9 8 10 3 11
REMARK H PARENT
REMARK Flexibility Score: inf
ROOT
ATOM      1  C   UNL     1     169.370 168.024 170.486  1.00  0.00     0.012 C 
ATOM      2  C   UNL     1     168.601 167.302 169.337  1.00  0.00    -0.020 C 
ATOM      3  C   UNL     1     167.290 168.009 168.922  1.00  0.00     0.003 C 
ATOM      4  C   UNL     1     166.417 167.894 170.202  1.00  0.00     0.005 C 
ATOM      5  C   UNL     1     166.810 166.505 170.765  1.00  0.00     0.015 C 
ATOM      6  C   UNL     1     167.862 166.010 169.744  1.00  0.00     0.032 C 
ATOM      7  C   UNL     1     167.076 165.731 168.486  1.00  0.00     0.139 C 
ATOM      8  O   UNL     1     166.747 164.630 168.074  1.00  0.00    -0.299 OA
ATOM      9  C   UNL     1     166.668 167.038 167.880  1.00  0.00     0.080 C 
ATOM     10  C   UNL     1     168.734 164.847 170.233  1.00  0.00     0.020 C 
ATOM     11  C   UNL     1     169.618 167.130 168.166  1.00  0.00     0.012 C 
ENDROOT
TORSDOF 0
ENDMDL
MODEL 7
REMARK VINA RESULT:    -3.728      2.480      3.658
REMARK INTER + INTRA:          -3.728
REMARK INTER:                  -3.728
REMARK INTRA:                   0.000
REMARK UNBOUND:                 0.000
REMARK SMILES CC1(C)[C@@H]2CC[C@@]1(C)C(=O)C2
REMARK SMILES IDX 1 1 2 2 4 3 5 4 6 5 7 6 9 7 10 8 11 9 8 10 3 11
REMARK H PARENT
REMARK Flexibility Score: inf
ROOT
ATOM      1  C   UNL     1     168.844 168.727 170.647  1.00  0.00     0.012 C 
ATOM      2  C   UNL     1     167.466 168.279 170.069  1.00  0.00    -0.020 C 
ATOM      3  C   UNL     1     167.563 167.129 169.040  1.00  0.00     0.003 C 
ATOM      4  C   UNL     1     168.362 167.778 167.875  1.00  0.00     0.005 C 
ATOM      5  C   UNL     1     167.847 169.240 167.875  1.00  0.00     0.015 C 
ATOM      6  C   UNL     1     166.832 169.243 169.043  1.00  0.00     0.032 C 
ATOM      7  C   UNL     1     165.677 168.405 168.552  1.00  0.00     0.139 C 
ATOM      8  O   UNL     1     164.604 168.827 168.151  1.00  0.00    -0.299 OA
ATOM      9  C   UNL     1     166.103 166.970 168.534  1.00  0.00     0.080 C 
ATOM     10  C   UNL     1     166.449 170.635 169.558  1.00  0.00     0.020 C 
ATOM     11  C   UNL     1     166.561 167.946 171.296  1.00  0.00     0.012 C 
ENDROOT
TORSDOF 0
ENDMDL
MODEL 8
REMARK VINA RESULT:    -3.711      1.676      3.169
REMARK INTER + INTRA:          -3.711
REMARK INTER:                  -3.711
REMARK INTRA:                   0.000
REMARK UNBOUND:                 0.000
REMARK SMILES CC1(C)[C@@H]2CC[C@@]1(C)C(=O)C2
REMARK SMILES IDX 1 1 2 2 4 3 5 4 6 5 7 6 9 7 10 8 11 9 8 10 3 11
REMARK H PARENT
REMARK Flexibility Score: inf
ROOT
ATOM      1  C   UNL     1     166.893 170.152 170.819  1.00  0.00     0.012 C 
ATOM      2  C   UNL     1     167.754 169.147 169.995  1.00  0.00    -0.020 C 
ATOM      3  C   UNL     1     168.466 169.784 168.778  1.00  0.00     0.003 C 
ATOM      4  C   UNL     1     167.279 170.222 167.876  1.00  0.00     0.005 C 
ATOM      5  C   UNL     1     166.240 169.094 168.100  1.00  0.00     0.015 C 
ATOM      6  C   UNL     1     166.959 168.165 169.107  1.00  0.00     0.032 C 
ATOM      7  C   UNL     1     168.080 167.535 168.317  1.00  0.00     0.139 C 
ATOM      8  O   UNL     1     168.094 166.397 167.875  1.00  0.00    -0.299 OA
ATOM      9  C   UNL     1     169.131 168.571 168.069  1.00  0.00     0.080 C 
ATOM     10  C   UNL     1     166.042 167.174 169.835  1.00  0.00     0.020 C 
ATOM     11  C   UNL     1     168.729 168.469 171.006  1.00  0.00     0.012 C 
ENDROOT
TORSDOF 0
ENDMDL
MODEL 9
REMARK VINA RESULT:    -3.700      1.780      2.843
REMARK INTER + INTRA:          -3.700
REMARK INTER:                  -3.700
REMARK INTRA:                   0.000
REMARK UNBOUND:                 0.000
REMARK SMILES CC1(C)[C@@H]2CC[C@@]1(C)C(=O)C2
REMARK SMILES IDX 1 1 2 2 4 3 5 4 6 5 7 6 9 7 10 8 11 9 8 10 3 11
REMARK H PARENT
REMARK Flexibility Score: inf
ROOT
ATOM      1  C   UNL     1     167.842 166.642 170.739  1.00  0.00     0.012 C 
ATOM      2  C   UNL     1     167.649 168.067 170.136  1.00  0.00    -0.020 C 
ATOM      3  C   UNL     1     166.441 168.183 169.177  1.00  0.00     0.003 C 
ATOM      4  C   UNL     1     166.839 167.239 168.009  1.00  0.00     0.005 C 
ATOM      5  C   UNL     1     168.372 167.442 167.907  1.00  0.00     0.015 C 
ATOM      6  C   UNL     1     168.655 168.463 169.035  1.00  0.00     0.032 C 
ATOM      7  C   UNL     1     168.041 169.753 168.548  1.00  0.00     0.139 C 
ATOM      8  O   UNL     1     168.647 170.706 168.084  1.00  0.00    -0.299 OA
ATOM      9  C   UNL     1     166.551 169.632 168.626  1.00  0.00     0.080 C 
ATOM     10  C   UNL     1     170.126 168.565 169.455  1.00  0.00     0.020 C 
ATOM     11  C   UNL     1     167.585 169.052 171.345  1.00  0.00     0.012 C 
ENDROOT
TORSDOF 0
ENDMDL
