MODEL 1
REMARK VINA RESULT:    -7.126      0.000      0.000
REMARK INTER + INTRA:          -8.456
REMARK INTER:                  -8.167
REMARK INTRA:                  -0.289
REMARK UNBOUND:                -0.289
REMARK SMILES O=C1C[C@@H](c2ccc(O)cc2)Oc2cc(O)cc(O)c21
REMARK SMILES IDX 3 1 4 2 12 3 13 4 14 5 15 6 17 7 18 8 20 9 2 10 1 11 5 12
REMARK SMILES IDX 6 13 11 14 7 15 10 16 8 17 9 18 19 20 16 22
REMARK H PARENT 9 19 19 21 16 23
REMARK Flexibility Score: inf
ROOT
ATOM      1  C   UNL     1      -0.999  -9.229 -41.442  1.00  0.00     0.131 C 
ATOM      2  C   UNL     1       0.343  -9.305 -42.184  1.00  0.00     0.211 C 
ATOM      3  O   UNL     1       1.276 -10.106 -41.455  1.00  0.00    -0.484 OA
ATOM      4  C   UNL     1       0.904 -11.282 -40.788  1.00  0.00     0.138 A 
ATOM      5  C   UNL     1       1.902 -12.151 -40.340  1.00  0.00     0.093 A 
ATOM      6  C   UNL     1       1.561 -13.338 -39.686  1.00  0.00     0.123 A 
ATOM      7  C   UNL     1       0.218 -13.640 -39.452  1.00  0.00     0.093 A 
ATOM      8  C   UNL     1      -0.796 -12.764 -39.857  1.00  0.00     0.133 A 
ATOM      9  C   UNL     1      -0.457 -11.582 -40.565  1.00  0.00     0.102 A 
ATOM     10  C   UNL     1      -1.451 -10.618 -41.101  1.00  0.00     0.174 C 
ATOM     11  O   UNL     1      -2.644 -10.953 -41.328  1.00  0.00    -0.294 OA
ENDROOT
BRANCH   2  12
ATOM     12  C   UNL     1       0.909  -7.924 -42.406  1.00  0.00    -0.007 A 
ATOM     13  C   UNL     1       0.294  -6.797 -41.832  1.00  0.00     0.011 A 
ATOM     14  C   UNL     1       2.028  -7.744 -43.238  1.00  0.00     0.011 A 
ATOM     15  C   UNL     1       0.804  -5.517 -42.065  1.00  0.00     0.046 A 
ATOM     16  C   UNL     1       2.536  -6.462 -43.470  1.00  0.00     0.046 A 
ATOM     17  C   UNL     1       1.930  -5.347 -42.883  1.00  0.00     0.115 A 
BRANCH  17  18
ATOM     18  O   UNL     1       2.448  -4.076 -43.124  1.00  0.00    -0.508 OA
ATOM     19  H   UNL     1       2.815  -3.504 -42.373  1.00  0.00     0.293 HD
ENDBRANCH  17  18
ENDBRANCH   2  12
BRANCH   8  20
ATOM     20  O   UNL     1      -2.107 -13.094 -39.504  1.00  0.00    -0.507 OA
ATOM     21  H   UNL     1      -2.912 -12.527 -39.729  1.00  0.00     0.293 HD
ENDBRANCH   8  20
BRANCH   6  22
ATOM     22  O   UNL     1       2.550 -14.221 -39.256  1.00  0.00    -0.508 OA
ATOM     23  H   UNL     1       3.459 -13.892 -38.955  1.00  0.00     0.293 HD
ENDBRANCH   6  22
TORSDOF 4
ENDMDL
MODEL 2
REMARK VINA RESULT:    -6.793      2.627      3.346
REMARK INTER + INTRA:          -8.075
REMARK INTER:                  -7.759
REMARK INTRA:                  -0.315
REMARK UNBOUND:                -0.289
REMARK SMILES O=C1C[C@@H](c2ccc(O)cc2)Oc2cc(O)cc(O)c21
REMARK SMILES IDX 3 1 4 2 12 3 13 4 14 5 15 6 17 7 18 8 20 9 2 10 1 11 5 12
REMARK SMILES IDX 6 13 11 14 7 15 10 16 8 17 9 18 19 20 16 22
REMARK H PARENT 9 19 19 21 16 23
REMARK Flexibility Score: inf
ROOT
ATOM      1  C   UNL     1       3.248 -10.193 -40.962  1.00  0.00     0.131 C 
ATOM      2  C   UNL     1       3.056  -9.061 -39.943  1.00  0.00     0.211 C 
ATOM      3  O   UNL     1       1.878  -9.283 -39.162  1.00  0.00    -0.484 OA
ATOM      4  C   UNL     1       1.498 -10.555 -38.711  1.00  0.00     0.138 A 
ATOM      5  C   UNL     1       0.507 -10.658 -37.732  1.00  0.00     0.093 A 
ATOM      6  C   UNL     1       0.119 -11.912 -37.250  1.00  0.00     0.123 A 
ATOM      7  C   UNL     1       0.704 -13.067 -37.774  1.00  0.00     0.093 A 
ATOM      8  C   UNL     1       1.671 -12.988 -38.784  1.00  0.00     0.133 A 
ATOM      9  C   UNL     1       2.103 -11.716 -39.240  1.00  0.00     0.102 A 
ATOM     10  C   UNL     1       3.168 -11.512 -40.253  1.00  0.00     0.174 C 
ATOM     11  O   UNL     1       4.035 -12.394 -40.491  1.00  0.00    -0.294 OA
ENDROOT
BRANCH   2  12
ATOM     12  C   UNL     1       2.972  -7.724 -40.637  1.00  0.00    -0.007 A 
ATOM     13  C   UNL     1       2.265  -6.658 -40.054  1.00  0.00     0.011 A 
ATOM     14  C   UNL     1       3.554  -7.548 -41.904  1.00  0.00     0.011 A 
ATOM     15  C   UNL     1       2.164  -5.431 -40.715  1.00  0.00     0.046 A 
ATOM     16  C   UNL     1       3.452  -6.319 -42.563  1.00  0.00     0.046 A 
ATOM     17  C   UNL     1       2.761  -5.257 -41.971  1.00  0.00     0.115 A 
BRANCH  17  18
ATOM     18  O   UNL     1       2.667  -4.039 -42.641  1.00  0.00    -0.508 OA
ATOM     19  H   UNL     1       1.895  -3.403 -42.477  1.00  0.00     0.293 HD
ENDBRANCH  17  18
ENDBRANCH   2  12
BRANCH   8  20
ATOM     20  O   UNL     1       2.139 -14.191 -39.318  1.00  0.00    -0.507 OA
ATOM     21  H   UNL     1       1.748 -15.096 -39.098  1.00  0.00     0.293 HD
ENDBRANCH   8  20
BRANCH   6  22
ATOM     22  O   UNL     1      -0.853 -12.022 -36.258  1.00  0.00    -0.508 OA
ATOM     23  H   UNL     1      -0.984 -11.297 -35.563  1.00  0.00     0.293 HD
ENDBRANCH   6  22
TORSDOF 4
ENDMDL
MODEL 3
REMARK VINA RESULT:    -6.787      3.994      5.271
REMARK INTER + INTRA:          -8.068
REMARK INTER:                  -7.768
REMARK INTRA:                  -0.300
REMARK UNBOUND:                -0.289
REMARK SMILES O=C1C[C@@H](c2ccc(O)cc2)Oc2cc(O)cc(O)c21
REMARK SMILES IDX 3 1 4 2 12 3 13 4 14 5 15 6 17 7 18 8 20 9 2 10 1 11 5 12
REMARK SMILES IDX 6 13 11 14 7 15 10 16 8 17 9 18 19 20 16 22
REMARK H PARENT 9 19 19 21 16 23
REMARK Flexibility Score: inf
ROOT
ATOM      1  C   UNL     1       1.033  -9.419 -44.996  1.00  0.00     0.131 C 
ATOM      2  C   UNL     1       1.936  -8.875 -43.880  1.00  0.00     0.211 C 
ATOM      3  O   UNL     1       1.288  -7.805 -43.187  1.00  0.00    -0.484 OA
ATOM      4  C   UNL     1      -0.081  -7.818 -42.885  1.00  0.00     0.138 A 
ATOM      5  C   UNL     1      -0.582  -6.886 -41.974  1.00  0.00     0.093 A 
ATOM      6  C   UNL     1      -1.940  -6.885 -41.641  1.00  0.00     0.123 A 
ATOM      7  C   UNL     1      -2.803  -7.801 -42.246  1.00  0.00     0.093 A 
ATOM      8  C   UNL     1      -2.329  -8.717 -43.192  1.00  0.00     0.133 A 
ATOM      9  C   UNL     1      -0.943  -8.754 -43.496  1.00  0.00     0.102 A 
ATOM     10  C   UNL     1      -0.320  -9.728 -44.428  1.00  0.00     0.174 C 
ATOM     11  O   UNL     1      -0.872 -10.825 -44.707  1.00  0.00    -0.294 OA
ENDROOT
BRANCH   2  12
ATOM     12  C   UNL     1       3.255  -8.405 -44.441  1.00  0.00    -0.007 A 
ATOM     13  C   UNL     1       3.608  -8.686 -45.773  1.00  0.00     0.011 A 
ATOM     14  C   UNL     1       4.172  -7.728 -43.618  1.00  0.00     0.011 A 
ATOM     15  C   UNL     1       4.844  -8.275 -46.279  1.00  0.00     0.046 A 
ATOM     16  C   UNL     1       5.408  -7.318 -44.127  1.00  0.00     0.046 A 
ATOM     17  C   UNL     1       5.747  -7.587 -45.457  1.00  0.00     0.115 A 
BRANCH  17  18
ATOM     18  O   UNL     1       6.982  -7.172 -45.949  1.00  0.00    -0.508 OA
ATOM     19  H   UNL     1       7.500  -7.730 -46.619  1.00  0.00     0.293 HD
ENDBRANCH  17  18
ENDBRANCH   2  12
BRANCH   8  20
ATOM     20  O   UNL     1      -3.270  -9.537 -43.819  1.00  0.00    -0.507 OA
ATOM     21  H   UNL     1      -3.098 -10.498 -44.079  1.00  0.00     0.293 HD
ENDBRANCH   8  20
BRANCH   6  22
ATOM     22  O   UNL     1      -2.444  -5.972 -40.716  1.00  0.00    -0.508 OA
ATOM     23  H   UNL     1      -3.261  -6.184 -40.155  1.00  0.00     0.293 HD
ENDBRANCH   6  22
TORSDOF 4
ENDMDL
MODEL 4
REMARK VINA RESULT:    -6.772      3.648      7.204
REMARK INTER + INTRA:          -8.050
REMARK INTER:                  -7.754
REMARK INTRA:                  -0.296
REMARK UNBOUND:                -0.289
REMARK SMILES O=C1C[C@@H](c2ccc(O)cc2)Oc2cc(O)cc(O)c21
REMARK SMILES IDX 3 1 4 2 12 3 13 4 14 5 15 6 17 7 18 8 20 9 2 10 1 11 5 12
REMARK SMILES IDX 6 13 11 14 7 15 10 16 8 17 9 18 19 20 16 22
REMARK H PARENT 9 19 19 21 16 23
REMARK Flexibility Score: inf
ROOT
ATOM      1  C   UNL     1       4.322 -12.429 -40.334  1.00  0.00     0.131 C 
ATOM      2  C   UNL     1       2.833 -12.513 -40.699  1.00  0.00     0.211 C 
ATOM      3  O   UNL     1       2.484 -11.483 -41.628  1.00  0.00    -0.484 OA
ATOM      4  C   UNL     1       3.328 -11.092 -42.677  1.00  0.00     0.138 A 
ATOM      5  C   UNL     1       2.812 -10.289 -43.697  1.00  0.00     0.093 A 
ATOM      6  C   UNL     1       3.625  -9.897 -44.765  1.00  0.00     0.123 A 
ATOM      7  C   UNL     1       4.966 -10.285 -44.794  1.00  0.00     0.093 A 
ATOM      8  C   UNL     1       5.514 -11.057 -43.762  1.00  0.00     0.133 A 
ATOM      9  C   UNL     1       4.680 -11.497 -42.701  1.00  0.00     0.102 A 
ATOM     10  C   UNL     1       5.135 -12.375 -41.594  1.00  0.00     0.174 C 
ATOM     11  O   UNL     1       6.149 -13.113 -41.706  1.00  0.00    -0.294 OA
ENDROOT
BRANCH   2  12
ATOM     12  C   UNL     1       1.973 -12.410 -39.464  1.00  0.00    -0.007 A 
ATOM     13  C   UNL     1       1.292 -13.537 -38.970  1.00  0.00     0.011 A 
ATOM     14  C   UNL     1       1.799 -11.170 -38.825  1.00  0.00     0.011 A 
ATOM     15  C   UNL     1       0.472 -13.430 -37.843  1.00  0.00     0.046 A 
ATOM     16  C   UNL     1       0.978 -11.066 -37.698  1.00  0.00     0.046 A 
ATOM     17  C   UNL     1       0.316 -12.194 -37.202  1.00  0.00     0.115 A 
BRANCH  17  18
ATOM     18  O   UNL     1      -0.499 -12.074 -36.079  1.00  0.00    -0.508 OA
ATOM     19  H   UNL     1      -0.289 -11.411 -35.341  1.00  0.00     0.293 HD
ENDBRANCH  17  18
ENDBRANCH   2  12
BRANCH   8  20
ATOM     20  O   UNL     1       6.883 -11.325 -43.818  1.00  0.00    -0.507 OA
ATOM     21  H   UNL     1       7.440 -11.591 -43.019  1.00  0.00     0.293 HD
ENDBRANCH   8  20
BRANCH   6  22
ATOM     22  O   UNL     1       3.113  -9.115 -45.798  1.00  0.00    -0.508 OA
ATOM     23  H   UNL     1       2.323  -8.497 -45.652  1.00  0.00     0.293 HD
ENDBRANCH   6  22
TORSDOF 4
ENDMDL
MODEL 5
REMARK VINA RESULT:    -6.723      3.792      4.044
REMARK INTER + INTRA:          -7.994
REMARK INTER:                  -7.683
REMARK INTRA:                  -0.310
REMARK UNBOUND:                -0.289
REMARK SMILES O=C1C[C@@H](c2ccc(O)cc2)Oc2cc(O)cc(O)c21
REMARK SMILES IDX 3 1 4 2 12 3 13 4 14 5 15 6 17 7 18 8 20 9 2 10 1 11 5 12
REMARK SMILES IDX 6 13 11 14 7 15 10 16 8 17 9 18 19 20 16 22
REMARK H PARENT 9 19 19 21 16 23
REMARK Flexibility Score: inf
ROOT
ATOM      1  C   UNL     1      -1.406  -7.086 -41.236  1.00  0.00     0.131 C 
ATOM      2  C   UNL     1      -0.881  -7.118 -42.678  1.00  0.00     0.211 C 
ATOM      3  O   UNL     1      -1.007  -8.432 -43.230  1.00  0.00    -0.484 OA
ATOM      4  C   UNL     1      -2.119  -9.251 -42.988  1.00  0.00     0.138 A 
ATOM      5  C   UNL     1      -2.303 -10.391 -43.773  1.00  0.00     0.093 A 
ATOM      6  C   UNL     1      -3.411 -11.218 -43.567  1.00  0.00     0.123 A 
ATOM      7  C   UNL     1      -4.320 -10.918 -42.550  1.00  0.00     0.093 A 
ATOM      8  C   UNL     1      -4.133  -9.802 -41.725  1.00  0.00     0.133 A 
ATOM      9  C   UNL     1      -3.036  -8.933 -41.963  1.00  0.00     0.102 A 
ATOM     10  C   UNL     1      -2.780  -7.686 -41.199  1.00  0.00     0.174 C 
ATOM     11  O   UNL     1      -3.696  -7.094 -40.570  1.00  0.00    -0.294 OA
ENDROOT
BRANCH   2  12
ATOM     12  C   UNL     1       0.558  -6.669 -42.734  1.00  0.00    -0.007 A 
ATOM     13  C   UNL     1       0.903  -5.335 -42.452  1.00  0.00     0.011 A 
ATOM     14  C   UNL     1       1.565  -7.569 -43.123  1.00  0.00     0.011 A 
ATOM     15  C   UNL     1       2.234  -4.916 -42.534  1.00  0.00     0.046 A 
ATOM     16  C   UNL     1       2.896  -7.147 -43.205  1.00  0.00     0.046 A 
ATOM     17  C   UNL     1       3.235  -5.823 -42.908  1.00  0.00     0.115 A 
BRANCH  17  18
ATOM     18  O   UNL     1       4.565  -5.418 -42.994  1.00  0.00    -0.508 OA
ATOM     19  H   UNL     1       5.264  -5.992 -43.452  1.00  0.00     0.293 HD
ENDBRANCH  17  18
ENDBRANCH   2  12
BRANCH   8  20
ATOM     20  O   UNL     1      -5.035  -9.623 -40.674  1.00  0.00    -0.507 OA
ATOM     21  H   UNL     1      -5.570 -10.371 -40.255  1.00  0.00     0.293 HD
ENDBRANCH   8  20
BRANCH   6  22
ATOM     22  O   UNL     1      -3.614 -12.345 -44.360  1.00  0.00    -0.508 OA
ATOM     23  H   UNL     1      -4.542 -12.620 -44.661  1.00  0.00     0.293 HD
ENDBRANCH   6  22
TORSDOF 4
ENDMDL
MODEL 6
REMARK VINA RESULT:    -6.703      7.329     10.939
REMARK INTER + INTRA:          -7.971
REMARK INTER:                  -7.685
REMARK INTRA:                  -0.286
REMARK UNBOUND:                -0.289
REMARK SMILES O=C1C[C@@H](c2ccc(O)cc2)Oc2cc(O)cc(O)c21
REMARK SMILES IDX 3 1 4 2 12 3 13 4 14 5 15 6 17 7 18 8 20 9 2 10 1 11 5 12
REMARK SMILES IDX 6 13 11 14 7 15 10 16 8 17 9 18 19 20 16 22
REMARK H PARENT 9 19 19 21 16 23
REMARK Flexibility Score: inf
ROOT
ATOM      1  C   UNL     1      10.339  -8.659 -40.822  1.00  0.00     0.131 C 
ATOM      2  C   UNL     1       9.026  -8.642 -41.617  1.00  0.00     0.211 C 
ATOM      3  O   UNL     1       8.154  -7.619 -41.126  1.00  0.00    -0.484 OA
ATOM      4  C   UNL     1       8.619  -6.358 -40.726  1.00  0.00     0.138 A 
ATOM      5  C   UNL     1       7.696  -5.329 -40.527  1.00  0.00     0.093 A 
ATOM      6  C   UNL     1       8.130  -4.056 -40.144  1.00  0.00     0.123 A 
ATOM      7  C   UNL     1       9.490  -3.824 -39.929  1.00  0.00     0.093 A 
ATOM      8  C   UNL     1      10.428  -4.852 -40.084  1.00  0.00     0.133 A 
ATOM      9  C   UNL     1       9.997  -6.132 -40.520  1.00  0.00     0.102 A 
ATOM     10  C   UNL     1      10.909  -7.272 -40.784  1.00  0.00     0.174 C 
ATOM     11  O   UNL     1      12.132  -7.100 -41.031  1.00  0.00    -0.294 OA
ENDROOT
BRANCH   2  12
ATOM     12  C   UNL     1       8.340  -9.984 -41.545  1.00  0.00    -0.007 A 
ATOM     13  C   UNL     1       8.388 -10.750 -40.366  1.00  0.00     0.011 A 
ATOM     14  C   UNL     1       7.692 -10.508 -42.677  1.00  0.00     0.011 A 
ATOM     15  C   UNL     1       7.777 -12.006 -40.315  1.00  0.00     0.046 A 
ATOM     16  C   UNL     1       7.081 -11.765 -42.622  1.00  0.00     0.046 A 
ATOM     17  C   UNL     1       7.119 -12.516 -41.442  1.00  0.00     0.115 A 
BRANCH  17  18
ATOM     18  O   UNL     1       6.507 -13.766 -41.403  1.00  0.00    -0.508 OA
ATOM     19  H   UNL     1       5.529 -13.885 -41.646  1.00  0.00     0.293 HD
ENDBRANCH  17  18
ENDBRANCH   2  12
BRANCH   8  20
ATOM     20  O   UNL     1      11.755  -4.562 -39.761  1.00  0.00    -0.507 OA
ATOM     21  H   UNL     1      12.041  -3.766 -39.208  1.00  0.00     0.293 HD
ENDBRANCH   8  20
BRANCH   6  22
ATOM     22  O   UNL     1       7.218  -3.018 -39.966  1.00  0.00    -0.508 OA
ATOM     23  H   UNL     1       7.153  -2.251 -40.625  1.00  0.00     0.293 HD
ENDBRANCH   6  22
TORSDOF 4
ENDMDL
MODEL 7
REMARK VINA RESULT:    -6.703      6.470      8.436
REMARK INTER + INTRA:          -7.971
REMARK INTER:                  -7.672
REMARK INTRA:                  -0.299
REMARK UNBOUND:                -0.289
REMARK SMILES O=C1C[C@@H](c2ccc(O)cc2)Oc2cc(O)cc(O)c21
REMARK SMILES IDX 3 1 4 2 12 3 13 4 14 5 15 6 17 7 18 8 20 9 2 10 1 11 5 12
REMARK SMILES IDX 6 13 11 14 7 15 10 16 8 17 9 18 19 20 16 22
REMARK H PARENT 9 19 19 21 16 23
REMARK Flexibility Score: inf
ROOT
ATOM      1  C   UNL     1       6.392 -11.770 -43.015  1.00  0.00     0.131 C 
ATOM      2  C   UNL     1       6.614 -10.875 -44.242  1.00  0.00     0.211 C 
ATOM      3  O   UNL     1       7.487  -9.788 -43.922  1.00  0.00    -0.484 OA
ATOM      4  C   UNL     1       8.606  -9.937 -43.090  1.00  0.00     0.138 A 
ATOM      5  C   UNL     1       9.558  -8.916 -43.048  1.00  0.00     0.093 A 
ATOM      6  C   UNL     1      10.692  -9.043 -42.241  1.00  0.00     0.123 A 
ATOM      7  C   UNL     1      10.857 -10.182 -41.451  1.00  0.00     0.093 A 
ATOM      8  C   UNL     1       9.895 -11.200 -41.448  1.00  0.00     0.133 A 
ATOM      9  C   UNL     1       8.767 -11.097 -42.302  1.00  0.00     0.102 A 
ATOM     10  C   UNL     1       7.723 -12.145 -42.433  1.00  0.00     0.174 C 
ATOM     11  O   UNL     1       7.945 -13.345 -42.121  1.00  0.00    -0.294 OA
ENDROOT
BRANCH   2  12
ATOM     12  C   UNL     1       5.300 -10.347 -44.763  1.00  0.00    -0.007 A 
ATOM     13  C   UNL     1       4.651  -9.279 -44.118  1.00  0.00     0.011 A 
ATOM     14  C   UNL     1       4.682 -10.955 -45.870  1.00  0.00     0.011 A 
ATOM     15  C   UNL     1       3.419  -8.814 -44.586  1.00  0.00     0.046 A 
ATOM     16  C   UNL     1       3.450 -10.487 -46.336  1.00  0.00     0.046 A 
ATOM     17  C   UNL     1       2.816  -9.415 -45.699  1.00  0.00     0.115 A 
BRANCH  17  18
ATOM     18  O   UNL     1       1.589  -8.960 -46.175  1.00  0.00    -0.508 OA
ATOM     19  H   UNL     1       1.344  -7.977 -46.152  1.00  0.00     0.293 HD
ENDBRANCH  17  18
ENDBRANCH   2  12
BRANCH   8  20
ATOM     20  O   UNL     1      10.088 -12.262 -40.561  1.00  0.00    -0.507 OA
ATOM     21  H   UNL     1      10.929 -12.400 -40.019  1.00  0.00     0.293 HD
ENDBRANCH   8  20
BRANCH   6  22
ATOM     22  O   UNL     1      11.658  -8.039 -42.209  1.00  0.00    -0.508 OA
ATOM     23  H   UNL     1      12.000  -7.661 -41.334  1.00  0.00     0.293 HD
ENDBRANCH   6  22
TORSDOF 4
ENDMDL
MODEL 8
REMARK VINA RESULT:    -6.632      1.962      6.802
REMARK INTER + INTRA:          -7.890
REMARK INTER:                  -7.591
REMARK INTRA:                  -0.298
REMARK UNBOUND:                -0.289
REMARK SMILES O=C1C[C@@H](c2ccc(O)cc2)Oc2cc(O)cc(O)c21
REMARK SMILES IDX 3 1 4 2 12 3 13 4 14 5 15 6 17 7 18 8 20 9 2 10 1 11 5 12
REMARK SMILES IDX 6 13 11 14 7 15 10 16 8 17 9 18 19 20 16 22
REMARK H PARENT 9 19 19 21 16 23
REMARK Flexibility Score: inf
ROOT
ATOM      1  C   UNL     1      -0.447  -9.034 -40.566  1.00  0.00     0.131 C 
ATOM      2  C   UNL     1       0.782  -9.180 -39.657  1.00  0.00     0.211 C 
ATOM      3  O   UNL     1       1.950  -8.667 -40.304  1.00  0.00    -0.484 OA
ATOM      4  C   UNL     1       1.931  -7.506 -41.089  1.00  0.00     0.138 A 
ATOM      5  C   UNL     1       3.143  -6.915 -41.453  1.00  0.00     0.093 A 
ATOM      6  C   UNL     1       3.156  -5.747 -42.221  1.00  0.00     0.123 A 
ATOM      7  C   UNL     1       1.951  -5.187 -42.651  1.00  0.00     0.093 A 
ATOM      8  C   UNL     1       0.726  -5.785 -42.331  1.00  0.00     0.133 A 
ATOM      9  C   UNL     1       0.707  -6.943 -41.511  1.00  0.00     0.102 A 
ATOM     10  C   UNL     1      -0.533  -7.618 -41.052  1.00  0.00     0.174 C 
ATOM     11  O   UNL     1      -1.639  -7.016 -41.009  1.00  0.00    -0.294 OA
ENDROOT
BRANCH   2  12
ATOM     12  C   UNL     1       0.995 -10.624 -39.274  1.00  0.00    -0.007 A 
ATOM     13  C   UNL     1       1.557 -11.532 -40.188  1.00  0.00     0.011 A 
ATOM     14  C   UNL     1       0.580 -11.090 -38.014  1.00  0.00     0.011 A 
ATOM     15  C   UNL     1       1.724 -12.875 -39.839  1.00  0.00     0.046 A 
ATOM     16  C   UNL     1       0.748 -12.434 -37.667  1.00  0.00     0.046 A 
ATOM     17  C   UNL     1       1.323 -13.329 -38.576  1.00  0.00     0.115 A 
BRANCH  17  18
ATOM     18  O   UNL     1       1.484 -14.665 -38.216  1.00  0.00    -0.508 OA
ATOM     19  H   UNL     1       2.346 -15.002 -37.803  1.00  0.00     0.293 HD
ENDBRANCH  17  18
ENDBRANCH   2  12
BRANCH   8  20
ATOM     20  O   UNL     1      -0.427  -5.216 -42.877  1.00  0.00    -0.507 OA
ATOM     21  H   UNL     1      -0.444  -4.330 -43.361  1.00  0.00     0.293 HD
ENDBRANCH   8  20
BRANCH   6  22
ATOM     22  O   UNL     1       4.360  -5.139 -42.570  1.00  0.00    -0.508 OA
ATOM     23  H   UNL     1       4.885  -5.434 -43.385  1.00  0.00     0.293 HD
ENDBRANCH   6  22
TORSDOF 4
ENDMDL
MODEL 9
REMARK VINA RESULT:    -6.583      3.694      5.892
REMARK INTER + INTRA:          -7.834
REMARK INTER:                  -7.540
REMARK INTRA:                  -0.294
REMARK UNBOUND:                -0.289
REMARK SMILES O=C1C[C@@H](c2ccc(O)cc2)Oc2cc(O)cc(O)c21
REMARK SMILES IDX 3 1 4 2 12 3 13 4 14 5 15 6 17 7 18 8 20 9 2 10 1 11 5 12
REMARK SMILES IDX 6 13 11 14 7 15 10 16 8 17 9 18 19 20 16 22
REMARK H PARENT 9 19 19 21 16 23
REMARK Flexibility Score: inf
ROOT
ATOM      1  C   UNL     1       3.755 -10.882 -41.398  1.00  0.00     0.131 C 
ATOM      2  C   UNL     1       4.252 -12.334 -41.365  1.00  0.00     0.211 C 
ATOM      3  O   UNL     1       3.591 -13.069 -40.331  1.00  0.00    -0.484 OA
ATOM      4  C   UNL     1       2.229 -12.905 -40.040  1.00  0.00     0.138 A 
ATOM      5  C   UNL     1       1.594 -13.842 -39.222  1.00  0.00     0.093 A 
ATOM      6  C   UNL     1       0.234 -13.714 -38.927  1.00  0.00     0.123 A 
ATOM      7  C   UNL     1      -0.485 -12.627 -39.428  1.00  0.00     0.093 A 
ATOM      8  C   UNL     1       0.141 -11.654 -40.217  1.00  0.00     0.133 A 
ATOM      9  C   UNL     1       1.510 -11.807 -40.559  1.00  0.00     0.102 A 
ATOM     10  C   UNL     1       2.255 -10.877 -41.445  1.00  0.00     0.174 C 
ATOM     11  O   UNL     1       1.666 -10.130 -42.269  1.00  0.00    -0.294 OA
ENDROOT
BRANCH   2  12
ATOM     12  C   UNL     1       5.746 -12.383 -41.159  1.00  0.00    -0.007 A 
ATOM     13  C   UNL     1       6.313 -11.979 -39.937  1.00  0.00     0.011 A 
ATOM     14  C   UNL     1       6.592 -12.780 -42.208  1.00  0.00     0.011 A 
ATOM     15  C   UNL     1       7.700 -11.997 -39.761  1.00  0.00     0.046 A 
ATOM     16  C   UNL     1       7.979 -12.797 -42.030  1.00  0.00     0.046 A 
ATOM     17  C   UNL     1       8.537 -12.409 -40.807  1.00  0.00     0.115 A 
BRANCH  17  18
ATOM     18  O   UNL     1       9.920 -12.431 -40.645  1.00  0.00    -0.508 OA
ATOM     19  H   UNL     1      10.538 -12.693 -41.404  1.00  0.00     0.293 HD
ENDBRANCH  17  18
ENDBRANCH   2  12
BRANCH   8  20
ATOM     20  O   UNL     1      -0.625 -10.551 -40.602  1.00  0.00    -0.507 OA
ATOM     21  H   UNL     1      -1.617 -10.465 -40.433  1.00  0.00     0.293 HD
ENDBRANCH   8  20
BRANCH   6  22
ATOM     22  O   UNL     1      -0.412 -14.657 -38.129  1.00  0.00    -0.508 OA
ATOM     23  H   UNL     1      -1.122 -15.273 -38.508  1.00  0.00     0.293 HD
ENDBRANCH   6  22
TORSDOF 4
ENDMDL
