MODEL 1
REMARK VINA RESULT:    -3.487      0.000      0.000
REMARK INTER + INTRA:          -4.696
REMARK INTER:                  -4.914
REMARK INTRA:                   0.217
REMARK UNBOUND:                 0.217
REMARK SMILES CC1=CCC(=C(C)C)C(=O)CC(C)=CCC1
REMARK SMILES IDX 12 1 14 2 13 3 15 4 16 5 2 6 1 7 3 8 11 10 9 11 10 12 5 13
REMARK SMILES IDX 6 14 7 15 8 16 4 17
REMARK H PARENT
REMARK Flexibility Score: 60.00
ROOT
ATOM      1  C   UNL     1       6.192  17.025  14.876  1.00  0.00    -0.070 C 
ATOM      2  C   UNL     1       5.758  18.297  15.016  1.00  0.00    -0.027 C 
ATOM      3  C   UNL     1       5.314  16.058  14.123  1.00  0.00     0.039 C 
ENDROOT
BRANCH   2   4
ATOM      4  C   UNL     1       6.535  19.430  15.651  1.00  0.00     0.032 C 
BRANCH   4   5
ATOM      5  C   UNL     1       7.546  20.127  14.717  1.00  0.00     0.034 C 
BRANCH   5   6
ATOM      6  C   UNL     1       8.954  20.163  15.281  1.00  0.00    -0.077 C 
ATOM      7  C   UNL     1       9.217  21.082  16.449  1.00  0.00     0.039 C 
ATOM      8  C   UNL     1       9.971  19.377  14.852  1.00  0.00    -0.023 CG0
ATOM      9  G   UNL     1       9.945  18.402  13.692  1.00  0.00     0.000 G0
ENDBRANCH   5   6
ENDBRANCH   4   5
ENDBRANCH   2   4
BRANCH   1  10
ATOM     10  C   UNL     1       7.550  16.552  15.355  1.00  0.00     0.111 C 
BRANCH  10  11
ATOM     11  C   UNL     1       8.501  16.340  14.206  1.00  0.00     0.163 C 
ATOM     12  O   UNL     1       8.099  15.667  13.219  1.00  0.00    -0.294 OA
BRANCH  11  13
ATOM     13  C   UNL     1       9.864  16.948  14.173  1.00  0.00    -0.002 C 
ATOM     14  C   UNL     1      10.970  16.203  14.478  1.00  0.00    -0.069 C 
ATOM     15  C   UNL     1      10.842  14.792  15.007  1.00  0.00     0.039 C 
ATOM     16  C   UNL     1      12.372  16.743  14.300  1.00  0.00     0.039 C 
BRANCH  13  17
ATOM     17  C   UNL     1       9.972  18.389  13.697  1.00  0.00     0.066 CG0
ATOM     18  G   UNL     1       9.972  19.376  14.848  1.00  0.00     0.000 G0
ENDBRANCH  13  17
ENDBRANCH  11  13
ENDBRANCH  10  11
ENDBRANCH   1  10
TORSDOF 0
ENDMDL
MODEL 2
REMARK VINA RESULT:    -3.421      2.407      4.026
REMARK INTER + INTRA:          -4.603
REMARK INTER:                  -4.874
REMARK INTRA:                   0.270
REMARK UNBOUND:                 0.217
REMARK SMILES CC1=CCC(=C(C)C)C(=O)CC(C)=CCC1
REMARK SMILES IDX 12 1 14 2 13 3 15 4 16 5 2 6 1 7 3 8 11 10 9 11 10 12 5 13
REMARK SMILES IDX 6 14 7 15 8 16 4 17
REMARK H PARENT
REMARK Flexibility Score: 60.00
ROOT
ATOM      1  C   UNL     1       4.763  18.912  15.386  1.00  0.00    -0.070 C 
ATOM      2  C   UNL     1       4.439  17.818  14.662  1.00  0.00    -0.027 C 
ATOM      3  C   UNL     1       3.650  19.847  15.788  1.00  0.00     0.039 C 
ENDROOT
BRANCH   2   4
ATOM      4  C   UNL     1       5.394  16.719  14.247  1.00  0.00     0.032 C 
BRANCH   4   5
ATOM      5  C   UNL     1       6.029  16.904  12.853  1.00  0.00     0.034 C 
BRANCH   5   6
ATOM      6  C   UNL     1       7.540  16.761  12.862  1.00  0.00    -0.077 C 
ATOM      7  C   UNL     1       8.113  15.368  12.788  1.00  0.00     0.039 C 
ATOM      8  C   UNL     1       8.407  17.804  12.862  1.00  0.00    -0.023 CG0
ATOM      9  G   UNL     1       8.063  19.277  12.953  1.00  0.00     0.000 G0
ENDBRANCH   5   6
ENDBRANCH   4   5
ENDBRANCH   2   4
BRANCH   1  10
ATOM     10  C   UNL     1       6.164  19.193  15.887  1.00  0.00     0.111 C 
BRANCH  10  11
ATOM     11  C   UNL     1       6.880  20.186  15.010  1.00  0.00     0.163 C 
ATOM     12  O   UNL     1       6.391  21.343  14.902  1.00  0.00    -0.294 OA
BRANCH  11  13
ATOM     13  C   UNL     1       8.167  19.868  14.324  1.00  0.00    -0.002 C 
ATOM     14  C   UNL     1       9.361  20.017  14.974  1.00  0.00    -0.069 C 
ATOM     15  C   UNL     1       9.433  20.652  16.345  1.00  0.00     0.039 C 
ATOM     16  C   UNL     1      10.667  19.555  14.365  1.00  0.00     0.039 C 
BRANCH  13  17
ATOM     17  C   UNL     1       8.084  19.288  12.921  1.00  0.00     0.066 CG0
ATOM     18  G   UNL     1       8.408  17.808  12.889  1.00  0.00     0.000 G0
ENDBRANCH  13  17
ENDBRANCH  11  13
ENDBRANCH  10  11
ENDBRANCH   1  10
TORSDOF 0
ENDMDL
MODEL 3
REMARK VINA RESULT:    -3.382      9.902     12.472
REMARK INTER + INTRA:          -4.549
REMARK INTER:                  -4.727
REMARK INTRA:                   0.178
REMARK UNBOUND:                 0.217
REMARK SMILES CC1=CCC(=C(C)C)C(=O)CC(C)=CCC1
REMARK SMILES IDX 12 1 14 2 13 3 15 4 16 5 2 6 1 7 3 8 11 10 9 11 10 12 5 13
REMARK SMILES IDX 6 14 7 15 8 16 4 17
REMARK H PARENT
REMARK Flexibility Score: 60.00
ROOT
ATOM      1  C   UNL     1       9.936  30.241  13.568  1.00  0.00    -0.070 C 
ATOM      2  C   UNL     1       9.838  31.475  14.111  1.00  0.00    -0.027 C 
ATOM      3  C   UNL     1      11.295  29.590  13.536  1.00  0.00     0.039 C 
ENDROOT
BRANCH   2   4
ATOM      4  C   UNL     1       8.554  32.248  14.321  1.00  0.00     0.032 C 
BRANCH   4   5
ATOM      5  C   UNL     1       7.848  31.979  15.666  1.00  0.00     0.034 C 
BRANCH   5   6
ATOM      6  C   UNL     1       6.390  31.587  15.509  1.00  0.00    -0.077 C 
ATOM      7  C   UNL     1       5.399  32.683  15.205  1.00  0.00     0.039 C 
ATOM      8  C   UNL     1       5.931  30.312  15.554  1.00  0.00    -0.023 CG0
ATOM      9  G   UNL     1       6.733  29.063  15.862  1.00  0.00     0.000 G0
ENDBRANCH   5   6
ENDBRANCH   4   5
ENDBRANCH   2   4
BRANCH   1  10
ATOM     10  C   UNL     1       8.739  29.450  13.080  1.00  0.00     0.111 C 
BRANCH  10  11
ATOM     11  C   UNL     1       8.378  28.343  14.035  1.00  0.00     0.163 C 
ATOM     12  O   UNL     1       9.282  27.533  14.375  1.00  0.00    -0.294 OA
BRANCH  11  13
ATOM     13  C   UNL     1       7.017  28.214  14.635  1.00  0.00    -0.002 C 
ATOM     14  C   UNL     1       6.113  27.320  14.131  1.00  0.00    -0.069 C 
ATOM     15  C   UNL     1       6.400  26.546  12.864  1.00  0.00     0.039 C 
ATOM     16  C   UNL     1       4.788  27.053  14.810  1.00  0.00     0.039 C 
BRANCH  13  17
ATOM     17  C   UNL     1       6.720  29.045  15.873  1.00  0.00     0.066 CG0
ATOM     18  G   UNL     1       5.949  30.309  15.547  1.00  0.00     0.000 G0
ENDBRANCH  13  17
ENDBRANCH  11  13
ENDBRANCH  10  11
ENDBRANCH   1  10
TORSDOF 0
ENDMDL
MODEL 4
REMARK VINA RESULT:    -3.280      3.833      7.503
REMARK INTER + INTRA:          -4.405
REMARK INTER:                  -4.825
REMARK INTRA:                   0.420
REMARK UNBOUND:                 0.217
REMARK SMILES CC1=CCC(=C(C)C)C(=O)CC(C)=CCC1
REMARK SMILES IDX 12 1 14 2 13 3 15 4 16 5 2 6 1 7 3 8 11 10 9 11 10 12 5 13
REMARK SMILES IDX 6 14 7 15 8 16 4 17
REMARK H PARENT
REMARK Flexibility Score: 60.00
ROOT
ATOM      1  C   UNL     1      15.804  17.533  16.302  1.00  0.00    -0.070 C 
ATOM      2  C   UNL     1      16.257  16.307  16.646  1.00  0.00    -0.027 C 
ATOM      3  C   UNL     1      16.814  18.556  15.847  1.00  0.00     0.039 C 
ENDROOT
BRANCH   2   4
ATOM      4  C   UNL     1      15.395  15.125  17.033  1.00  0.00     0.032 C 
BRANCH   4   5
ATOM      5  C   UNL     1      15.542  13.890  16.119  1.00  0.00     0.034 C 
BRANCH   5   6
ATOM      6  C   UNL     1      15.260  14.191  14.658  1.00  0.00    -0.077 C 
ATOM      7  C   UNL     1      16.344  13.875  13.657  1.00  0.00     0.039 C 
ATOM      8  C   UNL     1      14.079  14.659  14.188  1.00  0.00    -0.023 CG0
ATOM      9  G   UNL     1      12.866  15.062  15.003  1.00  0.00     0.000 G0
ENDBRANCH   5   6
ENDBRANCH   4   5
ENDBRANCH   2   4
BRANCH   1  10
ATOM     10  C   UNL     1      14.334  17.896  16.261  1.00  0.00     0.111 C 
BRANCH  10  11
ATOM     11  C   UNL     1      13.704  17.513  14.948  1.00  0.00     0.163 C 
ATOM     12  O   UNL     1      14.210  17.974  13.889  1.00  0.00    -0.294 OA
BRANCH  11  13
ATOM     13  C   UNL     1      12.553  16.567  14.857  1.00  0.00    -0.002 C 
ATOM     14  C   UNL     1      11.294  17.022  14.576  1.00  0.00    -0.069 C 
ATOM     15  C   UNL     1      10.994  18.503  14.503  1.00  0.00     0.039 C 
ATOM     16  C   UNL     1      10.139  16.077  14.321  1.00  0.00     0.039 C 
BRANCH  13  17
ATOM     17  C   UNL     1      12.858  15.083  14.995  1.00  0.00     0.066 CG0
ATOM     18  G   UNL     1      14.061  14.664  14.174  1.00  0.00     0.000 G0
ENDBRANCH  13  17
ENDBRANCH  11  13
ENDBRANCH  10  11
ENDBRANCH   1  10
TORSDOF 0
ENDMDL
MODEL 5
REMARK VINA RESULT:    -3.272     11.754     14.383
REMARK INTER + INTRA:          -4.394
REMARK INTER:                  -4.625
REMARK INTRA:                   0.231
REMARK UNBOUND:                 0.217
REMARK SMILES CC1=CCC(=C(C)C)C(=O)CC(C)=CCC1
REMARK SMILES IDX 12 1 14 2 13 3 15 4 16 5 2 6 1 7 3 8 11 10 9 11 10 12 5 13
REMARK SMILES IDX 6 14 7 15 8 16 4 17
REMARK H PARENT
REMARK Flexibility Score: 60.00
ROOT
ATOM      1  C   UNL     1       6.737  30.999  15.675  1.00  0.00    -0.070 C 
ATOM      2  C   UNL     1       6.896  29.676  15.901  1.00  0.00    -0.027 C 
ATOM      3  C   UNL     1       7.977  31.848  15.553  1.00  0.00     0.039 C 
ENDROOT
BRANCH   2   4
ATOM      4  C   UNL     1       5.785  28.650  15.958  1.00  0.00     0.032 C 
BRANCH   4   5
ATOM      5  C   UNL     1       5.148  28.309  14.595  1.00  0.00     0.034 C 
BRANCH   5   6
ATOM      6  C   UNL     1       3.631  28.351  14.617  1.00  0.00    -0.077 C 
ATOM      7  C   UNL     1       2.918  27.421  15.568  1.00  0.00     0.039 C 
ATOM      8  C   UNL     1       2.879  29.214  13.892  1.00  0.00    -0.023 CG0
ATOM      9  G   UNL     1       3.371  30.216  12.867  1.00  0.00     0.000 G0
ENDBRANCH   5   6
ENDBRANCH   4   5
ENDBRANCH   2   4
BRANCH   1  10
ATOM     10  C   UNL     1       5.387  31.647  15.447  1.00  0.00     0.111 C 
BRANCH  10  11
ATOM     11  C   UNL     1       5.069  31.768  13.980  1.00  0.00     0.163 C 
ATOM     12  O   UNL     1       6.019  31.991  13.183  1.00  0.00    -0.294 OA
BRANCH  11  13
ATOM     13  C   UNL     1       3.691  31.571  13.440  1.00  0.00    -0.002 C 
ATOM     14  C   UNL     1       2.797  32.606  13.410  1.00  0.00    -0.069 C 
ATOM     15  C   UNL     1       3.115  33.935  14.060  1.00  0.00     0.039 C 
ATOM     16  C   UNL     1       1.453  32.483  12.728  1.00  0.00     0.039 C 
BRANCH  13  17
ATOM     17  C   UNL     1       3.364  30.210  12.846  1.00  0.00     0.066 CG0
ATOM     18  G   UNL     1       2.893  29.222  13.895  1.00  0.00     0.000 G0
ENDBRANCH  13  17
ENDBRANCH  11  13
ENDBRANCH  10  11
ENDBRANCH   1  10
TORSDOF 0
ENDMDL
MODEL 6
REMARK VINA RESULT:    -3.222      4.387      5.921
REMARK INTER + INTRA:          -4.323
REMARK INTER:                  -4.606
REMARK INTRA:                   0.283
REMARK UNBOUND:                 0.217
REMARK SMILES CC1=CCC(=C(C)C)C(=O)CC(C)=CCC1
REMARK SMILES IDX 12 1 14 2 13 3 15 4 16 5 2 6 1 7 3 8 11 10 9 11 10 12 5 13
REMARK SMILES IDX 6 14 7 15 8 16 4 17
REMARK H PARENT
REMARK Flexibility Score: 60.00
ROOT
ATOM      1  C   UNL     1      11.932  15.626  14.590  1.00  0.00    -0.070 C 
ATOM      2  C   UNL     1      11.539  16.867  14.223  1.00  0.00    -0.027 C 
ATOM      3  C   UNL     1      10.861  14.609  14.893  1.00  0.00     0.039 C 
ENDROOT
BRANCH   2   4
ATOM      4  C   UNL     1      12.456  17.990  13.789  1.00  0.00     0.032 C 
BRANCH   4   5
ATOM      5  C   UNL     1      12.984  18.876  14.936  1.00  0.00     0.034 C 
BRANCH   5   6
ATOM      6  C   UNL     1      14.492  19.046  14.913  1.00  0.00    -0.077 C 
ATOM      7  C   UNL     1      15.074  20.004  13.903  1.00  0.00     0.039 C 
ATOM      8  C   UNL     1      15.343  18.449  15.784  1.00  0.00    -0.023 CG0
ATOM      9  G   UNL     1      14.990  17.442  16.860  1.00  0.00     0.000 G0
ENDBRANCH   5   6
ENDBRANCH   4   5
ENDBRANCH   2   4
BRANCH   1  10
ATOM     10  C   UNL     1      13.381  15.188  14.620  1.00  0.00     0.111 C 
BRANCH  10  11
ATOM     11  C   UNL     1      13.944  15.225  16.017  1.00  0.00     0.163 C 
ATOM     12  O   UNL     1      13.374  14.535  16.905  1.00  0.00    -0.294 OA
BRANCH  11  13
ATOM     13  C   UNL     1      15.176  15.992  16.364  1.00  0.00    -0.002 C 
ATOM     14  C   UNL     1      16.416  15.447  16.176  1.00  0.00    -0.069 C 
ATOM     15  C   UNL     1      16.581  14.002  15.761  1.00  0.00     0.039 C 
ATOM     16  C   UNL     1      17.683  16.252  16.368  1.00  0.00     0.039 C 
BRANCH  13  17
ATOM     17  C   UNL     1      14.993  17.425  16.841  1.00  0.00     0.066 CG0
ATOM     18  G   UNL     1      15.342  18.438  15.769  1.00  0.00     0.000 G0
ENDBRANCH  13  17
ENDBRANCH  11  13
ENDBRANCH  10  11
ENDBRANCH   1  10
TORSDOF 0
ENDMDL
MODEL 7
REMARK VINA RESULT:    -3.206      9.648     12.169
REMARK INTER + INTRA:          -4.300
REMARK INTER:                  -4.455
REMARK INTRA:                   0.154
REMARK UNBOUND:                 0.217
REMARK SMILES CC1=CCC(=C(C)C)C(=O)CC(C)=CCC1
REMARK SMILES IDX 12 1 14 2 13 3 15 4 16 5 2 6 1 7 3 8 11 10 9 11 10 12 5 13
REMARK SMILES IDX 6 14 7 15 8 16 4 17
REMARK H PARENT
REMARK Flexibility Score: 60.00
ROOT
ATOM      1  C   UNL     1      15.338  25.431  13.637  1.00  0.00    -0.070 C 
ATOM      2  C   UNL     1      16.563  25.955  13.866  1.00  0.00    -0.027 C 
ATOM      3  C   UNL     1      15.056  24.044  14.159  1.00  0.00     0.039 C 
ENDROOT
BRANCH   2   4
ATOM      4  C   UNL     1      17.003  27.358  13.509  1.00  0.00     0.032 C 
BRANCH   4   5
ATOM      5  C   UNL     1      16.663  28.432  14.563  1.00  0.00     0.034 C 
BRANCH   5   6
ATOM      6  C   UNL     1      15.927  29.627  13.984  1.00  0.00    -0.077 C 
ATOM      7  C   UNL     1      16.719  30.597  13.143  1.00  0.00     0.039 C 
ATOM      8  C   UNL     1      14.595  29.841  14.115  1.00  0.00    -0.023 CG0
ATOM      9  G   UNL     1      13.612  29.018  14.923  1.00  0.00     0.000 G0
ENDBRANCH   5   6
ENDBRANCH   4   5
ENDBRANCH   2   4
BRANCH   1  10
ATOM     10  C   UNL     1      14.216  26.200  12.971  1.00  0.00     0.111 C 
BRANCH  10  11
ATOM     11  C   UNL     1      13.192  26.668  13.972  1.00  0.00     0.163 C 
ATOM     12  O   UNL     1      12.735  25.826  14.791  1.00  0.00    -0.294 OA
BRANCH  11  13
ATOM     13  C   UNL     1      12.755  28.092  14.063  1.00  0.00    -0.002 C 
ATOM     14  C   UNL     1      11.600  28.509  13.461  1.00  0.00    -0.069 C 
ATOM     15  C   UNL     1      10.811  27.588  12.558  1.00  0.00     0.039 C 
ATOM     16  C   UNL     1      11.048  29.903  13.667  1.00  0.00     0.039 C 
BRANCH  13  17
ATOM     17  C   UNL     1      13.593  29.024  14.925  1.00  0.00     0.066 CG0
ATOM     18  G   UNL     1      14.591  29.820  14.109  1.00  0.00     0.000 G0
ENDBRANCH  13  17
ENDBRANCH  11  13
ENDBRANCH  10  11
ENDBRANCH   1  10
TORSDOF 0
ENDMDL
MODEL 8
REMARK VINA RESULT:    -3.200      2.602      5.623
REMARK INTER + INTRA:          -4.292
REMARK INTER:                  -4.437
REMARK INTRA:                   0.144
REMARK UNBOUND:                 0.217
REMARK SMILES CC1=CCC(=C(C)C)C(=O)CC(C)=CCC1
REMARK SMILES IDX 12 1 14 2 13 3 15 4 16 5 2 6 1 7 3 8 11 10 9 11 10 12 5 13
REMARK SMILES IDX 6 14 7 15 8 16 4 17
REMARK H PARENT
REMARK Flexibility Score: 60.00
ROOT
ATOM      1  C   UNL     1       8.751  19.308  15.503  1.00  0.00    -0.070 C 
ATOM      2  C   UNL     1       9.577  18.537  14.760  1.00  0.00    -0.027 C 
ATOM      3  C   UNL     1       9.280  20.628  16.004  1.00  0.00     0.039 C 
ENDROOT
BRANCH   2   4
ATOM      4  C   UNL     1       9.202  17.233  14.091  1.00  0.00     0.032 C 
BRANCH   4   5
ATOM      5  C   UNL     1       8.452  17.384  12.751  1.00  0.00     0.034 C 
BRANCH   5   6
ATOM      6  C   UNL     1       7.183  16.554  12.679  1.00  0.00    -0.077 C 
ATOM      7  C   UNL     1       7.330  15.053  12.636  1.00  0.00     0.039 C 
ATOM      8  C   UNL     1       5.930  17.068  12.720  1.00  0.00    -0.023 CG0
ATOM      9  G   UNL     1       5.544  18.534  12.743  1.00  0.00     0.000 G0
ENDBRANCH   5   6
ENDBRANCH   4   5
ENDBRANCH   2   4
BRANCH   1  10
ATOM     10  C   UNL     1       7.303  18.955  15.773  1.00  0.00     0.111 C 
BRANCH  10  11
ATOM     11  C   UNL     1       6.368  19.712  14.867  1.00  0.00     0.163 C 
ATOM     12  O   UNL     1       6.585  20.939  14.681  1.00  0.00    -0.294 OA
BRANCH  11  13
ATOM     13  C   UNL     1       5.245  19.049  14.141  1.00  0.00    -0.002 C 
ATOM     14  C   UNL     1       3.994  18.990  14.692  1.00  0.00    -0.069 C 
ATOM     15  C   UNL     1       3.741  19.451  16.110  1.00  0.00     0.039 C 
ATOM     16  C   UNL     1       2.802  18.469  13.920  1.00  0.00     0.039 C 
BRANCH  13  17
ATOM     17  C   UNL     1       5.529  18.533  12.739  1.00  0.00     0.066 CG0
ATOM     18  G   UNL     1       5.938  17.073  12.735  1.00  0.00     0.000 G0
ENDBRANCH  13  17
ENDBRANCH  11  13
ENDBRANCH  10  11
ENDBRANCH   1  10
TORSDOF 0
ENDMDL
MODEL 9
REMARK VINA RESULT:    -3.115      2.866      4.915
REMARK INTER + INTRA:          -4.173
REMARK INTER:                  -4.467
REMARK INTRA:                   0.295
REMARK UNBOUND:                 0.217
REMARK SMILES CC1=CCC(=C(C)C)C(=O)CC(C)=CCC1
REMARK SMILES IDX 12 1 14 2 13 3 15 4 16 5 2 6 1 7 3 8 11 10 9 11 10 12 5 13
REMARK SMILES IDX 6 14 7 15 8 16 4 17
REMARK H PARENT
REMARK Flexibility Score: 60.00
ROOT
ATOM      1  C   UNL     1       7.982  20.572  15.053  1.00  0.00    -0.070 C 
ATOM      2  C   UNL     1       6.935  21.408  14.872  1.00  0.00    -0.027 C 
ATOM      3  C   UNL     1       9.075  21.005  15.997  1.00  0.00     0.039 C 
ENDROOT
BRANCH   2   4
ATOM      4  C   UNL     1       5.702  21.112  14.046  1.00  0.00     0.032 C 
BRANCH   4   5
ATOM      5  C   UNL     1       4.476  20.641  14.857  1.00  0.00     0.034 C 
BRANCH   5   6
ATOM      6  C   UNL     1       3.689  19.543  14.166  1.00  0.00    -0.077 C 
ATOM      7  C   UNL     1       2.656  19.956  13.148  1.00  0.00     0.039 C 
ATOM      8  C   UNL     1       3.901  18.217  14.353  1.00  0.00    -0.023 CG0
ATOM      9  G   UNL     1       4.865  17.575  15.331  1.00  0.00     0.000 G0
ENDBRANCH   5   6
ENDBRANCH   4   5
ENDBRANCH   2   4
BRANCH   1  10
ATOM     10  C   UNL     1       8.061  19.193  14.432  1.00  0.00     0.111 C 
BRANCH  10  11
ATOM     11  C   UNL     1       7.354  18.163  15.273  1.00  0.00     0.163 C 
ATOM     12  O   UNL     1       7.689  18.053  16.483  1.00  0.00    -0.294 OA
BRANCH  11  13
ATOM     13  C   UNL     1       6.240  17.324  14.743  1.00  0.00    -0.002 C 
ATOM     14  C   UNL     1       6.481  16.339  13.825  1.00  0.00    -0.069 C 
ATOM     15  C   UNL     1       7.849  16.168  13.201  1.00  0.00     0.039 C 
ATOM     16  C   UNL     1       5.405  15.370  13.387  1.00  0.00     0.039 C 
BRANCH  13  17
ATOM     17  C   UNL     1       4.856  17.548  15.333  1.00  0.00     0.066 CG0
ATOM     18  G   UNL     1       3.915  18.222  14.354  1.00  0.00     0.000 G0
ENDBRANCH  13  17
ENDBRANCH  11  13
ENDBRANCH  10  11
ENDBRANCH   1  10
TORSDOF 0
ENDMDL
