MODEL 1
REMARK VINA RESULT:    -3.702      0.000      0.000
REMARK INTER + INTRA:          -6.481
REMARK INTER:                  -5.649
REMARK INTRA:                  -0.832
REMARK UNBOUND:                -0.832
REMARK SMILES CCCCCCCCCC=CC(=O)[O-]
REMARK SMILES IDX 7 1 8 2 9 3 10 4 11 5 12 6 13 7 14 8 6 9 5 10 4 11 3 12 2 13
REMARK SMILES IDX 1 14
REMARK H PARENT
REMARK Flexibility Score: inf
ROOT
ATOM      1  C   UNL     1      58.484  28.807  51.592  1.00  0.00     0.000 C 
ENDROOT
BRANCH   1   2
ATOM      2  C   UNL     1      58.749  29.263  50.152  1.00  0.00     0.004 C 
BRANCH   2   3
ATOM      3  C   UNL     1      59.680  28.282  49.428  1.00  0.00     0.027 C 
BRANCH   3   4
ATOM      4  C   UNL     1      59.555  26.896  49.993  1.00  0.00    -0.025 C 
ATOM      5  C   UNL     1      60.623  26.107  50.155  1.00  0.00     0.020 C 
BRANCH   5   6
ATOM      6  C   UNL     1      60.525  24.752  50.720  1.00  0.00     0.064 C 
ATOM      7  O   UNL     1      59.438  24.318  51.187  1.00  0.00    -0.545 OA
ATOM      8  O   UNL     1      61.648  23.936  50.735  1.00  0.00    -0.545 OA
ENDBRANCH   5   6
ENDBRANCH   3   4
ENDBRANCH   2   3
ENDBRANCH   1   2
BRANCH   1   9
ATOM      9  C   UNL     1      57.008  28.992  51.965  1.00  0.00     0.000 C 
BRANCH   9  10
ATOM     10  C   UNL     1      56.091  28.561  50.815  1.00  0.00     0.000 C 
BRANCH  10  11
ATOM     11  C   UNL     1      55.311  27.291  51.179  1.00  0.00    -0.000 C 
BRANCH  11  12
ATOM     12  C   UNL     1      55.481  26.213  50.098  1.00  0.00    -0.000 C 
BRANCH  12  13
ATOM     13  C   UNL     1      54.146  25.575  49.684  1.00  0.00    -0.003 C 
ATOM     14  C   UNL     1      53.013  26.595  49.575  1.00  0.00     0.004 C 
ENDBRANCH  12  13
ENDBRANCH  11  12
ENDBRANCH  10  11
ENDBRANCH   9  10
ENDBRANCH   1   9
TORSDOF 9
ENDMDL
MODEL 2
REMARK VINA RESULT:    -3.632     11.517     13.287
REMARK INTER + INTRA:          -6.374
REMARK INTER:                  -5.454
REMARK INTRA:                  -0.920
REMARK UNBOUND:                -0.832
REMARK SMILES CCCCCCCCCC=CC(=O)[O-]
REMARK SMILES IDX 7 1 8 2 9 3 10 4 11 5 12 6 13 7 14 8 6 9 5 10 4 11 3 12 2 13
REMARK SMILES IDX 1 14
REMARK H PARENT
REMARK Flexibility Score: inf
ROOT
ATOM      1  C   UNL     1      60.903  31.437  61.034  1.00  0.00     0.000 C 
ENDROOT
BRANCH   1   2
ATOM      2  C   UNL     1      61.072  29.975  60.605  1.00  0.00     0.004 C 
BRANCH   2   3
ATOM      3  C   UNL     1      62.051  29.241  61.532  1.00  0.00     0.027 C 
BRANCH   3   4
ATOM      4  C   UNL     1      63.469  29.659  61.266  1.00  0.00    -0.025 C 
ATOM      5  C   UNL     1      64.020  29.530  60.054  1.00  0.00     0.020 C 
BRANCH   5   6
ATOM      6  C   UNL     1      65.402  29.946  59.767  1.00  0.00     0.064 C 
ATOM      7  O   UNL     1      65.645  30.910  58.993  1.00  0.00    -0.545 OA
ATOM      8  O   UNL     1      66.457  29.267  60.362  1.00  0.00    -0.545 OA
ENDBRANCH   5   6
ENDBRANCH   3   4
ENDBRANCH   2   3
ENDBRANCH   1   2
BRANCH   1   9
ATOM      9  C   UNL     1      61.256  32.392  59.887  1.00  0.00     0.000 C 
BRANCH   9  10
ATOM     10  C   UNL     1      61.976  33.639  60.410  1.00  0.00     0.000 C 
BRANCH  10  11
ATOM     11  C   UNL     1      63.485  33.392  60.537  1.00  0.00    -0.000 C 
BRANCH  11  12
ATOM     12  C   UNL     1      64.172  34.550  61.274  1.00  0.00    -0.000 C 
BRANCH  12  13
ATOM     13  C   UNL     1      63.308  35.820  61.316  1.00  0.00    -0.003 C 
ATOM     14  C   UNL     1      64.102  37.062  61.719  1.00  0.00     0.004 C 
ENDBRANCH  12  13
ENDBRANCH  11  12
ENDBRANCH  10  11
ENDBRANCH   9  10
ENDBRANCH   1   9
TORSDOF 9
ENDMDL
MODEL 3
REMARK VINA RESULT:    -3.595      2.774      5.105
REMARK INTER + INTRA:          -6.319
REMARK INTER:                  -4.782
REMARK INTRA:                  -1.537
REMARK UNBOUND:                -0.832
REMARK SMILES CCCCCCCCCC=CC(=O)[O-]
REMARK SMILES IDX 7 1 8 2 9 3 10 4 11 5 12 6 13 7 14 8 6 9 5 10 4 11 3 12 2 13
REMARK SMILES IDX 1 14
REMARK H PARENT
REMARK Flexibility Score: inf
ROOT
ATOM      1  C   UNL     1      60.116  25.936  51.304  1.00  0.00     0.000 C 
ENDROOT
BRANCH   1   2
ATOM      2  C   UNL     1      58.823  25.113  51.339  1.00  0.00     0.004 C 
BRANCH   2   3
ATOM      3  C   UNL     1      57.881  25.617  52.441  1.00  0.00     0.027 C 
BRANCH   3   4
ATOM      4  C   UNL     1      56.514  25.913  51.894  1.00  0.00    -0.025 C 
ATOM      5  C   UNL     1      56.324  26.191  50.599  1.00  0.00     0.020 C 
BRANCH   5   6
ATOM      6  C   UNL     1      54.992  26.469  50.038  1.00  0.00     0.064 C 
ATOM      7  O   UNL     1      54.482  27.619  50.113  1.00  0.00    -0.545 OA
ATOM      8  O   UNL     1      54.287  25.449  49.416  1.00  0.00    -0.545 OA
ENDBRANCH   5   6
ENDBRANCH   3   4
ENDBRANCH   2   3
ENDBRANCH   1   2
BRANCH   1   9
ATOM      9  C   UNL     1      60.276  26.652  49.957  1.00  0.00     0.000 C 
BRANCH   9  10
ATOM     10  C   UNL     1      60.380  28.169  50.149  1.00  0.00     0.000 C 
BRANCH  10  11
ATOM     11  C   UNL     1      59.216  28.892  49.460  1.00  0.00    -0.000 C 
BRANCH  11  12
ATOM     12  C   UNL     1      58.098  29.215  50.462  1.00  0.00    -0.000 C 
BRANCH  12  13
ATOM     13  C   UNL     1      58.620  29.372  51.899  1.00  0.00    -0.003 C 
ATOM     14  C   UNL     1      57.499  29.365  52.938  1.00  0.00     0.004 C 
ENDBRANCH  12  13
ENDBRANCH  11  12
ENDBRANCH  10  11
ENDBRANCH   9  10
ENDBRANCH   1   9
TORSDOF 9
ENDMDL
MODEL 4
REMARK VINA RESULT:    -3.546      3.679      6.074
REMARK INTER + INTRA:          -6.244
REMARK INTER:                  -5.107
REMARK INTRA:                  -1.136
REMARK UNBOUND:                -0.832
REMARK SMILES CCCCCCCCCC=CC(=O)[O-]
REMARK SMILES IDX 7 1 8 2 9 3 10 4 11 5 12 6 13 7 14 8 6 9 5 10 4 11 3 12 2 13
REMARK SMILES IDX 1 14
REMARK H PARENT
REMARK Flexibility Score: inf
ROOT
ATOM      1  C   UNL     1      58.272  25.521  51.628  1.00  0.00     0.000 C 
ENDROOT
BRANCH   1   2
ATOM      2  C   UNL     1      56.798  25.924  51.750  1.00  0.00     0.004 C 
BRANCH   2   3
ATOM      3  C   UNL     1      56.201  26.243  50.373  1.00  0.00     0.027 C 
BRANCH   3   4
ATOM      4  C   UNL     1      54.997  27.132  50.496  1.00  0.00    -0.025 C 
ATOM      5  C   UNL     1      55.118  28.450  50.690  1.00  0.00     0.020 C 
BRANCH   5   6
ATOM      6  C   UNL     1      53.952  29.342  50.799  1.00  0.00     0.064 C 
ATOM      7  O   UNL     1      52.900  29.123  50.139  1.00  0.00    -0.545 OA
ATOM      8  O   UNL     1      54.011  30.442  51.643  1.00  0.00    -0.545 OA
ENDBRANCH   5   6
ENDBRANCH   3   4
ENDBRANCH   2   3
ENDBRANCH   1   2
BRANCH   1   9
ATOM      9  C   UNL     1      58.836  25.903  50.254  1.00  0.00     0.000 C 
BRANCH   9  10
ATOM     10  C   UNL     1      60.314  26.297  50.355  1.00  0.00     0.000 C 
BRANCH  10  11
ATOM     11  C   UNL     1      60.528  27.752  49.922  1.00  0.00    -0.000 C 
BRANCH  11  12
ATOM     12  C   UNL     1      59.192  28.425  49.573  1.00  0.00    -0.000 C 
BRANCH  12  13
ATOM     13  C   UNL     1      58.679  29.338  50.697  1.00  0.00    -0.003 C 
ATOM     14  C   UNL     1      59.703  29.534  51.814  1.00  0.00     0.004 C 
ENDBRANCH  12  13
ENDBRANCH  11  12
ENDBRANCH  10  11
ENDBRANCH   9  10
ENDBRANCH   1   9
TORSDOF 9
ENDMDL
MODEL 5
REMARK VINA RESULT:    -3.499      2.626      4.993
REMARK INTER + INTRA:          -6.171
REMARK INTER:                  -4.759
REMARK INTRA:                  -1.412
REMARK UNBOUND:                -0.832
REMARK SMILES CCCCCCCCCC=CC(=O)[O-]
REMARK SMILES IDX 7 1 8 2 9 3 10 4 11 5 12 6 13 7 14 8 6 9 5 10 4 11 3 12 2 13
REMARK SMILES IDX 1 14
REMARK H PARENT
REMARK Flexibility Score: inf
ROOT
ATOM      1  C   UNL     1      60.113  29.138  50.782  1.00  0.00     0.000 C 
ENDROOT
BRANCH   1   2
ATOM      2  C   UNL     1      58.674  29.210  50.259  1.00  0.00     0.004 C 
BRANCH   2   3
ATOM      3  C   UNL     1      57.671  29.270  51.418  1.00  0.00     0.027 C 
BRANCH   3   4
ATOM      4  C   UNL     1      56.332  28.726  51.007  1.00  0.00    -0.025 C 
ATOM      5  C   UNL     1      56.192  27.467  50.576  1.00  0.00     0.020 C 
BRANCH   5   6
ATOM      6  C   UNL     1      54.888  26.909  50.182  1.00  0.00     0.064 C 
ATOM      7  O   UNL     1      54.753  25.680  49.938  1.00  0.00    -0.545 OA
ATOM      8  O   UNL     1      53.788  27.750  50.080  1.00  0.00    -0.545 OA
ENDBRANCH   5   6
ENDBRANCH   3   4
ENDBRANCH   2   3
ENDBRANCH   1   2
BRANCH   1   9
ATOM      9  C   UNL     1      60.888  27.998  50.109  1.00  0.00     0.000 C 
BRANCH   9  10
ATOM     10  C   UNL     1      59.943  26.875  49.668  1.00  0.00     0.000 C 
BRANCH  10  11
ATOM     11  C   UNL     1      60.165  25.608  50.503  1.00  0.00    -0.000 C 
BRANCH  11  12
ATOM     12  C   UNL     1      58.860  25.154  51.174  1.00  0.00    -0.000 C 
BRANCH  12  13
ATOM     13  C   UNL     1      58.964  25.120  52.706  1.00  0.00    -0.003 C 
ATOM     14  C   UNL     1      58.981  26.515  53.329  1.00  0.00     0.004 C 
ENDBRANCH  12  13
ENDBRANCH  11  12
ENDBRANCH  10  11
ENDBRANCH   9  10
ENDBRANCH   1   9
TORSDOF 9
ENDMDL
MODEL 6
REMARK VINA RESULT:    -3.489     11.467     13.059
REMARK INTER + INTRA:          -6.157
REMARK INTER:                  -4.774
REMARK INTRA:                  -1.383
REMARK UNBOUND:                -0.832
REMARK SMILES CCCCCCCCCC=CC(=O)[O-]
REMARK SMILES IDX 7 1 8 2 9 3 10 4 11 5 12 6 13 7 14 8 6 9 5 10 4 11 3 12 2 13
REMARK SMILES IDX 1 14
REMARK H PARENT
REMARK Flexibility Score: inf
ROOT
ATOM      1  C   UNL     1      63.896  35.712  60.582  1.00  0.00     0.000 C 
ENDROOT
BRANCH   1   2
ATOM      2  C   UNL     1      64.294  34.348  61.157  1.00  0.00     0.004 C 
BRANCH   2   3
ATOM      3  C   UNL     1      64.212  33.255  60.083  1.00  0.00     0.027 C 
BRANCH   3   4
ATOM      4  C   UNL     1      63.630  31.988  60.640  1.00  0.00    -0.025 C 
ATOM      5  C   UNL     1      62.309  31.782  60.677  1.00  0.00     0.020 C 
BRANCH   5   6
ATOM      6  C   UNL     1      61.717  30.542  61.205  1.00  0.00     0.064 C 
ATOM      7  O   UNL     1      62.444  29.591  61.599  1.00  0.00    -0.545 OA
ATOM      8  O   UNL     1      60.336  30.419  61.272  1.00  0.00    -0.545 OA
ENDBRANCH   5   6
ENDBRANCH   3   4
ENDBRANCH   2   3
ENDBRANCH   1   2
BRANCH   1   9
ATOM      9  C   UNL     1      62.888  36.422  61.495  1.00  0.00     0.000 C 
BRANCH   9  10
ATOM     10  C   UNL     1      61.551  36.635  60.777  1.00  0.00     0.000 C 
BRANCH  10  11
ATOM     11  C   UNL     1      60.845  35.298  60.516  1.00  0.00    -0.000 C 
BRANCH  11  12
ATOM     12  C   UNL     1      60.256  35.254  59.099  1.00  0.00    -0.000 C 
BRANCH  12  13
ATOM     13  C   UNL     1      60.936  34.201  58.209  1.00  0.00    -0.003 C 
ATOM     14  C   UNL     1      62.118  34.767  57.422  1.00  0.00     0.004 C 
ENDBRANCH  12  13
ENDBRANCH  11  12
ENDBRANCH  10  11
ENDBRANCH   9  10
ENDBRANCH   1   9
TORSDOF 9
ENDMDL
MODEL 7
REMARK VINA RESULT:    -3.487      1.410      2.199
REMARK INTER + INTRA:          -6.154
REMARK INTER:                  -5.479
REMARK INTRA:                  -0.674
REMARK UNBOUND:                -0.832
REMARK SMILES CCCCCCCCCC=CC(=O)[O-]
REMARK SMILES IDX 7 1 8 2 9 3 10 4 11 5 12 6 13 7 14 8 6 9 5 10 4 11 3 12 2 13
REMARK SMILES IDX 1 14
REMARK H PARENT
REMARK Flexibility Score: inf
ROOT
ATOM      1  C   UNL     1      58.596  29.171  49.995  1.00  0.00     0.000 C 
ENDROOT
BRANCH   1   2
ATOM      2  C   UNL     1      59.781  28.272  49.624  1.00  0.00     0.004 C 
BRANCH   2   3
ATOM      3  C   UNL     1      59.460  26.797  49.900  1.00  0.00     0.027 C 
BRANCH   3   4
ATOM      4  C   UNL     1      60.686  26.045  50.332  1.00  0.00    -0.025 C 
ATOM      5  C   UNL     1      61.870  26.654  50.462  1.00  0.00     0.020 C 
BRANCH   5   6
ATOM      6  C   UNL     1      63.082  25.940  50.897  1.00  0.00     0.064 C 
ATOM      7  O   UNL     1      64.222  26.466  50.788  1.00  0.00    -0.545 OA
ATOM      8  O   UNL     1      62.966  24.668  51.439  1.00  0.00    -0.545 OA
ENDBRANCH   5   6
ENDBRANCH   3   4
ENDBRANCH   2   3
ENDBRANCH   1   2
BRANCH   1   9
ATOM      9  C   UNL     1      58.416  29.244  51.516  1.00  0.00     0.000 C 
BRANCH   9  10
ATOM     10  C   UNL     1      57.031  28.736  51.932  1.00  0.00     0.000 C 
BRANCH  10  11
ATOM     11  C   UNL     1      56.211  28.309  50.709  1.00  0.00    -0.000 C 
BRANCH  11  12
ATOM     12  C   UNL     1      54.735  28.105  51.080  1.00  0.00    -0.000 C 
BRANCH  12  13
ATOM     13  C   UNL     1      53.979  27.249  50.051  1.00  0.00    -0.003 C 
ATOM     14  C   UNL     1      54.630  25.884  49.826  1.00  0.00     0.004 C 
ENDBRANCH  12  13
ENDBRANCH  11  12
ENDBRANCH  10  11
ENDBRANCH   9  10
ENDBRANCH   1   9
TORSDOF 9
ENDMDL
MODEL 8
REMARK VINA RESULT:    -3.484      3.167      6.136
REMARK INTER + INTRA:          -6.149
REMARK INTER:                  -5.670
REMARK INTRA:                  -0.479
REMARK UNBOUND:                -0.832
REMARK SMILES CCCCCCCCCC=CC(=O)[O-]
REMARK SMILES IDX 7 1 8 2 9 3 10 4 11 5 12 6 13 7 14 8 6 9 5 10 4 11 3 12 2 13
REMARK SMILES IDX 1 14
REMARK H PARENT
REMARK Flexibility Score: inf
ROOT
ATOM      1  C   UNL     1      59.941  28.166  49.623  1.00  0.00     0.000 C 
ENDROOT
BRANCH   1   2
ATOM      2  C   UNL     1      58.687  28.942  50.042  1.00  0.00     0.004 C 
BRANCH   2   3
ATOM      3  C   UNL     1      57.793  28.090  50.952  1.00  0.00     0.027 C 
BRANCH   3   4
ATOM      4  C   UNL     1      56.339  28.385  50.718  1.00  0.00    -0.025 C 
ATOM      5  C   UNL     1      55.466  27.414  50.429  1.00  0.00     0.020 C 
BRANCH   5   6
ATOM      6  C   UNL     1      54.035  27.679  50.210  1.00  0.00     0.064 C 
ATOM      7  O   UNL     1      53.558  28.837  50.354  1.00  0.00    -0.545 OA
ATOM      8  O   UNL     1      53.197  26.637  49.837  1.00  0.00    -0.545 OA
ENDBRANCH   5   6
ENDBRANCH   3   4
ENDBRANCH   2   3
ENDBRANCH   1   2
BRANCH   1   9
ATOM      9  C   UNL     1      59.823  26.684  49.999  1.00  0.00     0.000 C 
BRANCH   9  10
ATOM     10  C   UNL     1      61.181  26.113  50.421  1.00  0.00     0.000 C 
BRANCH  10  11
ATOM     11  C   UNL     1      61.006  24.910  51.357  1.00  0.00    -0.000 C 
BRANCH  11  12
ATOM     12  C   UNL     1      61.771  23.687  50.830  1.00  0.00    -0.000 C 
BRANCH  12  13
ATOM     13  C   UNL     1      60.892  22.767  49.968  1.00  0.00    -0.003 C 
ATOM     14  C   UNL     1      61.563  21.429  49.658  1.00  0.00     0.004 C 
ENDBRANCH  12  13
ENDBRANCH  11  12
ENDBRANCH  10  11
ENDBRANCH   9  10
ENDBRANCH   1   9
TORSDOF 9
ENDMDL
MODEL 9
REMARK VINA RESULT:    -3.456      2.894      6.072
REMARK INTER + INTRA:          -6.107
REMARK INTER:                  -5.051
REMARK INTRA:                  -1.056
REMARK UNBOUND:                -0.832
REMARK SMILES CCCCCCCCCC=CC(=O)[O-]
REMARK SMILES IDX 7 1 8 2 9 3 10 4 11 5 12 6 13 7 14 8 6 9 5 10 4 11 3 12 2 13
REMARK SMILES IDX 1 14
REMARK H PARENT
REMARK Flexibility Score: inf
ROOT
ATOM      1  C   UNL     1      59.660  28.412  49.553  1.00  0.00     0.000 C 
ENDROOT
BRANCH   1   2
ATOM      2  C   UNL     1      58.457  29.143  50.162  1.00  0.00     0.004 C 
BRANCH   2   3
ATOM      3  C   UNL     1      57.715  28.243  51.158  1.00  0.00     0.027 C 
BRANCH   3   4
ATOM      4  C   UNL     1      56.305  27.983  50.710  1.00  0.00    -0.025 C 
ATOM      5  C   UNL     1      55.880  26.748  50.421  1.00  0.00     0.020 C 
BRANCH   5   6
ATOM      6  C   UNL     1      54.499  26.469  49.995  1.00  0.00     0.064 C 
ATOM      7  O   UNL     1      54.146  25.309  49.650  1.00  0.00    -0.545 OA
ATOM      8  O   UNL     1      53.570  27.500  49.973  1.00  0.00    -0.545 OA
ENDBRANCH   5   6
ENDBRANCH   3   4
ENDBRANCH   2   3
ENDBRANCH   1   2
BRANCH   1   9
ATOM      9  C   UNL     1      59.605  26.911  49.862  1.00  0.00     0.000 C 
BRANCH   9  10
ATOM     10  C   UNL     1      60.981  26.386  50.286  1.00  0.00     0.000 C 
BRANCH  10  11
ATOM     11  C   UNL     1      62.061  27.460  50.105  1.00  0.00    -0.000 C 
BRANCH  11  12
ATOM     12  C   UNL     1      62.747  27.781  51.441  1.00  0.00    -0.000 C 
BRANCH  12  13
ATOM     13  C   UNL     1      62.400  29.185  51.962  1.00  0.00    -0.003 C 
ATOM     14  C   UNL     1      61.165  29.193  52.861  1.00  0.00     0.004 C 
ENDBRANCH  12  13
ENDBRANCH  11  12
ENDBRANCH  10  11
ENDBRANCH   9  10
ENDBRANCH   1   9
TORSDOF 9
ENDMDL
