MODEL 1
REMARK VINA RESULT:    -8.295      0.000      0.000
REMARK INTER + INTRA:         -13.424
REMARK INTER:                 -12.901
REMARK INTRA:                  -0.523
REMARK UNBOUND:                -0.523
REMARK SMILES COc1cc(CNC(=O)CCCCC=CC(C)C)ccc1O
REMARK SMILES IDX 11 1 12 2 13 3 14 4 15 5 16 6 17 7 18 8 10 9 8 10 9 11 7 12
REMARK SMILES IDX 6 14 5 15 4 16 19 17 3 18 20 19 21 20 2 21 1 22 22 23
REMARK H PARENT 7 13 22 24
REMARK Flexibility Score: inf
ROOT
ATOM      1  C   UNL     1      -1.973 -14.805  10.508  1.00  0.00     0.010 C 
ENDROOT
BRANCH   1   2
ATOM      2  C   UNL     1      -0.815 -14.936   9.505  1.00  0.00     0.005 C 
BRANCH   2   3
ATOM      3  C   UNL     1      -1.285 -15.356   8.104  1.00  0.00     0.027 C 
BRANCH   3   4
ATOM      4  C   UNL     1      -2.656 -14.812   7.811  1.00  0.00    -0.031 C 
ATOM      5  C   UNL     1      -3.526 -15.485   7.038  1.00  0.00    -0.028 C 
BRANCH   5   6
ATOM      6  C   UNL     1      -4.909 -14.965   6.720  1.00  0.00     0.005 C 
ATOM      7  C   UNL     1      -5.326 -15.321   5.287  1.00  0.00     0.012 C 
ATOM      8  C   UNL     1      -5.006 -13.455   6.967  1.00  0.00     0.012 C 
ENDBRANCH   5   6
ENDBRANCH   3   4
ENDBRANCH   2   3
ENDBRANCH   1   2
BRANCH   1   9
ATOM      9  C   UNL     1      -2.426 -16.157  11.072  1.00  0.00     0.100 C 
BRANCH   9  10
ATOM     10  C   UNL     1      -2.076 -16.260  12.526  1.00  0.00     0.220 C 
ATOM     11  O   UNL     1      -2.098 -15.225  13.244  1.00  0.00    -0.275 OA
ATOM     12  N   UNL     1      -1.673 -17.520  13.081  1.00  0.00    -0.352 N 
ATOM     13  H   UNL     1      -1.603 -18.352  12.453  1.00  0.00     0.163 HD
BRANCH  12  14
ATOM     14  C   UNL     1      -1.346 -17.685  14.496  1.00  0.00     0.151 C 
BRANCH  14  15
ATOM     15  C   UNL     1       0.112 -18.020  14.661  1.00  0.00    -0.025 A 
ATOM     16  C   UNL     1       0.760 -17.751  15.877  1.00  0.00     0.056 A 
ATOM     17  C   UNL     1       0.841 -18.573  13.598  1.00  0.00     0.009 A 
ATOM     18  C   UNL     1       2.131 -18.035  16.036  1.00  0.00     0.160 A 
ATOM     19  C   UNL     1       2.199 -18.862  13.752  1.00  0.00     0.050 A 
ATOM     20  C   UNL     1       2.846 -18.596  14.967  1.00  0.00     0.157 A 
BRANCH  18  21
ATOM     21  O   UNL     1       2.816 -17.775  17.233  1.00  0.00    -0.493 OA
ATOM     22  C   UNL     1       3.809 -16.766  17.390  1.00  0.00     0.278 C 
ENDBRANCH  18  21
BRANCH  20  23
ATOM     23  O   UNL     1       4.201 -18.885  15.120  1.00  0.00    -0.504 OA
ATOM     24  H   UNL     1       4.515 -19.709  15.622  1.00  0.00     0.293 HD
ENDBRANCH  20  23
ENDBRANCH  14  15
ENDBRANCH  12  14
ENDBRANCH   9  10
ENDBRANCH   1   9
TORSDOF 10
ENDMDL
MODEL 2
REMARK VINA RESULT:    -8.143      2.370      9.169
REMARK INTER + INTRA:         -13.189
REMARK INTER:                 -12.552
REMARK INTRA:                  -0.637
REMARK UNBOUND:                -0.523
REMARK SMILES COc1cc(CNC(=O)CCCCC=CC(C)C)ccc1O
REMARK SMILES IDX 11 1 12 2 13 3 14 4 15 5 16 6 17 7 18 8 10 9 8 10 9 11 7 12
REMARK SMILES IDX 6 14 5 15 4 16 19 17 3 18 20 19 21 20 2 21 1 22 22 23
REMARK H PARENT 7 13 22 24
REMARK Flexibility Score: inf
ROOT
ATOM      1  C   UNL     1       0.262 -18.066  14.643  1.00  0.00     0.010 C 
ENDROOT
BRANCH   1   2
ATOM      2  C   UNL     1       1.041 -18.869  13.589  1.00  0.00     0.005 C 
BRANCH   2   3
ATOM      3  C   UNL     1       2.527 -18.488  13.527  1.00  0.00     0.027 C 
BRANCH   3   4
ATOM      4  C   UNL     1       3.098 -18.321  14.908  1.00  0.00    -0.031 C 
ATOM      5  C   UNL     1       4.366 -17.920  15.098  1.00  0.00    -0.028 C 
BRANCH   5   6
ATOM      6  C   UNL     1       4.973 -17.747  16.472  1.00  0.00     0.005 C 
ATOM      7  C   UNL     1       4.073 -18.348  17.561  1.00  0.00     0.012 C 
ATOM      8  C   UNL     1       5.286 -16.275  16.761  1.00  0.00     0.012 C 
ENDBRANCH   5   6
ENDBRANCH   3   4
ENDBRANCH   2   3
ENDBRANCH   1   2
BRANCH   1   9
ATOM      9  C   UNL     1      -1.248 -18.041  14.376  1.00  0.00     0.100 C 
BRANCH   9  10
ATOM     10  C   UNL     1      -1.692 -16.657  14.012  1.00  0.00     0.220 C 
ATOM     11  O   UNL     1      -1.561 -15.724  14.849  1.00  0.00    -0.275 OA
ATOM     12  N   UNL     1      -2.306 -16.409  12.740  1.00  0.00    -0.352 N 
ATOM     13  H   UNL     1      -2.460 -17.210  12.086  1.00  0.00     0.163 HD
BRANCH  12  14
ATOM     14  C   UNL     1      -2.734 -15.076  12.322  1.00  0.00     0.151 C 
BRANCH  14  15
ATOM     15  C   UNL     1      -2.843 -15.008  10.821  1.00  0.00    -0.025 A 
ATOM     16  C   UNL     1      -3.340 -16.108  10.104  1.00  0.00     0.056 A 
ATOM     17  C   UNL     1      -2.424 -13.863  10.127  1.00  0.00     0.009 A 
ATOM     18  C   UNL     1      -3.423 -16.067   8.698  1.00  0.00     0.160 A 
ATOM     19  C   UNL     1      -2.509 -13.816   8.734  1.00  0.00     0.050 A 
ATOM     20  C   UNL     1      -3.007 -14.913   8.017  1.00  0.00     0.157 A 
BRANCH  18  21
ATOM     21  O   UNL     1      -3.907 -17.148   7.945  1.00  0.00    -0.493 OA
ATOM     22  C   UNL     1      -3.530 -18.505   8.149  1.00  0.00     0.278 C 
ENDBRANCH  18  21
BRANCH  20  23
ATOM     23  O   UNL     1      -3.092 -14.864   6.626  1.00  0.00    -0.504 OA
ATOM     24  H   UNL     1      -3.319 -15.687   6.080  1.00  0.00     0.293 HD
ENDBRANCH  20  23
ENDBRANCH  14  15
ENDBRANCH  12  14
ENDBRANCH   9  10
ENDBRANCH   1   9
TORSDOF 10
ENDMDL
MODEL 3
REMARK VINA RESULT:    -8.099      2.584      9.319
REMARK INTER + INTRA:         -13.119
REMARK INTER:                 -12.393
REMARK INTRA:                  -0.726
REMARK UNBOUND:                -0.523
REMARK SMILES COc1cc(CNC(=O)CCCCC=CC(C)C)ccc1O
REMARK SMILES IDX 11 1 12 2 13 3 14 4 15 5 16 6 17 7 18 8 10 9 8 10 9 11 7 12
REMARK SMILES IDX 6 14 5 15 4 16 19 17 3 18 20 19 21 20 2 21 1 22 22 23
REMARK H PARENT 7 13 22 24
REMARK Flexibility Score: inf
ROOT
ATOM      1  C   UNL     1      -1.503 -17.526  15.164  1.00  0.00     0.010 C 
ENDROOT
BRANCH   1   2
ATOM      2  C   UNL     1      -0.027 -17.684  15.563  1.00  0.00     0.005 C 
BRANCH   2   3
ATOM      3  C   UNL     1       0.811 -18.382  14.482  1.00  0.00     0.027 C 
BRANCH   3   4
ATOM      4  C   UNL     1       2.248 -18.502  14.908  1.00  0.00    -0.031 C 
ATOM      5  C   UNL     1       2.671 -18.021  16.089  1.00  0.00    -0.028 C 
BRANCH   5   6
ATOM      6  C   UNL     1       4.110 -18.121  16.545  1.00  0.00     0.005 C 
ATOM      7  C   UNL     1       4.656 -16.755  16.982  1.00  0.00     0.012 C 
ATOM      8  C   UNL     1       4.993 -18.753  15.463  1.00  0.00     0.012 C 
ENDBRANCH   5   6
ENDBRANCH   3   4
ENDBRANCH   2   3
ENDBRANCH   1   2
BRANCH   1   9
ATOM      9  C   UNL     1      -1.731 -17.684  13.656  1.00  0.00     0.100 C 
BRANCH   9  10
ATOM     10  C   UNL     1      -2.135 -16.375  13.049  1.00  0.00     0.220 C 
ATOM     11  O   UNL     1      -2.889 -15.598  13.695  1.00  0.00    -0.275 OA
ATOM     12  N   UNL     1      -1.708 -16.034  11.722  1.00  0.00    -0.352 N 
ATOM     13  H   UNL     1      -1.135 -16.721  11.182  1.00  0.00     0.163 HD
BRANCH  12  14
ATOM     14  C   UNL     1      -2.050 -14.761  11.091  1.00  0.00     0.151 C 
BRANCH  14  15
ATOM     15  C   UNL     1      -2.652 -14.997   9.732  1.00  0.00    -0.025 A 
ATOM     16  C   UNL     1      -2.906 -16.306   9.294  1.00  0.00     0.056 A 
ATOM     17  C   UNL     1      -2.937 -13.918   8.881  1.00  0.00     0.009 A 
ATOM     18  C   UNL     1      -3.445 -16.542   8.014  1.00  0.00     0.160 A 
ATOM     19  C   UNL     1      -3.477 -14.145   7.613  1.00  0.00     0.050 A 
ATOM     20  C   UNL     1      -3.733 -15.453   7.178  1.00  0.00     0.157 A 
BRANCH  18  21
ATOM     21  O   UNL     1      -3.706 -17.836   7.538  1.00  0.00    -0.493 OA
ATOM     22  C   UNL     1      -3.076 -19.016   8.026  1.00  0.00     0.278 C 
ENDBRANCH  18  21
BRANCH  20  23
ATOM     23  O   UNL     1      -4.272 -15.679   5.912  1.00  0.00    -0.504 OA
ATOM     24  H   UNL     1      -4.734 -14.941   5.393  1.00  0.00     0.293 HD
ENDBRANCH  20  23
ENDBRANCH  14  15
ENDBRANCH  12  14
ENDBRANCH   9  10
ENDBRANCH   1   9
TORSDOF 10
ENDMDL
MODEL 4
REMARK VINA RESULT:    -8.088      2.656      9.580
REMARK INTER + INTRA:         -13.103
REMARK INTER:                 -12.332
REMARK INTRA:                  -0.771
REMARK UNBOUND:                -0.523
REMARK SMILES COc1cc(CNC(=O)CCCCC=CC(C)C)ccc1O
REMARK SMILES IDX 11 1 12 2 13 3 14 4 15 5 16 6 17 7 18 8 10 9 8 10 9 11 7 12
REMARK SMILES IDX 6 14 5 15 4 16 19 17 3 18 20 19 21 20 2 21 1 22 22 23
REMARK H PARENT 7 13 22 24
REMARK Flexibility Score: inf
ROOT
ATOM      1  C   UNL     1      -1.206 -18.192  13.529  1.00  0.00     0.010 C 
ENDROOT
BRANCH   1   2
ATOM      2  C   UNL     1       0.191 -18.370  14.145  1.00  0.00     0.005 C 
BRANCH   2   3
ATOM      3  C   UNL     1       0.292 -17.801  15.567  1.00  0.00     0.027 C 
BRANCH   3   4
ATOM      4  C   UNL     1       1.656 -18.046  16.150  1.00  0.00    -0.031 C 
ATOM      5  C   UNL     1       2.680 -18.463  15.386  1.00  0.00    -0.028 C 
BRANCH   5   6
ATOM      6  C   UNL     1       4.062 -18.722  15.941  1.00  0.00     0.005 C 
ATOM      7  C   UNL     1       4.028 -18.912  17.464  1.00  0.00     0.012 C 
ATOM      8  C   UNL     1       5.040 -17.611  15.542  1.00  0.00     0.012 C 
ENDBRANCH   5   6
ENDBRANCH   3   4
ENDBRANCH   2   3
ENDBRANCH   1   2
BRANCH   1   9
ATOM      9  C   UNL     1      -1.987 -17.030  14.154  1.00  0.00     0.100 C 
BRANCH   9  10
ATOM     10  C   UNL     1      -2.199 -15.941  13.147  1.00  0.00     0.220 C 
ATOM     11  O   UNL     1      -2.679 -14.837  13.520  1.00  0.00    -0.275 OA
ATOM     12  N   UNL     1      -1.903 -16.172  11.763  1.00  0.00    -0.352 N 
ATOM     13  H   UNL     1      -1.564 -17.116  11.468  1.00  0.00     0.163 HD
BRANCH  12  14
ATOM     14  C   UNL     1      -2.064 -15.139  10.742  1.00  0.00     0.151 C 
BRANCH  14  15
ATOM     15  C   UNL     1      -3.013 -15.606   9.670  1.00  0.00    -0.025 A 
ATOM     16  C   UNL     1      -3.443 -14.712   8.677  1.00  0.00     0.056 A 
ATOM     17  C   UNL     1      -3.497 -16.923   9.671  1.00  0.00     0.009 A 
ATOM     18  C   UNL     1      -4.351 -15.129   7.682  1.00  0.00     0.160 A 
ATOM     19  C   UNL     1      -4.393 -17.343   8.685  1.00  0.00     0.050 A 
ATOM     20  C   UNL     1      -4.820 -16.451   7.691  1.00  0.00     0.157 A 
BRANCH  18  21
ATOM     21  O   UNL     1      -4.809 -14.265   6.677  1.00  0.00    -0.493 OA
ATOM     22  C   UNL     1      -5.344 -12.966   6.913  1.00  0.00     0.278 C 
ENDBRANCH  18  21
BRANCH  20  23
ATOM     23  O   UNL     1      -5.715 -16.872   6.707  1.00  0.00    -0.504 OA
ATOM     24  H   UNL     1      -6.689 -16.592   6.722  1.00  0.00     0.293 HD
ENDBRANCH  20  23
ENDBRANCH  14  15
ENDBRANCH  12  14
ENDBRANCH   9  10
ENDBRANCH   1   9
TORSDOF 10
ENDMDL
MODEL 5
REMARK VINA RESULT:    -8.030      2.321      9.626
REMARK INTER + INTRA:         -13.013
REMARK INTER:                 -12.555
REMARK INTRA:                  -0.458
REMARK UNBOUND:                -0.523
REMARK SMILES COc1cc(CNC(=O)CCCCC=CC(C)C)ccc1O
REMARK SMILES IDX 11 1 12 2 13 3 14 4 15 5 16 6 17 7 18 8 10 9 8 10 9 11 7 12
REMARK SMILES IDX 6 14 5 15 4 16 19 17 3 18 20 19 21 20 2 21 1 22 22 23
REMARK H PARENT 7 13 22 24
REMARK Flexibility Score: inf
ROOT
ATOM      1  C   UNL     1      -0.358 -18.033  16.145  1.00  0.00     0.010 C 
ENDROOT
BRANCH   1   2
ATOM      2  C   UNL     1       1.135 -17.667  16.117  1.00  0.00     0.005 C 
BRANCH   2   3
ATOM      3  C   UNL     1       2.042 -18.837  16.527  1.00  0.00     0.027 C 
BRANCH   3   4
ATOM      4  C   UNL     1       3.492 -18.479  16.355  1.00  0.00    -0.031 C 
ATOM      5  C   UNL     1       4.011 -17.369  16.907  1.00  0.00    -0.028 C 
BRANCH   5   6
ATOM      6  C   UNL     1       5.463 -16.978  16.750  1.00  0.00     0.005 C 
ATOM      7  C   UNL     1       5.738 -15.591  17.346  1.00  0.00     0.012 C 
ATOM      8  C   UNL     1       5.902 -17.049  15.282  1.00  0.00     0.012 C 
ENDBRANCH   5   6
ENDBRANCH   3   4
ENDBRANCH   2   3
ENDBRANCH   1   2
BRANCH   1   9
ATOM      9  C   UNL     1      -1.232 -17.021  15.394  1.00  0.00     0.100 C 
BRANCH   9  10
ATOM     10  C   UNL     1      -1.444 -17.462  13.977  1.00  0.00     0.220 C 
ATOM     11  O   UNL     1      -0.895 -18.521  13.569  1.00  0.00    -0.275 OA
ATOM     12  N   UNL     1      -2.224 -16.657  13.082  1.00  0.00    -0.352 N 
ATOM     13  H   UNL     1      -2.618 -15.752  13.426  1.00  0.00     0.163 HD
BRANCH  12  14
ATOM     14  C   UNL     1      -2.485 -17.051  11.700  1.00  0.00     0.151 C 
BRANCH  14  15
ATOM     15  C   UNL     1      -2.589 -15.833  10.820  1.00  0.00    -0.025 A 
ATOM     16  C   UNL     1      -3.092 -15.952   9.514  1.00  0.00     0.056 A 
ATOM     17  C   UNL     1      -2.159 -14.580  11.283  1.00  0.00     0.009 A 
ATOM     18  C   UNL     1      -3.170 -14.826   8.671  1.00  0.00     0.160 A 
ATOM     19  C   UNL     1      -2.240 -13.459  10.453  1.00  0.00     0.050 A 
ATOM     20  C   UNL     1      -2.744 -13.578   9.150  1.00  0.00     0.157 A 
BRANCH  18  21
ATOM     21  O   UNL     1      -3.660 -14.905   7.359  1.00  0.00    -0.493 OA
ATOM     22  C   UNL     1      -4.995 -14.591   6.977  1.00  0.00     0.278 C 
ENDBRANCH  18  21
BRANCH  20  23
ATOM     23  O   UNL     1      -2.824 -12.458   8.324  1.00  0.00    -0.504 OA
ATOM     24  H   UNL     1      -1.999 -12.059   7.890  1.00  0.00     0.293 HD
ENDBRANCH  20  23
ENDBRANCH  14  15
ENDBRANCH  12  14
ENDBRANCH   9  10
ENDBRANCH   1   9
TORSDOF 10
ENDMDL
MODEL 6
REMARK VINA RESULT:    -7.932      2.885      9.229
REMARK INTER + INTRA:         -12.860
REMARK INTER:                 -12.154
REMARK INTRA:                  -0.706
REMARK UNBOUND:                -0.523
REMARK SMILES COc1cc(CNC(=O)CCCCC=CC(C)C)ccc1O
REMARK SMILES IDX 11 1 12 2 13 3 14 4 15 5 16 6 17 7 18 8 10 9 8 10 9 11 7 12
REMARK SMILES IDX 6 14 5 15 4 16 19 17 3 18 20 19 21 20 2 21 1 22 22 23
REMARK H PARENT 7 13 22 24
REMARK Flexibility Score: inf
ROOT
ATOM      1  C   UNL     1      -1.293 -17.893  13.506  1.00  0.00     0.010 C 
ENDROOT
BRANCH   1   2
ATOM      2  C   UNL     1       0.011 -18.327  14.196  1.00  0.00     0.005 C 
BRANCH   2   3
ATOM      3  C   UNL     1       0.141 -17.777  15.624  1.00  0.00     0.027 C 
BRANCH   3   4
ATOM      4  C   UNL     1       1.524 -18.006  16.166  1.00  0.00    -0.031 C 
ATOM      5  C   UNL     1       2.513 -18.476  15.387  1.00  0.00    -0.028 C 
BRANCH   5   6
ATOM      6  C   UNL     1       3.914 -18.722  15.902  1.00  0.00     0.005 C 
ATOM      7  C   UNL     1       3.936 -18.839  17.432  1.00  0.00     0.012 C 
ATOM      8  C   UNL     1       4.883 -17.640  15.413  1.00  0.00     0.012 C 
ENDBRANCH   5   6
ENDBRANCH   3   4
ENDBRANCH   2   3
ENDBRANCH   1   2
BRANCH   1   9
ATOM      9  C   UNL     1      -1.577 -16.394  13.661  1.00  0.00     0.100 C 
BRANCH   9  10
ATOM     10  C   UNL     1      -2.908 -16.050  13.066  1.00  0.00     0.220 C 
ATOM     11  O   UNL     1      -3.603 -15.137  13.588  1.00  0.00    -0.275 OA
ATOM     12  N   UNL     1      -3.407 -16.789  11.942  1.00  0.00    -0.352 N 
ATOM     13  H   UNL     1      -2.841 -17.582  11.565  1.00  0.00     0.163 HD
BRANCH  12  14
ATOM     14  C   UNL     1      -4.686 -16.480  11.305  1.00  0.00     0.151 C 
BRANCH  14  15
ATOM     15  C   UNL     1      -4.498 -16.284   9.824  1.00  0.00    -0.025 A 
ATOM     16  C   UNL     1      -3.257 -15.859   9.325  1.00  0.00     0.056 A 
ATOM     17  C   UNL     1      -5.565 -16.493   8.937  1.00  0.00     0.009 A 
ATOM     18  C   UNL     1      -3.076 -15.647   7.943  1.00  0.00     0.160 A 
ATOM     19  C   UNL     1      -5.389 -16.289   7.566  1.00  0.00     0.050 A 
ATOM     20  C   UNL     1      -4.149 -15.868   7.067  1.00  0.00     0.157 A 
BRANCH  18  21
ATOM     21  O   UNL     1      -1.853 -15.216   7.406  1.00  0.00    -0.493 OA
ATOM     22  C   UNL     1      -0.587 -15.412   8.027  1.00  0.00     0.278 C 
ENDBRANCH  18  21
BRANCH  20  23
ATOM     23  O   UNL     1      -3.975 -15.665   5.698  1.00  0.00    -0.504 OA
ATOM     24  H   UNL     1      -4.196 -16.388   5.023  1.00  0.00     0.293 HD
ENDBRANCH  20  23
ENDBRANCH  14  15
ENDBRANCH  12  14
ENDBRANCH   9  10
ENDBRANCH   1   9
TORSDOF 10
ENDMDL
MODEL 7
REMARK VINA RESULT:    -7.620      1.216      1.944
REMARK INTER + INTRA:         -12.375
REMARK INTER:                 -12.258
REMARK INTRA:                  -0.117
REMARK UNBOUND:                -0.523
REMARK SMILES COc1cc(CNC(=O)CCCCC=CC(C)C)ccc1O
REMARK SMILES IDX 11 1 12 2 13 3 14 4 15 5 16 6 17 7 18 8 10 9 8 10 9 11 7 12
REMARK SMILES IDX 6 14 5 15 4 16 19 17 3 18 20 19 21 20 2 21 1 22 22 23
REMARK H PARENT 7 13 22 24
REMARK Flexibility Score: inf
ROOT
ATOM      1  C   UNL     1      -2.486 -14.632  10.289  1.00  0.00     0.010 C 
ENDROOT
BRANCH   1   2
ATOM      2  C   UNL     1      -1.175 -14.383   9.527  1.00  0.00     0.005 C 
BRANCH   2   3
ATOM      3  C   UNL     1      -0.935 -15.406   8.407  1.00  0.00     0.027 C 
BRANCH   3   4
ATOM      4  C   UNL     1      -2.217 -16.083   8.012  1.00  0.00    -0.031 C 
ATOM      5  C   UNL     1      -3.135 -15.459   7.253  1.00  0.00    -0.028 C 
BRANCH   5   6
ATOM      6  C   UNL     1      -4.437 -16.110   6.843  1.00  0.00     0.005 C 
ATOM      7  C   UNL     1      -5.148 -15.299   5.751  1.00  0.00     0.012 C 
ATOM      8  C   UNL     1      -5.351 -16.336   8.052  1.00  0.00     0.012 C 
ENDBRANCH   5   6
ENDBRANCH   3   4
ENDBRANCH   2   3
ENDBRANCH   1   2
BRANCH   1   9
ATOM      9  C   UNL     1      -2.376 -14.305  11.784  1.00  0.00     0.100 C 
BRANCH   9  10
ATOM     10  C   UNL     1      -2.432 -15.562  12.599  1.00  0.00     0.220 C 
ATOM     11  O   UNL     1      -3.091 -15.575  13.673  1.00  0.00    -0.275 OA
ATOM     12  N   UNL     1      -1.700 -16.723  12.183  1.00  0.00    -0.352 N 
ATOM     13  H   UNL     1      -1.110 -16.669  11.321  1.00  0.00     0.163 HD
BRANCH  12  14
ATOM     14  C   UNL     1      -1.739 -17.982  12.923  1.00  0.00     0.151 C 
BRANCH  14  15
ATOM     15  C   UNL     1      -0.671 -17.998  13.985  1.00  0.00    -0.025 A 
ATOM     16  C   UNL     1       0.622 -18.448  13.671  1.00  0.00     0.056 A 
ATOM     17  C   UNL     1      -0.963 -17.595  15.296  1.00  0.00     0.009 A 
ATOM     18  C   UNL     1       1.624 -18.493  14.661  1.00  0.00     0.160 A 
ATOM     19  C   UNL     1       0.028 -17.633  16.280  1.00  0.00     0.050 A 
ATOM     20  C   UNL     1       1.320 -18.079  15.967  1.00  0.00     0.157 A 
BRANCH  18  21
ATOM     21  O   UNL     1       2.925 -18.942  14.390  1.00  0.00    -0.493 OA
ATOM     22  C   UNL     1       4.108 -18.198  14.665  1.00  0.00     0.278 C 
ENDBRANCH  18  21
BRANCH  20  23
ATOM     23  O   UNL     1       2.308 -18.115  16.950  1.00  0.00    -0.504 OA
ATOM     24  H   UNL     1       3.293 -18.063  16.714  1.00  0.00     0.293 HD
ENDBRANCH  20  23
ENDBRANCH  14  15
ENDBRANCH  12  14
ENDBRANCH   9  10
ENDBRANCH   1   9
TORSDOF 10
ENDMDL
MODEL 8
REMARK VINA RESULT:    -7.605      3.096      9.049
REMARK INTER + INTRA:         -12.351
REMARK INTER:                 -12.373
REMARK INTRA:                   0.022
REMARK UNBOUND:                -0.523
REMARK SMILES COc1cc(CNC(=O)CCCCC=CC(C)C)ccc1O
REMARK SMILES IDX 11 1 12 2 13 3 14 4 15 5 16 6 17 7 18 8 10 9 8 10 9 11 7 12
REMARK SMILES IDX 6 14 5 15 4 16 19 17 3 18 20 19 21 20 2 21 1 22 22 23
REMARK H PARENT 7 13 22 24
REMARK Flexibility Score: inf
ROOT
ATOM      1  C   UNL     1      -1.338 -17.400  13.756  1.00  0.00     0.010 C 
ENDROOT
BRANCH   1   2
ATOM      2  C   UNL     1      -1.704 -17.468  15.247  1.00  0.00     0.005 C 
BRANCH   2   3
ATOM      3  C   UNL     1      -0.473 -17.590  16.158  1.00  0.00     0.027 C 
BRANCH   3   4
ATOM      4  C   UNL     1       0.743 -17.989  15.369  1.00  0.00    -0.031 C 
ATOM      5  C   UNL     1       1.903 -18.292  15.975  1.00  0.00    -0.028 C 
BRANCH   5   6
ATOM      6  C   UNL     1       3.145 -18.692  15.211  1.00  0.00     0.005 C 
ATOM      7  C   UNL     1       4.393 -17.989  15.762  1.00  0.00     0.012 C 
ATOM      8  C   UNL     1       2.981 -18.435  13.709  1.00  0.00     0.012 C 
ENDBRANCH   5   6
ENDBRANCH   3   4
ENDBRANCH   2   3
ENDBRANCH   1   2
BRANCH   1   9
ATOM      9  C   UNL     1      -1.892 -16.148  13.065  1.00  0.00     0.100 C 
BRANCH   9  10
ATOM     10  C   UNL     1      -3.014 -16.514  12.141  1.00  0.00     0.220 C 
ATOM     11  O   UNL     1      -4.136 -15.956  12.277  1.00  0.00    -0.275 OA
ATOM     12  N   UNL     1      -2.825 -17.528  11.144  1.00  0.00    -0.352 N 
ATOM     13  H   UNL     1      -1.905 -18.021  11.091  1.00  0.00     0.163 HD
BRANCH  12  14
ATOM     14  C   UNL     1      -3.874 -17.906  10.201  1.00  0.00     0.151 C 
BRANCH  14  15
ATOM     15  C   UNL     1      -4.082 -16.814   9.185  1.00  0.00    -0.025 A 
ATOM     16  C   UNL     1      -3.333 -15.630   9.265  1.00  0.00     0.056 A 
ATOM     17  C   UNL     1      -5.042 -16.957   8.171  1.00  0.00     0.009 A 
ATOM     18  C   UNL     1      -3.536 -14.590   8.336  1.00  0.00     0.160 A 
ATOM     19  C   UNL     1      -5.244 -15.931   7.245  1.00  0.00     0.050 A 
ATOM     20  C   UNL     1      -4.494 -14.749   7.323  1.00  0.00     0.157 A 
BRANCH  18  21
ATOM     21  O   UNL     1      -2.813 -13.388   8.387  1.00  0.00    -0.493 OA
ATOM     22  C   UNL     1      -2.117 -12.915   9.535  1.00  0.00     0.278 C 
ENDBRANCH  18  21
BRANCH  20  23
ATOM     23  O   UNL     1      -4.696 -13.726   6.398  1.00  0.00    -0.504 OA
ATOM     24  H   UNL     1      -4.931 -13.924   5.431  1.00  0.00     0.293 HD
ENDBRANCH  20  23
ENDBRANCH  14  15
ENDBRANCH  12  14
ENDBRANCH   9  10
ENDBRANCH   1   9
TORSDOF 10
ENDMDL
MODEL 9
REMARK VINA RESULT:    -6.936      3.229      9.161
REMARK INTER + INTRA:         -11.311
REMARK INTER:                 -11.109
REMARK INTRA:                  -0.202
REMARK UNBOUND:                -0.523
REMARK SMILES COc1cc(CNC(=O)CCCCC=CC(C)C)ccc1O
REMARK SMILES IDX 11 1 12 2 13 3 14 4 15 5 16 6 17 7 18 8 10 9 8 10 9 11 7 12
REMARK SMILES IDX 6 14 5 15 4 16 19 17 3 18 20 19 21 20 2 21 1 22 22 23
REMARK H PARENT 7 13 22 24
REMARK Flexibility Score: inf
ROOT
ATOM      1  C   UNL     1      -2.960 -15.373  13.353  1.00  0.00     0.010 C 
ENDROOT
BRANCH   1   2
ATOM      2  C   UNL     1      -2.018 -16.588  13.382  1.00  0.00     0.005 C 
BRANCH   2   3
ATOM      3  C   UNL     1      -1.627 -17.004  14.808  1.00  0.00     0.027 C 
BRANCH   3   4
ATOM      4  C   UNL     1      -0.352 -17.799  14.806  1.00  0.00    -0.031 C 
ATOM      5  C   UNL     1       0.545 -17.688  15.801  1.00  0.00    -0.028 C 
BRANCH   5   6
ATOM      6  C   UNL     1       1.839 -18.469  15.828  1.00  0.00     0.005 C 
ATOM      7  C   UNL     1       2.925 -17.728  16.620  1.00  0.00     0.012 C 
ATOM      8  C   UNL     1       2.316 -18.803  14.410  1.00  0.00     0.012 C 
ENDBRANCH   5   6
ENDBRANCH   3   4
ENDBRANCH   2   3
ENDBRANCH   1   2
BRANCH   1   9
ATOM      9  C   UNL     1      -2.256 -14.086  12.904  1.00  0.00     0.100 C 
BRANCH   9  10
ATOM     10  C   UNL     1      -1.987 -14.124  11.430  1.00  0.00     0.220 C 
ATOM     11  O   UNL     1      -2.359 -13.161  10.707  1.00  0.00    -0.275 OA
ATOM     12  N   UNL     1      -1.355 -15.270  10.843  1.00  0.00    -0.352 N 
ATOM     13  H   UNL     1      -1.111 -16.083  11.453  1.00  0.00     0.163 HD
BRANCH  12  14
ATOM     14  C   UNL     1      -1.045 -15.350   9.417  1.00  0.00     0.151 C 
BRANCH  14  15
ATOM     15  C   UNL     1      -2.258 -15.789   8.641  1.00  0.00    -0.025 A 
ATOM     16  C   UNL     1      -2.959 -14.863   7.853  1.00  0.00     0.056 A 
ATOM     17  C   UNL     1      -2.715 -17.113   8.721  1.00  0.00     0.009 A 
ATOM     18  C   UNL     1      -4.111 -15.254   7.142  1.00  0.00     0.160 A 
ATOM     19  C   UNL     1      -3.853 -17.508   8.015  1.00  0.00     0.050 A 
ATOM     20  C   UNL     1      -4.552 -16.584   7.225  1.00  0.00     0.157 A 
BRANCH  18  21
ATOM     21  O   UNL     1      -4.843 -14.357   6.349  1.00  0.00    -0.493 OA
ATOM     22  C   UNL     1      -5.445 -13.162   6.832  1.00  0.00     0.278 C 
ENDBRANCH  18  21
BRANCH  20  23
ATOM     23  O   UNL     1      -5.688 -16.979   6.520  1.00  0.00    -0.504 OA
ATOM     24  H   UNL     1      -5.741 -17.884   6.065  1.00  0.00     0.293 HD
ENDBRANCH  20  23
ENDBRANCH  14  15
ENDBRANCH  12  14
ENDBRANCH   9  10
ENDBRANCH   1   9
TORSDOF 10
ENDMDL
