MODEL 1
REMARK VINA RESULT:    10.542      0.000      0.000
REMARK INTER + INTRA:          10.542
REMARK INTER:                  10.542
REMARK INTRA:                   0.000
REMARK UNBOUND:                 0.000
REMARK SMILES CC1(C)O[C@]2(C)CC[C@H]1CC2
REMARK SMILES IDX 1 1 2 2 9 3 8 4 7 5 5 6 4 7 11 8 10 9 6 10 3 11
REMARK H PARENT
REMARK Flexibility Score: inf
ROOT
ATOM      1  C   UNL     1      15.107  54.564  64.251  1.00  0.00     0.042 C 
ATOM      2  C   UNL     1      14.758  54.400  62.756  1.00  0.00     0.066 C 
ATOM      3  C   UNL     1      15.894  55.012  61.848  1.00  0.00     0.021 C 
ATOM      4  C   UNL     1      15.518  54.775  60.366  1.00  0.00     0.009 C 
ATOM      5  C   UNL     1      15.189  53.277  60.159  1.00  0.00     0.035 C 
ATOM      6  C   UNL     1      15.434  52.495  61.482  1.00  0.00     0.066 C 
ATOM      7  O   UNL     1      14.563  53.002  62.493  1.00  0.00    -0.369 OA
ATOM      8  C   UNL     1      16.911  52.705  61.927  1.00  0.00     0.035 C 
ATOM      9  C   UNL     1      17.198  54.217  62.093  1.00  0.00     0.009 C 
ATOM     10  C   UNL     1      15.144  51.004  61.283  1.00  0.00     0.042 C 
ATOM     11  C   UNL     1      13.417  55.125  62.515  1.00  0.00     0.042 C 
ENDROOT
TORSDOF 0
ENDMDL
MODEL 2
REMARK VINA RESULT:    12.102      1.346      1.873
REMARK INTER + INTRA:          12.102
REMARK INTER:                  12.102
REMARK INTRA:                   0.000
REMARK UNBOUND:                 0.000
REMARK SMILES CC1(C)O[C@]2(C)CC[C@H]1CC2
REMARK SMILES IDX 1 1 2 2 9 3 8 4 7 5 5 6 4 7 11 8 10 9 6 10 3 11
REMARK H PARENT
REMARK Flexibility Score: inf
ROOT
ATOM      1  C   UNL     1      16.631  54.145  62.664  1.00  0.00     0.042 C 
ATOM      2  C   UNL     1      15.620  53.642  61.611  1.00  0.00     0.066 C 
ATOM      3  C   UNL     1      16.346  53.327  60.246  1.00  0.00     0.021 C 
ATOM      4  C   UNL     1      15.298  52.780  59.248  1.00  0.00     0.009 C 
ATOM      5  C   UNL     1      14.524  51.616  59.913  1.00  0.00     0.035 C 
ATOM      6  C   UNL     1      15.116  51.324  61.321  1.00  0.00     0.066 C 
ATOM      7  O   UNL     1      14.962  52.482  62.143  1.00  0.00    -0.369 OA
ATOM      8  C   UNL     1      16.631  50.999  61.175  1.00  0.00     0.035 C 
ATOM      9  C   UNL     1      17.355  52.179  60.482  1.00  0.00     0.009 C 
ATOM     10  C   UNL     1      14.381  50.152  61.977  1.00  0.00     0.042 C 
ATOM     11  C   UNL     1      14.561  54.750  61.424  1.00  0.00     0.042 C 
ENDROOT
TORSDOF 0
ENDMDL
MODEL 3
REMARK VINA RESULT:    12.533      1.513      2.999
REMARK INTER + INTRA:          12.533
REMARK INTER:                  12.533
REMARK INTRA:                   0.000
REMARK UNBOUND:                 0.000
REMARK SMILES CC1(C)O[C@]2(C)CC[C@H]1CC2
REMARK SMILES IDX 1 1 2 2 9 3 8 4 7 5 5 6 4 7 11 8 10 9 6 10 3 11
REMARK H PARENT
REMARK Flexibility Score: inf
ROOT
ATOM      1  C   UNL     1      14.984  54.737  60.967  1.00  0.00     0.042 C 
ATOM      2  C   UNL     1      15.199  53.366  61.644  1.00  0.00     0.066 C 
ATOM      3  C   UNL     1      14.366  52.245  60.910  1.00  0.00     0.021 C 
ATOM      4  C   UNL     1      14.658  50.889  61.595  1.00  0.00     0.009 C 
ATOM      5  C   UNL     1      16.189  50.681  61.677  1.00  0.00     0.035 C 
ATOM      6  C   UNL     1      16.920  51.855  60.963  1.00  0.00     0.066 C 
ATOM      7  O   UNL     1      16.605  53.077  61.631  1.00  0.00    -0.369 OA
ATOM      8  C   UNL     1      16.427  51.935  59.490  1.00  0.00     0.035 C 
ATOM      9  C   UNL     1      14.890  52.115  59.460  1.00  0.00     0.009 C 
ATOM     10  C   UNL     1      18.437  51.645  61.007  1.00  0.00     0.042 C 
ATOM     11  C   UNL     1      14.751  53.504  63.115  1.00  0.00     0.042 C 
ENDROOT
TORSDOF 0
ENDMDL
MODEL 4
REMARK VINA RESULT:    13.037      1.379      2.847
REMARK INTER + INTRA:          13.037
REMARK INTER:                  13.037
REMARK INTRA:                   0.000
REMARK UNBOUND:                 0.000
REMARK SMILES CC1(C)O[C@]2(C)CC[C@H]1CC2
REMARK SMILES IDX 1 1 2 2 9 3 8 4 7 5 5 6 4 7 11 8 10 9 6 10 3 11
REMARK H PARENT
REMARK Flexibility Score: inf
ROOT
ATOM      1  C   UNL     1      14.432  53.622  62.851  1.00  0.00     0.042 C 
ATOM      2  C   UNL     1      15.655  53.413  61.932  1.00  0.00     0.066 C 
ATOM      3  C   UNL     1      16.246  51.962  62.112  1.00  0.00     0.021 C 
ATOM      4  C   UNL     1      17.432  51.792  61.132  1.00  0.00     0.009 C 
ATOM      5  C   UNL     1      16.975  52.188  59.708  1.00  0.00     0.035 C 
ATOM      6  C   UNL     1      15.459  52.536  59.718  1.00  0.00     0.066 C 
ATOM      7  O   UNL     1      15.241  53.655  60.578  1.00  0.00    -0.369 OA
ATOM      8  C   UNL     1      14.664  51.312  60.258  1.00  0.00     0.035 C 
ATOM      9  C   UNL     1      15.175  50.937  61.670  1.00  0.00     0.009 C 
ATOM     10  C   UNL     1      14.986  52.899  58.307  1.00  0.00     0.042 C 
ATOM     11  C   UNL     1      16.702  54.481  62.311  1.00  0.00     0.042 C 
ENDROOT
TORSDOF 0
ENDMDL
MODEL 5
REMARK VINA RESULT:    13.240      1.046      2.194
REMARK INTER + INTRA:          13.240
REMARK INTER:                  13.240
REMARK INTRA:                   0.000
REMARK UNBOUND:                 0.000
REMARK SMILES CC1(C)O[C@]2(C)CC[C@H]1CC2
REMARK SMILES IDX 1 1 2 2 9 3 8 4 7 5 5 6 4 7 11 8 10 9 6 10 3 11
REMARK H PARENT
REMARK Flexibility Score: inf
ROOT
ATOM      1  C   UNL     1      17.369  55.124  62.384  1.00  0.00     0.042 C 
ATOM      2  C   UNL     1      16.131  54.280  62.757  1.00  0.00     0.066 C 
ATOM      3  C   UNL     1      14.847  54.817  62.014  1.00  0.00     0.021 C 
ATOM      4  C   UNL     1      13.651  53.906  62.383  1.00  0.00     0.009 C 
ATOM      5  C   UNL     1      14.040  52.430  62.128  1.00  0.00     0.035 C 
ATOM      6  C   UNL     1      15.462  52.360  61.502  1.00  0.00     0.066 C 
ATOM      7  O   UNL     1      16.406  52.912  62.421  1.00  0.00    -0.369 OA
ATOM      8  C   UNL     1      15.479  53.195  60.189  1.00  0.00     0.035 C 
ATOM      9  C   UNL     1      15.057  54.653  60.490  1.00  0.00     0.009 C 
ATOM     10  C   UNL     1      15.847  50.905  61.213  1.00  0.00     0.042 C 
ATOM     11  C   UNL     1      15.956  54.372  64.287  1.00  0.00     0.042 C 
ENDROOT
TORSDOF 0
ENDMDL
MODEL 6
REMARK VINA RESULT:    13.307      1.866      3.439
REMARK INTER + INTRA:          13.307
REMARK INTER:                  13.307
REMARK INTRA:                   0.000
REMARK UNBOUND:                 0.000
REMARK SMILES CC1(C)O[C@]2(C)CC[C@H]1CC2
REMARK SMILES IDX 1 1 2 2 9 3 8 4 7 5 5 6 4 7 11 8 10 9 6 10 3 11
REMARK H PARENT
REMARK Flexibility Score: inf
ROOT
ATOM      1  C   UNL     1      18.212  51.682  59.946  1.00  0.00     0.042 C 
ATOM      2  C   UNL     1      17.196  52.152  61.010  1.00  0.00     0.066 C 
ATOM      3  C   UNL     1      16.156  53.158  60.382  1.00  0.00     0.021 C 
ATOM      4  C   UNL     1      15.136  53.554  61.475  1.00  0.00     0.009 C 
ATOM      5  C   UNL     1      14.562  52.271  62.124  1.00  0.00     0.035 C 
ATOM      6  C   UNL     1      15.131  51.016  61.402  1.00  0.00     0.066 C 
ATOM      7  O   UNL     1      16.551  50.991  61.554  1.00  0.00    -0.369 OA
ATOM      8  C   UNL     1      14.781  51.102  59.888  1.00  0.00     0.035 C 
ATOM      9  C   UNL     1      15.350  52.413  59.292  1.00  0.00     0.009 C 
ATOM     10  C   UNL     1      14.546  49.739  62.012  1.00  0.00     0.042 C 
ATOM     11  C   UNL     1      17.997  52.830  62.142  1.00  0.00     0.042 C 
ENDROOT
TORSDOF 0
ENDMDL
MODEL 7
REMARK VINA RESULT:    13.323      1.847      3.538
REMARK INTER + INTRA:          13.323
REMARK INTER:                  13.323
REMARK INTRA:                   0.000
REMARK UNBOUND:                 0.000
REMARK SMILES CC1(C)O[C@]2(C)CC[C@H]1CC2
REMARK SMILES IDX 1 1 2 2 9 3 8 4 7 5 5 6 4 7 11 8 10 9 6 10 3 11
REMARK H PARENT
REMARK Flexibility Score: inf
ROOT
ATOM      1  C   UNL     1      14.389  51.751  58.665  1.00  0.00     0.042 C 
ATOM      2  C   UNL     1      15.165  52.627  59.673  1.00  0.00     0.066 C 
ATOM      3  C   UNL     1      14.589  52.442  61.130  1.00  0.00     0.021 C 
ATOM      4  C   UNL     1      15.434  53.299  62.102  1.00  0.00     0.009 C 
ATOM      5  C   UNL     1      16.933  52.974  61.896  1.00  0.00     0.035 C 
ATOM      6  C   UNL     1      17.085  51.832  60.851  1.00  0.00     0.066 C 
ATOM      7  O   UNL     1      16.553  52.269  59.599  1.00  0.00    -0.369 OA
ATOM      8  C   UNL     1      16.288  50.589  61.340  1.00  0.00     0.035 C 
ATOM      9  C   UNL     1      14.804  50.971  61.558  1.00  0.00     0.009 C 
ATOM     10  C   UNL     1      18.563  51.476  60.661  1.00  0.00     0.042 C 
ATOM     11  C   UNL     1      15.023  54.094  59.212  1.00  0.00     0.042 C 
ENDROOT
TORSDOF 0
ENDMDL
