MODEL 1
REMARK VINA RESULT:    -7.002      0.000      0.000
REMARK INTER + INTRA:          -8.092
REMARK INTER:                  -7.616
REMARK INTRA:                  -0.476
REMARK UNBOUND:                -0.476
REMARK SMILES C=C(C)[C@H]1CC[C@]2(C)CC[C@]3(C)[C@@H](CC[C@H]4[C@@]5(C)CC[C@@H](O)C(C)(C)[C@H]5CC[C@@]43C)[C@@H]12
REMARK SMILES IDX 4 1 5 2 6 3 7 4 31 5 13 6 14 7 15 8 16 9 17 10 19 11 20 12
REMARK SMILES IDX 21 13 23 14 26 15 27 16 28 17 29 18 11 19 10 20 9 21 12 22
REMARK SMILES IDX 30 23 24 24 25 25 18 26 8 27 2 28 3 29 1 30 22 31
REMARK H PARENT 22 32
REMARK Flexibility Score: inf
ROOT
ATOM      1  C   UNL     1     -14.933  19.865 -27.260  1.00  0.00     0.018 C 
ATOM      2  C   UNL     1     -16.475  19.887 -27.127  1.00  0.00     0.009 C 
ATOM      3  C   UNL     1     -16.785  20.092 -25.634  1.00  0.00     0.008 C 
ATOM      4  C   UNL     1     -15.591  19.479 -24.880  1.00  0.00    -0.029 C 
ATOM      5  C   UNL     1     -14.418  19.868 -25.799  1.00  0.00     0.006 C 
ATOM      6  C   UNL     1     -12.992  19.410 -25.353  1.00  0.00    -0.000 C 
ATOM      7  C   UNL     1     -12.679  17.917 -25.688  1.00  0.00     0.005 C 
ATOM      8  C   UNL     1     -11.450  17.324 -24.996  1.00  0.00     0.005 C 
ATOM      9  C   UNL     1     -11.492  17.627 -23.488  1.00  0.00     0.002 C 
ATOM     10  C   UNL     1     -10.657  16.642 -22.550  1.00  0.00    -0.026 C 
ATOM     11  C   UNL     1      -9.150  16.640 -22.905  1.00  0.00     0.010 C 
ATOM     12  C   UNL     1      -8.322  15.652 -22.073  1.00  0.00     0.033 C 
ATOM     13  C   UNL     1      -8.741  15.572 -20.579  1.00  0.00     0.120 C 
ATOM     14  C   UNL     1      -9.592  16.781 -20.058  1.00  0.00    -0.006 C 
ATOM     15  C   UNL     1     -10.855  17.005 -21.012  1.00  0.00     0.003 C 
ATOM     16  C   UNL     1     -11.594  18.353 -20.789  1.00  0.00     0.005 C 
ATOM     17  C   UNL     1     -11.132  19.469 -21.734  1.00  0.00     0.008 C 
ATOM     18  C   UNL     1     -11.368  19.187 -23.261  1.00  0.00    -0.024 C 
ATOM     19  C   UNL     1     -12.697  19.906 -23.849  1.00  0.00    -0.024 C 
ATOM     20  C   UNL     1     -13.958  19.688 -22.911  1.00  0.00     0.008 C 
ATOM     21  C   UNL     1     -15.336  20.112 -23.494  1.00  0.00     0.007 C 
ATOM     22  C   UNL     1     -12.462  21.462 -23.892  1.00  0.00     0.012 C 
ATOM     23  C   UNL     1     -10.123  19.788 -24.017  1.00  0.00     0.012 C 
ATOM     24  C   UNL     1     -10.101  16.415 -18.634  1.00  0.00     0.014 C 
ATOM     25  C   UNL     1      -8.697  18.044 -19.883  1.00  0.00     0.014 C 
ATOM     26  C   UNL     1     -11.206  15.191 -22.794  1.00  0.00     0.012 C 
ATOM     27  C   UNL     1     -15.873  17.961 -24.704  1.00  0.00     0.011 C 
ENDROOT
BRANCH   1  28
ATOM     28  C   UNL     1     -14.344  18.832 -28.221  1.00  0.00    -0.077 C 
ATOM     29  C   UNL     1     -14.982  17.465 -28.295  1.00  0.00     0.039 C 
ATOM     30  C   UNL     1     -13.253  19.054 -28.978  1.00  0.00     0.008 C 
ENDBRANCH   1  28
BRANCH  13  31
ATOM     31  O   UNL     1      -7.629  15.314 -19.752  1.00  0.00    -0.393 OA
ATOM     32  H   UNL     1      -7.957  15.054 -18.850  1.00  0.00     0.210 HD
ENDBRANCH  13  31
TORSDOF 2
ENDMDL
MODEL 2
REMARK VINA RESULT:    -6.688      2.196      3.569
REMARK INTER + INTRA:          -7.750
REMARK INTER:                  -7.235
REMARK INTRA:                  -0.515
REMARK UNBOUND:                -0.476
REMARK SMILES C=C(C)[C@H]1CC[C@]2(C)CC[C@]3(C)[C@@H](CC[C@H]4[C@@]5(C)CC[C@@H](O)C(C)(C)[C@H]5CC[C@@]43C)[C@@H]12
REMARK SMILES IDX 4 1 5 2 6 3 7 4 31 5 13 6 14 7 15 8 16 9 17 10 19 11 20 12
REMARK SMILES IDX 21 13 23 14 26 15 27 16 28 17 29 18 11 19 10 20 9 21 12 22
REMARK SMILES IDX 30 23 24 24 25 25 18 26 8 27 2 28 3 29 1 30 22 31
REMARK H PARENT 22 32
REMARK Flexibility Score: inf
ROOT
ATOM      1  C   UNL     1     -11.816  17.513 -26.975  1.00  0.00     0.018 C 
ATOM      2  C   UNL     1     -12.882  18.199 -27.863  1.00  0.00     0.009 C 
ATOM      3  C   UNL     1     -13.234  19.532 -27.178  1.00  0.00     0.008 C 
ATOM      4  C   UNL     1     -12.991  19.296 -25.677  1.00  0.00    -0.029 C 
ATOM      5  C   UNL     1     -11.740  18.400 -25.707  1.00  0.00     0.006 C 
ATOM      6  C   UNL     1     -11.170  17.938 -24.327  1.00  0.00    -0.000 C 
ATOM      7  C   UNL     1     -11.943  16.734 -23.700  1.00  0.00     0.005 C 
ATOM      8  C   UNL     1     -11.651  16.452 -22.224  1.00  0.00     0.005 C 
ATOM      9  C   UNL     1     -11.753  17.750 -21.405  1.00  0.00     0.002 C 
ATOM     10  C   UNL     1     -12.053  17.576 -19.848  1.00  0.00    -0.026 C 
ATOM     11  C   UNL     1     -10.955  16.750 -19.133  1.00  0.00     0.010 C 
ATOM     12  C   UNL     1     -11.242  16.499 -17.647  1.00  0.00     0.033 C 
ATOM     13  C   UNL     1     -11.869  17.711 -16.906  1.00  0.00     0.120 C 
ATOM     14  C   UNL     1     -11.700  19.094 -17.626  1.00  0.00    -0.006 C 
ATOM     15  C   UNL     1     -12.225  18.988 -19.132  1.00  0.00     0.003 C 
ATOM     16  C   UNL     1     -11.825  20.187 -20.034  1.00  0.00     0.005 C 
ATOM     17  C   UNL     1     -10.544  19.945 -20.842  1.00  0.00     0.008 C 
ATOM     18  C   UNL     1     -10.613  18.749 -21.857  1.00  0.00    -0.024 C 
ATOM     19  C   UNL     1     -10.905  19.217 -23.382  1.00  0.00    -0.024 C 
ATOM     20  C   UNL     1     -12.101  20.256 -23.469  1.00  0.00     0.008 C 
ATOM     21  C   UNL     1     -12.634  20.580 -24.894  1.00  0.00     0.007 C 
ATOM     22  C   UNL     1      -9.642  19.972 -23.937  1.00  0.00     0.012 C 
ATOM     23  C   UNL     1      -9.195  18.065 -21.829  1.00  0.00     0.012 C 
ATOM     24  C   UNL     1     -12.577  20.128 -16.863  1.00  0.00     0.014 C 
ATOM     25  C   UNL     1     -10.232  19.600 -17.500  1.00  0.00     0.014 C 
ATOM     26  C   UNL     1     -13.403  16.784 -19.720  1.00  0.00     0.012 C 
ATOM     27  C   UNL     1     -14.286  18.678 -25.081  1.00  0.00     0.011 C 
ENDROOT
BRANCH   1  28
ATOM     28  C   UNL     1     -11.957  16.003 -26.780  1.00  0.00    -0.077 C 
ATOM     29  C   UNL     1     -10.706  15.159 -26.728  1.00  0.00     0.039 C 
ATOM     30  C   UNL     1     -13.142  15.369 -26.699  1.00  0.00     0.008 C 
ENDBRANCH   1  28
BRANCH  13  31
ATOM     31  O   UNL     1     -11.447  17.761 -15.563  1.00  0.00    -0.393 OA
ATOM     32  H   UNL     1     -10.484  18.008 -15.540  1.00  0.00     0.210 HD
ENDBRANCH  13  31
TORSDOF 2
ENDMDL
MODEL 3
REMARK VINA RESULT:    -6.667      2.673      7.763
REMARK INTER + INTRA:          -7.727
REMARK INTER:                  -7.250
REMARK INTRA:                  -0.477
REMARK UNBOUND:                -0.476
REMARK SMILES C=C(C)[C@H]1CC[C@]2(C)CC[C@]3(C)[C@@H](CC[C@H]4[C@@]5(C)CC[C@@H](O)C(C)(C)[C@H]5CC[C@@]43C)[C@@H]12
REMARK SMILES IDX 4 1 5 2 6 3 7 4 31 5 13 6 14 7 15 8 16 9 17 10 19 11 20 12
REMARK SMILES IDX 21 13 23 14 26 15 27 16 28 17 29 18 11 19 10 20 9 21 12 22
REMARK SMILES IDX 30 23 24 24 25 25 18 26 8 27 2 28 3 29 1 30 22 31
REMARK H PARENT 22 32
REMARK Flexibility Score: inf
ROOT
ATOM      1  C   UNL     1      -9.171  18.667 -19.275  1.00  0.00     0.018 C 
ATOM      2  C   UNL     1      -8.319  17.407 -18.989  1.00  0.00     0.009 C 
ATOM      3  C   UNL     1      -8.131  16.688 -20.337  1.00  0.00     0.008 C 
ATOM      4  C   UNL     1      -9.372  17.051 -21.171  1.00  0.00    -0.029 C 
ATOM      5  C   UNL     1      -9.600  18.516 -20.756  1.00  0.00     0.006 C 
ATOM      6  C   UNL     1     -10.809  19.255 -21.415  1.00  0.00    -0.000 C 
ATOM      7  C   UNL     1     -12.185  18.918 -20.757  1.00  0.00     0.005 C 
ATOM      8  C   UNL     1     -13.424  19.342 -21.550  1.00  0.00     0.005 C 
ATOM      9  C   UNL     1     -13.304  18.877 -23.012  1.00  0.00     0.002 C 
ATOM     10  C   UNL     1     -14.674  18.708 -23.810  1.00  0.00    -0.026 C 
ATOM     11  C   UNL     1     -15.468  20.035 -23.888  1.00  0.00     0.010 C 
ATOM     12  C   UNL     1     -16.827  19.900 -24.587  1.00  0.00     0.033 C 
ATOM     13  C   UNL     1     -16.816  18.959 -25.822  1.00  0.00     0.120 C 
ATOM     14  C   UNL     1     -15.399  18.663 -26.425  1.00  0.00    -0.006 C 
ATOM     15  C   UNL     1     -14.422  18.137 -25.275  1.00  0.00     0.003 C 
ATOM     16  C   UNL     1     -12.921  18.110 -25.674  1.00  0.00     0.005 C 
ATOM     17  C   UNL     1     -12.153  19.370 -25.255  1.00  0.00     0.008 C 
ATOM     18  C   UNL     1     -12.101  19.633 -23.707  1.00  0.00    -0.024 C 
ATOM     19  C   UNL     1     -10.714  19.150 -23.020  1.00  0.00    -0.024 C 
ATOM     20  C   UNL     1     -10.297  17.689 -23.478  1.00  0.00     0.008 C 
ATOM     21  C   UNL     1      -9.129  17.025 -22.697  1.00  0.00     0.007 C 
ATOM     22  C   UNL     1      -9.550  20.095 -23.496  1.00  0.00     0.012 C 
ATOM     23  C   UNL     1     -12.210  21.193 -23.522  1.00  0.00     0.012 C 
ATOM     24  C   UNL     1     -15.568  17.541 -27.489  1.00  0.00     0.014 C 
ATOM     25  C   UNL     1     -14.862  19.907 -27.194  1.00  0.00     0.014 C 
ATOM     26  C   UNL     1     -15.551  17.675 -23.016  1.00  0.00     0.012 C 
ATOM     27  C   UNL     1     -10.493  16.036 -20.816  1.00  0.00     0.011 C 
ENDROOT
BRANCH   1  28
ATOM     28  C   UNL     1     -10.253  19.007 -18.250  1.00  0.00    -0.077 C 
ATOM     29  C   UNL     1     -11.020  17.878 -17.604  1.00  0.00     0.039 C 
ATOM     30  C   UNL     1     -10.599  20.266 -17.920  1.00  0.00     0.008 C 
ENDBRANCH   1  28
BRANCH  13  31
ATOM     31  O   UNL     1     -17.725  19.398 -26.806  1.00  0.00    -0.393 OA
ATOM     32  H   UNL     1     -17.385  20.245 -27.200  1.00  0.00     0.210 HD
ENDBRANCH  13  31
TORSDOF 2
ENDMDL
MODEL 4
REMARK VINA RESULT:    -6.596     11.167     14.480
REMARK INTER + INTRA:          -7.650
REMARK INTER:                  -7.182
REMARK INTRA:                  -0.468
REMARK UNBOUND:                -0.476
REMARK SMILES C=C(C)[C@H]1CC[C@]2(C)CC[C@]3(C)[C@@H](CC[C@H]4[C@@]5(C)CC[C@@H](O)C(C)(C)[C@H]5CC[C@@]43C)[C@@H]12
REMARK SMILES IDX 4 1 5 2 6 3 7 4 31 5 13 6 14 7 15 8 16 9 17 10 19 11 20 12
REMARK SMILES IDX 21 13 23 14 26 15 27 16 28 17 29 18 11 19 10 20 9 21 12 22
REMARK SMILES IDX 30 23 24 24 25 25 18 26 8 27 2 28 3 29 1 30 22 31
REMARK H PARENT 22 32
REMARK Flexibility Score: inf
ROOT
ATOM      1  C   UNL     1     -17.660   5.322 -16.621  1.00  0.00     0.018 C 
ATOM      2  C   UNL     1     -19.074   5.948 -16.700  1.00  0.00     0.009 C 
ATOM      3  C   UNL     1     -19.481   5.933 -18.184  1.00  0.00     0.008 C 
ATOM      4  C   UNL     1     -18.160   6.014 -18.971  1.00  0.00    -0.029 C 
ATOM      5  C   UNL     1     -17.233   5.146 -18.101  1.00  0.00     0.006 C 
ATOM      6  C   UNL     1     -15.758   4.980 -18.590  1.00  0.00    -0.000 C 
ATOM      7  C   UNL     1     -14.842   6.198 -18.245  1.00  0.00     0.005 C 
ATOM      8  C   UNL     1     -13.496   6.244 -18.972  1.00  0.00     0.005 C 
ATOM      9  C   UNL     1     -13.700   6.028 -20.482  1.00  0.00     0.002 C 
ATOM     10  C   UNL     1     -12.556   6.602 -21.435  1.00  0.00    -0.026 C 
ATOM     11  C   UNL     1     -11.177   5.966 -21.134  1.00  0.00     0.010 C 
ATOM     12  C   UNL     1     -10.035   6.542 -21.981  1.00  0.00     0.033 C 
ATOM     13  C   UNL     1     -10.421   6.831 -23.457  1.00  0.00     0.120 C 
ATOM     14  C   UNL     1     -11.713   6.102 -23.965  1.00  0.00    -0.006 C 
ATOM     15  C   UNL     1     -12.928   6.397 -22.970  1.00  0.00     0.003 C 
ATOM     16  C   UNL     1     -14.167   5.486 -23.186  1.00  0.00     0.005 C 
ATOM     17  C   UNL     1     -14.188   4.253 -22.274  1.00  0.00     0.008 C 
ATOM     18  C   UNL     1     -14.245   4.565 -20.735  1.00  0.00    -0.024 C 
ATOM     19  C   UNL     1     -15.737   4.449 -20.111  1.00  0.00    -0.024 C 
ATOM     20  C   UNL     1     -16.816   5.199 -21.000  1.00  0.00     0.008 C 
ATOM     21  C   UNL     1     -18.229   5.370 -20.374  1.00  0.00     0.007 C 
ATOM     22  C   UNL     1     -16.171   2.936 -20.099  1.00  0.00     0.012 C 
ATOM     23  C   UNL     1     -13.345   3.480 -20.033  1.00  0.00     0.012 C 
ATOM     24  C   UNL     1     -12.060   6.686 -25.364  1.00  0.00     0.014 C 
ATOM     25  C   UNL     1     -11.431   4.586 -24.190  1.00  0.00     0.014 C 
ATOM     26  C   UNL     1     -12.443   8.142 -21.150  1.00  0.00     0.012 C 
ATOM     27  C   UNL     1     -17.788   7.515 -19.116  1.00  0.00     0.011 C 
ENDROOT
BRANCH   1  28
ATOM     28  C   UNL     1     -16.669   5.989 -15.668  1.00  0.00    -0.077 C 
ATOM     29  C   UNL     1     -16.705   7.491 -15.519  1.00  0.00     0.039 C 
ATOM     30  C   UNL     1     -15.727   5.315 -14.981  1.00  0.00     0.008 C 
ENDBRANCH   1  28
BRANCH  13  31
ATOM     31  O   UNL     1      -9.326   6.626 -24.320  1.00  0.00    -0.393 OA
ATOM     32  H   UNL     1      -8.701   5.980 -23.895  1.00  0.00     0.210 HD
ENDBRANCH  13  31
TORSDOF 2
ENDMDL
MODEL 5
REMARK VINA RESULT:    -6.517      4.381      7.280
REMARK INTER + INTRA:          -7.564
REMARK INTER:                  -7.089
REMARK INTRA:                  -0.475
REMARK UNBOUND:                -0.476
REMARK SMILES C=C(C)[C@H]1CC[C@]2(C)CC[C@]3(C)[C@@H](CC[C@H]4[C@@]5(C)CC[C@@H](O)C(C)(C)[C@H]5CC[C@@]43C)[C@@H]12
REMARK SMILES IDX 4 1 5 2 6 3 7 4 31 5 13 6 14 7 15 8 16 9 17 10 19 11 20 12
REMARK SMILES IDX 21 13 23 14 26 15 27 16 28 17 29 18 11 19 10 20 9 21 12 22
REMARK SMILES IDX 30 23 24 24 25 25 18 26 8 27 2 28 3 29 1 30 22 31
REMARK H PARENT 22 32
REMARK Flexibility Score: inf
ROOT
ATOM      1  C   UNL     1      -5.781  19.215 -24.154  1.00  0.00     0.018 C 
ATOM      2  C   UNL     1      -4.336  19.522 -23.691  1.00  0.00     0.009 C 
ATOM      3  C   UNL     1      -4.131  18.771 -22.363  1.00  0.00     0.008 C 
ATOM      4  C   UNL     1      -5.529  18.675 -21.726  1.00  0.00    -0.029 C 
ATOM      5  C   UNL     1      -6.413  18.447 -22.966  1.00  0.00     0.006 C 
ATOM      6  C   UNL     1      -7.948  18.293 -22.718  1.00  0.00    -0.000 C 
ATOM      7  C   UNL     1      -8.690  19.653 -22.514  1.00  0.00     0.005 C 
ATOM      8  C   UNL     1     -10.109  19.558 -21.948  1.00  0.00     0.005 C 
ATOM      9  C   UNL     1     -10.126  18.649 -20.707  1.00  0.00     0.002 C 
ATOM     10  C   UNL     1     -11.324  18.883 -19.681  1.00  0.00    -0.026 C 
ATOM     11  C   UNL     1     -12.707  18.665 -20.342  1.00  0.00     0.010 C 
ATOM     12  C   UNL     1     -13.890  18.950 -19.408  1.00  0.00     0.033 C 
ATOM     13  C   UNL     1     -13.675  18.473 -17.946  1.00  0.00     0.120 C 
ATOM     14  C   UNL     1     -12.536  17.411 -17.750  1.00  0.00    -0.006 C 
ATOM     15  C   UNL     1     -11.179  17.948 -18.400  1.00  0.00     0.003 C 
ATOM     16  C   UNL     1     -10.071  16.869 -18.550  1.00  0.00     0.005 C 
ATOM     17  C   UNL     1     -10.050  16.201 -19.930  1.00  0.00     0.008 C 
ATOM     18  C   UNL     1      -9.762  17.170 -21.133  1.00  0.00    -0.024 C 
ATOM     19  C   UNL     1      -8.219  17.135 -21.631  1.00  0.00    -0.024 C 
ATOM     20  C   UNL     1      -7.199  17.229 -20.420  1.00  0.00     0.008 C 
ATOM     21  C   UNL     1      -5.706  17.459 -20.789  1.00  0.00     0.007 C 
ATOM     22  C   UNL     1      -7.935  15.750 -22.322  1.00  0.00     0.012 C 
ATOM     23  C   UNL     1     -10.662  16.670 -22.325  1.00  0.00     0.012 C 
ATOM     24  C   UNL     1     -12.321  17.234 -16.219  1.00  0.00     0.014 C 
ATOM     25  C   UNL     1     -12.990  16.020 -18.284  1.00  0.00     0.014 C 
ATOM     26  C   UNL     1     -11.251  20.382 -19.215  1.00  0.00     0.012 C 
ATOM     27  C   UNL     1      -5.771  19.981 -20.920  1.00  0.00     0.011 C 
ENDROOT
BRANCH   1  28
ATOM     28  C   UNL     1      -6.570  20.381 -24.750  1.00  0.00    -0.077 C 
ATOM     29  C   UNL     1      -6.417  21.750 -24.132  1.00  0.00     0.039 C 
ATOM     30  C   UNL     1      -7.436  20.249 -25.773  1.00  0.00     0.008 C 
ENDBRANCH   1  28
BRANCH  13  31
ATOM     31  O   UNL     1     -14.888  18.058 -17.361  1.00  0.00    -0.393 OA
ATOM     32  H   UNL     1     -14.686  17.578 -16.514  1.00  0.00     0.210 HD
ENDBRANCH  13  31
TORSDOF 2
ENDMDL
MODEL 6
REMARK VINA RESULT:    -6.515      7.058      9.957
REMARK INTER + INTRA:          -7.562
REMARK INTER:                  -7.045
REMARK INTRA:                  -0.516
REMARK UNBOUND:                -0.476
REMARK SMILES C=C(C)[C@H]1CC[C@]2(C)CC[C@]3(C)[C@@H](CC[C@H]4[C@@]5(C)CC[C@@H](O)C(C)(C)[C@H]5CC[C@@]43C)[C@@H]12
REMARK SMILES IDX 4 1 5 2 6 3 7 4 31 5 13 6 14 7 15 8 16 9 17 10 19 11 20 12
REMARK SMILES IDX 21 13 23 14 26 15 27 16 28 17 29 18 11 19 10 20 9 21 12 22
REMARK SMILES IDX 30 23 24 24 25 25 18 26 8 27 2 28 3 29 1 30 22 31
REMARK H PARENT 22 32
REMARK Flexibility Score: inf
ROOT
ATOM      1  C   UNL     1     -11.303  17.477 -18.766  1.00  0.00     0.018 C 
ATOM      2  C   UNL     1     -10.948  18.850 -19.386  1.00  0.00     0.009 C 
ATOM      3  C   UNL     1     -11.533  19.921 -18.448  1.00  0.00     0.008 C 
ATOM      4  C   UNL     1     -12.753  19.260 -17.783  1.00  0.00    -0.029 C 
ATOM      5  C   UNL     1     -12.250  17.818 -17.587  1.00  0.00     0.006 C 
ATOM      6  C   UNL     1     -13.240  16.811 -16.917  1.00  0.00    -0.000 C 
ATOM      7  C   UNL     1     -14.314  16.240 -17.897  1.00  0.00     0.005 C 
ATOM      8  C   UNL     1     -15.494  15.518 -17.243  1.00  0.00     0.005 C 
ATOM      9  C   UNL     1     -16.082  16.379 -16.111  1.00  0.00     0.002 C 
ATOM     10  C   UNL     1     -17.601  16.087 -15.722  1.00  0.00    -0.026 C 
ATOM     11  C   UNL     1     -17.809  14.627 -15.249  1.00  0.00     0.010 C 
ATOM     12  C   UNL     1     -19.270  14.284 -14.932  1.00  0.00     0.033 C 
ATOM     13  C   UNL     1     -20.051  15.421 -14.220  1.00  0.00     0.120 C 
ATOM     14  C   UNL     1     -19.161  16.522 -13.544  1.00  0.00    -0.006 C 
ATOM     15  C   UNL     1     -18.117  17.100 -14.607  1.00  0.00     0.003 C 
ATOM     16  C   UNL     1     -16.982  17.959 -13.986  1.00  0.00     0.005 C 
ATOM     17  C   UNL     1     -15.702  17.166 -13.695  1.00  0.00     0.008 C 
ATOM     18  C   UNL     1     -15.012  16.531 -14.956  1.00  0.00    -0.024 C 
ATOM     19  C   UNL     1     -13.764  17.404 -15.513  1.00  0.00    -0.024 C 
ATOM     20  C   UNL     1     -14.119  18.945 -15.633  1.00  0.00     0.008 C 
ATOM     21  C   UNL     1     -13.092  19.835 -16.389  1.00  0.00     0.007 C 
ATOM     22  C   UNL     1     -12.578  17.318 -14.482  1.00  0.00     0.012 C 
ATOM     23  C   UNL     1     -14.452  15.133 -14.494  1.00  0.00     0.012 C 
ATOM     24  C   UNL     1     -20.103  17.674 -13.092  1.00  0.00     0.014 C 
ATOM     25  C   UNL     1     -18.503  15.970 -12.244  1.00  0.00     0.014 C 
ATOM     26  C   UNL     1     -18.462  16.293 -17.020  1.00  0.00     0.012 C 
ATOM     27  C   UNL     1     -13.971  19.459 -18.727  1.00  0.00     0.011 C 
ENDROOT
BRANCH   1  28
ATOM     28  C   UNL     1     -11.741  16.381 -19.737  1.00  0.00    -0.077 C 
ATOM     29  C   UNL     1     -11.302  14.960 -19.473  1.00  0.00     0.039 C 
ATOM     30  C   UNL     1     -12.463  16.615 -20.850  1.00  0.00     0.008 C 
ENDBRANCH   1  28
BRANCH  13  31
ATOM     31  O   UNL     1     -21.011  14.900 -13.329  1.00  0.00    -0.393 OA
ATOM     32  H   UNL     1     -21.200  15.581 -12.630  1.00  0.00     0.210 HD
ENDBRANCH  13  31
TORSDOF 2
ENDMDL
MODEL 7
REMARK VINA RESULT:    -6.493      2.970      7.722
REMARK INTER + INTRA:          -7.538
REMARK INTER:                  -7.029
REMARK INTRA:                  -0.508
REMARK UNBOUND:                -0.476
REMARK SMILES C=C(C)[C@H]1CC[C@]2(C)CC[C@]3(C)[C@@H](CC[C@H]4[C@@]5(C)CC[C@@H](O)C(C)(C)[C@H]5CC[C@@]43C)[C@@H]12
REMARK SMILES IDX 4 1 5 2 6 3 7 4 31 5 13 6 14 7 15 8 16 9 17 10 19 11 20 12
REMARK SMILES IDX 21 13 23 14 26 15 27 16 28 17 29 18 11 19 10 20 9 21 12 22
REMARK SMILES IDX 30 23 24 24 25 25 18 26 8 27 2 28 3 29 1 30 22 31
REMARK H PARENT 22 32
REMARK Flexibility Score: inf
ROOT
ATOM      1  C   UNL     1      -5.604  17.885 -21.984  1.00  0.00     0.018 C 
ATOM      2  C   UNL     1      -5.224  17.947 -20.485  1.00  0.00     0.009 C 
ATOM      3  C   UNL     1      -6.420  17.374 -19.703  1.00  0.00     0.008 C 
ATOM      4  C   UNL     1      -7.655  17.670 -20.572  1.00  0.00    -0.029 C 
ATOM      5  C   UNL     1      -7.092  17.452 -21.988  1.00  0.00     0.006 C 
ATOM      6  C   UNL     1      -8.080  17.663 -23.180  1.00  0.00    -0.000 C 
ATOM      7  C   UNL     1      -8.292  19.163 -23.561  1.00  0.00     0.005 C 
ATOM      8  C   UNL     1      -9.478  19.453 -24.484  1.00  0.00     0.005 C 
ATOM      9  C   UNL     1     -10.746  18.762 -23.953  1.00  0.00     0.002 C 
ATOM     10  C   UNL     1     -12.136  19.393 -24.415  1.00  0.00    -0.026 C 
ATOM     11  C   UNL     1     -12.299  19.375 -25.955  1.00  0.00     0.010 C 
ATOM     12  C   UNL     1     -13.593  20.037 -26.446  1.00  0.00     0.033 C 
ATOM     13  C   UNL     1     -14.833  19.747 -25.558  1.00  0.00     0.120 C 
ATOM     14  C   UNL     1     -14.696  18.511 -24.602  1.00  0.00    -0.006 C 
ATOM     15  C   UNL     1     -13.365  18.649 -23.728  1.00  0.00     0.003 C 
ATOM     16  C   UNL     1     -12.955  17.351 -22.979  1.00  0.00     0.005 C 
ATOM     17  C   UNL     1     -11.938  16.496 -23.745  1.00  0.00     0.008 C 
ATOM     18  C   UNL     1     -10.557  17.194 -24.020  1.00  0.00    -0.024 C 
ATOM     19  C   UNL     1      -9.399  16.761 -22.971  1.00  0.00    -0.024 C 
ATOM     20  C   UNL     1      -9.904  16.817 -21.468  1.00  0.00     0.008 C 
ATOM     21  C   UNL     1      -8.816  16.671 -20.367  1.00  0.00     0.007 C 
ATOM     22  C   UNL     1      -9.003  15.261 -23.233  1.00  0.00     0.012 C 
ATOM     23  C   UNL     1     -10.105  16.723 -25.454  1.00  0.00     0.012 C 
ATOM     24  C   UNL     1     -15.924  18.521 -23.646  1.00  0.00     0.014 C 
ATOM     25  C   UNL     1     -14.791  17.183 -25.410  1.00  0.00     0.014 C 
ATOM     26  C   UNL     1     -12.142  20.894 -23.954  1.00  0.00     0.012 C 
ATOM     27  C   UNL     1      -8.146  19.102 -20.222  1.00  0.00     0.011 C 
ENDROOT
BRANCH   1  28
ATOM     28  C   UNL     1      -5.210  19.089 -22.839  1.00  0.00    -0.077 C 
ATOM     29  C   UNL     1      -4.690  18.847 -24.236  1.00  0.00     0.039 C 
ATOM     30  C   UNL     1      -5.256  20.362 -22.401  1.00  0.00     0.008 C 
ENDBRANCH   1  28
BRANCH  13  31
ATOM     31  O   UNL     1     -16.010  19.688 -26.330  1.00  0.00    -0.393 OA
ATOM     32  H   UNL     1     -15.814  20.038 -27.239  1.00  0.00     0.210 HD
ENDBRANCH  13  31
TORSDOF 2
ENDMDL
MODEL 8
REMARK VINA RESULT:    -6.476      2.889      7.257
REMARK INTER + INTRA:          -7.520
REMARK INTER:                  -7.006
REMARK INTRA:                  -0.514
REMARK UNBOUND:                -0.476
REMARK SMILES C=C(C)[C@H]1CC[C@]2(C)CC[C@]3(C)[C@@H](CC[C@H]4[C@@]5(C)CC[C@@H](O)C(C)(C)[C@H]5CC[C@@]43C)[C@@H]12
REMARK SMILES IDX 4 1 5 2 6 3 7 4 31 5 13 6 14 7 15 8 16 9 17 10 19 11 20 12
REMARK SMILES IDX 21 13 23 14 26 15 27 16 28 17 29 18 11 19 10 20 9 21 12 22
REMARK SMILES IDX 30 23 24 24 25 25 18 26 8 27 2 28 3 29 1 30 22 31
REMARK H PARENT 22 32
REMARK Flexibility Score: inf
ROOT
ATOM      1  C   UNL     1     -12.154  19.431 -19.601  1.00  0.00     0.018 C 
ATOM      2  C   UNL     1     -10.743  19.282 -18.983  1.00  0.00     0.009 C 
ATOM      3  C   UNL     1      -9.735  19.536 -20.118  1.00  0.00     0.008 C 
ATOM      4  C   UNL     1     -10.457  19.109 -21.409  1.00  0.00    -0.029 C 
ATOM      5  C   UNL     1     -11.896  19.578 -21.122  1.00  0.00     0.006 C 
ATOM      6  C   UNL     1     -12.958  19.314 -22.238  1.00  0.00    -0.000 C 
ATOM      7  C   UNL     1     -13.502  17.850 -22.253  1.00  0.00     0.005 C 
ATOM      8  C   UNL     1     -14.284  17.444 -23.505  1.00  0.00     0.005 C 
ATOM      9  C   UNL     1     -13.496  17.827 -24.770  1.00  0.00     0.002 C 
ATOM     10  C   UNL     1     -13.842  17.001 -26.090  1.00  0.00    -0.026 C 
ATOM     11  C   UNL     1     -15.329  17.152 -26.496  1.00  0.00     0.010 C 
ATOM     12  C   UNL     1     -15.721  16.316 -27.722  1.00  0.00     0.033 C 
ATOM     13  C   UNL     1     -14.640  16.274 -28.835  1.00  0.00     0.120 C 
ATOM     14  C   UNL     1     -13.556  17.405 -28.758  1.00  0.00    -0.006 C 
ATOM     15  C   UNL     1     -12.900  17.426 -27.301  1.00  0.00     0.003 C 
ATOM     16  C   UNL     1     -12.049  18.691 -27.002  1.00  0.00     0.005 C 
ATOM     17  C   UNL     1     -12.827  19.796 -26.277  1.00  0.00     0.008 C 
ATOM     18  C   UNL     1     -13.380  19.401 -24.861  1.00  0.00    -0.024 C 
ATOM     19  C   UNL     1     -12.451  19.927 -23.639  1.00  0.00    -0.024 C 
ATOM     20  C   UNL     1     -10.914  19.619 -23.882  1.00  0.00     0.008 C 
ATOM     21  C   UNL     1      -9.963  19.847 -22.673  1.00  0.00     0.007 C 
ATOM     22  C   UNL     1     -12.564  21.494 -23.548  1.00  0.00     0.012 C 
ATOM     23  C   UNL     1     -14.786  20.097 -24.728  1.00  0.00     0.012 C 
ATOM     24  C   UNL     1     -12.451  17.066 -29.799  1.00  0.00     0.014 C 
ATOM     25  C   UNL     1     -14.160  18.771 -29.202  1.00  0.00     0.014 C 
ATOM     26  C   UNL     1     -13.588  15.484 -25.770  1.00  0.00     0.012 C 
ATOM     27  C   UNL     1     -10.237  17.582 -21.590  1.00  0.00     0.011 C 
ENDROOT
BRANCH   1  28
ATOM     28  C   UNL     1     -13.208  18.419 -19.152  1.00  0.00    -0.077 C 
ATOM     29  C   UNL     1     -14.624  18.896 -18.933  1.00  0.00     0.039 C 
ATOM     30  C   UNL     1     -12.937  17.126 -18.893  1.00  0.00     0.008 C 
ENDBRANCH   1  28
BRANCH  13  31
ATOM     31  O   UNL     1     -15.228  16.195 -30.114  1.00  0.00    -0.393 OA
ATOM     32  H   UNL     1     -15.389  17.117 -30.448  1.00  0.00     0.210 HD
ENDBRANCH  13  31
TORSDOF 2
ENDMDL
MODEL 9
REMARK VINA RESULT:    -6.449     11.530     14.426
REMARK INTER + INTRA:          -7.491
REMARK INTER:                  -7.023
REMARK INTRA:                  -0.468
REMARK UNBOUND:                -0.476
REMARK SMILES C=C(C)[C@H]1CC[C@]2(C)CC[C@]3(C)[C@@H](CC[C@H]4[C@@]5(C)CC[C@@H](O)C(C)(C)[C@H]5CC[C@@]43C)[C@@H]12
REMARK SMILES IDX 4 1 5 2 6 3 7 4 31 5 13 6 14 7 15 8 16 9 17 10 19 11 20 12
REMARK SMILES IDX 21 13 23 14 26 15 27 16 28 17 29 18 11 19 10 20 9 21 12 22
REMARK SMILES IDX 30 23 24 24 25 25 18 26 8 27 2 28 3 29 1 30 22 31
REMARK H PARENT 22 32
REMARK Flexibility Score: inf
ROOT
ATOM      1  C   UNL     1     -14.649   3.813 -25.849  1.00  0.00     0.018 C 
ATOM      2  C   UNL     1     -13.117   3.683 -25.663  1.00  0.00     0.009 C 
ATOM      3  C   UNL     1     -12.851   3.737 -24.148  1.00  0.00     0.008 C 
ATOM      4  C   UNL     1     -13.996   4.582 -23.562  1.00  0.00    -0.029 C 
ATOM      5  C   UNL     1     -15.184   4.130 -24.430  1.00  0.00     0.006 C 
ATOM      6  C   UNL     1     -16.570   4.785 -24.124  1.00  0.00    -0.000 C 
ATOM      7  C   UNL     1     -16.740   6.210 -24.741  1.00  0.00     0.005 C 
ATOM      8  C   UNL     1     -17.921   7.028 -24.212  1.00  0.00     0.005 C 
ATOM      9  C   UNL     1     -17.931   7.012 -22.674  1.00  0.00     0.002 C 
ATOM     10  C   UNL     1     -18.687   8.224 -21.964  1.00  0.00    -0.026 C 
ATOM     11  C   UNL     1     -20.181   8.290 -22.362  1.00  0.00     0.010 C 
ATOM     12  C   UNL     1     -20.929   9.485 -21.756  1.00  0.00     0.033 C 
ATOM     13  C   UNL     1     -20.529   9.809 -20.291  1.00  0.00     0.120 C 
ATOM     14  C   UNL     1     -19.799   8.650 -19.526  1.00  0.00    -0.006 C 
ATOM     15  C   UNL     1     -18.548   8.142 -20.380  1.00  0.00     0.003 C 
ATOM     16  C   UNL     1     -17.939   6.802 -19.885  1.00  0.00     0.005 C 
ATOM     17  C   UNL     1     -18.485   5.572 -20.620  1.00  0.00     0.008 C 
ATOM     18  C   UNL     1     -18.200   5.539 -22.165  1.00  0.00    -0.024 C 
ATOM     19  C   UNL     1     -16.933   4.609 -22.564  1.00  0.00    -0.024 C 
ATOM     20  C   UNL     1     -15.672   4.890 -21.643  1.00  0.00     0.008 C 
ATOM     21  C   UNL     1     -14.330   4.246 -22.091  1.00  0.00     0.007 C 
ATOM     22  C   UNL     1     -17.309   3.100 -22.324  1.00  0.00     0.012 C 
ATOM     23  C   UNL     1     -19.482   4.917 -22.836  1.00  0.00     0.012 C 
ATOM     24  C   UNL     1     -19.282   9.233 -18.179  1.00  0.00     0.014 C 
ATOM     25  C   UNL     1     -20.809   7.525 -19.148  1.00  0.00     0.014 C 
ATOM     26  C   UNL     1     -18.004   9.550 -22.456  1.00  0.00     0.012 C 
ATOM     27  C   UNL     1     -13.579   6.075 -23.662  1.00  0.00     0.011 C 
ENDROOT
BRANCH   1  28
ATOM     28  C   UNL     1     -15.125   4.693 -27.004  1.00  0.00    -0.077 C 
ATOM     29  C   UNL     1     -14.337   5.937 -27.340  1.00  0.00     0.039 C 
ATOM     30  C   UNL     1     -16.242   4.450 -27.716  1.00  0.00     0.008 C 
ENDBRANCH   1  28
BRANCH  13  31
ATOM     31  O   UNL     1     -21.625  10.313 -19.563  1.00  0.00    -0.393 OA
ATOM     32  H   UNL     1     -22.337  10.581 -20.202  1.00  0.00     0.210 HD
ENDBRANCH  13  31
TORSDOF 2
ENDMDL
