MODEL 1
REMARK VINA RESULT:    -4.248      0.000      0.000
REMARK INTER + INTRA:          -4.747
REMARK INTER:                  -4.621
REMARK INTRA:                  -0.126
REMARK UNBOUND:                -0.126
REMARK SMILES Cc1ccc(C(C)C)cc1O
REMARK SMILES IDX 1 1 2 2 10 3 9 4 5 5 4 6 3 7 11 8 6 10 7 11 8 12
REMARK H PARENT 11 9
REMARK Flexibility Score: inf
ROOT
ATOM      1  C   UNL     1     139.867 134.370 131.985  1.00  0.00     0.048 C 
ATOM      2  C   UNL     1     139.911 135.664 131.223  1.00  0.00    -0.009 A 
ATOM      3  C   UNL     1     140.380 135.691 129.898  1.00  0.00     0.118 A 
ATOM      4  C   UNL     1     140.419 136.902 129.192  1.00  0.00     0.050 A 
ATOM      5  C   UNL     1     139.993 138.097 129.796  1.00  0.00    -0.042 A 
ATOM      6  C   UNL     1     139.525 138.062 131.122  1.00  0.00     0.004 A 
ATOM      7  C   UNL     1     139.485 136.856 131.827  1.00  0.00     0.007 A 
ENDROOT
BRANCH   3   8
ATOM      8  O   UNL     1     140.807 134.512 129.285  1.00  0.00    -0.508 OA
ATOM      9  H   UNL     1     141.628 134.013 129.606  1.00  0.00     0.293 HD
ENDBRANCH   3   8
BRANCH   5  10
ATOM     10  C   UNL     1     140.042 139.400 129.018  1.00  0.00     0.013 C 
ATOM     11  C   UNL     1     141.192 139.393 128.002  1.00  0.00     0.012 C 
ATOM     12  C   UNL     1     140.147 140.603 129.962  1.00  0.00     0.012 C 
ENDBRANCH   5  10
TORSDOF 2
ENDMDL
MODEL 2
REMARK VINA RESULT:    -4.243      3.626      4.629
REMARK INTER + INTRA:          -4.741
REMARK INTER:                  -4.615
REMARK INTRA:                  -0.127
REMARK UNBOUND:                -0.126
REMARK SMILES Cc1ccc(C(C)C)cc1O
REMARK SMILES IDX 1 1 2 2 10 3 9 4 5 5 4 6 3 7 11 8 6 10 7 11 8 12
REMARK H PARENT 11 9
REMARK Flexibility Score: inf
ROOT
ATOM      1  C   UNL     1     140.814 139.858 131.922  1.00  0.00     0.048 C 
ATOM      2  C   UNL     1     139.534 139.920 131.137  1.00  0.00    -0.009 A 
ATOM      3  C   UNL     1     139.549 140.310 129.787  1.00  0.00     0.118 A 
ATOM      4  C   UNL     1     138.351 140.366 129.060  1.00  0.00     0.050 A 
ATOM      5  C   UNL     1     137.128 140.035 129.668  1.00  0.00    -0.042 A 
ATOM      6  C   UNL     1     137.122 139.646 131.020  1.00  0.00     0.004 A 
ATOM      7  C   UNL     1     138.314 139.589 131.746  1.00  0.00     0.007 A 
ENDROOT
BRANCH   3   8
ATOM      8  O   UNL     1     140.756 140.641 129.170  1.00  0.00    -0.508 OA
ATOM      9  H   UNL     1     141.469 139.945 128.989  1.00  0.00     0.293 HD
ENDBRANCH   3   8
BRANCH   5  10
ATOM     10  C   UNL     1     135.840 140.102 128.867  1.00  0.00     0.013 C 
ATOM     11  C   UNL     1     135.838 141.310 127.923  1.00  0.00     0.012 C 
ATOM     12  C   UNL     1     134.616 140.121 129.790  1.00  0.00     0.012 C 
ENDBRANCH   5  10
TORSDOF 2
ENDMDL
MODEL 3
REMARK VINA RESULT:    -4.241      3.671      4.672
REMARK INTER + INTRA:          -4.740
REMARK INTER:                  -4.613
REMARK INTRA:                  -0.127
REMARK UNBOUND:                -0.126
REMARK SMILES Cc1ccc(C(C)C)cc1O
REMARK SMILES IDX 1 1 2 2 10 3 9 4 5 5 4 6 3 7 11 8 6 10 7 11 8 12
REMARK H PARENT 11 9
REMARK Flexibility Score: inf
ROOT
ATOM      1  C   UNL     1     134.375 135.352 131.885  1.00  0.00     0.048 C 
ATOM      2  C   UNL     1     135.666 135.295 131.118  1.00  0.00    -0.009 A 
ATOM      3  C   UNL     1     135.672 134.897 129.770  1.00  0.00     0.118 A 
ATOM      4  C   UNL     1     136.881 134.846 129.061  1.00  0.00     0.050 A 
ATOM      5  C   UNL     1     138.093 135.189 129.683  1.00  0.00    -0.042 A 
ATOM      6  C   UNL     1     138.077 135.586 131.033  1.00  0.00     0.004 A 
ATOM      7  C   UNL     1     136.875 135.638 131.742  1.00  0.00     0.007 A 
ENDROOT
BRANCH   3   8
ATOM      8  O   UNL     1     134.477 134.554 129.138  1.00  0.00    -0.508 OA
ATOM      9  H   UNL     1     134.377 134.596 128.131  1.00  0.00     0.293 HD
ENDBRANCH   3   8
BRANCH   5  10
ATOM     10  C   UNL     1     139.392 135.128 128.900  1.00  0.00     0.013 C 
ATOM     11  C   UNL     1     139.391 133.949 127.920  1.00  0.00     0.012 C 
ATOM     12  C   UNL     1     140.601 135.061 129.842  1.00  0.00     0.012 C 
ENDBRANCH   5  10
TORSDOF 2
ENDMDL
MODEL 4
REMARK VINA RESULT:    -4.216      5.439      6.548
REMARK INTER + INTRA:          -4.712
REMARK INTER:                  -4.586
REMARK INTRA:                  -0.127
REMARK UNBOUND:                -0.126
REMARK SMILES Cc1ccc(C(C)C)cc1O
REMARK SMILES IDX 1 1 2 2 10 3 9 4 5 5 4 6 3 7 11 8 6 10 7 11 8 12
REMARK H PARENT 11 9
REMARK Flexibility Score: inf
ROOT
ATOM      1  C   UNL     1     135.389 140.836 131.856  1.00  0.00     0.048 C 
ATOM      2  C   UNL     1     135.331 139.552 131.078  1.00  0.00    -0.009 A 
ATOM      3  C   UNL     1     134.947 139.559 129.726  1.00  0.00     0.118 A 
ATOM      4  C   UNL     1     134.895 138.357 129.006  1.00  0.00     0.050 A 
ATOM      5  C   UNL     1     135.225 137.138 129.621  1.00  0.00    -0.042 A 
ATOM      6  C   UNL     1     135.608 137.139 130.975  1.00  0.00     0.004 A 
ATOM      7  C   UNL     1     135.661 138.335 131.695  1.00  0.00     0.007 A 
ENDROOT
BRANCH   3   8
ATOM      8  O   UNL     1     134.617 140.762 129.101  1.00  0.00    -0.508 OA
ATOM      9  H   UNL     1     134.607 140.851 128.092  1.00  0.00     0.293 HD
ENDBRANCH   3   8
BRANCH   5  10
ATOM     10  C   UNL     1     135.163 135.845 128.827  1.00  0.00     0.013 C 
ATOM     11  C   UNL     1     133.961 135.839 127.875  1.00  0.00     0.012 C 
ATOM     12  C   UNL     1     135.137 134.626 129.757  1.00  0.00     0.012 C 
ENDBRANCH   5  10
TORSDOF 2
ENDMDL
MODEL 5
REMARK VINA RESULT:    -3.932      1.849      2.597
REMARK INTER + INTRA:          -4.403
REMARK INTER:                  -4.277
REMARK INTRA:                  -0.126
REMARK UNBOUND:                -0.126
REMARK SMILES Cc1ccc(C(C)C)cc1O
REMARK SMILES IDX 1 1 2 2 10 3 9 4 5 5 4 6 3 7 11 8 6 10 7 11 8 12
REMARK H PARENT 11 9
REMARK Flexibility Score: inf
ROOT
ATOM      1  C   UNL     1     139.075 133.620 127.913  1.00  0.00     0.048 C 
ATOM      2  C   UNL     1     139.095 135.054 128.361  1.00  0.00    -0.009 A 
ATOM      3  C   UNL     1     140.069 135.498 129.271  1.00  0.00     0.118 A 
ATOM      4  C   UNL     1     140.082 136.838 129.686  1.00  0.00     0.050 A 
ATOM      5  C   UNL     1     139.127 137.747 129.201  1.00  0.00    -0.042 A 
ATOM      6  C   UNL     1     138.155 137.294 128.291  1.00  0.00     0.004 A 
ATOM      7  C   UNL     1     138.140 135.960 127.876  1.00  0.00     0.007 A 
ENDROOT
BRANCH   3   8
ATOM      8  O   UNL     1     141.025 134.607 129.761  1.00  0.00    -0.508 OA
ATOM      9  H   UNL     1     140.777 133.861 130.401  1.00  0.00     0.293 HD
ENDBRANCH   3   8
BRANCH   5  10
ATOM     10  C   UNL     1     139.155 139.194 129.661  1.00  0.00     0.013 C 
ATOM     11  C   UNL     1     137.818 139.889 129.378  1.00  0.00     0.012 C 
ATOM     12  C   UNL     1     140.321 139.955 129.017  1.00  0.00     0.012 C 
ENDBRANCH   5  10
TORSDOF 2
ENDMDL
MODEL 6
REMARK VINA RESULT:    -3.932      4.475      4.774
REMARK INTER + INTRA:          -4.403
REMARK INTER:                  -4.278
REMARK INTRA:                  -0.125
REMARK UNBOUND:                -0.126
REMARK SMILES Cc1ccc(C(C)C)cc1O
REMARK SMILES IDX 1 1 2 2 10 3 9 4 5 5 4 6 3 7 11 8 6 10 7 11 8 12
REMARK H PARENT 11 9
REMARK Flexibility Score: inf
ROOT
ATOM      1  C   UNL     1     137.517 134.456 129.248  1.00  0.00     0.048 C 
ATOM      2  C   UNL     1     136.827 135.784 129.372  1.00  0.00    -0.009 A 
ATOM      3  C   UNL     1     135.424 135.858 129.359  1.00  0.00     0.118 A 
ATOM      4  C   UNL     1     134.786 137.101 129.476  1.00  0.00     0.050 A 
ATOM      5  C   UNL     1     135.536 138.282 129.606  1.00  0.00    -0.042 A 
ATOM      6  C   UNL     1     136.941 138.200 129.617  1.00  0.00     0.004 A 
ATOM      7  C   UNL     1     137.578 136.962 129.502  1.00  0.00     0.007 A 
ENDROOT
BRANCH   3   8
ATOM      8  O   UNL     1     134.665 134.694 129.231  1.00  0.00    -0.508 OA
ATOM      9  H   UNL     1     134.034 134.387 129.962  1.00  0.00     0.293 HD
ENDBRANCH   3   8
BRANCH   5  10
ATOM     10  C   UNL     1     134.829 139.620 129.730  1.00  0.00     0.013 C 
ATOM     11  C   UNL     1     135.348 140.618 128.687  1.00  0.00     0.012 C 
ATOM     12  C   UNL     1     134.964 140.185 131.150  1.00  0.00     0.012 C 
ENDBRANCH   5  10
TORSDOF 2
ENDMDL
MODEL 7
REMARK VINA RESULT:    -3.917      3.418      4.736
REMARK INTER + INTRA:          -4.386
REMARK INTER:                  -4.260
REMARK INTRA:                  -0.126
REMARK UNBOUND:                -0.126
REMARK SMILES Cc1ccc(C(C)C)cc1O
REMARK SMILES IDX 1 1 2 2 10 3 9 4 5 5 4 6 3 7 11 8 6 10 7 11 8 12
REMARK H PARENT 11 9
REMARK Flexibility Score: inf
ROOT
ATOM      1  C   UNL     1     141.642 138.777 128.248  1.00  0.00     0.048 C 
ATOM      2  C   UNL     1     140.175 138.937 128.533  1.00  0.00    -0.009 A 
ATOM      3  C   UNL     1     139.712 140.041 129.270  1.00  0.00     0.118 A 
ATOM      4  C   UNL     1     138.342 140.184 129.532  1.00  0.00     0.050 A 
ATOM      5  C   UNL     1     137.420 139.232 129.066  1.00  0.00    -0.042 A 
ATOM      6  C   UNL     1     137.892 138.129 128.330  1.00  0.00     0.004 A 
ATOM      7  C   UNL     1     139.256 137.985 128.066  1.00  0.00     0.007 A 
ENDROOT
BRANCH   3   8
ATOM      8  O   UNL     1     140.616 140.994 129.739  1.00  0.00    -0.508 OA
ATOM      9  H   UNL     1     141.248 140.796 130.506  1.00  0.00     0.293 HD
ENDBRANCH   3   8
BRANCH   5  10
ATOM     10  C   UNL     1     135.940 139.401 129.360  1.00  0.00     0.013 C 
ATOM     11  C   UNL     1     135.159 138.129 129.010  1.00  0.00     0.012 C 
ATOM     12  C   UNL     1     135.368 140.620 128.626  1.00  0.00     0.012 C 
ENDBRANCH   5  10
TORSDOF 2
ENDMDL
MODEL 8
REMARK VINA RESULT:    -3.897      4.796      6.424
REMARK INTER + INTRA:          -4.365
REMARK INTER:                  -4.239
REMARK INTRA:                  -0.126
REMARK UNBOUND:                -0.126
REMARK SMILES Cc1ccc(C(C)C)cc1O
REMARK SMILES IDX 1 1 2 2 10 3 9 4 5 5 4 6 3 7 11 8 6 10 7 11 8 12
REMARK H PARENT 11 9
REMARK Flexibility Score: inf
ROOT
ATOM      1  C   UNL     1     136.207 141.398 127.878  1.00  0.00     0.048 C 
ATOM      2  C   UNL     1     136.138 139.998 128.420  1.00  0.00    -0.009 A 
ATOM      3  C   UNL     1     135.111 139.632 129.307  1.00  0.00     0.118 A 
ATOM      4  C   UNL     1     135.052 138.324 129.809  1.00  0.00     0.050 A 
ATOM      5  C   UNL     1     136.013 137.369 129.436  1.00  0.00    -0.042 A 
ATOM      6  C   UNL     1     137.038 137.745 128.548  1.00  0.00     0.004 A 
ATOM      7  C   UNL     1     137.098 139.046 128.046  1.00  0.00     0.007 A 
ENDROOT
BRANCH   3   8
ATOM      8  O   UNL     1     134.150 140.569 129.687  1.00  0.00    -0.508 OA
ATOM      9  H   UNL     1     133.986 140.799 130.660  1.00  0.00     0.293 HD
ENDBRANCH   3   8
BRANCH   5  10
ATOM     10  C   UNL     1     135.935 135.957 129.990  1.00  0.00     0.013 C 
ATOM     11  C   UNL     1     137.327 135.322 130.079  1.00  0.00     0.012 C 
ATOM     12  C   UNL     1     134.984 135.089 129.156  1.00  0.00     0.012 C 
ENDBRANCH   5  10
TORSDOF 2
ENDMDL
MODEL 9
REMARK VINA RESULT:    -3.894      4.051      4.888
REMARK INTER + INTRA:          -4.362
REMARK INTER:                  -4.235
REMARK INTRA:                  -0.126
REMARK UNBOUND:                -0.126
REMARK SMILES Cc1ccc(C(C)C)cc1O
REMARK SMILES IDX 1 1 2 2 10 3 9 4 5 5 4 6 3 7 11 8 6 10 7 11 8 12
REMARK H PARENT 11 9
REMARK Flexibility Score: inf
ROOT
ATOM      1  C   UNL     1     133.660 136.549 128.431  1.00  0.00     0.048 C 
ATOM      2  C   UNL     1     135.120 136.384 128.743  1.00  0.00    -0.009 A 
ATOM      3  C   UNL     1     135.586 135.209 129.357  1.00  0.00     0.118 A 
ATOM      4  C   UNL     1     136.951 135.062 129.645  1.00  0.00     0.050 A 
ATOM      5  C   UNL     1     137.864 136.081 129.325  1.00  0.00    -0.042 A 
ATOM      6  C   UNL     1     137.390 137.254 128.711  1.00  0.00     0.004 A 
ATOM      7  C   UNL     1     136.031 137.402 128.423  1.00  0.00     0.007 A 
ENDROOT
BRANCH   3   8
ATOM      8  O   UNL     1     134.691 134.189 129.681  1.00  0.00    -0.508 OA
ATOM      9  H   UNL     1     134.322 134.082 130.619  1.00  0.00     0.293 HD
ENDBRANCH   3   8
BRANCH   5  10
ATOM     10  C   UNL     1     139.339 135.905 129.644  1.00  0.00     0.013 C 
ATOM     11  C   UNL     1     140.123 137.191 129.354  1.00  0.00     0.012 C 
ATOM     12  C   UNL     1     139.930 134.713 128.882  1.00  0.00     0.012 C 
ENDBRANCH   5  10
TORSDOF 2
ENDMDL
