MODEL 1
REMARK VINA RESULT:    -3.565      0.000      0.000
REMARK INTER + INTRA:          -4.758
REMARK INTER:                  -4.607
REMARK INTRA:                  -0.151
REMARK UNBOUND:                -0.151
REMARK SMILES CCCCCCC(=O)[O-]
REMARK SMILES IDX 5 1 6 2 7 3 8 4 9 5 4 6 3 7 2 8 1 9
REMARK H PARENT
REMARK Flexibility Score: inf
ROOT
ATOM      1  C   UNL     1       0.480   4.765   6.804  1.00  0.00     0.006 C 
ENDROOT
BRANCH   1   2
ATOM      2  C   UNL     1      -0.531   5.877   6.493  1.00  0.00     0.053 C 
BRANCH   2   3
ATOM      3  C   UNL     1      -0.626   6.099   5.017  1.00  0.00     0.041 C 
ATOM      4  O   UNL     1      -1.313   7.050   4.563  1.00  0.00    -0.550 OA
ATOM      5  O   UNL     1       0.003   5.223   4.141  1.00  0.00    -0.550 OA
ENDBRANCH   2   3
ENDBRANCH   1   2
BRANCH   1   6
ATOM      6  C   UNL     1       0.178   4.032   8.124  1.00  0.00     0.000 C 
BRANCH   6   7
ATOM      7  C   UNL     1       0.907   2.689   8.302  1.00  0.00    -0.000 C 
BRANCH   7   8
ATOM      8  C   UNL     1       1.558   2.184   7.006  1.00  0.00    -0.003 C 
ATOM      9  C   UNL     1       1.817   0.682   7.070  1.00  0.00     0.004 C 
ENDBRANCH   7   8
ENDBRANCH   6   7
ENDBRANCH   1   6
TORSDOF 5
ENDMDL
MODEL 2
REMARK VINA RESULT:    -3.411      6.445      7.607
REMARK INTER + INTRA:          -4.559
REMARK INTER:                  -4.431
REMARK INTRA:                  -0.127
REMARK UNBOUND:                -0.151
REMARK SMILES CCCCCCC(=O)[O-]
REMARK SMILES IDX 5 1 6 2 7 3 8 4 9 5 4 6 3 7 2 8 1 9
REMARK H PARENT
REMARK Flexibility Score: inf
ROOT
ATOM      1  C   UNL     1      -0.020  -2.388   6.055  1.00  0.00     0.006 C 
ENDROOT
BRANCH   1   2
ATOM      2  C   UNL     1       0.780  -1.301   5.326  1.00  0.00     0.053 C 
BRANCH   2   3
ATOM      3  C   UNL     1       2.249  -1.529   5.498  1.00  0.00     0.041 C 
ATOM      4  O   UNL     1       2.858  -1.020   6.474  1.00  0.00    -0.550 OA
ATOM      5  O   UNL     1       2.953  -2.262   4.551  1.00  0.00    -0.550 OA
ENDBRANCH   2   3
ENDBRANCH   1   2
BRANCH   1   6
ATOM      6  C   UNL     1      -1.350  -2.725   5.356  1.00  0.00     0.000 C 
BRANCH   6   7
ATOM      7  C   UNL     1      -1.846  -1.664   4.358  1.00  0.00    -0.000 C 
BRANCH   7   8
ATOM      8  C   UNL     1      -3.226  -1.994   3.769  1.00  0.00    -0.003 C 
ATOM      9  C   UNL     1      -4.279  -0.999   4.246  1.00  0.00     0.004 C 
ENDBRANCH   7   8
ENDBRANCH   6   7
ENDBRANCH   1   6
TORSDOF 5
ENDMDL
MODEL 3
REMARK VINA RESULT:    -3.397      6.864      7.869
REMARK INTER + INTRA:          -4.542
REMARK INTER:                  -4.367
REMARK INTRA:                  -0.175
REMARK UNBOUND:                -0.151
REMARK SMILES CCCCCCC(=O)[O-]
REMARK SMILES IDX 5 1 6 2 7 3 8 4 9 5 4 6 3 7 2 8 1 9
REMARK H PARENT
REMARK Flexibility Score: inf
ROOT
ATOM      1  C   UNL     1      -0.720  -2.617   5.950  1.00  0.00     0.006 C 
ENDROOT
BRANCH   1   2
ATOM      2  C   UNL     1       0.250  -1.690   5.206  1.00  0.00     0.053 C 
BRANCH   2   3
ATOM      3  C   UNL     1       1.663  -1.997   5.589  1.00  0.00     0.041 C 
ATOM      4  O   UNL     1       2.550  -2.108   4.702  1.00  0.00    -0.550 OA
ATOM      5  O   UNL     1       1.990  -2.211   6.922  1.00  0.00    -0.550 OA
ENDBRANCH   2   3
ENDBRANCH   1   2
BRANCH   1   6
ATOM      6  C   UNL     1      -2.100  -2.710   5.273  1.00  0.00     0.000 C 
BRANCH   6   7
ATOM      7  C   UNL     1      -2.349  -1.676   4.161  1.00  0.00    -0.000 C 
BRANCH   7   8
ATOM      8  C   UNL     1      -3.842  -1.432   3.893  1.00  0.00    -0.003 C 
ATOM      9  C   UNL     1      -4.548  -0.919   5.144  1.00  0.00     0.004 C 
ENDBRANCH   7   8
ENDBRANCH   6   7
ENDBRANCH   1   6
TORSDOF 5
ENDMDL
MODEL 4
REMARK VINA RESULT:    -3.294      6.293      6.983
REMARK INTER + INTRA:          -4.408
REMARK INTER:                  -4.249
REMARK INTRA:                  -0.159
REMARK UNBOUND:                -0.151
REMARK SMILES CCCCCCC(=O)[O-]
REMARK SMILES IDX 5 1 6 2 7 3 8 4 9 5 4 6 3 7 2 8 1 9
REMARK H PARENT
REMARK Flexibility Score: inf
ROOT
ATOM      1  C   UNL     1      -0.602  -2.428   5.606  1.00  0.00     0.006 C 
ENDROOT
BRANCH   1   2
ATOM      2  C   UNL     1      -1.520  -2.720   4.413  1.00  0.00     0.053 C 
BRANCH   2   3
ATOM      3  C   UNL     1      -2.803  -1.961   4.542  1.00  0.00     0.041 C 
ATOM      4  O   UNL     1      -3.207  -1.237   3.596  1.00  0.00    -0.550 OA
ATOM      5  O   UNL     1      -3.524  -2.015   5.727  1.00  0.00    -0.550 OA
ENDBRANCH   2   3
ENDBRANCH   1   2
BRANCH   1   6
ATOM      6  C   UNL     1       0.594  -1.531   5.237  1.00  0.00     0.000 C 
BRANCH   6   7
ATOM      7  C   UNL     1       1.664  -1.390   6.335  1.00  0.00    -0.000 C 
BRANCH   7   8
ATOM      8  C   UNL     1       3.095  -1.383   5.779  1.00  0.00    -0.003 C 
ATOM      9  C   UNL     1       3.321  -2.552   4.827  1.00  0.00     0.004 C 
ENDBRANCH   7   8
ENDBRANCH   6   7
ENDBRANCH   1   6
TORSDOF 5
ENDMDL
MODEL 5
REMARK VINA RESULT:    -3.240      1.504      2.316
REMARK INTER + INTRA:          -4.338
REMARK INTER:                  -4.111
REMARK INTRA:                  -0.226
REMARK UNBOUND:                -0.151
REMARK SMILES CCCCCCC(=O)[O-]
REMARK SMILES IDX 5 1 6 2 7 3 8 4 9 5 4 6 3 7 2 8 1 9
REMARK H PARENT
REMARK Flexibility Score: inf
ROOT
ATOM      1  C   UNL     1       0.933   5.143   5.916  1.00  0.00     0.006 C 
ENDROOT
BRANCH   1   2
ATOM      2  C   UNL     1      -0.137   5.319   4.831  1.00  0.00     0.053 C 
BRANCH   2   3
ATOM      3  C   UNL     1      -1.035   6.467   5.164  1.00  0.00     0.041 C 
ATOM      4  O   UNL     1      -1.705   6.459   6.230  1.00  0.00    -0.550 OA
ATOM      5  O   UNL     1      -1.171   7.523   4.272  1.00  0.00    -0.550 OA
ENDBRANCH   2   3
ENDBRANCH   1   2
BRANCH   1   6
ATOM      6  C   UNL     1       1.299   3.668   6.165  1.00  0.00     0.000 C 
BRANCH   6   7
ATOM      7  C   UNL     1       0.905   3.126   7.551  1.00  0.00    -0.000 C 
BRANCH   7   8
ATOM      8  C   UNL     1       0.148   4.155   8.404  1.00  0.00    -0.003 C 
ATOM      9  C   UNL     1      -0.169   3.596   9.787  1.00  0.00     0.004 C 
ENDBRANCH   7   8
ENDBRANCH   6   7
ENDBRANCH   1   6
TORSDOF 5
ENDMDL
MODEL 6
REMARK VINA RESULT:    -3.041      6.397      7.342
REMARK INTER + INTRA:          -4.081
REMARK INTER:                  -3.860
REMARK INTRA:                  -0.221
REMARK UNBOUND:                -0.151
REMARK SMILES CCCCCCC(=O)[O-]
REMARK SMILES IDX 5 1 6 2 7 3 8 4 9 5 4 6 3 7 2 8 1 9
REMARK H PARENT
REMARK Flexibility Score: inf
ROOT
ATOM      1  C   UNL     1      -3.193  -2.158   3.943  1.00  0.00     0.006 C 
ENDROOT
BRANCH   1   2
ATOM      2  C   UNL     1      -4.145  -0.984   4.202  1.00  0.00     0.053 C 
BRANCH   2   3
ATOM      3  C   UNL     1      -4.802  -1.129   5.539  1.00  0.00     0.041 C 
ATOM      4  O   UNL     1      -5.256  -0.117   6.134  1.00  0.00    -0.550 OA
ATOM      5  O   UNL     1      -4.868  -2.374   6.149  1.00  0.00    -0.550 OA
ENDBRANCH   2   3
ENDBRANCH   1   2
BRANCH   1   6
ATOM      6  C   UNL     1      -1.766  -1.899   4.459  1.00  0.00     0.000 C 
BRANCH   6   7
ATOM      7  C   UNL     1      -1.344  -2.757   5.665  1.00  0.00    -0.000 C 
BRANCH   7   8
ATOM      8  C   UNL     1      -0.027  -2.291   6.302  1.00  0.00    -0.003 C 
ATOM      9  C   UNL     1       0.737  -1.360   5.365  1.00  0.00     0.004 C 
ENDBRANCH   7   8
ENDBRANCH   6   7
ENDBRANCH   1   6
TORSDOF 5
ENDMDL
MODEL 7
REMARK VINA RESULT:    -3.016      7.342      8.396
REMARK INTER + INTRA:          -4.049
REMARK INTER:                  -3.858
REMARK INTRA:                  -0.190
REMARK UNBOUND:                -0.151
REMARK SMILES CCCCCCC(=O)[O-]
REMARK SMILES IDX 5 1 6 2 7 3 8 4 9 5 4 6 3 7 2 8 1 9
REMARK H PARENT
REMARK Flexibility Score: inf
ROOT
ATOM      1  C   UNL     1      -4.198  -1.756   4.069  1.00  0.00     0.006 C 
ENDROOT
BRANCH   1   2
ATOM      2  C   UNL     1      -2.717  -1.731   3.670  1.00  0.00     0.053 C 
BRANCH   2   3
ATOM      3  C   UNL     1      -1.890  -2.451   4.689  1.00  0.00     0.041 C 
ATOM      4  O   UNL     1      -0.765  -1.998   5.025  1.00  0.00    -0.550 OA
ATOM      5  O   UNL     1      -2.341  -3.648   5.228  1.00  0.00    -0.550 OA
ENDBRANCH   2   3
ENDBRANCH   1   2
BRANCH   1   6
ATOM      6  C   UNL     1      -4.551  -0.700   5.132  1.00  0.00     0.000 C 
BRANCH   6   7
ATOM      7  C   UNL     1      -5.129  -1.265   6.442  1.00  0.00    -0.000 C 
BRANCH   7   8
ATOM      8  C   UNL     1      -6.498  -0.668   6.799  1.00  0.00    -0.003 C 
ATOM      9  C   UNL     1      -6.364   0.779   7.263  1.00  0.00     0.004 C 
ENDBRANCH   7   8
ENDBRANCH   6   7
ENDBRANCH   1   6
TORSDOF 5
ENDMDL
MODEL 8
REMARK VINA RESULT:    -3.008      1.728      3.400
REMARK INTER + INTRA:          -4.038
REMARK INTER:                  -3.696
REMARK INTRA:                  -0.342
REMARK UNBOUND:                -0.151
REMARK SMILES CCCCCCC(=O)[O-]
REMARK SMILES IDX 5 1 6 2 7 3 8 4 9 5 4 6 3 7 2 8 1 9
REMARK H PARENT
REMARK Flexibility Score: inf
ROOT
ATOM      1  C   UNL     1       1.137   3.668   6.393  1.00  0.00     0.006 C 
ENDROOT
BRANCH   1   2
ATOM      2  C   UNL     1       1.681   4.943   5.738  1.00  0.00     0.053 C 
BRANCH   2   3
ATOM      3  C   UNL     1       0.968   5.216   4.451  1.00  0.00     0.041 C 
ATOM      4  O   UNL     1       1.616   5.320   3.378  1.00  0.00    -0.550 OA
ATOM      5  O   UNL     1      -0.408   5.404   4.447  1.00  0.00    -0.550 OA
ENDBRANCH   2   3
ENDBRANCH   1   2
BRANCH   1   6
ATOM      6  C   UNL     1       0.518   3.922   7.780  1.00  0.00     0.000 C 
BRANCH   6   7
ATOM      7  C   UNL     1       0.311   5.405   8.137  1.00  0.00    -0.000 C 
BRANCH   7   8
ATOM      8  C   UNL     1      -1.153   5.746   8.450  1.00  0.00    -0.003 C 
ATOM      9  C   UNL     1      -1.734   6.691   7.402  1.00  0.00     0.004 C 
ENDBRANCH   7   8
ENDBRANCH   6   7
ENDBRANCH   1   6
TORSDOF 5
ENDMDL
MODEL 9
REMARK VINA RESULT:    -2.981      4.799      6.618
REMARK INTER + INTRA:          -4.003
REMARK INTER:                  -3.837
REMARK INTRA:                  -0.166
REMARK UNBOUND:                -0.151
REMARK SMILES CCCCCCC(=O)[O-]
REMARK SMILES IDX 5 1 6 2 7 3 8 4 9 5 4 6 3 7 2 8 1 9
REMARK H PARENT
REMARK Flexibility Score: inf
ROOT
ATOM      1  C   UNL     1       1.566  -0.497   5.976  1.00  0.00     0.006 C 
ENDROOT
BRANCH   1   2
ATOM      2  C   UNL     1       2.116  -1.928   6.009  1.00  0.00     0.053 C 
BRANCH   2   3
ATOM      3  C   UNL     1       3.506  -1.967   5.457  1.00  0.00     0.041 C 
ATOM      4  O   UNL     1       4.481  -1.617   6.172  1.00  0.00    -0.550 OA
ATOM      5  O   UNL     1       3.718  -2.341   4.137  1.00  0.00    -0.550 OA
ENDBRANCH   2   3
ENDBRANCH   1   2
BRANCH   1   6
ATOM      6  C   UNL     1       1.530   0.164   7.366  1.00  0.00     0.000 C 
BRANCH   6   7
ATOM      7  C   UNL     1       2.178   1.558   7.441  1.00  0.00    -0.000 C 
BRANCH   7   8
ATOM      8  C   UNL     1       1.174   2.669   7.780  1.00  0.00    -0.003 C 
ATOM      9  C   UNL     1       1.094   3.701   6.660  1.00  0.00     0.004 C 
ENDBRANCH   7   8
ENDBRANCH   6   7
ENDBRANCH   1   6
TORSDOF 5
ENDMDL
