MODEL 1
REMARK VINA RESULT:    -4.762      0.000      0.000
REMARK INTER + INTRA:          -6.712
REMARK INTER:                  -6.433
REMARK INTRA:                  -0.279
REMARK UNBOUND:                -0.279
REMARK SMILES CCCCCCCC(=O)[O-]
REMARK SMILES IDX 5 1 6 2 7 3 8 4 9 5 10 6 4 7 3 8 2 9 1 10
REMARK H PARENT
REMARK Flexibility Score: inf
ROOT
ATOM      1  C   UNL     1      76.012  20.126  30.347  1.00  0.00     0.000 C 
ENDROOT
BRANCH   1   2
ATOM      2  C   UNL     1      77.002  21.235  29.959  1.00  0.00     0.006 C 
BRANCH   2   3
ATOM      3  C   UNL     1      77.953  20.811  28.832  1.00  0.00     0.053 C 
BRANCH   3   4
ATOM      4  C   UNL     1      77.645  21.564  27.577  1.00  0.00     0.041 C 
ATOM      5  O   UNL     1      77.200  20.959  26.567  1.00  0.00    -0.550 OA
ATOM      6  O   UNL     1      77.803  22.944  27.538  1.00  0.00    -0.550 OA
ENDBRANCH   3   4
ENDBRANCH   2   3
ENDBRANCH   1   2
BRANCH   1   7
ATOM      7  C   UNL     1      75.999  19.849  31.858  1.00  0.00     0.000 C 
BRANCH   7   8
ATOM      8  C   UNL     1      76.930  20.814  32.602  1.00  0.00    -0.000 C 
BRANCH   8   9
ATOM      9  C   UNL     1      76.549  20.916  34.083  1.00  0.00    -0.003 C 
ATOM     10  C   UNL     1      75.246  20.173  34.369  1.00  0.00     0.004 C 
ENDBRANCH   8   9
ENDBRANCH   7   8
ENDBRANCH   1   7
TORSDOF 6
ENDMDL
MODEL 2
REMARK VINA RESULT:    -4.315      3.364      6.021
REMARK INTER + INTRA:          -6.107
REMARK INTER:                  -6.000
REMARK INTRA:                  -0.107
REMARK UNBOUND:                -0.279
REMARK SMILES CCCCCCCC(=O)[O-]
REMARK SMILES IDX 5 1 6 2 7 3 8 4 9 5 10 6 4 7 3 8 2 9 1 10
REMARK H PARENT
REMARK Flexibility Score: inf
ROOT
ATOM      1  C   UNL     1      77.008  21.509  29.617  1.00  0.00     0.000 C 
ENDROOT
BRANCH   1   2
ATOM      2  C   UNL     1      76.683  20.498  30.727  1.00  0.00     0.006 C 
BRANCH   2   3
ATOM      3  C   UNL     1      77.207  20.938  32.101  1.00  0.00     0.053 C 
BRANCH   3   4
ATOM      4  C   UNL     1      76.270  20.500  33.182  1.00  0.00     0.041 C 
ATOM      5  O   UNL     1      75.550  19.480  33.023  1.00  0.00    -0.550 OA
ATOM      6  O   UNL     1      76.227  21.192  34.386  1.00  0.00    -0.550 OA
ENDBRANCH   3   4
ENDBRANCH   2   3
ENDBRANCH   1   2
BRANCH   1   7
ATOM      7  C   UNL     1      77.700  20.860  28.410  1.00  0.00     0.000 C 
BRANCH   7   8
ATOM      8  C   UNL     1      77.699  21.806  27.202  1.00  0.00    -0.000 C 
BRANCH   8   9
ATOM      9  C   UNL     1      77.178  21.097  25.947  1.00  0.00    -0.003 C 
ATOM     10  C   UNL     1      77.192  22.031  24.740  1.00  0.00     0.004 C 
ENDBRANCH   8   9
ENDBRANCH   7   8
ENDBRANCH   1   7
TORSDOF 6
ENDMDL
MODEL 3
REMARK VINA RESULT:    -4.132     12.648     13.802
REMARK INTER + INTRA:          -5.861
REMARK INTER:                  -5.418
REMARK INTRA:                  -0.443
REMARK UNBOUND:                -0.279
REMARK SMILES CCCCCCCC(=O)[O-]
REMARK SMILES IDX 5 1 6 2 7 3 8 4 9 5 10 6 4 7 3 8 2 9 1 10
REMARK H PARENT
REMARK Flexibility Score: inf
ROOT
ATOM      1  C   UNL     1      69.943   8.293  33.299  1.00  0.00     0.000 C 
ENDROOT
BRANCH   1   2
ATOM      2  C   UNL     1      71.061   9.298  33.619  1.00  0.00     0.006 C 
BRANCH   2   3
ATOM      3  C   UNL     1      71.968   9.577  32.413  1.00  0.00     0.053 C 
BRANCH   3   4
ATOM      4  C   UNL     1      72.859   8.406  32.148  1.00  0.00     0.041 C 
ATOM      5  O   UNL     1      73.873   8.204  32.867  1.00  0.00    -0.550 OA
ATOM      6  O   UNL     1      72.544   7.508  31.136  1.00  0.00    -0.550 OA
ENDBRANCH   3   4
ENDBRANCH   2   3
ENDBRANCH   1   2
BRANCH   1   7
ATOM      7  C   UNL     1      68.542   8.912  33.411  1.00  0.00     0.000 C 
BRANCH   7   8
ATOM      8  C   UNL     1      68.615  10.444  33.379  1.00  0.00    -0.000 C 
BRANCH   8   9
ATOM      9  C   UNL     1      68.113  10.991  32.038  1.00  0.00    -0.003 C 
ATOM     10  C   UNL     1      69.185  11.832  31.349  1.00  0.00     0.004 C 
ENDBRANCH   8   9
ENDBRANCH   7   8
ENDBRANCH   1   7
TORSDOF 6
ENDMDL
MODEL 4
REMARK VINA RESULT:    -4.100     12.452     13.541
REMARK INTER + INTRA:          -5.818
REMARK INTER:                  -5.436
REMARK INTRA:                  -0.381
REMARK UNBOUND:                -0.279
REMARK SMILES CCCCCCCC(=O)[O-]
REMARK SMILES IDX 5 1 6 2 7 3 8 4 9 5 10 6 4 7 3 8 2 9 1 10
REMARK H PARENT
REMARK Flexibility Score: inf
ROOT
ATOM      1  C   UNL     1      70.180   8.254  33.248  1.00  0.00     0.000 C 
ENDROOT
BRANCH   1   2
ATOM      2  C   UNL     1      71.318   9.237  33.566  1.00  0.00     0.006 C 
BRANCH   2   3
ATOM      3  C   UNL     1      72.042   9.730  32.307  1.00  0.00     0.053 C 
BRANCH   3   4
ATOM      4  C   UNL     1      73.151   8.795  31.943  1.00  0.00     0.041 C 
ATOM      5  O   UNL     1      73.465   8.622  30.736  1.00  0.00    -0.550 OA
ATOM      6  O   UNL     1      73.871   8.149  32.940  1.00  0.00    -0.550 OA
ENDBRANCH   3   4
ENDBRANCH   2   3
ENDBRANCH   1   2
BRANCH   1   7
ATOM      7  C   UNL     1      68.791   8.851  33.519  1.00  0.00     0.000 C 
BRANCH   7   8
ATOM      8  C   UNL     1      68.821  10.381  33.421  1.00  0.00    -0.000 C 
BRANCH   8   9
ATOM      9  C   UNL     1      68.187  10.861  32.110  1.00  0.00    -0.003 C 
ATOM     10  C   UNL     1      69.096  11.853  31.390  1.00  0.00     0.004 C 
ENDBRANCH   8   9
ENDBRANCH   7   8
ENDBRANCH   1   7
TORSDOF 6
ENDMDL
MODEL 5
REMARK VINA RESULT:    -4.099     14.029     15.527
REMARK INTER + INTRA:          -5.816
REMARK INTER:                  -5.356
REMARK INTRA:                  -0.460
REMARK UNBOUND:                -0.279
REMARK SMILES CCCCCCCC(=O)[O-]
REMARK SMILES IDX 5 1 6 2 7 3 8 4 9 5 10 6 4 7 3 8 2 9 1 10
REMARK H PARENT
REMARK Flexibility Score: inf
ROOT
ATOM      1  C   UNL     1      62.799  18.449  37.259  1.00  0.00     0.000 C 
ENDROOT
BRANCH   1   2
ATOM      2  C   UNL     1      64.329  18.559  37.339  1.00  0.00     0.006 C 
BRANCH   2   3
ATOM      3  C   UNL     1      65.029  17.202  37.186  1.00  0.00     0.053 C 
BRANCH   3   4
ATOM      4  C   UNL     1      64.692  16.587  35.865  1.00  0.00     0.041 C 
ATOM      5  O   UNL     1      65.101  17.113  34.797  1.00  0.00    -0.550 OA
ATOM      6  O   UNL     1      63.965  15.405  35.815  1.00  0.00    -0.550 OA
ENDBRANCH   3   4
ENDBRANCH   2   3
ENDBRANCH   1   2
BRANCH   1   7
ATOM      7  C   UNL     1      62.140  18.344  38.643  1.00  0.00     0.000 C 
BRANCH   7   8
ATOM      8  C   UNL     1      62.965  19.088  39.701  1.00  0.00    -0.000 C 
BRANCH   8   9
ATOM      9  C   UNL     1      63.527  18.116  40.745  1.00  0.00    -0.003 C 
ATOM     10  C   UNL     1      63.118  16.678  40.435  1.00  0.00     0.004 C 
ENDBRANCH   8   9
ENDBRANCH   7   8
ENDBRANCH   1   7
TORSDOF 6
ENDMDL
MODEL 6
REMARK VINA RESULT:    -4.089     12.741     13.910
REMARK INTER + INTRA:          -5.802
REMARK INTER:                  -5.403
REMARK INTRA:                  -0.399
REMARK UNBOUND:                -0.279
REMARK SMILES CCCCCCCC(=O)[O-]
REMARK SMILES IDX 5 1 6 2 7 3 8 4 9 5 10 6 4 7 3 8 2 9 1 10
REMARK H PARENT
REMARK Flexibility Score: inf
ROOT
ATOM      1  C   UNL     1      69.993  11.043  32.086  1.00  0.00     0.000 C 
ENDROOT
BRANCH   1   2
ATOM      2  C   UNL     1      71.487  10.857  32.392  1.00  0.00     0.006 C 
BRANCH   2   3
ATOM      3  C   UNL     1      72.023   9.500  31.918  1.00  0.00     0.053 C 
BRANCH   3   4
ATOM      4  C   UNL     1      72.760   8.815  33.024  1.00  0.00     0.041 C 
ATOM      5  O   UNL     1      72.308   8.839  34.199  1.00  0.00    -0.550 OA
ATOM      6  O   UNL     1      73.923   8.106  32.750  1.00  0.00    -0.550 OA
ENDBRANCH   3   4
ENDBRANCH   2   3
ENDBRANCH   1   2
BRANCH   1   7
ATOM      7  C   UNL     1      69.097  10.715  33.290  1.00  0.00     0.000 C 
BRANCH   7   8
ATOM      8  C   UNL     1      68.138   9.564  32.963  1.00  0.00    -0.000 C 
BRANCH   8   9
ATOM      9  C   UNL     1      68.584   8.264  33.643  1.00  0.00    -0.003 C 
ATOM     10  C   UNL     1      67.874   7.055  33.040  1.00  0.00     0.004 C 
ENDBRANCH   8   9
ENDBRANCH   7   8
ENDBRANCH   1   7
TORSDOF 6
ENDMDL
MODEL 7
REMARK VINA RESULT:    -4.025     14.655     16.293
REMARK INTER + INTRA:          -5.717
REMARK INTER:                  -5.230
REMARK INTRA:                  -0.486
REMARK UNBOUND:                -0.279
REMARK SMILES CCCCCCCC(=O)[O-]
REMARK SMILES IDX 5 1 6 2 7 3 8 4 9 5 10 6 4 7 3 8 2 9 1 10
REMARK H PARENT
REMARK Flexibility Score: inf
ROOT
ATOM      1  C   UNL     1      63.157  15.524  39.649  1.00  0.00     0.000 C 
ENDROOT
BRANCH   1   2
ATOM      2  C   UNL     1      62.863  15.463  38.143  1.00  0.00     0.006 C 
BRANCH   2   3
ATOM      3  C   UNL     1      64.134  15.308  37.297  1.00  0.00     0.053 C 
BRANCH   3   4
ATOM      4  C   UNL     1      64.582  16.639  36.781  1.00  0.00     0.041 C 
ATOM      5  O   UNL     1      64.249  17.017  35.628  1.00  0.00    -0.550 OA
ATOM      6  O   UNL     1      65.329  17.484  37.593  1.00  0.00    -0.550 OA
ENDBRANCH   3   4
ENDBRANCH   2   3
ENDBRANCH   1   2
BRANCH   1   7
ATOM      7  C   UNL     1      62.459  16.705  40.341  1.00  0.00     0.000 C 
BRANCH   7   8
ATOM      8  C   UNL     1      63.441  17.858  40.582  1.00  0.00    -0.000 C 
BRANCH   8   9
ATOM      9  C   UNL     1      62.951  19.147  39.911  1.00  0.00    -0.003 C 
ATOM     10  C   UNL     1      61.513  19.003  39.423  1.00  0.00     0.004 C 
ENDBRANCH   8   9
ENDBRANCH   7   8
ENDBRANCH   1   7
TORSDOF 6
ENDMDL
MODEL 8
REMARK VINA RESULT:    -4.016     14.835     15.919
REMARK INTER + INTRA:          -5.704
REMARK INTER:                  -5.159
REMARK INTRA:                  -0.545
REMARK UNBOUND:                -0.279
REMARK SMILES CCCCCCCC(=O)[O-]
REMARK SMILES IDX 5 1 6 2 7 3 8 4 9 5 10 6 4 7 3 8 2 9 1 10
REMARK H PARENT
REMARK Flexibility Score: inf
ROOT
ATOM      1  C   UNL     1      63.596  18.510  37.004  1.00  0.00     0.000 C 
ENDROOT
BRANCH   1   2
ATOM      2  C   UNL     1      64.283  17.304  36.346  1.00  0.00     0.006 C 
BRANCH   2   3
ATOM      3  C   UNL     1      65.095  16.468  37.345  1.00  0.00     0.053 C 
BRANCH   3   4
ATOM      4  C   UNL     1      64.623  15.049  37.343  1.00  0.00     0.041 C 
ATOM      5  O   UNL     1      63.449  14.771  36.982  1.00  0.00    -0.550 OA
ATOM      6  O   UNL     1      65.496  14.026  37.692  1.00  0.00    -0.550 OA
ENDBRANCH   3   4
ENDBRANCH   2   3
ENDBRANCH   1   2
BRANCH   1   7
ATOM      7  C   UNL     1      62.726  18.112  38.206  1.00  0.00     0.000 C 
BRANCH   7   8
ATOM      8  C   UNL     1      63.077  18.953  39.440  1.00  0.00    -0.000 C 
BRANCH   8   9
ATOM      9  C   UNL     1      63.501  18.060  40.612  1.00  0.00    -0.003 C 
ATOM     10  C   UNL     1      63.027  16.623  40.410  1.00  0.00     0.004 C 
ENDBRANCH   8   9
ENDBRANCH   7   8
ENDBRANCH   1   7
TORSDOF 6
ENDMDL
MODEL 9
REMARK VINA RESULT:    -3.903     14.146     15.696
REMARK INTER + INTRA:          -5.552
REMARK INTER:                  -5.009
REMARK INTRA:                  -0.542
REMARK UNBOUND:                -0.279
REMARK SMILES CCCCCCCC(=O)[O-]
REMARK SMILES IDX 5 1 6 2 7 3 8 4 9 5 10 6 4 7 3 8 2 9 1 10
REMARK H PARENT
REMARK Flexibility Score: inf
ROOT
ATOM      1  C   UNL     1      63.246  15.086  37.374  1.00  0.00     0.000 C 
ENDROOT
BRANCH   1   2
ATOM      2  C   UNL     1      64.305  15.226  36.270  1.00  0.00     0.006 C 
BRANCH   2   3
ATOM      3  C   UNL     1      64.441  16.667  35.760  1.00  0.00     0.053 C 
BRANCH   3   4
ATOM      4  C   UNL     1      64.983  17.553  36.836  1.00  0.00     0.041 C 
ATOM      5  O   UNL     1      64.385  18.617  37.143  1.00  0.00    -0.550 OA
ATOM      6  O   UNL     1      66.124  17.179  37.535  1.00  0.00    -0.550 OA
ENDBRANCH   3   4
ENDBRANCH   2   3
ENDBRANCH   1   2
BRANCH   1   7
ATOM      7  C   UNL     1      63.811  14.464  38.660  1.00  0.00     0.000 C 
BRANCH   7   8
ATOM      8  C   UNL     1      63.119  15.044  39.900  1.00  0.00    -0.000 C 
BRANCH   8   9
ATOM      9  C   UNL     1      62.761  16.520  39.692  1.00  0.00    -0.003 C 
ATOM     10  C   UNL     1      63.492  17.411  40.693  1.00  0.00     0.004 C 
ENDBRANCH   8   9
ENDBRANCH   7   8
ENDBRANCH   1   7
TORSDOF 6
ENDMDL
