MODEL 1
REMARK VINA RESULT:    -2.025      0.000      0.000
REMARK INTER + INTRA:          -2.025
REMARK INTER:                  -2.025
REMARK INTRA:                   0.000
REMARK UNBOUND:                 0.000
REMARK SMILES CC(=O)[O-]
REMARK SMILES IDX 1 1 2 2 3 3 4 4
REMARK H PARENT
REMARK Flexibility Score: inf
ROOT
ATOM      1  C   UNL     1      14.376  -2.279  35.747  1.00  0.00     0.063 C 
ATOM      2  C   UNL     1      13.942  -3.292  34.742  1.00  0.00     0.038 C 
ATOM      3  O   UNL     1      14.793  -4.035  34.185  1.00  0.00    -0.550 OA
ATOM      4  O   UNL     1      12.592  -3.457  34.458  1.00  0.00    -0.550 OA
ENDROOT
TORSDOF 0
ENDMDL
MODEL 2
REMARK VINA RESULT:    -1.979      9.980     10.459
REMARK INTER + INTRA:          -1.979
REMARK INTER:                  -1.979
REMARK INTRA:                   0.000
REMARK UNBOUND:                 0.000
REMARK SMILES CC(=O)[O-]
REMARK SMILES IDX 1 1 2 2 3 3 4 4
REMARK H PARENT
REMARK Flexibility Score: inf
ROOT
ATOM      1  C   UNL     1      19.923  -5.121  42.649  1.00  0.00     0.063 C 
ATOM      2  C   UNL     1      19.200  -4.115  43.479  1.00  0.00     0.038 C 
ATOM      3  O   UNL     1      18.058  -3.715  43.133  1.00  0.00    -0.550 OA
ATOM      4  O   UNL     1      19.760  -3.658  44.665  1.00  0.00    -0.550 OA
ENDROOT
TORSDOF 0
ENDMDL
MODEL 3
REMARK VINA RESULT:    -1.977      9.833     10.100
REMARK INTER + INTRA:          -1.977
REMARK INTER:                  -1.977
REMARK INTRA:                   0.000
REMARK UNBOUND:                 0.000
REMARK SMILES CC(=O)[O-]
REMARK SMILES IDX 1 1 2 2 3 3 4 4
REMARK H PARENT
REMARK Flexibility Score: inf
ROOT
ATOM      1  C   UNL     1      18.473  -4.131  43.124  1.00  0.00     0.063 C 
ATOM      2  C   UNL     1      18.831  -5.579  43.145  1.00  0.00     0.038 C 
ATOM      3  O   UNL     1      17.966  -6.438  43.459  1.00  0.00    -0.550 OA
ATOM      4  O   UNL     1      20.103  -5.988  42.765  1.00  0.00    -0.550 OA
ENDROOT
TORSDOF 0
ENDMDL
MODEL 4
REMARK VINA RESULT:    -1.963     12.952     13.564
REMARK INTER + INTRA:          -1.963
REMARK INTER:                  -1.963
REMARK INTRA:                   0.000
REMARK UNBOUND:                 0.000
REMARK SMILES CC(=O)[O-]
REMARK SMILES IDX 1 1 2 2 3 3 4 4
REMARK H PARENT
REMARK Flexibility Score: inf
ROOT
ATOM      1  C   UNL     1      22.212  -1.986  44.079  1.00  0.00     0.063 C 
ATOM      2  C   UNL     1      22.805  -0.667  44.446  1.00  0.00     0.038 C 
ATOM      3  O   UNL     1      22.389   0.387  43.899  1.00  0.00    -0.550 OA
ATOM      4  O   UNL     1      23.780  -0.593  45.433  1.00  0.00    -0.550 OA
ENDROOT
TORSDOF 0
ENDMDL
MODEL 5
REMARK VINA RESULT:    -1.959      8.954      9.296
REMARK INTER + INTRA:          -1.959
REMARK INTER:                  -1.959
REMARK INTRA:                   0.000
REMARK UNBOUND:                 0.000
REMARK SMILES CC(=O)[O-]
REMARK SMILES IDX 1 1 2 2 3 3 4 4
REMARK H PARENT
REMARK Flexibility Score: inf
ROOT
ATOM      1  C   UNL     1      11.360   2.956  42.830  1.00  0.00     0.063 C 
ATOM      2  C   UNL     1      10.992   2.232  41.579  1.00  0.00     0.038 C 
ATOM      3  O   UNL     1      11.461   2.606  40.472  1.00  0.00    -0.550 OA
ATOM      4  O   UNL     1      10.175   1.110  41.639  1.00  0.00    -0.550 OA
ENDROOT
TORSDOF 0
ENDMDL
MODEL 6
REMARK VINA RESULT:    -1.950      9.773     10.015
REMARK INTER + INTRA:          -1.950
REMARK INTER:                  -1.950
REMARK INTRA:                   0.000
REMARK UNBOUND:                 0.000
REMARK SMILES CC(=O)[O-]
REMARK SMILES IDX 1 1 2 2 3 3 4 4
REMARK H PARENT
REMARK Flexibility Score: inf
ROOT
ATOM      1  C   UNL     1      20.169  -5.600  42.837  1.00  0.00     0.063 C 
ATOM      2  C   UNL     1      18.743  -5.286  43.141  1.00  0.00     0.038 C 
ATOM      3  O   UNL     1      17.940  -6.213  43.426  1.00  0.00    -0.550 OA
ATOM      4  O   UNL     1      18.309  -3.967  43.164  1.00  0.00    -0.550 OA
ENDROOT
TORSDOF 0
ENDMDL
MODEL 7
REMARK VINA RESULT:    -1.919      8.945      9.541
REMARK INTER + INTRA:          -1.919
REMARK INTER:                  -1.919
REMARK INTRA:                   0.000
REMARK UNBOUND:                 0.000
REMARK SMILES CC(=O)[O-]
REMARK SMILES IDX 1 1 2 2 3 3 4 4
REMARK H PARENT
REMARK Flexibility Score: inf
ROOT
ATOM      1  C   UNL     1      11.257   2.639  40.254  1.00  0.00     0.063 C 
ATOM      2  C   UNL     1      10.867   2.299  41.653  1.00  0.00     0.038 C 
ATOM      3  O   UNL     1      10.136   1.298  41.879  1.00  0.00    -0.550 OA
ATOM      4  O   UNL     1      11.353   3.051  42.715  1.00  0.00    -0.550 OA
ENDROOT
TORSDOF 0
ENDMDL
MODEL 8
REMARK VINA RESULT:    -1.896     10.808     11.207
REMARK INTER + INTRA:          -1.896
REMARK INTER:                  -1.896
REMARK INTRA:                   0.000
REMARK UNBOUND:                 0.000
REMARK SMILES CC(=O)[O-]
REMARK SMILES IDX 1 1 2 2 3 3 4 4
REMARK H PARENT
REMARK Flexibility Score: inf
ROOT
ATOM      1  C   UNL     1      10.055  -2.886  46.321  1.00  0.00     0.063 C 
ATOM      2  C   UNL     1      10.862  -3.722  45.386  1.00  0.00     0.038 C 
ATOM      3  O   UNL     1      10.406  -4.020  44.251  1.00  0.00    -0.550 OA
ATOM      4  O   UNL     1      12.142  -4.127  45.742  1.00  0.00    -0.550 OA
ENDROOT
TORSDOF 0
ENDMDL
MODEL 9
REMARK VINA RESULT:    -1.849     11.251     11.581
REMARK INTER + INTRA:          -1.849
REMARK INTER:                  -1.849
REMARK INTRA:                   0.000
REMARK UNBOUND:                 0.000
REMARK SMILES CC(=O)[O-]
REMARK SMILES IDX 1 1 2 2 3 3 4 4
REMARK H PARENT
REMARK Flexibility Score: inf
ROOT
ATOM      1  C   UNL     1      19.556  -8.220  44.047  1.00  0.00     0.063 C 
ATOM      2  C   UNL     1      18.480  -7.261  44.431  1.00  0.00     0.038 C 
ATOM      3  O   UNL     1      17.896  -6.581  43.547  1.00  0.00    -0.550 OA
ATOM      4  O   UNL     1      18.083  -7.155  45.758  1.00  0.00    -0.550 OA
ENDROOT
TORSDOF 0
ENDMDL
