MODEL 1
REMARK VINA RESULT:    -2.065      0.000      0.000
REMARK INTER + INTRA:          -2.558
REMARK INTER:                  -2.427
REMARK INTRA:                  -0.132
REMARK UNBOUND:                -0.132
REMARK SMILES O=C([O-])C=Cc1ccc(O)c(O)c1
REMARK SMILES IDX 6 1 13 2 7 3 11 4 8 5 9 6 5 7 4 8 2 9 1 10 3 11 12 12 10 14
REMARK H PARENT 12 13 10 15
REMARK Flexibility Score: inf
ROOT
ATOM      1  C   UNL     1     -18.742   5.454  21.217  1.00  0.00    -0.022 A 
ATOM      2  C   UNL     1     -18.371   4.148  20.857  1.00  0.00     0.058 A 
ATOM      3  C   UNL     1     -19.879   5.637  22.029  1.00  0.00     0.012 A 
ATOM      4  C   UNL     1     -19.100   3.042  21.316  1.00  0.00     0.157 A 
ATOM      5  C   UNL     1     -20.607   4.535  22.486  1.00  0.00     0.051 A 
ATOM      6  C   UNL     1     -20.222   3.238  22.137  1.00  0.00     0.157 A 
ENDROOT
BRANCH   1   7
ATOM      7  C   UNL     1     -17.943   6.590  20.695  1.00  0.00     0.010 C 
ATOM      8  C   UNL     1     -16.716   6.457  20.170  1.00  0.00     0.025 C 
BRANCH   8   9
ATOM      9  C   UNL     1     -15.955   7.606  19.649  1.00  0.00     0.064 C 
ATOM     10  O   UNL     1     -15.020   8.124  20.315  1.00  0.00    -0.545 OA
ATOM     11  O   UNL     1     -16.273   8.125  18.402  1.00  0.00    -0.545 OA
ENDBRANCH   8   9
ENDBRANCH   1   7
BRANCH   4  12
ATOM     12  O   UNL     1     -18.713   1.751  20.958  1.00  0.00    -0.504 OA
ATOM     13  H   UNL     1     -18.648   1.006  21.642  1.00  0.00     0.293 HD
ENDBRANCH   4  12
BRANCH   6  14
ATOM     14  O   UNL     1     -20.967   2.158  22.611  1.00  0.00    -0.504 OA
ATOM     15  H   UNL     1     -21.023   1.934  23.597  1.00  0.00     0.293 HD
ENDBRANCH   6  14
TORSDOF 4
ENDMDL
MODEL 2
REMARK VINA RESULT:     0.275      1.299      5.621
REMARK INTER + INTRA:           0.191
REMARK INTER:                   0.323
REMARK INTRA:                  -0.132
REMARK UNBOUND:                -0.132
REMARK SMILES O=C([O-])C=Cc1ccc(O)c(O)c1
REMARK SMILES IDX 6 1 13 2 7 3 11 4 8 5 9 6 5 7 4 8 2 9 1 10 3 11 12 12 10 14
REMARK H PARENT 12 13 10 15
REMARK Flexibility Score: inf
ROOT
ATOM      1  C   UNL     1     -18.534   5.958  21.130  1.00  0.00    -0.022 A 
ATOM      2  C   UNL     1     -17.576   5.284  20.354  1.00  0.00     0.058 A 
ATOM      3  C   UNL     1     -18.459   7.361  21.232  1.00  0.00     0.012 A 
ATOM      4  C   UNL     1     -16.577   5.992  19.671  1.00  0.00     0.157 A 
ATOM      5  C   UNL     1     -17.463   8.068  20.552  1.00  0.00     0.051 A 
ATOM      6  C   UNL     1     -16.524   7.392  19.769  1.00  0.00     0.157 A 
ENDROOT
BRANCH   1   7
ATOM      7  C   UNL     1     -19.562   5.159  21.841  1.00  0.00     0.010 C 
ATOM      8  C   UNL     1     -19.438   3.850  22.103  1.00  0.00     0.025 C 
BRANCH   8   9
ATOM      9  C   UNL     1     -20.474   3.090  22.823  1.00  0.00     0.064 C 
ATOM     10  O   UNL     1     -20.658   3.249  24.060  1.00  0.00    -0.545 OA
ATOM     11  O   UNL     1     -21.264   2.185  22.128  1.00  0.00    -0.545 OA
ENDBRANCH   8   9
ENDBRANCH   1   7
BRANCH   4  12
ATOM     12  O   UNL     1     -15.639   5.310  18.897  1.00  0.00    -0.504 OA
ATOM     13  H   UNL     1     -14.832   5.779  18.503  1.00  0.00     0.293 HD
ENDBRANCH   4  12
BRANCH   6  14
ATOM     14  O   UNL     1     -15.543   8.125  19.102  1.00  0.00    -0.504 OA
ATOM     15  H   UNL     1     -15.140   8.967  19.494  1.00  0.00     0.293 HD
ENDBRANCH   6  14
TORSDOF 4
ENDMDL
MODEL 3
REMARK VINA RESULT:     0.322      8.142      9.294
REMARK INTER + INTRA:           0.246
REMARK INTER:                   0.374
REMARK INTRA:                  -0.128
REMARK UNBOUND:                -0.132
REMARK SMILES O=C([O-])C=Cc1ccc(O)c(O)c1
REMARK SMILES IDX 6 1 13 2 7 3 11 4 8 5 9 6 5 7 4 8 2 9 1 10 3 11 12 12 10 14
REMARK H PARENT 12 13 10 15
REMARK Flexibility Score: inf
ROOT
ATOM      1  C   UNL     1     -20.293   2.838  13.994  1.00  0.00    -0.022 A 
ATOM      2  C   UNL     1     -19.590   1.622  13.950  1.00  0.00     0.058 A 
ATOM      3  C   UNL     1     -19.626   3.991  14.451  1.00  0.00     0.012 A 
ATOM      4  C   UNL     1     -18.241   1.558  14.328  1.00  0.00     0.157 A 
ATOM      5  C   UNL     1     -18.282   3.929  14.829  1.00  0.00     0.051 A 
ATOM      6  C   UNL     1     -17.584   2.719  14.767  1.00  0.00     0.157 A 
ENDROOT
BRANCH   1   7
ATOM      7  C   UNL     1     -21.721   2.847  13.594  1.00  0.00     0.010 C 
ATOM      8  C   UNL     1     -22.137   2.868  12.319  1.00  0.00     0.025 C 
BRANCH   8   9
ATOM      9  C   UNL     1     -23.565   2.864  11.957  1.00  0.00     0.064 C 
ATOM     10  O   UNL     1     -24.461   2.855  12.843  1.00  0.00    -0.545 OA
ATOM     11  O   UNL     1     -23.930   2.873  10.618  1.00  0.00    -0.545 OA
ENDBRANCH   8   9
ENDBRANCH   1   7
BRANCH   4  12
ATOM     12  O   UNL     1     -17.554   0.346  14.270  1.00  0.00    -0.504 OA
ATOM     13  H   UNL     1     -16.683   0.205  14.767  1.00  0.00     0.293 HD
ENDBRANCH   4  12
BRANCH   6  14
ATOM     14  O   UNL     1     -16.243   2.689  15.148  1.00  0.00    -0.504 OA
ATOM     15  H   UNL     1     -15.505   3.039  14.550  1.00  0.00     0.293 HD
ENDBRANCH   6  14
TORSDOF 4
ENDMDL
MODEL 4
REMARK VINA RESULT:     0.667      8.094      9.410
REMARK INTER + INTRA:           0.652
REMARK INTER:                   0.782
REMARK INTRA:                  -0.130
REMARK UNBOUND:                -0.132
REMARK SMILES O=C([O-])C=Cc1ccc(O)c(O)c1
REMARK SMILES IDX 6 1 13 2 7 3 11 4 8 5 9 6 5 7 4 8 2 9 1 10 3 11 12 12 10 14
REMARK H PARENT 12 13 10 15
REMARK Flexibility Score: inf
ROOT
ATOM      1  C   UNL     1     -20.383   2.698  13.971  1.00  0.00    -0.022 A 
ATOM      2  C   UNL     1     -19.630   3.845  14.273  1.00  0.00     0.058 A 
ATOM      3  C   UNL     1     -19.759   1.437  14.039  1.00  0.00     0.012 A 
ATOM      4  C   UNL     1     -18.286   3.739  14.661  1.00  0.00     0.157 A 
ATOM      5  C   UNL     1     -18.420   1.331  14.426  1.00  0.00     0.051 A 
ATOM      6  C   UNL     1     -17.680   2.474  14.740  1.00  0.00     0.157 A 
ENDROOT
BRANCH   1   7
ATOM      7  C   UNL     1     -21.797   2.868  13.554  1.00  0.00     0.010 C 
ATOM      8  C   UNL     1     -22.232   2.675  12.300  1.00  0.00     0.025 C 
BRANCH   8   9
ATOM      9  C   UNL     1     -23.646   2.840  11.924  1.00  0.00     0.064 C 
ATOM     10  O   UNL     1     -24.551   2.893  12.800  1.00  0.00    -0.545 OA
ATOM     11  O   UNL     1     -23.989   2.942  10.583  1.00  0.00    -0.545 OA
ENDBRANCH   8   9
ENDBRANCH   1   7
BRANCH   4  12
ATOM     12  O   UNL     1     -17.553   4.885  14.967  1.00  0.00    -0.504 OA
ATOM     13  H   UNL     1     -16.874   4.897  15.719  1.00  0.00     0.293 HD
ENDBRANCH   4  12
BRANCH   6  14
ATOM     14  O   UNL     1     -16.347   2.336  15.124  1.00  0.00    -0.504 OA
ATOM     15  H   UNL     1     -15.703   1.733  14.626  1.00  0.00     0.293 HD
ENDBRANCH   6  14
TORSDOF 4
ENDMDL
