MODEL 1
REMARK VINA RESULT:    -4.999      0.000      0.000
REMARK INTER + INTRA:          -5.672
REMARK INTER:                  -5.437
REMARK INTRA:                  -0.235
REMARK UNBOUND:                -0.235
REMARK SMILES O=C([O-])c1ccccc1O
REMARK SMILES IDX 4 1 9 2 5 3 8 4 6 5 7 6 2 7 1 8 3 9 10 10
REMARK H PARENT 10 11
REMARK Flexibility Score: inf
ROOT
ATOM      1  C   UNL     1       7.093   1.480   1.217  1.00  0.00     0.039 A 
ATOM      2  C   UNL     1       8.046   0.577   1.753  1.00  0.00     0.124 A 
ATOM      3  C   UNL     1       5.740   1.095   1.177  1.00  0.00     0.014 A 
ATOM      4  C   UNL     1       7.637  -0.695   2.171  1.00  0.00     0.047 A 
ATOM      5  C   UNL     1       5.345  -0.169   1.619  1.00  0.00     0.001 A 
ATOM      6  C   UNL     1       6.294  -1.067   2.105  1.00  0.00     0.004 A 
ENDROOT
BRANCH   1   7
ATOM      7  C   UNL     1       7.473   2.799   0.662  1.00  0.00     0.075 C 
ATOM      8  O   UNL     1       6.801   3.305  -0.276  1.00  0.00    -0.545 OA
ATOM      9  O   UNL     1       8.606   3.462   1.114  1.00  0.00    -0.545 OA
ENDBRANCH   1   7
BRANCH   2  10
ATOM     10  O   UNL     1       9.391   0.916   1.918  1.00  0.00    -0.507 OA
ATOM     11  H   UNL     1       9.747   1.854   1.803  1.00  0.00     0.293 HD
ENDBRANCH   2  10
TORSDOF 2
ENDMDL
MODEL 2
REMARK VINA RESULT:    -4.837      2.397      3.477
REMARK INTER + INTRA:          -5.495
REMARK INTER:                  -5.258
REMARK INTRA:                  -0.238
REMARK UNBOUND:                -0.235
REMARK SMILES O=C([O-])c1ccccc1O
REMARK SMILES IDX 4 1 9 2 5 3 8 4 6 5 7 6 2 7 1 8 3 9 10 10
REMARK H PARENT 10 11
REMARK Flexibility Score: inf
ROOT
ATOM      1  C   UNL     1       6.965  -0.508   2.124  1.00  0.00     0.039 A 
ATOM      2  C   UNL     1       8.024   0.288   1.619  1.00  0.00     0.124 A 
ATOM      3  C   UNL     1       7.235  -1.419   3.163  1.00  0.00     0.014 A 
ATOM      4  C   UNL     1       9.322   0.111   2.114  1.00  0.00     0.047 A 
ATOM      5  C   UNL     1       8.531  -1.568   3.662  1.00  0.00     0.001 A 
ATOM      6  C   UNL     1       9.574  -0.811   3.130  1.00  0.00     0.004 A 
ENDROOT
BRANCH   1   7
ATOM      7  C   UNL     1       5.592  -0.447   1.574  1.00  0.00     0.075 C 
ATOM      8  O   UNL     1       4.971   0.649   1.547  1.00  0.00    -0.545 OA
ATOM      9  O   UNL     1       4.945  -1.599   1.146  1.00  0.00    -0.545 OA
ENDBRANCH   1   7
BRANCH   2  10
ATOM     10  O   UNL     1       7.824   1.282   0.659  1.00  0.00    -0.507 OA
ATOM     11  H   UNL     1       8.409   1.393  -0.157  1.00  0.00     0.293 HD
ENDBRANCH   2  10
TORSDOF 2
ENDMDL
MODEL 3
REMARK VINA RESULT:    -4.835      2.077      3.666
REMARK INTER + INTRA:          -5.494
REMARK INTER:                  -5.247
REMARK INTRA:                  -0.247
REMARK UNBOUND:                -0.235
REMARK SMILES O=C([O-])c1ccccc1O
REMARK SMILES IDX 4 1 9 2 5 3 8 4 6 5 7 6 2 7 1 8 3 9 10 10
REMARK H PARENT 10 11
REMARK Flexibility Score: inf
ROOT
ATOM      1  C   UNL     1       6.413   1.489   0.919  1.00  0.00     0.039 A 
ATOM      2  C   UNL     1       7.531   2.221   1.393  1.00  0.00     0.124 A 
ATOM      3  C   UNL     1       5.668   2.008  -0.157  1.00  0.00     0.014 A 
ATOM      4  C   UNL     1       7.834   3.466   0.830  1.00  0.00     0.047 A 
ATOM      5  C   UNL     1       5.997   3.242  -0.723  1.00  0.00     0.001 A 
ATOM      6  C   UNL     1       7.073   3.974  -0.222  1.00  0.00     0.004 A 
ENDROOT
BRANCH   1   7
ATOM      7  C   UNL     1       5.975   0.218   1.537  1.00  0.00     0.075 C 
ATOM      8  O   UNL     1       6.804  -0.712   1.724  1.00  0.00    -0.545 OA
ATOM      9  O   UNL     1       4.639   0.005   1.855  1.00  0.00    -0.545 OA
ENDBRANCH   1   7
BRANCH   2  10
ATOM     10  O   UNL     1       8.379   1.733   2.390  1.00  0.00    -0.507 OA
ATOM     11  H   UNL     1       8.775   2.313   3.116  1.00  0.00     0.293 HD
ENDBRANCH   2  10
TORSDOF 2
ENDMDL
MODEL 4
REMARK VINA RESULT:    -4.681      8.937      9.656
REMARK INTER + INTRA:          -5.326
REMARK INTER:                  -5.153
REMARK INTRA:                  -0.173
REMARK UNBOUND:                -0.235
REMARK SMILES O=C([O-])c1ccccc1O
REMARK SMILES IDX 4 1 9 2 5 3 8 4 6 5 7 6 2 7 1 8 3 9 10 10
REMARK H PARENT 10 11
REMARK Flexibility Score: inf
ROOT
ATOM      1  C   UNL     1       1.139  -0.074   8.471  1.00  0.00     0.039 A 
ATOM      2  C   UNL     1       1.774  -0.421   7.251  1.00  0.00     0.124 A 
ATOM      3  C   UNL     1       1.916   0.008   9.642  1.00  0.00     0.014 A 
ATOM      4  C   UNL     1       3.139  -0.734   7.244  1.00  0.00     0.047 A 
ATOM      5  C   UNL     1       3.281  -0.285   9.614  1.00  0.00     0.001 A 
ATOM      6  C   UNL     1       3.889  -0.666   8.418  1.00  0.00     0.004 A 
ENDROOT
BRANCH   1   7
ATOM      7  C   UNL     1      -0.318   0.166   8.568  1.00  0.00     0.075 C 
ATOM      8  O   UNL     1      -1.128  -0.778   8.372  1.00  0.00    -0.545 OA
ATOM      9  O   UNL     1      -0.814   1.442   8.806  1.00  0.00    -0.545 OA
ENDBRANCH   1   7
BRANCH   2  10
ATOM     10  O   UNL     1       1.098  -0.431   6.029  1.00  0.00    -0.507 OA
ATOM     11  H   UNL     1       0.093  -0.363   5.949  1.00  0.00     0.293 HD
ENDBRANCH   2  10
TORSDOF 2
ENDMDL
MODEL 5
REMARK VINA RESULT:    -4.668      2.492      3.394
REMARK INTER + INTRA:          -5.312
REMARK INTER:                  -5.101
REMARK INTRA:                  -0.211
REMARK UNBOUND:                -0.235
REMARK SMILES O=C([O-])c1ccccc1O
REMARK SMILES IDX 4 1 9 2 5 3 8 4 6 5 7 6 2 7 1 8 3 9 10 10
REMARK H PARENT 10 11
REMARK Flexibility Score: inf
ROOT
ATOM      1  C   UNL     1       7.059  -0.179   2.086  1.00  0.00     0.039 A 
ATOM      2  C   UNL     1       7.005  -1.313   2.935  1.00  0.00     0.124 A 
ATOM      3  C   UNL     1       8.307   0.422   1.833  1.00  0.00     0.014 A 
ATOM      4  C   UNL     1       8.175  -1.773   3.553  1.00  0.00     0.047 A 
ATOM      5  C   UNL     1       9.468  -0.063   2.439  1.00  0.00     0.001 A 
ATOM      6  C   UNL     1       9.400  -1.153   3.306  1.00  0.00     0.004 A 
ENDROOT
BRANCH   1   7
ATOM      7  C   UNL     1       5.848   0.422   1.485  1.00  0.00     0.075 C 
ATOM      8  O   UNL     1       5.954   1.386   0.681  1.00  0.00    -0.545 OA
ATOM      9  O   UNL     1       4.581  -0.017   1.847  1.00  0.00    -0.545 OA
ENDBRANCH   1   7
BRANCH   2  10
ATOM     10  O   UNL     1       5.826  -2.025   3.162  1.00  0.00    -0.507 OA
ATOM     11  H   UNL     1       5.341  -2.541   2.442  1.00  0.00     0.293 HD
ENDBRANCH   2  10
TORSDOF 2
ENDMDL
MODEL 6
REMARK VINA RESULT:    -4.559      1.483      2.324
REMARK INTER + INTRA:          -5.193
REMARK INTER:                  -4.943
REMARK INTRA:                  -0.250
REMARK UNBOUND:                -0.235
REMARK SMILES O=C([O-])c1ccccc1O
REMARK SMILES IDX 4 1 9 2 5 3 8 4 6 5 7 6 2 7 1 8 3 9 10 10
REMARK H PARENT 10 11
REMARK Flexibility Score: inf
ROOT
ATOM      1  C   UNL     1       7.382  -0.094   2.206  1.00  0.00     0.039 A 
ATOM      2  C   UNL     1       7.665  -1.101   3.164  1.00  0.00     0.124 A 
ATOM      3  C   UNL     1       6.313  -0.289   1.311  1.00  0.00     0.014 A 
ATOM      4  C   UNL     1       6.924  -2.289   3.161  1.00  0.00     0.047 A 
ATOM      5  C   UNL     1       5.569  -1.470   1.335  1.00  0.00     0.001 A 
ATOM      6  C   UNL     1       5.881  -2.473   2.253  1.00  0.00     0.004 A 
ENDROOT
BRANCH   1   7
ATOM      7  C   UNL     1       8.192   1.139   2.086  1.00  0.00     0.075 C 
ATOM      8  O   UNL     1       9.444   1.086   2.211  1.00  0.00    -0.545 OA
ATOM      9  O   UNL     1       7.583   2.375   1.904  1.00  0.00    -0.545 OA
ENDBRANCH   1   7
BRANCH   2  10
ATOM     10  O   UNL     1       8.643  -0.946   4.149  1.00  0.00    -0.507 OA
ATOM     11  H   UNL     1       9.169  -1.716   4.536  1.00  0.00     0.293 HD
ENDBRANCH   2  10
TORSDOF 2
ENDMDL
MODEL 7
REMARK VINA RESULT:    -4.554      1.849      3.767
REMARK INTER + INTRA:          -5.188
REMARK INTER:                  -4.935
REMARK INTRA:                  -0.253
REMARK UNBOUND:                -0.235
REMARK SMILES O=C([O-])c1ccccc1O
REMARK SMILES IDX 4 1 9 2 5 3 8 4 6 5 7 6 2 7 1 8 3 9 10 10
REMARK H PARENT 10 11
REMARK Flexibility Score: inf
ROOT
ATOM      1  C   UNL     1       7.969  -0.725   2.768  1.00  0.00     0.039 A 
ATOM      2  C   UNL     1       8.398   0.440   2.082  1.00  0.00     0.124 A 
ATOM      3  C   UNL     1       6.653  -1.184   2.570  1.00  0.00     0.014 A 
ATOM      4  C   UNL     1       7.494   1.143   1.276  1.00  0.00     0.047 A 
ATOM      5  C   UNL     1       5.770  -0.484   1.746  1.00  0.00     0.001 A 
ATOM      6  C   UNL     1       6.187   0.683   1.108  1.00  0.00     0.004 A 
ENDROOT
BRANCH   1   7
ATOM      7  C   UNL     1       8.841  -1.455   3.715  1.00  0.00     0.075 C 
ATOM      8  O   UNL     1       8.745  -2.706   3.825  1.00  0.00    -0.545 OA
ATOM      9  O   UNL     1       9.724  -0.772   4.541  1.00  0.00    -0.545 OA
ENDBRANCH   1   7
BRANCH   2  10
ATOM     10  O   UNL     1       9.712   0.908   2.146  1.00  0.00    -0.507 OA
ATOM     11  H   UNL     1      10.520   0.302   2.115  1.00  0.00     0.293 HD
ENDBRANCH   2  10
TORSDOF 2
ENDMDL
MODEL 8
REMARK VINA RESULT:    -4.427      2.971      4.576
REMARK INTER + INTRA:          -5.049
REMARK INTER:                  -4.813
REMARK INTRA:                  -0.236
REMARK UNBOUND:                -0.235
REMARK SMILES O=C([O-])c1ccccc1O
REMARK SMILES IDX 4 1 9 2 5 3 8 4 6 5 7 6 2 7 1 8 3 9 10 10
REMARK H PARENT 10 11
REMARK Flexibility Score: inf
ROOT
ATOM      1  C   UNL     1       7.006  -1.041   2.566  1.00  0.00     0.039 A 
ATOM      2  C   UNL     1       6.074  -0.509   1.639  1.00  0.00     0.124 A 
ATOM      3  C   UNL     1       8.186  -0.321   2.831  1.00  0.00     0.014 A 
ATOM      4  C   UNL     1       6.370   0.680   0.961  1.00  0.00     0.047 A 
ATOM      5  C   UNL     1       8.457   0.876   2.163  1.00  0.00     0.001 A 
ATOM      6  C   UNL     1       7.555   1.369   1.222  1.00  0.00     0.004 A 
ENDROOT
BRANCH   1   7
ATOM      7  C   UNL     1       6.804  -2.343   3.238  1.00  0.00     0.075 C 
ATOM      8  O   UNL     1       5.641  -2.727   3.535  1.00  0.00    -0.545 OA
ATOM      9  O   UNL     1       7.889  -3.127   3.612  1.00  0.00    -0.545 OA
ENDBRANCH   1   7
BRANCH   2  10
ATOM     10  O   UNL     1       4.837  -1.109   1.391  1.00  0.00    -0.507 OA
ATOM     11  H   UNL     1       4.137  -0.709   0.782  1.00  0.00     0.293 HD
ENDBRANCH   2  10
TORSDOF 2
ENDMDL
