MODEL 1
REMARK VINA RESULT:    -4.922      0.000      0.000
REMARK INTER + INTRA:          -5.309
REMARK INTER:                  -5.210
REMARK INTRA:                  -0.099
REMARK UNBOUND:                -0.099
REMARK SMILES C=C(C)[C@H]1CC=C(C)C(=O)C1
REMARK SMILES IDX 8 1 7 2 6 3 5 4 4 5 11 6 9 7 10 8 2 9 1 10 3 11
REMARK H PARENT
REMARK Flexibility Score: inf
ROOT
ATOM      1  C   UNL     1      14.642  19.706  13.613  1.00  0.00     0.048 C 
ATOM      2  C   UNL     1      15.398  19.546  14.904  1.00  0.00    -0.012 C 
ATOM      3  C   UNL     1      15.041  18.594  15.783  1.00  0.00    -0.019 C 
ATOM      4  C   UNL     1      15.714  18.448  17.123  1.00  0.00     0.036 C 
ATOM      5  C   UNL     1      17.186  18.898  17.056  1.00  0.00     0.025 C 
ATOM      6  C   UNL     1      17.284  20.333  16.506  1.00  0.00     0.089 C 
ATOM      7  C   UNL     1      16.526  20.459  15.214  1.00  0.00     0.158 C 
ATOM      8  O   UNL     1      16.831  21.383  14.411  1.00  0.00    -0.295 OA
ENDROOT
BRANCH   5   9
ATOM      9  C   UNL     1      17.869  18.773  18.411  1.00  0.00    -0.077 C 
ATOM     10  C   UNL     1      18.461  19.840  18.968  1.00  0.00     0.008 C 
ATOM     11  C   UNL     1      17.896  17.462  19.159  1.00  0.00     0.039 C 
ENDBRANCH   5   9
TORSDOF 1
ENDMDL
MODEL 2
REMARK VINA RESULT:    -4.786      1.827      4.337
REMARK INTER + INTRA:          -5.164
REMARK INTER:                  -5.066
REMARK INTRA:                  -0.098
REMARK UNBOUND:                -0.099
REMARK SMILES C=C(C)[C@H]1CC=C(C)C(=O)C1
REMARK SMILES IDX 8 1 7 2 6 3 5 4 4 5 11 6 9 7 10 8 2 9 1 10 3 11
REMARK H PARENT
REMARK Flexibility Score: inf
ROOT
ATOM      1  C   UNL     1      18.087  17.493  19.614  1.00  0.00     0.048 C 
ATOM      2  C   UNL     1      17.667  18.188  18.348  1.00  0.00    -0.012 C 
ATOM      3  C   UNL     1      17.225  17.474  17.299  1.00  0.00    -0.019 C 
ATOM      4  C   UNL     1      16.871  18.118  15.984  1.00  0.00     0.036 C 
ATOM      5  C   UNL     1      16.352  19.553  16.191  1.00  0.00     0.025 C 
ATOM      6  C   UNL     1      17.373  20.383  16.991  1.00  0.00     0.089 C 
ATOM      7  C   UNL     1      17.767  19.666  18.253  1.00  0.00     0.158 C 
ATOM      8  O   UNL     1      18.227  20.332  19.219  1.00  0.00    -0.295 OA
ENDROOT
BRANCH   5   9
ATOM      9  C   UNL     1      16.011  20.219  14.865  1.00  0.00    -0.077 C 
ATOM     10  C   UNL     1      16.723  21.272  14.436  1.00  0.00     0.008 C 
ATOM     11  C   UNL     1      14.877  19.718  14.003  1.00  0.00     0.039 C 
ENDBRANCH   5   9
TORSDOF 1
ENDMDL
MODEL 3
REMARK VINA RESULT:    -4.737      1.580      2.086
REMARK INTER + INTRA:          -5.112
REMARK INTER:                  -5.014
REMARK INTRA:                  -0.098
REMARK UNBOUND:                -0.099
REMARK SMILES C=C(C)[C@H]1CC=C(C)C(=O)C1
REMARK SMILES IDX 8 1 7 2 6 3 5 4 4 5 11 6 9 7 10 8 2 9 1 10 3 11
REMARK H PARENT
REMARK Flexibility Score: inf
ROOT
ATOM      1  C   UNL     1      15.860  19.816  13.106  1.00  0.00     0.048 C 
ATOM      2  C   UNL     1      16.491  19.551  14.445  1.00  0.00    -0.012 C 
ATOM      3  C   UNL     1      16.882  20.576  15.223  1.00  0.00    -0.019 C 
ATOM      4  C   UNL     1      17.591  20.360  16.534  1.00  0.00     0.036 C 
ATOM      5  C   UNL     1      17.150  19.039  17.193  1.00  0.00     0.025 C 
ATOM      6  C   UNL     1      17.350  17.862  16.221  1.00  0.00     0.089 C 
ATOM      7  C   UNL     1      16.702  18.153  14.895  1.00  0.00     0.158 C 
ATOM      8  O   UNL     1      16.379  17.192  14.146  1.00  0.00    -0.295 OA
ENDROOT
BRANCH   5   9
ATOM      9  C   UNL     1      17.878  18.804  18.510  1.00  0.00    -0.077 C 
ATOM     10  C   UNL     1      18.515  19.816  19.118  1.00  0.00     0.008 C 
ATOM     11  C   UNL     1      17.900  17.443  19.162  1.00  0.00     0.039 C 
ENDBRANCH   5   9
TORSDOF 1
ENDMDL
MODEL 4
REMARK VINA RESULT:    -4.511      2.540      4.686
REMARK INTER + INTRA:          -4.873
REMARK INTER:                  -4.776
REMARK INTRA:                  -0.097
REMARK UNBOUND:                -0.099
REMARK SMILES C=C(C)[C@H]1CC=C(C)C(=O)C1
REMARK SMILES IDX 8 1 7 2 6 3 5 4 4 5 11 6 9 7 10 8 2 9 1 10 3 11
REMARK H PARENT
REMARK Flexibility Score: inf
ROOT
ATOM      1  C   UNL     1      18.364  20.129  19.334  1.00  0.00     0.048 C 
ATOM      2  C   UNL     1      17.896  19.519  18.042  1.00  0.00    -0.012 C 
ATOM      3  C   UNL     1      17.632  20.302  16.981  1.00  0.00    -0.019 C 
ATOM      4  C   UNL     1      17.084  19.746  15.693  1.00  0.00     0.036 C 
ATOM      5  C   UNL     1      17.566  18.302  15.461  1.00  0.00     0.025 C 
ATOM      6  C   UNL     1      17.216  17.419  16.673  1.00  0.00     0.089 C 
ATOM      7  C   UNL     1      17.703  18.050  17.948  1.00  0.00     0.158 C 
ATOM      8  O   UNL     1      17.904  17.321  18.956  1.00  0.00    -0.295 OA
ENDROOT
BRANCH   5   9
ATOM      9  C   UNL     1      17.000  17.725  14.171  1.00  0.00    -0.077 C 
ATOM     10  C   UNL     1      15.862  17.015  14.192  1.00  0.00     0.008 C 
ATOM     11  C   UNL     1      17.693  17.937  12.846  1.00  0.00     0.039 C 
ENDBRANCH   5   9
TORSDOF 1
ENDMDL
MODEL 5
REMARK VINA RESULT:    -4.499      1.993      4.620
REMARK INTER + INTRA:          -4.861
REMARK INTER:                  -4.763
REMARK INTRA:                  -0.098
REMARK UNBOUND:                -0.099
REMARK SMILES C=C(C)[C@H]1CC=C(C)C(=O)C1
REMARK SMILES IDX 8 1 7 2 6 3 5 4 4 5 11 6 9 7 10 8 2 9 1 10 3 11
REMARK H PARENT
REMARK Flexibility Score: inf
ROOT
ATOM      1  C   UNL     1      17.962  17.464  19.521  1.00  0.00     0.048 C 
ATOM      2  C   UNL     1      17.435  18.239  18.346  1.00  0.00    -0.012 C 
ATOM      3  C   UNL     1      18.166  19.231  17.808  1.00  0.00    -0.019 C 
ATOM      4  C   UNL     1      17.647  20.089  16.683  1.00  0.00     0.036 C 
ATOM      5  C   UNL     1      16.672  19.301  15.789  1.00  0.00     0.025 C 
ATOM      6  C   UNL     1      15.535  18.697  16.635  1.00  0.00     0.089 C 
ATOM      7  C   UNL     1      16.093  17.922  17.797  1.00  0.00     0.158 C 
ATOM      8  O   UNL     1      15.388  17.025  18.331  1.00  0.00    -0.295 OA
ENDROOT
BRANCH   5   9
ATOM      9  C   UNL     1      16.126  20.166  14.661  1.00  0.00    -0.077 C 
ATOM     10  C   UNL     1      16.725  21.327  14.353  1.00  0.00     0.008 C 
ATOM     11  C   UNL     1      14.915  19.747  13.864  1.00  0.00     0.039 C 
ENDBRANCH   5   9
TORSDOF 1
ENDMDL
MODEL 6
REMARK VINA RESULT:    -4.447      7.582      8.932
REMARK INTER + INTRA:          -4.805
REMARK INTER:                  -4.709
REMARK INTRA:                  -0.097
REMARK UNBOUND:                -0.099
REMARK SMILES C=C(C)[C@H]1CC=C(C)C(=O)C1
REMARK SMILES IDX 8 1 7 2 6 3 5 4 4 5 11 6 9 7 10 8 2 9 1 10 3 11
REMARK H PARENT
REMARK Flexibility Score: inf
ROOT
ATOM      1  C   UNL     1      19.102  24.958   8.497  1.00  0.00     0.048 C 
ATOM      2  C   UNL     1      19.445  23.496   8.580  1.00  0.00    -0.012 C 
ATOM      3  C   UNL     1      20.612  23.047   8.088  1.00  0.00    -0.019 C 
ATOM      4  C   UNL     1      20.965  21.582   8.075  1.00  0.00     0.036 C 
ATOM      5  C   UNL     1      20.310  20.843   9.257  1.00  0.00     0.025 C 
ATOM      6  C   UNL     1      18.788  21.078   9.261  1.00  0.00     0.089 C 
ATOM      7  C   UNL     1      18.478  22.547   9.185  1.00  0.00     0.158 C 
ATOM      8  O   UNL     1      17.363  22.961   9.602  1.00  0.00    -0.295 OA
ENDROOT
BRANCH   5   9
ATOM      9  C   UNL     1      20.645  19.358   9.240  1.00  0.00    -0.077 C 
ATOM     10  C   UNL     1      20.641  18.679   8.082  1.00  0.00     0.008 C 
ATOM     11  C   UNL     1      20.990  18.615  10.508  1.00  0.00     0.039 C 
ENDBRANCH   5   9
TORSDOF 1
ENDMDL
MODEL 7
REMARK VINA RESULT:    -4.328      7.991      9.176
REMARK INTER + INTRA:          -4.680
REMARK INTER:                  -4.582
REMARK INTRA:                  -0.097
REMARK UNBOUND:                -0.099
REMARK SMILES C=C(C)[C@H]1CC=C(C)C(=O)C1
REMARK SMILES IDX 8 1 7 2 6 3 5 4 4 5 11 6 9 7 10 8 2 9 1 10 3 11
REMARK H PARENT
REMARK Flexibility Score: inf
ROOT
ATOM      1  C   UNL     1      17.830  25.313   8.514  1.00  0.00     0.048 C 
ATOM      2  C   UNL     1      18.591  24.030   8.700  1.00  0.00    -0.012 C 
ATOM      3  C   UNL     1      18.084  23.048   9.466  1.00  0.00    -0.019 C 
ATOM      4  C   UNL     1      18.844  21.779   9.748  1.00  0.00     0.036 C 
ATOM      5  C   UNL     1      19.771  21.415   8.573  1.00  0.00     0.025 C 
ATOM      6  C   UNL     1      20.705  22.593   8.241  1.00  0.00     0.089 C 
ATOM      7  C   UNL     1      19.916  23.859   8.054  1.00  0.00     0.158 C 
ATOM      8  O   UNL     1      20.413  24.797   7.375  1.00  0.00    -0.295 OA
ENDROOT
BRANCH   5   9
ATOM      9  C   UNL     1      20.559  20.143   8.858  1.00  0.00    -0.077 C 
ATOM     10  C   UNL     1      20.950  19.859  10.110  1.00  0.00     0.008 C 
ATOM     11  C   UNL     1      20.915  19.175   7.756  1.00  0.00     0.039 C 
ENDBRANCH   5   9
TORSDOF 1
ENDMDL
MODEL 8
REMARK VINA RESULT:    -4.168      7.926      8.586
REMARK INTER + INTRA:          -4.511
REMARK INTER:                  -4.414
REMARK INTRA:                  -0.097
REMARK UNBOUND:                -0.099
REMARK SMILES C=C(C)[C@H]1CC=C(C)C(=O)C1
REMARK SMILES IDX 8 1 7 2 6 3 5 4 4 5 11 6 9 7 10 8 2 9 1 10 3 11
REMARK H PARENT
REMARK Flexibility Score: inf
ROOT
ATOM      1  C   UNL     1      18.079  17.655   8.333  1.00  0.00     0.048 C 
ATOM      2  C   UNL     1      18.370  19.109   8.585  1.00  0.00    -0.012 C 
ATOM      3  C   UNL     1      17.405  19.920   9.053  1.00  0.00    -0.019 C 
ATOM      4  C   UNL     1      17.625  21.398   9.243  1.00  0.00     0.036 C 
ATOM      5  C   UNL     1      19.096  21.701   9.586  1.00  0.00     0.025 C 
ATOM      6  C   UNL     1      20.030  21.105   8.516  1.00  0.00     0.089 C 
ATOM      7  C   UNL     1      19.720  19.651   8.292  1.00  0.00     0.158 C 
ATOM      8  O   UNL     1      20.611  18.901   7.808  1.00  0.00    -0.295 OA
ENDROOT
BRANCH   5   9
ATOM      9  C   UNL     1      19.331  23.195   9.761  1.00  0.00    -0.077 C 
ATOM     10  C   UNL     1      18.685  24.075   8.979  1.00  0.00     0.008 C 
ATOM     11  C   UNL     1      20.282  23.724  10.807  1.00  0.00     0.039 C 
ENDBRANCH   5   9
TORSDOF 1
ENDMDL
MODEL 9
REMARK VINA RESULT:    -3.340     16.177     17.608
REMARK INTER + INTRA:          -3.634
REMARK INTER:                  -3.542
REMARK INTRA:                  -0.092
REMARK UNBOUND:                -0.099
REMARK SMILES C=C(C)[C@H]1CC=C(C)C(=O)C1
REMARK SMILES IDX 8 1 7 2 6 3 5 4 4 5 11 6 9 7 10 8 2 9 1 10 3 11
REMARK H PARENT
REMARK Flexibility Score: inf
ROOT
ATOM      1  C   UNL     1       1.875  10.786  24.243  1.00  0.00     0.048 C 
ATOM      2  C   UNL     1       2.317  10.504  22.833  1.00  0.00    -0.012 C 
ATOM      3  C   UNL     1       2.109  11.414  21.865  1.00  0.00    -0.019 C 
ATOM      4  C   UNL     1       2.460  11.144  20.425  1.00  0.00     0.036 C 
ATOM      5  C   UNL     1       3.663  10.189  20.316  1.00  0.00     0.025 C 
ATOM      6  C   UNL     1       3.392   8.893  21.104  1.00  0.00     0.089 C 
ATOM      7  C   UNL     1       2.961   9.207  22.509  1.00  0.00     0.158 C 
ATOM      8  O   UNL     1       3.112   8.335  23.407  1.00  0.00    -0.295 OA
ENDROOT
BRANCH   5   9
ATOM      9  C   UNL     1       4.012   9.895  18.863  1.00  0.00    -0.077 C 
ATOM     10  C   UNL     1       4.477  10.874  18.071  1.00  0.00     0.008 C 
ATOM     11  C   UNL     1       3.850   8.512  18.281  1.00  0.00     0.039 C 
ENDBRANCH   5   9
TORSDOF 1
ENDMDL
