MODEL 1
REMARK VINA RESULT:    -6.385      0.000      0.000
REMARK INTER + INTRA:          -8.014
REMARK INTER:                  -7.691
REMARK INTRA:                  -0.323
REMARK UNBOUND:                -0.323
REMARK SMILES O=c1c(O)c(-c2ccc(O)c(O)c2)oc2cc(O)cc(O)c12
REMARK SMILES IDX 5 1 3 2 2 3 1 4 22 5 20 6 19 7 17 8 16 9 15 10 14 11 6 12
REMARK SMILES IDX 7 13 8 14 9 15 13 16 11 17 10 18 12 20 4 22 21 24 18 26
REMARK H PARENT 10 19 12 21 4 23 21 25 18 27
REMARK Flexibility Score: inf
ROOT
ATOM      1  C   UNL     1     -13.253   2.767  22.537  1.00  0.00     0.180 A 
ATOM      2  C   UNL     1     -12.037   2.255  22.043  1.00  0.00     0.208 A 
ATOM      3  C   UNL     1     -10.854   2.970  22.284  1.00  0.00     0.238 A 
ATOM      4  O   UNL     1      -9.758   2.516  21.856  1.00  0.00    -0.285 OA
ATOM      5  C   UNL     1     -10.906   4.187  22.994  1.00  0.00     0.111 A 
ATOM      6  C   UNL     1      -9.760   4.969  23.276  1.00  0.00     0.134 A 
ATOM      7  C   UNL     1      -9.896   6.174  23.981  1.00  0.00     0.093 A 
ATOM      8  C   UNL     1     -11.156   6.611  24.409  1.00  0.00     0.123 A 
ATOM      9  C   UNL     1     -12.288   5.843  24.133  1.00  0.00     0.094 A 
ATOM     10  C   UNL     1     -12.173   4.638  23.434  1.00  0.00     0.146 A 
ATOM     11  O   UNL     1     -13.267   3.925  23.190  1.00  0.00    -0.452 OA
ENDROOT
BRANCH   1  12
ATOM     12  C   UNL     1     -14.540   2.062  22.340  1.00  0.00     0.025 A 
ATOM     13  C   UNL     1     -14.965   1.122  23.291  1.00  0.00     0.016 A 
ATOM     14  C   UNL     1     -16.166   0.429  23.114  1.00  0.00     0.051 A 
ATOM     15  C   UNL     1     -16.952   0.653  21.979  1.00  0.00     0.157 A 
ATOM     16  C   UNL     1     -15.321   2.271  21.188  1.00  0.00     0.062 A 
ATOM     17  C   UNL     1     -16.526   1.576  21.009  1.00  0.00     0.158 A 
BRANCH  15  18
ATOM     18  O   UNL     1     -18.146  -0.051  21.831  1.00  0.00    -0.504 OA
ATOM     19  H   UNL     1     -18.770   0.107  21.049  1.00  0.00     0.293 HD
ENDBRANCH  15  18
BRANCH  17  20
ATOM     20  O   UNL     1     -17.296   1.794  19.867  1.00  0.00    -0.504 OA
ATOM     21  H   UNL     1     -17.378   1.094  19.140  1.00  0.00     0.293 HD
ENDBRANCH  17  20
ENDBRANCH   1  12
BRANCH   2  22
ATOM     22  O   UNL     1     -12.020   1.073  21.299  1.00  0.00    -0.502 OA
ATOM     23  H   UNL     1     -12.529   0.973  20.428  1.00  0.00     0.293 HD
ENDBRANCH   2  22
BRANCH   6  24
ATOM     24  O   UNL     1      -8.492   4.559  22.863  1.00  0.00    -0.507 OA
ATOM     25  H   UNL     1      -7.991   5.039  22.123  1.00  0.00     0.293 HD
ENDBRANCH   6  24
BRANCH   8  26
ATOM     26  O   UNL     1     -11.291   7.808  25.107  1.00  0.00    -0.508 OA
ATOM     27  H   UNL     1     -10.970   8.688  24.719  1.00  0.00     0.293 HD
ENDBRANCH   8  26
TORSDOF 6
ENDMDL
MODEL 2
REMARK VINA RESULT:    -6.375      0.868      1.612
REMARK INTER + INTRA:          -8.003
REMARK INTER:                  -7.723
REMARK INTRA:                  -0.280
REMARK UNBOUND:                -0.323
REMARK SMILES O=c1c(O)c(-c2ccc(O)c(O)c2)oc2cc(O)cc(O)c12
REMARK SMILES IDX 5 1 3 2 2 3 1 4 22 5 20 6 19 7 17 8 16 9 15 10 14 11 6 12
REMARK SMILES IDX 7 13 8 14 9 15 13 16 11 17 10 18 12 20 4 22 21 24 18 26
REMARK H PARENT 10 19 12 21 4 23 21 25 18 27
REMARK Flexibility Score: inf
ROOT
ATOM      1  C   UNL     1     -13.468   2.547  22.753  1.00  0.00     0.180 A 
ATOM      2  C   UNL     1     -12.307   2.080  22.108  1.00  0.00     0.208 A 
ATOM      3  C   UNL     1     -11.126   2.831  22.212  1.00  0.00     0.238 A 
ATOM      4  O   UNL     1     -10.076   2.417  21.648  1.00  0.00    -0.285 OA
ATOM      5  C   UNL     1     -11.129   4.040  22.938  1.00  0.00     0.111 A 
ATOM      6  C   UNL     1      -9.983   4.857  23.087  1.00  0.00     0.134 A 
ATOM      7  C   UNL     1     -10.069   6.051  23.818  1.00  0.00     0.093 A 
ATOM      8  C   UNL     1     -11.281   6.443  24.401  1.00  0.00     0.123 A 
ATOM      9  C   UNL     1     -12.413   5.641  24.256  1.00  0.00     0.094 A 
ATOM     10  C   UNL     1     -12.347   4.446  23.534  1.00  0.00     0.146 A 
ATOM     11  O   UNL     1     -13.439   3.699  23.416  1.00  0.00    -0.452 OA
ENDROOT
BRANCH   1  12
ATOM     12  C   UNL     1     -14.747   1.803  22.705  1.00  0.00     0.025 A 
ATOM     13  C   UNL     1     -15.554   1.891  21.560  1.00  0.00     0.016 A 
ATOM     14  C   UNL     1     -16.776   1.214  21.501  1.00  0.00     0.051 A 
ATOM     15  C   UNL     1     -17.216   0.453  22.588  1.00  0.00     0.157 A 
ATOM     16  C   UNL     1     -15.202   1.055  23.806  1.00  0.00     0.062 A 
ATOM     17  C   UNL     1     -16.429   0.375  23.749  1.00  0.00     0.158 A 
BRANCH  15  18
ATOM     18  O   UNL     1     -18.438  -0.213  22.499  1.00  0.00    -0.504 OA
ATOM     19  H   UNL     1     -18.526  -1.203  22.696  1.00  0.00     0.293 HD
ENDBRANCH  15  18
BRANCH  17  20
ATOM     20  O   UNL     1     -16.868  -0.369  24.843  1.00  0.00    -0.504 OA
ATOM     21  H   UNL     1     -16.564  -1.323  24.992  1.00  0.00     0.293 HD
ENDBRANCH  17  20
ENDBRANCH   1  12
BRANCH   2  22
ATOM     22  O   UNL     1     -12.343   0.905  21.354  1.00  0.00    -0.502 OA
ATOM     23  H   UNL     1     -11.662   0.164  21.471  1.00  0.00     0.293 HD
ENDBRANCH   2  22
BRANCH   6  24
ATOM     24  O   UNL     1      -8.762   4.492  22.518  1.00  0.00    -0.507 OA
ATOM     25  H   UNL     1      -8.255   3.670  22.826  1.00  0.00     0.293 HD
ENDBRANCH   6  24
BRANCH   8  26
ATOM     26  O   UNL     1     -11.368   7.630  25.125  1.00  0.00    -0.508 OA
ATOM     27  H   UNL     1     -11.637   8.502  24.683  1.00  0.00     0.293 HD
ENDBRANCH   8  26
TORSDOF 6
ENDMDL
MODEL 3
REMARK VINA RESULT:    -6.283      1.114      1.757
REMARK INTER + INTRA:          -7.892
REMARK INTER:                  -7.561
REMARK INTRA:                  -0.331
REMARK UNBOUND:                -0.323
REMARK SMILES O=c1c(O)c(-c2ccc(O)c(O)c2)oc2cc(O)cc(O)c12
REMARK SMILES IDX 5 1 3 2 2 3 1 4 22 5 20 6 19 7 17 8 16 9 15 10 14 11 6 12
REMARK SMILES IDX 7 13 8 14 9 15 13 16 11 17 10 18 12 20 4 22 21 24 18 26
REMARK H PARENT 10 19 12 21 4 23 21 25 18 27
REMARK Flexibility Score: inf
ROOT
ATOM      1  C   UNL     1     -12.674   2.785  23.176  1.00  0.00     0.180 A 
ATOM      2  C   UNL     1     -11.402   2.228  22.938  1.00  0.00     0.208 A 
ATOM      3  C   UNL     1     -10.263   3.001  23.211  1.00  0.00     0.238 A 
ATOM      4  O   UNL     1      -9.118   2.509  23.013  1.00  0.00    -0.285 OA
ATOM      5  C   UNL     1     -10.411   4.317  23.696  1.00  0.00     0.111 A 
ATOM      6  C   UNL     1      -9.314   5.161  23.993  1.00  0.00     0.134 A 
ATOM      7  C   UNL     1      -9.545   6.462  24.464  1.00  0.00     0.093 A 
ATOM      8  C   UNL     1     -10.851   6.933  24.643  1.00  0.00     0.123 A 
ATOM      9  C   UNL     1     -11.935   6.104  24.352  1.00  0.00     0.094 A 
ATOM     10  C   UNL     1     -11.726   4.803  23.884  1.00  0.00     0.146 A 
ATOM     11  O   UNL     1     -12.776   4.034  23.620  1.00  0.00    -0.452 OA
ENDROOT
BRANCH   1  12
ATOM     12  C   UNL     1     -13.922   2.027  22.930  1.00  0.00     0.025 A 
ATOM     13  C   UNL     1     -14.613   2.210  21.722  1.00  0.00     0.016 A 
ATOM     14  C   UNL     1     -15.804   1.522  21.477  1.00  0.00     0.051 A 
ATOM     15  C   UNL     1     -16.331   0.655  22.439  1.00  0.00     0.157 A 
ATOM     16  C   UNL     1     -14.464   1.171  23.905  1.00  0.00     0.062 A 
ATOM     17  C   UNL     1     -15.661   0.480  23.661  1.00  0.00     0.158 A 
BRANCH  15  18
ATOM     18  O   UNL     1     -17.520  -0.020  22.165  1.00  0.00    -0.504 OA
ATOM     19  H   UNL     1     -18.343   0.082  22.747  1.00  0.00     0.293 HD
ENDBRANCH  15  18
BRANCH  17  20
ATOM     20  O   UNL     1     -16.187  -0.371  24.632  1.00  0.00    -0.504 OA
ATOM     21  H   UNL     1     -15.883  -0.329  25.596  1.00  0.00     0.293 HD
ENDBRANCH  17  20
ENDBRANCH   1  12
BRANCH   2  22
ATOM     22  O   UNL     1     -11.283   0.940  22.410  1.00  0.00    -0.502 OA
ATOM     23  H   UNL     1     -10.387   0.535  22.168  1.00  0.00     0.293 HD
ENDBRANCH   2  22
BRANCH   6  24
ATOM     24  O   UNL     1      -8.001   4.719  23.825  1.00  0.00    -0.507 OA
ATOM     25  H   UNL     1      -7.729   4.150  23.031  1.00  0.00     0.293 HD
ENDBRANCH   6  24
BRANCH   8  26
ATOM     26  O   UNL     1     -11.081   8.226  25.109  1.00  0.00    -0.508 OA
ATOM     27  H   UNL     1     -11.583   8.909  24.552  1.00  0.00     0.293 HD
ENDBRANCH   8  26
TORSDOF 6
ENDMDL
MODEL 4
REMARK VINA RESULT:    -6.278      2.752      7.496
REMARK INTER + INTRA:          -7.886
REMARK INTER:                  -7.953
REMARK INTRA:                   0.067
REMARK UNBOUND:                -0.323
REMARK SMILES O=c1c(O)c(-c2ccc(O)c(O)c2)oc2cc(O)cc(O)c12
REMARK SMILES IDX 5 1 3 2 2 3 1 4 22 5 20 6 19 7 17 8 16 9 15 10 14 11 6 12
REMARK SMILES IDX 7 13 8 14 9 15 13 16 11 17 10 18 12 20 4 22 21 24 18 26
REMARK H PARENT 10 19 12 21 4 23 21 25 18 27
REMARK Flexibility Score: inf
ROOT
ATOM      1  C   UNL     1      -9.636   4.088  23.920  1.00  0.00     0.180 A 
ATOM      2  C   UNL     1     -10.073   5.330  24.420  1.00  0.00     0.208 A 
ATOM      3  C   UNL     1     -11.407   5.713  24.212  1.00  0.00     0.238 A 
ATOM      4  O   UNL     1     -11.813   6.818  24.665  1.00  0.00    -0.285 OA
ATOM      5  C   UNL     1     -12.273   4.862  23.494  1.00  0.00     0.111 A 
ATOM      6  C   UNL     1     -13.630   5.175  23.238  1.00  0.00     0.134 A 
ATOM      7  C   UNL     1     -14.425   4.280  22.509  1.00  0.00     0.093 A 
ATOM      8  C   UNL     1     -13.889   3.078  22.030  1.00  0.00     0.123 A 
ATOM      9  C   UNL     1     -12.552   2.766  22.280  1.00  0.00     0.094 A 
ATOM     10  C   UNL     1     -11.744   3.644  23.008  1.00  0.00     0.146 A 
ATOM     11  O   UNL     1     -10.476   3.318  23.235  1.00  0.00    -0.452 OA
ENDROOT
BRANCH   1  12
ATOM     12  C   UNL     1      -8.250   3.606  24.115  1.00  0.00     0.025 A 
ATOM     13  C   UNL     1      -8.032   2.302  24.588  1.00  0.00     0.016 A 
ATOM     14  C   UNL     1      -6.733   1.834  24.799  1.00  0.00     0.051 A 
ATOM     15  C   UNL     1      -5.634   2.663  24.558  1.00  0.00     0.157 A 
ATOM     16  C   UNL     1      -7.144   4.446  23.892  1.00  0.00     0.062 A 
ATOM     17  C   UNL     1      -5.838   3.977  24.106  1.00  0.00     0.158 A 
BRANCH  15  18
ATOM     18  O   UNL     1      -4.349   2.167  24.775  1.00  0.00    -0.504 OA
ATOM     19  H   UNL     1      -4.016   1.321  24.329  1.00  0.00     0.293 HD
ENDBRANCH  15  18
BRANCH  17  20
ATOM     20  O   UNL     1      -4.748   4.815  23.877  1.00  0.00    -0.504 OA
ATOM     21  H   UNL     1      -4.836   5.823  23.918  1.00  0.00     0.293 HD
ENDBRANCH  17  20
ENDBRANCH   1  12
BRANCH   2  22
ATOM     22  O   UNL     1      -9.181   6.176  25.084  1.00  0.00    -0.502 OA
ATOM     23  H   UNL     1      -9.432   6.669  25.933  1.00  0.00     0.293 HD
ENDBRANCH   2  22
BRANCH   6  24
ATOM     24  O   UNL     1     -14.192   6.366  23.703  1.00  0.00    -0.507 OA
ATOM     25  H   UNL     1     -15.183   6.446  23.898  1.00  0.00     0.293 HD
ENDBRANCH   6  24
BRANCH   8  26
ATOM     26  O   UNL     1     -14.678   2.189  21.304  1.00  0.00    -0.508 OA
ATOM     27  H   UNL     1     -14.755   1.213  21.566  1.00  0.00     0.293 HD
ENDBRANCH   8  26
TORSDOF 6
ENDMDL
MODEL 5
REMARK VINA RESULT:    -6.199      2.668      6.900
REMARK INTER + INTRA:          -7.791
REMARK INTER:                  -7.926
REMARK INTRA:                   0.134
REMARK UNBOUND:                -0.323
REMARK SMILES O=c1c(O)c(-c2ccc(O)c(O)c2)oc2cc(O)cc(O)c12
REMARK SMILES IDX 5 1 3 2 2 3 1 4 22 5 20 6 19 7 17 8 16 9 15 10 14 11 6 12
REMARK SMILES IDX 7 13 8 14 9 15 13 16 11 17 10 18 12 20 4 22 21 24 18 26
REMARK H PARENT 10 19 12 21 4 23 21 25 18 27
REMARK Flexibility Score: inf
ROOT
ATOM      1  C   UNL     1     -10.054   3.115  23.267  1.00  0.00     0.180 A 
ATOM      2  C   UNL     1     -10.541   2.042  22.495  1.00  0.00     0.208 A 
ATOM      3  C   UNL     1     -11.881   2.059  22.081  1.00  0.00     0.238 A 
ATOM      4  O   UNL     1     -12.325   1.110  21.379  1.00  0.00    -0.285 OA
ATOM      5  C   UNL     1     -12.715   3.133  22.458  1.00  0.00     0.111 A 
ATOM      6  C   UNL     1     -14.078   3.224  22.084  1.00  0.00     0.134 A 
ATOM      7  C   UNL     1     -14.843   4.319  22.507  1.00  0.00     0.093 A 
ATOM      8  C   UNL     1     -14.273   5.325  23.297  1.00  0.00     0.123 A 
ATOM      9  C   UNL     1     -12.930   5.239  23.667  1.00  0.00     0.094 A 
ATOM     10  C   UNL     1     -12.149   4.156  23.254  1.00  0.00     0.146 A 
ATOM     11  O   UNL     1     -10.873   4.103  23.617  1.00  0.00    -0.452 OA
ENDROOT
BRANCH   1  12
ATOM     12  C   UNL     1      -8.648   3.178  23.727  1.00  0.00     0.025 A 
ATOM     13  C   UNL     1      -7.946   4.390  23.635  1.00  0.00     0.016 A 
ATOM     14  C   UNL     1      -6.611   4.467  24.043  1.00  0.00     0.051 A 
ATOM     15  C   UNL     1      -5.955   3.335  24.534  1.00  0.00     0.157 A 
ATOM     16  C   UNL     1      -7.981   2.035  24.201  1.00  0.00     0.062 A 
ATOM     17  C   UNL     1      -6.640   2.111  24.610  1.00  0.00     0.158 A 
BRANCH  15  18
ATOM     18  O   UNL     1      -4.624   3.443  24.937  1.00  0.00    -0.504 OA
ATOM     19  H   UNL     1      -4.052   2.629  25.128  1.00  0.00     0.293 HD
ENDBRANCH  15  18
BRANCH  17  20
ATOM     20  O   UNL     1      -5.989   0.973  25.085  1.00  0.00    -0.504 OA
ATOM     21  H   UNL     1      -6.333   0.042  24.886  1.00  0.00     0.293 HD
ENDBRANCH  17  20
ENDBRANCH   1  12
BRANCH   2  22
ATOM     22  O   UNL     1      -9.708   0.967  22.178  1.00  0.00    -0.502 OA
ATOM     23  H   UNL     1      -9.970   0.005  22.360  1.00  0.00     0.293 HD
ENDBRANCH   2  22
BRANCH   6  24
ATOM     24  O   UNL     1     -14.674   2.237  21.297  1.00  0.00    -0.507 OA
ATOM     25  H   UNL     1     -15.166   2.463  20.441  1.00  0.00     0.293 HD
ENDBRANCH   6  24
BRANCH   8  26
ATOM     26  O   UNL     1     -15.033   6.413  23.718  1.00  0.00    -0.508 OA
ATOM     27  H   UNL     1     -15.283   7.163  23.084  1.00  0.00     0.293 HD
ENDBRANCH   8  26
TORSDOF 6
ENDMDL
MODEL 6
REMARK VINA RESULT:    -6.077      1.444      3.213
REMARK INTER + INTRA:          -7.644
REMARK INTER:                  -7.337
REMARK INTRA:                  -0.307
REMARK UNBOUND:                -0.323
REMARK SMILES O=c1c(O)c(-c2ccc(O)c(O)c2)oc2cc(O)cc(O)c12
REMARK SMILES IDX 5 1 3 2 2 3 1 4 22 5 20 6 19 7 17 8 16 9 15 10 14 11 6 12
REMARK SMILES IDX 7 13 8 14 9 15 13 16 11 17 10 18 12 20 4 22 21 24 18 26
REMARK H PARENT 10 19 12 21 4 23 21 25 18 27
REMARK Flexibility Score: inf
ROOT
ATOM      1  C   UNL     1     -13.164   3.492  23.186  1.00  0.00     0.180 A 
ATOM      2  C   UNL     1     -13.432   4.817  23.580  1.00  0.00     0.208 A 
ATOM      3  C   UNL     1     -12.361   5.638  23.966  1.00  0.00     0.238 A 
ATOM      4  O   UNL     1     -12.587   6.831  24.311  1.00  0.00    -0.285 OA
ATOM      5  C   UNL     1     -11.050   5.119  23.971  1.00  0.00     0.111 A 
ATOM      6  C   UNL     1      -9.917   5.880  24.349  1.00  0.00     0.134 A 
ATOM      7  C   UNL     1      -8.646   5.289  24.336  1.00  0.00     0.093 A 
ATOM      8  C   UNL     1      -8.486   3.952  23.952  1.00  0.00     0.123 A 
ATOM      9  C   UNL     1      -9.600   3.199  23.578  1.00  0.00     0.094 A 
ATOM     10  C   UNL     1     -10.875   3.770  23.582  1.00  0.00     0.146 A 
ATOM     11  O   UNL     1     -11.917   3.032  23.217  1.00  0.00    -0.452 OA
ENDROOT
BRANCH   1  12
ATOM     12  C   UNL     1     -14.237   2.570  22.748  1.00  0.00     0.025 A 
ATOM     13  C   UNL     1     -14.712   2.641  21.429  1.00  0.00     0.016 A 
ATOM     14  C   UNL     1     -15.739   1.795  21.001  1.00  0.00     0.051 A 
ATOM     15  C   UNL     1     -16.317   0.880  21.885  1.00  0.00     0.157 A 
ATOM     16  C   UNL     1     -14.834   1.663  23.642  1.00  0.00     0.062 A 
ATOM     17  C   UNL     1     -15.866   0.815  23.214  1.00  0.00     0.158 A 
BRANCH  15  18
ATOM     18  O   UNL     1     -17.338   0.047  21.428  1.00  0.00    -0.504 OA
ATOM     19  H   UNL     1     -18.012   0.352  20.737  1.00  0.00     0.293 HD
ENDBRANCH  15  18
BRANCH  17  20
ATOM     20  O   UNL     1     -16.447  -0.085  24.106  1.00  0.00    -0.504 OA
ATOM     21  H   UNL     1     -16.890   0.226  24.961  1.00  0.00     0.293 HD
ENDBRANCH  17  20
ENDBRANCH   1  12
BRANCH   2  22
ATOM     22  O   UNL     1     -14.745   5.291  23.615  1.00  0.00    -0.502 OA
ATOM     23  H   UNL     1     -15.392   5.152  22.848  1.00  0.00     0.293 HD
ENDBRANCH   2  22
BRANCH   6  24
ATOM     24  O   UNL     1     -10.046   7.215  24.737  1.00  0.00    -0.507 OA
ATOM     25  H   UNL     1     -10.905   7.573  25.137  1.00  0.00     0.293 HD
ENDBRANCH   6  24
BRANCH   8  26
ATOM     26  O   UNL     1      -7.224   3.363  23.940  1.00  0.00    -0.508 OA
ATOM     27  H   UNL     1      -7.097   2.376  24.134  1.00  0.00     0.293 HD
ENDBRANCH   8  26
TORSDOF 6
ENDMDL
MODEL 7
REMARK VINA RESULT:    -6.072      1.307      2.832
REMARK INTER + INTRA:          -7.638
REMARK INTER:                  -7.352
REMARK INTRA:                  -0.286
REMARK UNBOUND:                -0.323
REMARK SMILES O=c1c(O)c(-c2ccc(O)c(O)c2)oc2cc(O)cc(O)c12
REMARK SMILES IDX 5 1 3 2 2 3 1 4 22 5 20 6 19 7 17 8 16 9 15 10 14 11 6 12
REMARK SMILES IDX 7 13 8 14 9 15 13 16 11 17 10 18 12 20 4 22 21 24 18 26
REMARK H PARENT 10 19 12 21 4 23 21 25 18 27
REMARK Flexibility Score: inf
ROOT
ATOM      1  C   UNL     1     -13.597   3.367  23.128  1.00  0.00     0.180 A 
ATOM      2  C   UNL     1     -13.774   4.729  23.444  1.00  0.00     0.208 A 
ATOM      3  C   UNL     1     -12.647   5.502  23.760  1.00  0.00     0.238 A 
ATOM      4  O   UNL     1     -12.792   6.725  24.033  1.00  0.00    -0.285 OA
ATOM      5  C   UNL     1     -11.371   4.903  23.774  1.00  0.00     0.111 A 
ATOM      6  C   UNL     1     -10.185   5.612  24.086  1.00  0.00     0.134 A 
ATOM      7  C   UNL     1      -8.954   4.941  24.088  1.00  0.00     0.093 A 
ATOM      8  C   UNL     1      -8.885   3.576  23.785  1.00  0.00     0.123 A 
ATOM      9  C   UNL     1     -10.051   2.873  23.478  1.00  0.00     0.094 A 
ATOM     10  C   UNL     1     -11.288   3.524  23.468  1.00  0.00     0.146 A 
ATOM     11  O   UNL     1     -12.381   2.832  23.167  1.00  0.00    -0.452 OA
ENDROOT
BRANCH   1  12
ATOM     12  C   UNL     1     -14.734   2.490  22.767  1.00  0.00     0.025 A 
ATOM     13  C   UNL     1     -15.184   1.529  23.686  1.00  0.00     0.016 A 
ATOM     14  C   UNL     1     -16.241   0.676  23.358  1.00  0.00     0.051 A 
ATOM     15  C   UNL     1     -16.854   0.759  22.105  1.00  0.00     0.157 A 
ATOM     16  C   UNL     1     -15.338   2.558  21.498  1.00  0.00     0.062 A 
ATOM     17  C   UNL     1     -16.400   1.701  21.168  1.00  0.00     0.158 A 
BRANCH  15  18
ATOM     18  O   UNL     1     -17.909  -0.103  21.807  1.00  0.00    -0.504 OA
ATOM     19  H   UNL     1     -18.082  -0.947  22.341  1.00  0.00     0.293 HD
ENDBRANCH  15  18
BRANCH  17  20
ATOM     20  O   UNL     1     -16.996   1.780  19.910  1.00  0.00    -0.504 OA
ATOM     21  H   UNL     1     -17.461   2.623  19.595  1.00  0.00     0.293 HD
ENDBRANCH  17  20
ENDBRANCH   1  12
BRANCH   2  22
ATOM     22  O   UNL     1     -15.055   5.286  23.471  1.00  0.00    -0.502 OA
ATOM     23  H   UNL     1     -15.821   4.911  22.924  1.00  0.00     0.293 HD
ENDBRANCH   2  22
BRANCH   6  24
ATOM     24  O   UNL     1     -10.222   6.973  24.392  1.00  0.00    -0.507 OA
ATOM     25  H   UNL     1     -10.698   7.640  23.795  1.00  0.00     0.293 HD
ENDBRANCH   6  24
BRANCH   8  26
ATOM     26  O   UNL     1      -7.663   2.909  23.788  1.00  0.00    -0.508 OA
ATOM     27  H   UNL     1      -7.121   2.791  22.939  1.00  0.00     0.293 HD
ENDBRANCH   8  26
TORSDOF 6
ENDMDL
MODEL 8
REMARK VINA RESULT:    -6.037      1.563      6.867
REMARK INTER + INTRA:          -7.596
REMARK INTER:                  -7.395
REMARK INTRA:                  -0.201
REMARK UNBOUND:                -0.323
REMARK SMILES O=c1c(O)c(-c2ccc(O)c(O)c2)oc2cc(O)cc(O)c12
REMARK SMILES IDX 5 1 3 2 2 3 1 4 22 5 20 6 19 7 17 8 16 9 15 10 14 11 6 12
REMARK SMILES IDX 7 13 8 14 9 15 13 16 11 17 10 18 12 20 4 22 21 24 18 26
REMARK H PARENT 10 19 12 21 4 23 21 25 18 27
REMARK Flexibility Score: inf
ROOT
ATOM      1  C   UNL     1     -13.157   3.654  23.259  1.00  0.00     0.180 A 
ATOM      2  C   UNL     1     -13.191   2.317  23.701  1.00  0.00     0.208 A 
ATOM      3  C   UNL     1     -14.170   1.457  23.181  1.00  0.00     0.238 A 
ATOM      4  O   UNL     1     -14.203   0.255  23.561  1.00  0.00    -0.285 OA
ATOM      5  C   UNL     1     -15.107   1.948  22.249  1.00  0.00     0.111 A 
ATOM      6  C   UNL     1     -16.127   1.148  21.680  1.00  0.00     0.134 A 
ATOM      7  C   UNL     1     -17.027   1.713  20.766  1.00  0.00     0.093 A 
ATOM      8  C   UNL     1     -16.927   3.064  20.410  1.00  0.00     0.123 A 
ATOM      9  C   UNL     1     -15.923   3.856  20.968  1.00  0.00     0.094 A 
ATOM     10  C   UNL     1     -15.015   3.311  21.879  1.00  0.00     0.146 A 
ATOM     11  O   UNL     1     -14.066   4.087  22.391  1.00  0.00    -0.452 OA
ENDROOT
BRANCH   1  12
ATOM     12  C   UNL     1     -12.144   4.618  23.747  1.00  0.00     0.025 A 
ATOM     13  C   UNL     1     -12.559   5.749  24.468  1.00  0.00     0.016 A 
ATOM     14  C   UNL     1     -11.622   6.683  24.919  1.00  0.00     0.051 A 
ATOM     15  C   UNL     1     -10.262   6.510  24.646  1.00  0.00     0.157 A 
ATOM     16  C   UNL     1     -10.778   4.456  23.454  1.00  0.00     0.062 A 
ATOM     17  C   UNL     1      -9.837   5.394  23.906  1.00  0.00     0.158 A 
BRANCH  15  18
ATOM     18  O   UNL     1      -9.350   7.457  25.111  1.00  0.00    -0.504 OA
ATOM     19  H   UNL     1      -9.488   7.953  25.983  1.00  0.00     0.293 HD
ENDBRANCH  15  18
BRANCH  17  20
ATOM     20  O   UNL     1      -8.484   5.222  23.615  1.00  0.00    -0.504 OA
ATOM     21  H   UNL     1      -7.977   4.398  23.915  1.00  0.00     0.293 HD
ENDBRANCH  17  20
ENDBRANCH   1  12
BRANCH   2  22
ATOM     22  O   UNL     1     -12.283   1.869  24.663  1.00  0.00    -0.502 OA
ATOM     23  H   UNL     1     -11.330   1.616  24.432  1.00  0.00     0.293 HD
ENDBRANCH   2  22
BRANCH   6  24
ATOM     24  O   UNL     1     -16.252  -0.201  22.016  1.00  0.00    -0.507 OA
ATOM     25  H   UNL     1     -16.280  -0.510  22.982  1.00  0.00     0.293 HD
ENDBRANCH   6  24
BRANCH   8  26
ATOM     26  O   UNL     1     -17.821   3.626  19.502  1.00  0.00    -0.508 OA
ATOM     27  H   UNL     1     -18.603   4.194  19.811  1.00  0.00     0.293 HD
ENDBRANCH   8  26
TORSDOF 6
ENDMDL
MODEL 9
REMARK VINA RESULT:    -5.575      1.608      6.809
REMARK INTER + INTRA:          -7.039
REMARK INTER:                  -7.223
REMARK INTRA:                   0.184
REMARK UNBOUND:                -0.323
REMARK SMILES O=c1c(O)c(-c2ccc(O)c(O)c2)oc2cc(O)cc(O)c12
REMARK SMILES IDX 5 1 3 2 2 3 1 4 22 5 20 6 19 7 17 8 16 9 15 10 14 11 6 12
REMARK SMILES IDX 7 13 8 14 9 15 13 16 11 17 10 18 12 20 4 22 21 24 18 26
REMARK H PARENT 10 19 12 21 4 23 21 25 18 27
REMARK Flexibility Score: inf
ROOT
ATOM      1  C   UNL     1     -12.684   2.387  22.368  1.00  0.00     0.180 A 
ATOM      2  C   UNL     1     -13.007   1.102  22.846  1.00  0.00     0.208 A 
ATOM      3  C   UNL     1     -14.258   0.555  22.524  1.00  0.00     0.238 A 
ATOM      4  O   UNL     1     -14.554  -0.600  22.936  1.00  0.00    -0.285 OA
ATOM      5  C   UNL     1     -15.170   1.304  21.751  1.00  0.00     0.111 A 
ATOM      6  C   UNL     1     -16.452   0.826  21.386  1.00  0.00     0.134 A 
ATOM      7  C   UNL     1     -17.304   1.635  20.622  1.00  0.00     0.093 A 
ATOM      8  C   UNL     1     -16.900   2.913  20.217  1.00  0.00     0.123 A 
ATOM      9  C   UNL     1     -15.638   3.388  20.575  1.00  0.00     0.094 A 
ATOM     10  C   UNL     1     -14.772   2.595  21.334  1.00  0.00     0.146 A 
ATOM     11  O   UNL     1     -13.574   3.071  21.655  1.00  0.00    -0.452 OA
ENDROOT
BRANCH   1  12
ATOM     12  C   UNL     1     -11.378   3.025  22.650  1.00  0.00     0.025 A 
ATOM     13  C   UNL     1     -10.213   2.242  22.651  1.00  0.00     0.016 A 
ATOM     14  C   UNL     1      -8.972   2.818  22.936  1.00  0.00     0.051 A 
ATOM     15  C   UNL     1      -8.878   4.179  23.239  1.00  0.00     0.157 A 
ATOM     16  C   UNL     1     -11.284   4.390  22.977  1.00  0.00     0.062 A 
ATOM     17  C   UNL     1     -10.039   4.970  23.264  1.00  0.00     0.158 A 
BRANCH  15  18
ATOM     18  O   UNL     1      -7.626   4.727  23.516  1.00  0.00    -0.504 OA
ATOM     19  H   UNL     1      -7.470   5.728  23.541  1.00  0.00     0.293 HD
ENDBRANCH  15  18
BRANCH  17  20
ATOM     20  O   UNL     1      -9.955   6.325  23.581  1.00  0.00    -0.504 OA
ATOM     21  H   UNL     1     -10.287   7.040  22.945  1.00  0.00     0.293 HD
ENDBRANCH  17  20
ENDBRANCH   1  12
BRANCH   2  22
ATOM     22  O   UNL     1     -12.106   0.402  23.652  1.00  0.00    -0.502 OA
ATOM     23  H   UNL     1     -11.510  -0.332  23.287  1.00  0.00     0.293 HD
ENDBRANCH   2  22
BRANCH   6  24
ATOM     24  O   UNL     1     -16.882  -0.444  21.775  1.00  0.00    -0.507 OA
ATOM     25  H   UNL     1     -17.717  -0.575  22.334  1.00  0.00     0.293 HD
ENDBRANCH   6  24
BRANCH   8  26
ATOM     26  O   UNL     1     -17.747   3.718  19.460  1.00  0.00    -0.508 OA
ATOM     27  H   UNL     1     -17.619   4.723  19.409  1.00  0.00     0.293 HD
ENDBRANCH   8  26
TORSDOF 6
ENDMDL
