MODEL 1
REMARK VINA RESULT:    -5.052      0.000      0.000
REMARK INTER + INTRA:          -5.878
REMARK INTER:                  -5.790
REMARK INTRA:                  -0.088
REMARK UNBOUND:                -0.088
REMARK SMILES COc1cc(C(=O)[O-])ccc1O
REMARK SMILES IDX 5 1 9 2 4 3 10 4 3 5 11 6 6 7 7 8 8 9 2 10 1 11 12 12
REMARK H PARENT 12 13
REMARK Flexibility Score: inf
ROOT
ATOM      1  C   UNL     1       9.134   0.352  35.275  1.00  0.00     0.001 A 
ATOM      2  C   UNL     1       9.590  -0.388  34.171  1.00  0.00     0.014 A 
ATOM      3  C   UNL     1      10.013   1.247  35.908  1.00  0.00     0.060 A 
ATOM      4  C   UNL     1      10.898  -0.234  33.710  1.00  0.00     0.051 A 
ATOM      5  C   UNL     1      11.336   1.406  35.447  1.00  0.00     0.161 A 
ATOM      6  C   UNL     1      11.772   0.656  34.339  1.00  0.00     0.157 A 
ENDROOT
BRANCH   1   7
ATOM      7  C   UNL     1       7.747   0.192  35.766  1.00  0.00     0.072 C 
ATOM      8  O   UNL     1       7.162   1.140  36.355  1.00  0.00    -0.545 OA
ATOM      9  O   UNL     1       7.068  -1.008  35.585  1.00  0.00    -0.545 OA
ENDBRANCH   1   7
BRANCH   5  10
ATOM     10  O   UNL     1      12.236   2.293  36.060  1.00  0.00    -0.493 OA
ATOM     11  C   UNL     1      12.404   3.657  35.691  1.00  0.00     0.278 C 
ENDBRANCH   5  10
BRANCH   6  12
ATOM     12  O   UNL     1      13.072   0.782  33.851  1.00  0.00    -0.504 OA
ATOM     13  H   UNL     1      13.769   1.355  34.310  1.00  0.00     0.293 HD
ENDBRANCH   6  12
TORSDOF 3
ENDMDL
MODEL 2
REMARK VINA RESULT:    -4.938      2.155      2.705
REMARK INTER + INTRA:          -5.747
REMARK INTER:                  -5.651
REMARK INTRA:                  -0.096
REMARK UNBOUND:                -0.088
REMARK SMILES COc1cc(C(=O)[O-])ccc1O
REMARK SMILES IDX 5 1 9 2 4 3 10 4 3 5 11 6 6 7 7 8 8 9 2 10 1 11 12 12
REMARK H PARENT 12 13
REMARK Flexibility Score: inf
ROOT
ATOM      1  C   UNL     1      10.645   1.632  35.586  1.00  0.00     0.001 A 
ATOM      2  C   UNL     1      11.941   1.268  35.988  1.00  0.00     0.014 A 
ATOM      3  C   UNL     1      10.474   2.323  34.374  1.00  0.00     0.060 A 
ATOM      4  C   UNL     1      13.043   1.587  35.193  1.00  0.00     0.051 A 
ATOM      5  C   UNL     1      11.583   2.649  33.567  1.00  0.00     0.161 A 
ATOM      6  C   UNL     1      12.872   2.274  33.988  1.00  0.00     0.157 A 
ENDROOT
BRANCH   1   7
ATOM      7  C   UNL     1       9.475   1.294  36.427  1.00  0.00     0.072 C 
ATOM      8  O   UNL     1       9.158   2.020  37.407  1.00  0.00    -0.545 OA
ATOM      9  O   UNL     1       8.707   0.169  36.147  1.00  0.00    -0.545 OA
ENDBRANCH   1   7
BRANCH   5  10
ATOM     10  O   UNL     1      11.442   3.339  32.353  1.00  0.00    -0.493 OA
ATOM     11  C   UNL     1      11.225   4.741  32.239  1.00  0.00     0.278 C 
ENDBRANCH   5  10
BRANCH   6  12
ATOM     12  O   UNL     1      13.997   2.577  33.220  1.00  0.00    -0.504 OA
ATOM     13  H   UNL     1      13.988   2.535  32.209  1.00  0.00     0.293 HD
ENDBRANCH   6  12
TORSDOF 3
ENDMDL
MODEL 3
REMARK VINA RESULT:    -4.850      1.992      4.526
REMARK INTER + INTRA:          -5.647
REMARK INTER:                  -5.559
REMARK INTRA:                  -0.088
REMARK UNBOUND:                -0.088
REMARK SMILES COc1cc(C(=O)[O-])ccc1O
REMARK SMILES IDX 5 1 9 2 4 3 10 4 3 5 11 6 6 7 7 8 8 9 2 10 1 11 12 12
REMARK H PARENT 12 13
REMARK Flexibility Score: inf
ROOT
ATOM      1  C   UNL     1      12.035   2.804  34.816  1.00  0.00     0.001 A 
ATOM      2  C   UNL     1      13.051   1.835  34.778  1.00  0.00     0.014 A 
ATOM      3  C   UNL     1      10.727   2.438  34.450  1.00  0.00     0.060 A 
ATOM      4  C   UNL     1      12.765   0.527  34.383  1.00  0.00     0.051 A 
ATOM      5  C   UNL     1      10.433   1.119  34.050  1.00  0.00     0.161 A 
ATOM      6  C   UNL     1      11.466   0.164  34.019  1.00  0.00     0.157 A 
ENDROOT
BRANCH   1   7
ATOM      7  C   UNL     1      12.334   4.191  35.235  1.00  0.00     0.072 C 
ATOM      8  O   UNL     1      12.805   4.428  36.380  1.00  0.00    -0.545 OA
ATOM      9  O   UNL     1      12.100   5.255  34.371  1.00  0.00    -0.545 OA
ENDBRANCH   1   7
BRANCH   5  10
ATOM     10  O   UNL     1       9.137   0.725  33.679  1.00  0.00    -0.493 OA
ATOM     11  C   UNL     1       8.153   0.233  34.581  1.00  0.00     0.278 C 
ENDBRANCH   5  10
BRANCH   6  12
ATOM     12  O   UNL     1      11.219  -1.153  33.630  1.00  0.00    -0.504 OA
ATOM     13  H   UNL     1      11.511  -1.515  32.731  1.00  0.00     0.293 HD
ENDBRANCH   6  12
TORSDOF 3
ENDMDL
MODEL 4
REMARK VINA RESULT:    -4.827      7.527     10.246
REMARK INTER + INTRA:          -5.620
REMARK INTER:                  -5.540
REMARK INTRA:                  -0.081
REMARK UNBOUND:                -0.088
REMARK SMILES COc1cc(C(=O)[O-])ccc1O
REMARK SMILES IDX 5 1 9 2 4 3 10 4 3 5 11 6 6 7 7 8 8 9 2 10 1 11 12 12
REMARK H PARENT 12 13
REMARK Flexibility Score: inf
ROOT
ATOM      1  C   UNL     1       2.911  -1.324  38.964  1.00  0.00     0.001 A 
ATOM      2  C   UNL     1       2.641  -0.832  40.252  1.00  0.00     0.014 A 
ATOM      3  C   UNL     1       2.724  -2.693  38.703  1.00  0.00     0.060 A 
ATOM      4  C   UNL     1       2.191  -1.691  41.256  1.00  0.00     0.051 A 
ATOM      5  C   UNL     1       2.271  -3.565  39.713  1.00  0.00     0.161 A 
ATOM      6  C   UNL     1       2.006  -3.051  40.996  1.00  0.00     0.157 A 
ENDROOT
BRANCH   1   7
ATOM      7  C   UNL     1       3.387  -0.417  37.897  1.00  0.00     0.072 C 
ATOM      8  O   UNL     1       2.838   0.703  37.716  1.00  0.00    -0.545 OA
ATOM      9  O   UNL     1       4.447  -0.787  37.077  1.00  0.00    -0.545 OA
ENDBRANCH   1   7
BRANCH   5  10
ATOM     10  O   UNL     1       2.076  -4.936  39.481  1.00  0.00    -0.493 OA
ATOM     11  C   UNL     1       2.919  -5.747  38.669  1.00  0.00     0.278 C 
ENDBRANCH   5  10
BRANCH   6  12
ATOM     12  O   UNL     1       1.556  -3.878  42.025  1.00  0.00    -0.504 OA
ATOM     13  H   UNL     1       0.601  -3.853  42.361  1.00  0.00     0.293 HD
ENDBRANCH   6  12
TORSDOF 3
ENDMDL
MODEL 5
REMARK VINA RESULT:    -4.825      1.356      4.966
REMARK INTER + INTRA:          -5.618
REMARK INTER:                  -5.519
REMARK INTRA:                  -0.099
REMARK UNBOUND:                -0.088
REMARK SMILES COc1cc(C(=O)[O-])ccc1O
REMARK SMILES IDX 5 1 9 2 4 3 10 4 3 5 11 6 6 7 7 8 8 9 2 10 1 11 12 12
REMARK H PARENT 12 13
REMARK Flexibility Score: inf
ROOT
ATOM      1  C   UNL     1      11.218   0.927  35.163  1.00  0.00     0.001 A 
ATOM      2  C   UNL     1      10.777   1.595  36.318  1.00  0.00     0.014 A 
ATOM      3  C   UNL     1      10.272   0.306  34.329  1.00  0.00     0.060 A 
ATOM      4  C   UNL     1       9.417   1.641  36.630  1.00  0.00     0.051 A 
ATOM      5  C   UNL     1       8.898   0.349  34.641  1.00  0.00     0.161 A 
ATOM      6  C   UNL     1       8.478   1.024  35.802  1.00  0.00     0.157 A 
ENDROOT
BRANCH   1   7
ATOM      7  C   UNL     1      12.659   0.876  34.828  1.00  0.00     0.072 C 
ATOM      8  O   UNL     1      13.203  -0.213  34.501  1.00  0.00    -0.545 OA
ATOM      9  O   UNL     1      13.433   2.030  34.869  1.00  0.00    -0.545 OA
ENDBRANCH   1   7
BRANCH   5  10
ATOM     10  O   UNL     1       7.931  -0.262  33.826  1.00  0.00    -0.493 OA
ATOM     11  C   UNL     1       7.597  -1.645  33.867  1.00  0.00     0.278 C 
ENDBRANCH   5  10
BRANCH   6  12
ATOM     12  O   UNL     1       7.128   1.091  36.147  1.00  0.00    -0.504 OA
ATOM     13  H   UNL     1       6.399   1.223  35.457  1.00  0.00     0.293 HD
ENDBRANCH   6  12
TORSDOF 3
ENDMDL
MODEL 6
REMARK VINA RESULT:    -4.802     17.531     18.245
REMARK INTER + INTRA:          -5.591
REMARK INTER:                  -5.494
REMARK INTRA:                  -0.097
REMARK UNBOUND:                -0.088
REMARK SMILES COc1cc(C(=O)[O-])ccc1O
REMARK SMILES IDX 5 1 9 2 4 3 10 4 3 5 11 6 6 7 7 8 8 9 2 10 1 11 12 12
REMARK H PARENT 12 13
REMARK Flexibility Score: inf
ROOT
ATOM      1  C   UNL     1      10.360 -11.061  48.224  1.00  0.00     0.001 A 
ATOM      2  C   UNL     1      10.391 -11.267  49.613  1.00  0.00     0.014 A 
ATOM      3  C   UNL     1      11.522 -11.304  47.470  1.00  0.00     0.060 A 
ATOM      4  C   UNL     1      11.560 -11.708  50.235  1.00  0.00     0.051 A 
ATOM      5  C   UNL     1      12.705 -11.750  48.093  1.00  0.00     0.161 A 
ATOM      6  C   UNL     1      12.714 -11.950  49.486  1.00  0.00     0.157 A 
ENDROOT
BRANCH   1   7
ATOM      7  C   UNL     1       9.122 -10.593  47.560  1.00  0.00     0.072 C 
ATOM      8  O   UNL     1       9.123  -9.539  46.870  1.00  0.00    -0.545 OA
ATOM      9  O   UNL     1       7.938 -11.311  47.690  1.00  0.00    -0.545 OA
ENDBRANCH   1   7
BRANCH   5  10
ATOM     10  O   UNL     1      13.879 -12.001  47.366  1.00  0.00    -0.493 OA
ATOM     11  C   UNL     1      14.079 -13.125  46.515  1.00  0.00     0.278 C 
ENDBRANCH   5  10
BRANCH   6  12
ATOM     12  O   UNL     1      13.864 -12.390  50.142  1.00  0.00    -0.504 OA
ATOM     13  H   UNL     1      14.753 -11.915  50.053  1.00  0.00     0.293 HD
ENDBRANCH   6  12
TORSDOF 3
ENDMDL
MODEL 7
REMARK VINA RESULT:    -4.690      1.870      2.302
REMARK INTER + INTRA:          -5.463
REMARK INTER:                  -5.372
REMARK INTRA:                  -0.091
REMARK UNBOUND:                -0.088
REMARK SMILES COc1cc(C(=O)[O-])ccc1O
REMARK SMILES IDX 5 1 9 2 4 3 10 4 3 5 11 6 6 7 7 8 8 9 2 10 1 11 12 12
REMARK H PARENT 12 13
REMARK Flexibility Score: inf
ROOT
ATOM      1  C   UNL     1       9.504   1.266  35.270  1.00  0.00     0.001 A 
ATOM      2  C   UNL     1      10.552   1.141  36.196  1.00  0.00     0.014 A 
ATOM      3  C   UNL     1       9.729   1.965  34.071  1.00  0.00     0.060 A 
ATOM      4  C   UNL     1      11.801   1.703  35.928  1.00  0.00     0.051 A 
ATOM      5  C   UNL     1      10.988   2.535  33.795  1.00  0.00     0.161 A 
ATOM      6  C   UNL     1      12.026   2.397  34.737  1.00  0.00     0.157 A 
ENDROOT
BRANCH   1   7
ATOM      7  C   UNL     1       8.178   0.670  35.551  1.00  0.00     0.072 C 
ATOM      8  O   UNL     1       7.425   1.168  36.431  1.00  0.00    -0.545 OA
ATOM      9  O   UNL     1       7.744  -0.448  34.848  1.00  0.00    -0.545 OA
ENDBRANCH   1   7
BRANCH   5  10
ATOM     10  O   UNL     1      11.243   3.238  32.607  1.00  0.00    -0.493 OA
ATOM     11  C   UNL     1      11.000   4.629  32.423  1.00  0.00     0.278 C 
ENDBRANCH   5  10
BRANCH   6  12
ATOM     12  O   UNL     1      13.287   2.946  34.504  1.00  0.00    -0.504 OA
ATOM     13  H   UNL     1      13.903   2.597  33.779  1.00  0.00     0.293 HD
ENDBRANCH   6  12
TORSDOF 3
ENDMDL
MODEL 8
REMARK VINA RESULT:    -4.672      5.922      7.819
REMARK INTER + INTRA:          -5.443
REMARK INTER:                  -5.362
REMARK INTRA:                  -0.080
REMARK UNBOUND:                -0.088
REMARK SMILES COc1cc(C(=O)[O-])ccc1O
REMARK SMILES IDX 5 1 9 2 4 3 10 4 3 5 11 6 6 7 7 8 8 9 2 10 1 11 12 12
REMARK H PARENT 12 13
REMARK Flexibility Score: inf
ROOT
ATOM      1  C   UNL     1       3.027  -2.289  38.333  1.00  0.00     0.001 A 
ATOM      2  C   UNL     1       2.709  -0.930  38.493  1.00  0.00     0.014 A 
ATOM      3  C   UNL     1       4.097  -2.647  37.495  1.00  0.00     0.060 A 
ATOM      4  C   UNL     1       3.448   0.050  37.828  1.00  0.00     0.051 A 
ATOM      5  C   UNL     1       4.846  -1.661  36.821  1.00  0.00     0.161 A 
ATOM      6  C   UNL     1       4.511  -0.306  36.995  1.00  0.00     0.157 A 
ENDROOT
BRANCH   1   7
ATOM      7  C   UNL     1       2.246  -3.331  39.037  1.00  0.00     0.072 C 
ATOM      8  O   UNL     1       1.167  -3.040  39.620  1.00  0.00    -0.545 OA
ATOM      9  O   UNL     1       2.692  -4.647  39.066  1.00  0.00    -0.545 OA
ENDBRANCH   1   7
BRANCH   5  10
ATOM     10  O   UNL     1       5.919  -1.990  35.978  1.00  0.00    -0.493 OA
ATOM     11  C   UNL     1       6.264  -3.314  35.586  1.00  0.00     0.278 C 
ENDBRANCH   5  10
BRANCH   6  12
ATOM     12  O   UNL     1       5.226   0.702  36.347  1.00  0.00    -0.504 OA
ATOM     13  H   UNL     1       5.247   0.787  35.339  1.00  0.00     0.293 HD
ENDBRANCH   6  12
TORSDOF 3
ENDMDL
MODEL 9
REMARK VINA RESULT:    -4.534      7.005      9.457
REMARK INTER + INTRA:          -5.284
REMARK INTER:                  -5.205
REMARK INTRA:                  -0.079
REMARK UNBOUND:                -0.088
REMARK SMILES COc1cc(C(=O)[O-])ccc1O
REMARK SMILES IDX 5 1 9 2 4 3 10 4 3 5 11 6 6 7 7 8 8 9 2 10 1 11 12 12
REMARK H PARENT 12 13
REMARK Flexibility Score: inf
ROOT
ATOM      1  C   UNL     1       3.475  -1.541  37.996  1.00  0.00     0.001 A 
ATOM      2  C   UNL     1       4.001  -2.671  37.348  1.00  0.00     0.014 A 
ATOM      3  C   UNL     1       2.688  -1.718  39.148  1.00  0.00     0.060 A 
ATOM      4  C   UNL     1       3.747  -3.951  37.843  1.00  0.00     0.051 A 
ATOM      5  C   UNL     1       2.427  -3.009  39.651  1.00  0.00     0.161 A 
ATOM      6  C   UNL     1       2.965  -4.127  38.986  1.00  0.00     0.157 A 
ENDROOT
BRANCH   1   7
ATOM      7  C   UNL     1       3.744  -0.182  37.476  1.00  0.00     0.072 C 
ATOM      8  O   UNL     1       2.953   0.768  37.724  1.00  0.00    -0.545 OA
ATOM      9  O   UNL     1       4.874   0.067  36.704  1.00  0.00    -0.545 OA
ENDBRANCH   1   7
BRANCH   5  10
ATOM     10  O   UNL     1       1.645  -3.216  40.799  1.00  0.00    -0.493 OA
ATOM     11  C   UNL     1       0.777  -2.244  41.372  1.00  0.00     0.278 C 
ENDBRANCH   5  10
BRANCH   6  12
ATOM     12  O   UNL     1       2.731  -5.421  39.451  1.00  0.00    -0.504 OA
ATOM     13  H   UNL     1       1.932  -5.653  40.028  1.00  0.00     0.293 HD
ENDBRANCH   6  12
TORSDOF 3
ENDMDL
