MODEL 1
REMARK VINA RESULT:    -8.083      0.000      0.000
REMARK INTER + INTRA:         -13.425
REMARK INTER:                 -12.336
REMARK INTRA:                  -1.089
REMARK UNBOUND:                -1.089
REMARK SMILES COc1cc(C=CCOC(=O)C=Cc2ccc(O)c(OC)c2)ccc1O
REMARK SMILES IDX 9 1 8 2 7 3 6 4 5 5 3 6 25 7 4 8 24 9 23 10 2 11 1 12 26 13
REMARK SMILES IDX 10 15 11 16 12 17 13 18 14 19 22 20 15 21 19 22 16 23 17 24
REMARK SMILES IDX 20 25 21 26 18 27
REMARK H PARENT 26 14 18 28
REMARK Flexibility Score: inf
ROOT
ATOM      1  O   UNL     1      37.520  24.129  37.436  1.00  0.00    -0.458 OA
ENDROOT
BRANCH   1   2
ATOM      2  C   UNL     1      36.480  25.044  37.766  1.00  0.00     0.261 C 
BRANCH   2   3
ATOM      3  C   UNL     1      35.426  24.356  38.583  1.00  0.00     0.015 C 
ATOM      4  C   UNL     1      35.509  23.053  38.881  1.00  0.00     0.007 C 
BRANCH   4   5
ATOM      5  C   UNL     1      34.472  22.313  39.642  1.00  0.00    -0.022 A 
ATOM      6  C   UNL     1      32.113  22.069  40.248  1.00  0.00     0.161 A 
ATOM      7  C   UNL     1      32.437  20.948  41.031  1.00  0.00     0.157 A 
ATOM      8  C   UNL     1      33.138  22.741  39.552  1.00  0.00     0.058 A 
ATOM      9  C   UNL     1      33.761  20.509  41.110  1.00  0.00     0.051 A 
ATOM     10  C   UNL     1      34.773  21.179  40.420  1.00  0.00     0.012 A 
BRANCH   6  11
ATOM     11  O   UNL     1      30.772  22.484  40.183  1.00  0.00    -0.493 OA
ATOM     12  C   UNL     1      30.352  23.826  39.962  1.00  0.00     0.278 C 
ENDBRANCH   6  11
BRANCH   7  13
ATOM     13  O   UNL     1      31.455  20.253  41.737  1.00  0.00    -0.504 OA
ATOM     14  H   UNL     1      30.529  20.633  41.890  1.00  0.00     0.293 HD
ENDBRANCH   7  13
ENDBRANCH   4   5
ENDBRANCH   2   3
ENDBRANCH   1   2
BRANCH   1  15
ATOM     15  C   UNL     1      38.817  24.210  37.962  1.00  0.00     0.331 C 
ATOM     16  O   UNL     1      39.306  23.240  38.601  1.00  0.00    -0.247 OA
BRANCH  15  17
ATOM     17  C   UNL     1      39.654  25.402  37.726  1.00  0.00     0.094 C 
ATOM     18  C   UNL     1      39.882  26.379  38.617  1.00  0.00     0.016 C 
BRANCH  18  19
ATOM     19  C   UNL     1      39.488  26.343  40.041  1.00  0.00    -0.021 A 
ATOM     20  C   UNL     1      38.269  26.914  40.432  1.00  0.00     0.058 A 
ATOM     21  C   UNL     1      40.353  25.827  41.018  1.00  0.00     0.012 A 
ATOM     22  C   UNL     1      37.885  26.926  41.789  1.00  0.00     0.161 A 
ATOM     23  C   UNL     1      39.979  25.834  42.363  1.00  0.00     0.051 A 
ATOM     24  C   UNL     1      38.750  26.376  42.752  1.00  0.00     0.157 A 
BRANCH  22  25
ATOM     25  O   UNL     1      36.662  27.473  42.210  1.00  0.00    -0.493 OA
ATOM     26  C   UNL     1      36.472  28.834  42.586  1.00  0.00     0.278 C 
ENDBRANCH  22  25
BRANCH  24  27
ATOM     27  O   UNL     1      38.408  26.364  44.104  1.00  0.00    -0.504 OA
ATOM     28  H   UNL     1      38.132  27.203  44.599  1.00  0.00     0.293 HD
ENDBRANCH  24  27
ENDBRANCH  18  19
ENDBRANCH  15  17
ENDBRANCH   1  15
TORSDOF 10
ENDMDL
MODEL 2
REMARK VINA RESULT:    -7.637      5.184      9.278
REMARK INTER + INTRA:         -12.744
REMARK INTER:                 -11.879
REMARK INTRA:                  -0.864
REMARK UNBOUND:                -1.089
REMARK SMILES COc1cc(C=CCOC(=O)C=Cc2ccc(O)c(OC)c2)ccc1O
REMARK SMILES IDX 9 1 8 2 7 3 6 4 5 5 3 6 25 7 4 8 24 9 23 10 2 11 1 12 26 13
REMARK SMILES IDX 10 15 11 16 12 17 13 18 14 19 22 20 15 21 19 22 16 23 17 24
REMARK SMILES IDX 20 25 21 26 18 27
REMARK H PARENT 26 14 18 28
REMARK Flexibility Score: inf
ROOT
ATOM      1  O   UNL     1      34.844  29.846  44.877  1.00  0.00    -0.458 OA
ENDROOT
BRANCH   1   2
ATOM      2  C   UNL     1      35.383  29.974  43.564  1.00  0.00     0.261 C 
BRANCH   2   3
ATOM      3  C   UNL     1      36.595  29.103  43.415  1.00  0.00     0.015 C 
ATOM      4  C   UNL     1      36.656  28.139  42.488  1.00  0.00     0.007 C 
BRANCH   4   5
ATOM      5  C   UNL     1      37.809  27.218  42.330  1.00  0.00    -0.022 A 
ATOM      6  C   UNL     1      39.312  26.002  40.828  1.00  0.00     0.161 A 
ATOM      7  C   UNL     1      40.005  25.497  41.942  1.00  0.00     0.157 A 
ATOM      8  C   UNL     1      38.218  26.867  41.033  1.00  0.00     0.058 A 
ATOM      9  C   UNL     1      39.611  25.857  43.233  1.00  0.00     0.051 A 
ATOM     10  C   UNL     1      38.526  26.713  43.431  1.00  0.00     0.012 A 
BRANCH   6  11
ATOM     11  O   UNL     1      39.735  25.629  39.542  1.00  0.00    -0.493 OA
ATOM     12  C   UNL     1      40.059  26.544  38.500  1.00  0.00     0.278 C 
ENDBRANCH   6  11
BRANCH   7  13
ATOM     13  O   UNL     1      41.093  24.638  41.785  1.00  0.00    -0.504 OA
ATOM     14  H   UNL     1      41.804  24.790  41.080  1.00  0.00     0.293 HD
ENDBRANCH   7  13
ENDBRANCH   4   5
ENDBRANCH   2   3
ENDBRANCH   1   2
BRANCH   1  15
ATOM     15  C   UNL     1      33.705  30.535  45.316  1.00  0.00     0.331 C 
ATOM     16  O   UNL     1      33.075  30.139  46.333  1.00  0.00    -0.247 OA
BRANCH  15  17
ATOM     17  C   UNL     1      33.259  31.766  44.636  1.00  0.00     0.094 C 
ATOM     18  C   UNL     1      33.744  32.996  44.861  1.00  0.00     0.016 C 
BRANCH  18  19
ATOM     19  C   UNL     1      34.927  33.308  45.689  1.00  0.00    -0.021 A 
ATOM     20  C   UNL     1      34.751  33.655  47.036  1.00  0.00     0.058 A 
ATOM     21  C   UNL     1      36.212  33.350  45.129  1.00  0.00     0.012 A 
ATOM     22  C   UNL     1      35.859  33.993  47.841  1.00  0.00     0.161 A 
ATOM     23  C   UNL     1      37.314  33.682  45.918  1.00  0.00     0.051 A 
ATOM     24  C   UNL     1      37.145  33.998  47.270  1.00  0.00     0.157 A 
BRANCH  22  25
ATOM     25  O   UNL     1      35.718  34.326  49.197  1.00  0.00    -0.493 OA
ATOM     26  C   UNL     1      35.205  35.564  49.676  1.00  0.00     0.278 C 
ENDBRANCH  22  25
BRANCH  24  27
ATOM     27  O   UNL     1      38.268  34.323  48.030  1.00  0.00    -0.504 OA
ATOM     28  H   UNL     1      39.118  33.773  48.000  1.00  0.00     0.293 HD
ENDBRANCH  24  27
ENDBRANCH  18  19
ENDBRANCH  15  17
ENDBRANCH   1  15
TORSDOF 10
ENDMDL
MODEL 3
REMARK VINA RESULT:    -7.568      3.216      7.395
REMARK INTER + INTRA:         -12.639
REMARK INTER:                 -11.754
REMARK INTRA:                  -0.885
REMARK UNBOUND:                -1.089
REMARK SMILES COc1cc(C=CCOC(=O)C=Cc2ccc(O)c(OC)c2)ccc1O
REMARK SMILES IDX 9 1 8 2 7 3 6 4 5 5 3 6 25 7 4 8 24 9 23 10 2 11 1 12 26 13
REMARK SMILES IDX 10 15 11 16 12 17 13 18 14 19 22 20 15 21 19 22 16 23 17 24
REMARK SMILES IDX 20 25 21 26 18 27
REMARK H PARENT 26 14 18 28
REMARK Flexibility Score: inf
ROOT
ATOM      1  O   UNL     1      39.325  26.929  42.129  1.00  0.00    -0.458 OA
ENDROOT
BRANCH   1   2
ATOM      2  C   UNL     1      38.926  26.715  43.480  1.00  0.00     0.261 C 
BRANCH   2   3
ATOM      3  C   UNL     1      37.908  27.740  43.887  1.00  0.00     0.015 C 
ATOM      4  C   UNL     1      37.027  28.240  43.011  1.00  0.00     0.007 C 
BRANCH   4   5
ATOM      5  C   UNL     1      36.034  29.290  43.349  1.00  0.00    -0.022 A 
ATOM      6  C   UNL     1      34.895  31.361  42.711  1.00  0.00     0.161 A 
ATOM      7  C   UNL     1      34.148  31.308  43.900  1.00  0.00     0.157 A 
ATOM      8  C   UNL     1      35.832  30.342  42.442  1.00  0.00     0.058 A 
ATOM      9  C   UNL     1      34.334  30.254  44.797  1.00  0.00     0.051 A 
ATOM     10  C   UNL     1      35.264  29.248  44.526  1.00  0.00     0.012 A 
BRANCH   6  11
ATOM     11  O   UNL     1      34.682  32.429  41.824  1.00  0.00    -0.493 OA
ATOM     12  C   UNL     1      35.703  33.057  41.055  1.00  0.00     0.278 C 
ENDBRANCH   6  11
BRANCH   7  13
ATOM     13  O   UNL     1      33.211  32.295  44.206  1.00  0.00    -0.504 OA
ATOM     14  H   UNL     1      32.264  32.071  44.487  1.00  0.00     0.293 HD
ENDBRANCH   7  13
ENDBRANCH   4   5
ENDBRANCH   2   3
ENDBRANCH   1   2
BRANCH   1  15
ATOM     15  C   UNL     1      40.255  26.123  41.460  1.00  0.00     0.331 C 
ATOM     16  O   UNL     1      40.646  25.041  41.976  1.00  0.00    -0.247 OA
BRANCH  15  17
ATOM     17  C   UNL     1      40.748  26.491  40.120  1.00  0.00     0.094 C 
ATOM     18  C   UNL     1      40.119  26.230  38.963  1.00  0.00     0.016 C 
BRANCH  18  19
ATOM     19  C   UNL     1      38.747  25.695  38.840  1.00  0.00    -0.021 A 
ATOM     20  C   UNL     1      38.559  24.388  38.370  1.00  0.00     0.058 A 
ATOM     21  C   UNL     1      37.630  26.503  39.100  1.00  0.00     0.012 A 
ATOM     22  C   UNL     1      37.260  23.864  38.208  1.00  0.00     0.161 A 
ATOM     23  C   UNL     1      36.341  25.992  38.943  1.00  0.00     0.051 A 
ATOM     24  C   UNL     1      36.150  24.677  38.504  1.00  0.00     0.157 A 
BRANCH  22  25
ATOM     25  O   UNL     1      37.038  22.553  37.758  1.00  0.00    -0.493 OA
ATOM     26  C   UNL     1      37.641  21.983  36.601  1.00  0.00     0.278 C 
ENDBRANCH  22  25
BRANCH  24  27
ATOM     27  O   UNL     1      34.848  24.198  38.361  1.00  0.00    -0.504 OA
ATOM     28  H   UNL     1      34.363  23.720  39.110  1.00  0.00     0.293 HD
ENDBRANCH  24  27
ENDBRANCH  18  19
ENDBRANCH  15  17
ENDBRANCH   1  15
TORSDOF 10
ENDMDL
MODEL 4
REMARK VINA RESULT:    -7.469      5.321      9.346
REMARK INTER + INTRA:         -12.487
REMARK INTER:                 -12.305
REMARK INTRA:                  -0.182
REMARK UNBOUND:                -1.089
REMARK SMILES COc1cc(C=CCOC(=O)C=Cc2ccc(O)c(OC)c2)ccc1O
REMARK SMILES IDX 9 1 8 2 7 3 6 4 5 5 3 6 25 7 4 8 24 9 23 10 2 11 1 12 26 13
REMARK SMILES IDX 10 15 11 16 12 17 13 18 14 19 22 20 15 21 19 22 16 23 17 24
REMARK SMILES IDX 20 25 21 26 18 27
REMARK H PARENT 26 14 18 28
REMARK Flexibility Score: inf
ROOT
ATOM      1  O   UNL     1      35.731  31.098  44.362  1.00  0.00    -0.458 OA
ENDROOT
BRANCH   1   2
ATOM      2  C   UNL     1      35.373  29.859  43.757  1.00  0.00     0.261 C 
BRANCH   2   3
ATOM      3  C   UNL     1      36.593  29.007  43.563  1.00  0.00     0.015 C 
ATOM      4  C   UNL     1      36.660  28.089  42.591  1.00  0.00     0.007 C 
BRANCH   4   5
ATOM      5  C   UNL     1      37.821  27.187  42.386  1.00  0.00    -0.022 A 
ATOM      6  C   UNL     1      39.305  26.027  40.823  1.00  0.00     0.161 A 
ATOM      7  C   UNL     1      40.029  25.506  41.909  1.00  0.00     0.157 A 
ATOM      8  C   UNL     1      38.205  26.872  41.073  1.00  0.00     0.058 A 
ATOM      9  C   UNL     1      39.661  25.830  43.216  1.00  0.00     0.051 A 
ATOM     10  C   UNL     1      38.570  26.667  43.458  1.00  0.00     0.012 A 
BRANCH   6  11
ATOM     11  O   UNL     1      39.703  25.689  39.519  1.00  0.00    -0.493 OA
ATOM     12  C   UNL     1      40.010  26.632  38.498  1.00  0.00     0.278 C 
ENDBRANCH   6  11
BRANCH   7  13
ATOM     13  O   UNL     1      41.124  24.665  41.708  1.00  0.00    -0.504 OA
ATOM     14  H   UNL     1      41.945  24.961  41.193  1.00  0.00     0.293 HD
ENDBRANCH   7  13
ENDBRANCH   4   5
ENDBRANCH   2   3
ENDBRANCH   1   2
BRANCH   1  15
ATOM     15  C   UNL     1      36.089  32.240  43.633  1.00  0.00     0.331 C 
ATOM     16  O   UNL     1      35.258  32.787  42.859  1.00  0.00    -0.247 OA
BRANCH  15  17
ATOM     17  C   UNL     1      37.418  32.857  43.801  1.00  0.00     0.094 C 
ATOM     18  C   UNL     1      37.770  33.684  44.797  1.00  0.00     0.016 C 
BRANCH  18  19
ATOM     19  C   UNL     1      36.951  33.976  45.993  1.00  0.00    -0.021 A 
ATOM     20  C   UNL     1      37.557  33.977  47.257  1.00  0.00     0.058 A 
ATOM     21  C   UNL     1      35.564  34.162  45.891  1.00  0.00     0.012 A 
ATOM     22  C   UNL     1      36.793  34.216  48.418  1.00  0.00     0.161 A 
ATOM     23  C   UNL     1      34.802  34.401  47.035  1.00  0.00     0.051 A 
ATOM     24  C   UNL     1      35.408  34.433  48.295  1.00  0.00     0.157 A 
BRANCH  22  25
ATOM     25  O   UNL     1      37.373  34.243  49.696  1.00  0.00    -0.493 OA
ATOM     26  C   UNL     1      38.575  33.569  50.053  1.00  0.00     0.278 C 
ENDBRANCH  22  25
BRANCH  24  27
ATOM     27  O   UNL     1      34.615  34.677  49.417  1.00  0.00    -0.504 OA
ATOM     28  H   UNL     1      34.911  35.294  50.163  1.00  0.00     0.293 HD
ENDBRANCH  24  27
ENDBRANCH  18  19
ENDBRANCH  15  17
ENDBRANCH   1  15
TORSDOF 10
ENDMDL
MODEL 5
REMARK VINA RESULT:    -7.306      5.123      8.869
REMARK INTER + INTRA:         -12.238
REMARK INTER:                 -11.539
REMARK INTRA:                  -0.699
REMARK UNBOUND:                -1.089
REMARK SMILES COc1cc(C=CCOC(=O)C=Cc2ccc(O)c(OC)c2)ccc1O
REMARK SMILES IDX 9 1 8 2 7 3 6 4 5 5 3 6 25 7 4 8 24 9 23 10 2 11 1 12 26 13
REMARK SMILES IDX 10 15 11 16 12 17 13 18 14 19 22 20 15 21 19 22 16 23 17 24
REMARK SMILES IDX 20 25 21 26 18 27
REMARK H PARENT 26 14 18 28
REMARK Flexibility Score: inf
ROOT
ATOM      1  O   UNL     1      34.873  29.806  45.155  1.00  0.00    -0.458 OA
ENDROOT
BRANCH   1   2
ATOM      2  C   UNL     1      35.212  29.611  43.786  1.00  0.00     0.261 C 
BRANCH   2   3
ATOM      3  C   UNL     1      36.397  28.698  43.671  1.00  0.00     0.015 C 
ATOM      4  C   UNL     1      36.763  28.167  42.497  1.00  0.00     0.007 C 
BRANCH   4   5
ATOM      5  C   UNL     1      37.894  27.220  42.337  1.00  0.00    -0.022 A 
ATOM      6  C   UNL     1      39.349  25.952  40.831  1.00  0.00     0.161 A 
ATOM      7  C   UNL     1      40.048  25.449  41.942  1.00  0.00     0.157 A 
ATOM      8  C   UNL     1      38.277  26.843  41.039  1.00  0.00     0.058 A 
ATOM      9  C   UNL     1      39.681  25.835  43.233  1.00  0.00     0.051 A 
ATOM     10  C   UNL     1      38.617  26.717  43.434  1.00  0.00     0.012 A 
BRANCH   6  11
ATOM     11  O   UNL     1      39.745  25.551  39.545  1.00  0.00    -0.493 OA
ATOM     12  C   UNL     1      39.933  26.437  38.445  1.00  0.00     0.278 C 
ENDBRANCH   6  11
BRANCH   7  13
ATOM     13  O   UNL     1      41.115  24.565  41.782  1.00  0.00    -0.504 OA
ATOM     14  H   UNL     1      41.204  23.720  42.333  1.00  0.00     0.293 HD
ENDBRANCH   7  13
ENDBRANCH   4   5
ENDBRANCH   2   3
ENDBRANCH   1   2
BRANCH   1  15
ATOM     15  C   UNL     1      33.571  30.078  45.598  1.00  0.00     0.331 C 
ATOM     16  O   UNL     1      32.706  29.162  45.630  1.00  0.00    -0.247 OA
BRANCH  15  17
ATOM     17  C   UNL     1      33.207  31.420  46.091  1.00  0.00     0.094 C 
ATOM     18  C   UNL     1      33.268  32.553  45.374  1.00  0.00     0.016 C 
BRANCH  18  19
ATOM     19  C   UNL     1      33.534  32.630  43.923  1.00  0.00    -0.021 A 
ATOM     20  C   UNL     1      34.647  33.349  43.465  1.00  0.00     0.058 A 
ATOM     21  C   UNL     1      32.643  32.074  42.993  1.00  0.00     0.012 A 
ATOM     22  C   UNL     1      34.905  33.469  42.084  1.00  0.00     0.161 A 
ATOM     23  C   UNL     1      32.891  32.188  41.625  1.00  0.00     0.051 A 
ATOM     24  C   UNL     1      34.018  32.878  41.166  1.00  0.00     0.157 A 
BRANCH  22  25
ATOM     25  O   UNL     1      36.022  34.165  41.595  1.00  0.00    -0.493 OA
ATOM     26  C   UNL     1      37.348  33.647  41.566  1.00  0.00     0.278 C 
ENDBRANCH  22  25
BRANCH  24  27
ATOM     27  O   UNL     1      34.237  32.970  39.792  1.00  0.00    -0.504 OA
ATOM     28  H   UNL     1      33.547  33.356  39.159  1.00  0.00     0.293 HD
ENDBRANCH  24  27
ENDBRANCH  18  19
ENDBRANCH  15  17
ENDBRANCH   1  15
TORSDOF 10
ENDMDL
MODEL 6
REMARK VINA RESULT:    -7.232      3.193      7.212
REMARK INTER + INTRA:         -12.125
REMARK INTER:                 -11.381
REMARK INTRA:                  -0.744
REMARK UNBOUND:                -1.089
REMARK SMILES COc1cc(C=CCOC(=O)C=Cc2ccc(O)c(OC)c2)ccc1O
REMARK SMILES IDX 9 1 8 2 7 3 6 4 5 5 3 6 25 7 4 8 24 9 23 10 2 11 1 12 26 13
REMARK SMILES IDX 10 15 11 16 12 17 13 18 14 19 22 20 15 21 19 22 16 23 17 24
REMARK SMILES IDX 20 25 21 26 18 27
REMARK H PARENT 26 14 18 28
REMARK Flexibility Score: inf
ROOT
ATOM      1  O   UNL     1      38.717  26.673  41.864  1.00  0.00    -0.458 OA
ENDROOT
BRANCH   1   2
ATOM      2  C   UNL     1      37.568  26.762  41.028  1.00  0.00     0.261 C 
BRANCH   2   3
ATOM      3  C   UNL     1      36.654  27.846  41.518  1.00  0.00     0.015 C 
ATOM      4  C   UNL     1      36.791  28.381  42.738  1.00  0.00     0.007 C 
BRANCH   4   5
ATOM      5  C   UNL     1      35.886  29.419  43.291  1.00  0.00    -0.022 A 
ATOM      6  C   UNL     1      34.836  31.615  43.034  1.00  0.00     0.161 A 
ATOM      7  C   UNL     1      34.163  31.428  44.253  1.00  0.00     0.157 A 
ATOM      8  C   UNL     1      35.691  30.601  42.558  1.00  0.00     0.058 A 
ATOM      9  C   UNL     1      34.342  30.247  44.977  1.00  0.00     0.051 A 
ATOM     10  C   UNL     1      35.191  29.246  44.502  1.00  0.00     0.012 A 
BRANCH   6  11
ATOM     11  O   UNL     1      34.633  32.811  42.325  1.00  0.00    -0.493 OA
ATOM     12  C   UNL     1      33.861  32.922  41.133  1.00  0.00     0.278 C 
ENDBRANCH   6  11
BRANCH   7  13
ATOM     13  O   UNL     1      33.308  32.406  44.762  1.00  0.00    -0.504 OA
ATOM     14  H   UNL     1      33.504  33.395  44.672  1.00  0.00     0.293 HD
ENDBRANCH   7  13
ENDBRANCH   4   5
ENDBRANCH   2   3
ENDBRANCH   1   2
BRANCH   1  15
ATOM     15  C   UNL     1      39.928  26.096  41.456  1.00  0.00     0.331 C 
ATOM     16  O   UNL     1      40.362  25.059  42.026  1.00  0.00    -0.247 OA
BRANCH  15  17
ATOM     17  C   UNL     1      40.683  26.652  40.318  1.00  0.00     0.094 C 
ATOM     18  C   UNL     1      40.770  26.099  39.099  1.00  0.00     0.016 C 
BRANCH  18  19
ATOM     19  C   UNL     1      39.982  24.939  38.631  1.00  0.00    -0.021 A 
ATOM     20  C   UNL     1      38.637  25.119  38.280  1.00  0.00     0.058 A 
ATOM     21  C   UNL     1      40.532  23.649  38.618  1.00  0.00     0.012 A 
ATOM     22  C   UNL     1      37.851  24.024  37.865  1.00  0.00     0.161 A 
ATOM     23  C   UNL     1      39.762  22.560  38.207  1.00  0.00     0.051 A 
ATOM     24  C   UNL     1      38.428  22.741  37.827  1.00  0.00     0.157 A 
BRANCH  22  25
ATOM     25  O   UNL     1      36.507  24.175  37.488  1.00  0.00    -0.493 OA
ATOM     26  C   UNL     1      35.425  24.335  38.400  1.00  0.00     0.278 C 
ENDBRANCH  22  25
BRANCH  24  27
ATOM     27  O   UNL     1      37.688  21.631  37.419  1.00  0.00    -0.504 OA
ATOM     28  H   UNL     1      37.146  21.075  38.069  1.00  0.00     0.293 HD
ENDBRANCH  24  27
ENDBRANCH  18  19
ENDBRANCH  15  17
ENDBRANCH   1  15
TORSDOF 10
ENDMDL
MODEL 7
REMARK VINA RESULT:    -7.122      3.078      9.281
REMARK INTER + INTRA:         -11.958
REMARK INTER:                 -10.738
REMARK INTRA:                  -1.220
REMARK UNBOUND:                -1.089
REMARK SMILES COc1cc(C=CCOC(=O)C=Cc2ccc(O)c(OC)c2)ccc1O
REMARK SMILES IDX 9 1 8 2 7 3 6 4 5 5 3 6 25 7 4 8 24 9 23 10 2 11 1 12 26 13
REMARK SMILES IDX 10 15 11 16 12 17 13 18 14 19 22 20 15 21 19 22 16 23 17 24
REMARK SMILES IDX 20 25 21 26 18 27
REMARK H PARENT 26 14 18 28
REMARK Flexibility Score: inf
ROOT
ATOM      1  O   UNL     1      33.127  21.213  41.354  1.00  0.00    -0.458 OA
ENDROOT
BRANCH   1   2
ATOM      2  C   UNL     1      33.588  20.745  40.090  1.00  0.00     0.261 C 
BRANCH   2   3
ATOM      3  C   UNL     1      34.728  21.594  39.608  1.00  0.00     0.015 C 
ATOM      4  C   UNL     1      34.544  22.865  39.228  1.00  0.00     0.007 C 
BRANCH   4   5
ATOM      5  C   UNL     1      35.626  23.731  38.698  1.00  0.00    -0.022 A 
ATOM      6  C   UNL     1      37.908  23.918  37.835  1.00  0.00     0.161 A 
ATOM      7  C   UNL     1      37.721  25.300  37.658  1.00  0.00     0.157 A 
ATOM      8  C   UNL     1      36.851  23.141  38.350  1.00  0.00     0.058 A 
ATOM      9  C   UNL     1      36.498  25.888  37.987  1.00  0.00     0.051 A 
ATOM     10  C   UNL     1      35.454  25.114  38.499  1.00  0.00     0.012 A 
BRANCH   6  11
ATOM     11  O   UNL     1      39.147  23.354  37.488  1.00  0.00    -0.493 OA
ATOM     12  C   UNL     1      40.216  23.128  38.403  1.00  0.00     0.278 C 
ENDBRANCH   6  11
BRANCH   7  13
ATOM     13  O   UNL     1      38.740  26.107  37.151  1.00  0.00    -0.504 OA
ATOM     14  H   UNL     1      39.360  25.795  36.414  1.00  0.00     0.293 HD
ENDBRANCH   7  13
ENDBRANCH   4   5
ENDBRANCH   2   3
ENDBRANCH   1   2
BRANCH   1  15
ATOM     15  C   UNL     1      31.816  21.650  41.586  1.00  0.00     0.331 C 
ATOM     16  O   UNL     1      31.006  20.921  42.219  1.00  0.00    -0.247 OA
BRANCH  15  17
ATOM     17  C   UNL     1      31.378  22.988  41.147  1.00  0.00     0.094 C 
ATOM     18  C   UNL     1      30.704  23.254  40.018  1.00  0.00     0.016 C 
BRANCH  18  19
ATOM     19  C   UNL     1      30.127  22.239  39.111  1.00  0.00    -0.021 A 
ATOM     20  C   UNL     1      28.810  21.804  39.317  1.00  0.00     0.058 A 
ATOM     21  C   UNL     1      30.902  21.641  38.107  1.00  0.00     0.012 A 
ATOM     22  C   UNL     1      28.246  20.811  38.489  1.00  0.00     0.161 A 
ATOM     23  C   UNL     1      30.351  20.659  37.284  1.00  0.00     0.051 A 
ATOM     24  C   UNL     1      29.027  20.244  37.466  1.00  0.00     0.157 A 
BRANCH  22  25
ATOM     25  O   UNL     1      26.924  20.368  38.657  1.00  0.00    -0.493 OA
ATOM     26  C   UNL     1      25.785  20.979  38.059  1.00  0.00     0.278 C 
ENDBRANCH  22  25
BRANCH  24  27
ATOM     27  O   UNL     1      28.508  19.262  36.623  1.00  0.00    -0.504 OA
ATOM     28  H   UNL     1      29.023  18.905  35.828  1.00  0.00     0.293 HD
ENDBRANCH  24  27
ENDBRANCH  18  19
ENDBRANCH  15  17
ENDBRANCH   1  15
TORSDOF 10
ENDMDL
MODEL 8
REMARK VINA RESULT:    -6.975      5.106      8.849
REMARK INTER + INTRA:         -11.734
REMARK INTER:                 -11.151
REMARK INTRA:                  -0.583
REMARK UNBOUND:                -1.089
REMARK SMILES COc1cc(C=CCOC(=O)C=Cc2ccc(O)c(OC)c2)ccc1O
REMARK SMILES IDX 9 1 8 2 7 3 6 4 5 5 3 6 25 7 4 8 24 9 23 10 2 11 1 12 26 13
REMARK SMILES IDX 10 15 11 16 12 17 13 18 14 19 22 20 15 21 19 22 16 23 17 24
REMARK SMILES IDX 20 25 21 26 18 27
REMARK H PARENT 26 14 18 28
REMARK Flexibility Score: inf
ROOT
ATOM      1  O   UNL     1      35.262  30.765  42.495  1.00  0.00    -0.458 OA
ENDROOT
BRANCH   1   2
ATOM      2  C   UNL     1      35.435  29.874  43.593  1.00  0.00     0.261 C 
BRANCH   2   3
ATOM      3  C   UNL     1      36.651  29.022  43.382  1.00  0.00     0.015 C 
ATOM      4  C   UNL     1      36.677  28.053  42.458  1.00  0.00     0.007 C 
BRANCH   4   5
ATOM      5  C   UNL     1      37.834  27.150  42.242  1.00  0.00    -0.022 A 
ATOM      6  C   UNL     1      39.274  25.953  40.665  1.00  0.00     0.161 A 
ATOM      7  C   UNL     1      40.033  25.463  41.741  1.00  0.00     0.157 A 
ATOM      8  C   UNL     1      38.179  26.802  40.926  1.00  0.00     0.058 A 
ATOM      9  C   UNL     1      39.703  25.821  43.050  1.00  0.00     0.051 A 
ATOM     10  C   UNL     1      38.617  26.660  43.303  1.00  0.00     0.012 A 
BRANCH   6  11
ATOM     11  O   UNL     1      39.633  25.582  39.358  1.00  0.00    -0.493 OA
ATOM     12  C   UNL     1      39.791  26.492  38.274  1.00  0.00     0.278 C 
ENDBRANCH   6  11
BRANCH   7  13
ATOM     13  O   UNL     1      41.125  24.621  41.528  1.00  0.00    -0.504 OA
ATOM     14  H   UNL     1      41.197  23.709  41.963  1.00  0.00     0.293 HD
ENDBRANCH   7  13
ENDBRANCH   4   5
ENDBRANCH   2   3
ENDBRANCH   1   2
BRANCH   1  15
ATOM     15  C   UNL     1      35.929  31.992  42.382  1.00  0.00     0.331 C 
ATOM     16  O   UNL     1      35.692  32.758  41.409  1.00  0.00    -0.247 OA
BRANCH  15  17
ATOM     17  C   UNL     1      36.873  32.437  43.425  1.00  0.00     0.094 C 
ATOM     18  C   UNL     1      36.535  33.070  44.558  1.00  0.00     0.016 C 
BRANCH  18  19
ATOM     19  C   UNL     1      35.154  33.270  45.044  1.00  0.00    -0.021 A 
ATOM     20  C   UNL     1      34.478  32.203  45.653  1.00  0.00     0.058 A 
ATOM     21  C   UNL     1      34.478  34.480  44.826  1.00  0.00     0.012 A 
ATOM     22  C   UNL     1      33.147  32.355  46.093  1.00  0.00     0.161 A 
ATOM     23  C   UNL     1      33.162  34.638  45.260  1.00  0.00     0.051 A 
ATOM     24  C   UNL     1      32.495  33.585  45.895  1.00  0.00     0.157 A 
BRANCH  22  25
ATOM     25  O   UNL     1      32.450  31.311  46.724  1.00  0.00    -0.493 OA
ATOM     26  C   UNL     1      32.543  29.939  46.355  1.00  0.00     0.278 C 
ENDBRANCH  22  25
BRANCH  24  27
ATOM     27  O   UNL     1      31.180  33.779  46.318  1.00  0.00    -0.504 OA
ATOM     28  H   UNL     1      30.861  34.660  46.703  1.00  0.00     0.293 HD
ENDBRANCH  24  27
ENDBRANCH  18  19
ENDBRANCH  15  17
ENDBRANCH   1  15
TORSDOF 10
ENDMDL
MODEL 9
REMARK VINA RESULT:    -6.950      4.059      7.996
REMARK INTER + INTRA:         -11.695
REMARK INTER:                 -10.901
REMARK INTRA:                  -0.794
REMARK UNBOUND:                -1.089
REMARK SMILES COc1cc(C=CCOC(=O)C=Cc2ccc(O)c(OC)c2)ccc1O
REMARK SMILES IDX 9 1 8 2 7 3 6 4 5 5 3 6 25 7 4 8 24 9 23 10 2 11 1 12 26 13
REMARK SMILES IDX 10 15 11 16 12 17 13 18 14 19 22 20 15 21 19 22 16 23 17 24
REMARK SMILES IDX 20 25 21 26 18 27
REMARK H PARENT 26 14 18 28
REMARK Flexibility Score: inf
ROOT
ATOM      1  O   UNL     1      37.454  28.913  43.901  1.00  0.00    -0.458 OA
ENDROOT
BRANCH   1   2
ATOM      2  C   UNL     1      37.768  27.529  44.033  1.00  0.00     0.261 C 
BRANCH   2   3
ATOM      3  C   UNL     1      38.607  27.077  42.875  1.00  0.00     0.015 C 
ATOM      4  C   UNL     1      38.073  26.847  41.668  1.00  0.00     0.007 C 
BRANCH   4   5
ATOM      5  C   UNL     1      38.847  26.352  40.504  1.00  0.00    -0.022 A 
ATOM      6  C   UNL     1      38.837  25.325  38.282  1.00  0.00     0.161 A 
ATOM      7  C   UNL     1      40.239  25.414  38.242  1.00  0.00     0.157 A 
ATOM      8  C   UNL     1      38.149  25.803  39.416  1.00  0.00     0.058 A 
ATOM      9  C   UNL     1      40.935  25.974  39.315  1.00  0.00     0.051 A 
ATOM     10  C   UNL     1      40.250  26.445  40.436  1.00  0.00     0.012 A 
BRANCH   6  11
ATOM     11  O   UNL     1      38.163  24.762  37.185  1.00  0.00    -0.493 OA
ATOM     12  C   UNL     1      37.134  23.781  37.285  1.00  0.00     0.278 C 
ENDBRANCH   6  11
BRANCH   7  13
ATOM     13  O   UNL     1      40.959  24.953  37.139  1.00  0.00    -0.504 OA
ATOM     14  H   UNL     1      40.521  24.773  36.244  1.00  0.00     0.293 HD
ENDBRANCH   7  13
ENDBRANCH   4   5
ENDBRANCH   2   3
ENDBRANCH   1   2
BRANCH   1  15
ATOM     15  C   UNL     1      36.153  29.395  43.700  1.00  0.00     0.331 C 
ATOM     16  O   UNL     1      35.228  29.079  44.495  1.00  0.00    -0.247 OA
BRANCH  15  17
ATOM     17  C   UNL     1      35.856  30.325  42.594  1.00  0.00     0.094 C 
ATOM     18  C   UNL     1      35.865  31.664  42.682  1.00  0.00     0.016 C 
BRANCH  18  19
ATOM     19  C   UNL     1      36.347  32.439  43.844  1.00  0.00    -0.021 A 
ATOM     20  C   UNL     1      35.471  32.704  44.905  1.00  0.00     0.058 A 
ATOM     21  C   UNL     1      37.638  32.988  43.862  1.00  0.00     0.012 A 
ATOM     22  C   UNL     1      35.893  33.471  46.010  1.00  0.00     0.161 A 
ATOM     23  C   UNL     1      38.064  33.748  44.952  1.00  0.00     0.051 A 
ATOM     24  C   UNL     1      37.202  33.988  46.026  1.00  0.00     0.157 A 
BRANCH  22  25
ATOM     25  O   UNL     1      35.045  33.738  47.097  1.00  0.00    -0.493 OA
ATOM     26  C   UNL     1      33.648  33.464  47.119  1.00  0.00     0.278 C 
ENDBRANCH  22  25
BRANCH  24  27
ATOM     27  O   UNL     1      37.662  34.750  47.101  1.00  0.00    -0.504 OA
ATOM     28  H   UNL     1      37.842  34.346  48.011  1.00  0.00     0.293 HD
ENDBRANCH  24  27
ENDBRANCH  18  19
ENDBRANCH  15  17
ENDBRANCH   1  15
TORSDOF 10
ENDMDL
