MODEL 1
REMARK VINA RESULT:    -4.962      0.000      0.000
REMARK INTER + INTRA:         -10.301
REMARK INTER:                  -9.314
REMARK INTRA:                  -0.987
REMARK UNBOUND:                -0.987
REMARK SMILES O=C([O-])CCCCCCCCCCCCCCC(=O)[O-]
REMARK SMILES IDX 10 1 9 2 8 3 7 4 6 5 5 6 4 7 2 8 1 9 3 10 11 11 12 12 13 13
REMARK SMILES IDX 14 14 15 15 16 16 17 17 18 18 19 19 20 20
REMARK H PARENT
REMARK Flexibility Score: inf
ROOT
ATOM      1  C   UNL     1      13.272  23.819  46.910  1.00  0.00     0.000 C 
ENDROOT
BRANCH   1   2
ATOM      2  C   UNL     1      14.712  23.888  46.380  1.00  0.00     0.000 C 
BRANCH   2   3
ATOM      3  C   UNL     1      15.696  23.074  47.239  1.00  0.00     0.000 C 
BRANCH   3   4
ATOM      4  C   UNL     1      16.735  22.310  46.397  1.00  0.00     0.000 C 
BRANCH   4   5
ATOM      5  C   UNL     1      18.177  22.837  46.509  1.00  0.00     0.000 C 
BRANCH   5   6
ATOM      6  C   UNL     1      19.103  21.886  47.288  1.00  0.00     0.006 C 
BRANCH   6   7
ATOM      7  C   UNL     1      19.304  22.335  48.741  1.00  0.00     0.053 C 
BRANCH   7   8
ATOM      8  C   UNL     1      20.197  23.534  48.836  1.00  0.00     0.041 C 
ATOM      9  O   UNL     1      21.412  23.447  48.519  1.00  0.00    -0.550 OA
ATOM     10  O   UNL     1      19.679  24.756  49.249  1.00  0.00    -0.550 OA
ENDBRANCH   7   8
ENDBRANCH   6   7
ENDBRANCH   5   6
ENDBRANCH   4   5
ENDBRANCH   3   4
ENDBRANCH   2   3
ENDBRANCH   1   2
BRANCH   1  11
ATOM     11  C   UNL     1      12.789  22.372  47.117  1.00  0.00     0.000 C 
BRANCH  11  12
ATOM     12  C   UNL     1      12.497  21.654  45.790  1.00  0.00     0.000 C 
BRANCH  12  13
ATOM     13  C   UNL     1      11.850  22.582  44.747  1.00  0.00     0.000 C 
BRANCH  13  14
ATOM     14  C   UNL     1      12.537  22.498  43.375  1.00  0.00     0.000 C 
BRANCH  14  15
ATOM     15  C   UNL     1      11.698  23.131  42.254  1.00  0.00     0.000 C 
BRANCH  15  16
ATOM     16  C   UNL     1      10.199  22.905  42.498  1.00  0.00     0.006 C 
BRANCH  16  17
ATOM     17  C   UNL     1       9.401  22.840  41.189  1.00  0.00     0.053 C 
BRANCH  17  18
ATOM     18  C   UNL     1       9.856  21.711  40.315  1.00  0.00     0.041 C 
ATOM     19  O   UNL     1       9.679  20.519  40.677  1.00  0.00    -0.550 OA
ATOM     20  O   UNL     1      10.505  21.977  39.115  1.00  0.00    -0.550 OA
ENDBRANCH  17  18
ENDBRANCH  16  17
ENDBRANCH  15  16
ENDBRANCH  14  15
ENDBRANCH  13  14
ENDBRANCH  12  13
ENDBRANCH  11  12
ENDBRANCH   1  11
TORSDOF 15
ENDMDL
MODEL 2
REMARK VINA RESULT:    -4.952      2.595     10.188
REMARK INTER + INTRA:         -10.281
REMARK INTER:                  -9.730
REMARK INTRA:                  -0.551
REMARK UNBOUND:                -0.987
REMARK SMILES O=C([O-])CCCCCCCCCCCCCCC(=O)[O-]
REMARK SMILES IDX 10 1 9 2 8 3 7 4 6 5 5 6 4 7 2 8 1 9 3 10 11 11 12 12 13 13
REMARK SMILES IDX 14 14 15 15 16 16 17 17 18 18 19 19 20 20
REMARK H PARENT
REMARK Flexibility Score: inf
ROOT
ATOM      1  C   UNL     1      11.371  22.681  42.738  1.00  0.00     0.000 C 
ENDROOT
BRANCH   1   2
ATOM      2  C   UNL     1       9.929  22.965  42.289  1.00  0.00     0.000 C 
BRANCH   2   3
ATOM      3  C   UNL     1       9.563  22.237  40.984  1.00  0.00     0.000 C 
BRANCH   3   4
ATOM      4  C   UNL     1      10.231  22.859  39.744  1.00  0.00     0.000 C 
BRANCH   4   5
ATOM      5  C   UNL     1      11.129  21.901  38.940  1.00  0.00     0.000 C 
BRANCH   5   6
ATOM      6  C   UNL     1      11.092  22.173  37.426  1.00  0.00     0.006 C 
BRANCH   6   7
ATOM      7  C   UNL     1      12.419  21.822  36.742  1.00  0.00     0.053 C 
BRANCH   7   8
ATOM      8  C   UNL     1      12.558  22.501  35.414  1.00  0.00     0.041 C 
ATOM      9  O   UNL     1      11.962  22.046  34.402  1.00  0.00    -0.550 OA
ATOM     10  O   UNL     1      13.326  23.653  35.300  1.00  0.00    -0.550 OA
ENDBRANCH   7   8
ENDBRANCH   6   7
ENDBRANCH   5   6
ENDBRANCH   4   5
ENDBRANCH   3   4
ENDBRANCH   2   3
ENDBRANCH   1   2
BRANCH   1  11
ATOM     11  C   UNL     1      11.601  23.012  44.224  1.00  0.00     0.000 C 
BRANCH  11  12
ATOM     12  C   UNL     1      12.768  22.215  44.829  1.00  0.00     0.000 C 
BRANCH  12  13
ATOM     13  C   UNL     1      12.506  21.803  46.289  1.00  0.00     0.000 C 
BRANCH  13  14
ATOM     14  C   UNL     1      13.047  22.829  47.297  1.00  0.00     0.000 C 
BRANCH  14  15
ATOM     15  C   UNL     1      14.337  23.509  46.813  1.00  0.00     0.000 C 
BRANCH  15  16
ATOM     16  C   UNL     1      15.505  23.209  47.764  1.00  0.00     0.006 C 
BRANCH  16  17
ATOM     17  C   UNL     1      16.812  22.933  47.009  1.00  0.00     0.053 C 
BRANCH  17  18
ATOM     18  C   UNL     1      18.012  23.123  47.885  1.00  0.00     0.041 C 
ATOM     19  O   UNL     1      18.484  22.152  48.532  1.00  0.00    -0.550 OA
ATOM     20  O   UNL     1      18.588  24.382  48.013  1.00  0.00    -0.550 OA
ENDBRANCH  17  18
ENDBRANCH  16  17
ENDBRANCH  15  16
ENDBRANCH  14  15
ENDBRANCH  13  14
ENDBRANCH  12  13
ENDBRANCH  11  12
ENDBRANCH   1  11
TORSDOF 15
ENDMDL
MODEL 3
REMARK VINA RESULT:    -4.927      8.500     12.639
REMARK INTER + INTRA:         -10.234
REMARK INTER:                  -9.635
REMARK INTRA:                  -0.599
REMARK UNBOUND:                -0.987
REMARK SMILES O=C([O-])CCCCCCCCCCCCCCC(=O)[O-]
REMARK SMILES IDX 10 1 9 2 8 3 7 4 6 5 5 6 4 7 2 8 1 9 3 10 11 11 12 12 13 13
REMARK SMILES IDX 14 14 15 15 16 16 17 17 18 18 19 19 20 20
REMARK H PARENT
REMARK Flexibility Score: inf
ROOT
ATOM      1  C   UNL     1      14.289  20.978  34.538  1.00  0.00     0.000 C 
ENDROOT
BRANCH   1   2
ATOM      2  C   UNL     1      12.787  21.303  34.565  1.00  0.00     0.000 C 
BRANCH   2   3
ATOM      3  C   UNL     1      12.455  22.479  35.500  1.00  0.00     0.000 C 
BRANCH   3   4
ATOM      4  C   UNL     1      11.385  22.124  36.550  1.00  0.00     0.000 C 
BRANCH   4   5
ATOM      5  C   UNL     1      11.854  22.219  38.013  1.00  0.00     0.000 C 
BRANCH   5   6
ATOM      6  C   UNL     1      10.742  21.883  39.022  1.00  0.00     0.006 C 
BRANCH   6   7
ATOM      7  C   UNL     1      10.927  22.621  40.354  1.00  0.00     0.053 C 
BRANCH   7   8
ATOM      8  C   UNL     1       9.656  23.265  40.816  1.00  0.00     0.041 C 
ATOM      9  O   UNL     1       8.963  22.727  41.720  1.00  0.00    -0.550 OA
ATOM     10  O   UNL     1       9.250  24.474  40.266  1.00  0.00    -0.550 OA
ENDBRANCH   7   8
ENDBRANCH   6   7
ENDBRANCH   5   6
ENDBRANCH   4   5
ENDBRANCH   3   4
ENDBRANCH   2   3
ENDBRANCH   1   2
BRANCH   1  11
ATOM     11  C   UNL     1      15.166  22.240  34.617  1.00  0.00     0.000 C 
BRANCH  11  12
ATOM     12  C   UNL     1      16.668  21.915  34.581  1.00  0.00     0.000 C 
BRANCH  12  13
ATOM     13  C   UNL     1      17.253  21.985  33.159  1.00  0.00     0.000 C 
BRANCH  13  14
ATOM     14  C   UNL     1      18.755  22.313  33.155  1.00  0.00     0.000 C 
BRANCH  14  15
ATOM     15  C   UNL     1      19.624  21.094  32.808  1.00  0.00     0.000 C 
BRANCH  15  16
ATOM     16  C   UNL     1      20.632  20.802  33.928  1.00  0.00     0.006 C 
BRANCH  16  17
ATOM     17  C   UNL     1      21.186  22.087  34.560  1.00  0.00     0.053 C 
BRANCH  17  18
ATOM     18  C   UNL     1      22.117  21.792  35.696  1.00  0.00     0.041 C 
ATOM     19  O   UNL     1      21.664  21.369  36.792  1.00  0.00    -0.550 OA
ATOM     20  O   UNL     1      23.481  22.018  35.556  1.00  0.00    -0.550 OA
ENDBRANCH  17  18
ENDBRANCH  16  17
ENDBRANCH  15  16
ENDBRANCH  14  15
ENDBRANCH  13  14
ENDBRANCH  12  13
ENDBRANCH  11  12
ENDBRANCH   1  11
TORSDOF 15
ENDMDL
MODEL 4
REMARK VINA RESULT:    -4.888      9.545     13.834
REMARK INTER + INTRA:         -10.161
REMARK INTER:                  -9.444
REMARK INTRA:                  -0.717
REMARK UNBOUND:                -0.987
REMARK SMILES O=C([O-])CCCCCCCCCCCCCCC(=O)[O-]
REMARK SMILES IDX 10 1 9 2 8 3 7 4 6 5 5 6 4 7 2 8 1 9 3 10 11 11 12 12 13 13
REMARK SMILES IDX 14 14 15 15 16 16 17 17 18 18 19 19 20 20
REMARK H PARENT
REMARK Flexibility Score: inf
ROOT
ATOM      1  C   UNL     1      17.792  22.431  34.344  1.00  0.00     0.000 C 
ENDROOT
BRANCH   1   2
ATOM      2  C   UNL     1      16.491  21.844  33.777  1.00  0.00     0.000 C 
BRANCH   2   3
ATOM      3  C   UNL     1      15.241  22.363  34.508  1.00  0.00     0.000 C 
BRANCH   3   4
ATOM      4  C   UNL     1      14.156  21.284  34.678  1.00  0.00     0.000 C 
BRANCH   4   5
ATOM      5  C   UNL     1      12.709  21.789  34.530  1.00  0.00     0.000 C 
BRANCH   5   6
ATOM      6  C   UNL     1      12.080  22.209  35.871  1.00  0.00     0.006 C 
BRANCH   6   7
ATOM      7  C   UNL     1      12.756  21.525  37.066  1.00  0.00     0.053 C 
BRANCH   7   8
ATOM      8  C   UNL     1      12.068  21.851  38.356  1.00  0.00     0.041 C 
ATOM      9  O   UNL     1      11.076  22.627  38.369  1.00  0.00    -0.550 OA
ATOM     10  O   UNL     1      12.506  21.276  39.543  1.00  0.00    -0.550 OA
ENDBRANCH   7   8
ENDBRANCH   6   7
ENDBRANCH   5   6
ENDBRANCH   4   5
ENDBRANCH   3   4
ENDBRANCH   2   3
ENDBRANCH   1   2
BRANCH   1  11
ATOM     11  C   UNL     1      18.822  22.749  33.245  1.00  0.00     0.000 C 
BRANCH  11  12
ATOM     12  C   UNL     1      19.475  21.484  32.666  1.00  0.00     0.000 C 
BRANCH  12  13
ATOM     13  C   UNL     1      20.202  20.652  33.737  1.00  0.00     0.000 C 
BRANCH  13  14
ATOM     14  C   UNL     1      21.328  21.437  34.429  1.00  0.00     0.000 C 
BRANCH  14  15
ATOM     15  C   UNL     1      21.126  21.542  35.949  1.00  0.00     0.000 C 
BRANCH  15  16
ATOM     16  C   UNL     1      22.469  21.453  36.687  1.00  0.00     0.006 C 
BRANCH  16  17
ATOM     17  C   UNL     1      23.577  22.239  35.974  1.00  0.00     0.053 C 
BRANCH  17  18
ATOM     18  C   UNL     1      24.910  22.045  36.630  1.00  0.00     0.041 C 
ATOM     19  O   UNL     1      25.821  22.899  36.478  1.00  0.00    -0.550 OA
ATOM     20  O   UNL     1      25.155  20.902  37.382  1.00  0.00    -0.550 OA
ENDBRANCH  17  18
ENDBRANCH  16  17
ENDBRANCH  15  16
ENDBRANCH  14  15
ENDBRANCH  13  14
ENDBRANCH  12  13
ENDBRANCH  11  12
ENDBRANCH   1  11
TORSDOF 15
ENDMDL
MODEL 5
REMARK VINA RESULT:    -4.886      1.835      2.513
REMARK INTER + INTRA:         -10.157
REMARK INTER:                  -9.416
REMARK INTRA:                  -0.741
REMARK UNBOUND:                -0.987
REMARK SMILES O=C([O-])CCCCCCCCCCCCCCC(=O)[O-]
REMARK SMILES IDX 10 1 9 2 8 3 7 4 6 5 5 6 4 7 2 8 1 9 3 10 11 11 12 12 13 13
REMARK SMILES IDX 14 14 15 15 16 16 17 17 18 18 19 19 20 20
REMARK H PARENT
REMARK Flexibility Score: inf
ROOT
ATOM      1  C   UNL     1      15.192  23.531  46.549  1.00  0.00     0.000 C 
ENDROOT
BRANCH   1   2
ATOM      2  C   UNL     1      16.478  22.695  46.637  1.00  0.00     0.000 C 
BRANCH   2   3
ATOM      3  C   UNL     1      17.493  23.276  47.637  1.00  0.00     0.000 C 
BRANCH   3   4
ATOM      4  C   UNL     1      18.260  22.189  48.411  1.00  0.00     0.000 C 
BRANCH   4   5
ATOM      5  C   UNL     1      19.728  22.002  47.987  1.00  0.00     0.000 C 
BRANCH   5   6
ATOM      6  C   UNL     1      20.514  23.324  47.949  1.00  0.00     0.006 C 
BRANCH   6   7
ATOM      7  C   UNL     1      21.660  23.288  46.930  1.00  0.00     0.053 C 
BRANCH   7   8
ATOM      8  C   UNL     1      21.151  23.230  45.522  1.00  0.00     0.041 C 
ATOM      9  O   UNL     1      20.373  24.121  45.091  1.00  0.00    -0.550 OA
ATOM     10  O   UNL     1      21.558  22.205  44.677  1.00  0.00    -0.550 OA
ENDBRANCH   7   8
ENDBRANCH   6   7
ENDBRANCH   5   6
ENDBRANCH   4   5
ENDBRANCH   3   4
ENDBRANCH   2   3
ENDBRANCH   1   2
BRANCH   1  11
ATOM     11  C   UNL     1      14.225  23.248  47.713  1.00  0.00     0.000 C 
BRANCH  11  12
ATOM     12  C   UNL     1      12.793  22.966  47.232  1.00  0.00     0.000 C 
BRANCH  12  13
ATOM     13  C   UNL     1      12.505  23.575  45.849  1.00  0.00     0.000 C 
BRANCH  13  14
ATOM     14  C   UNL     1      12.270  22.505  44.771  1.00  0.00     0.000 C 
BRANCH  14  15
ATOM     15  C   UNL     1      12.147  23.104  43.361  1.00  0.00     0.000 C 
BRANCH  15  16
ATOM     16  C   UNL     1      11.162  22.294  42.505  1.00  0.00     0.006 C 
BRANCH  16  17
ATOM     17  C   UNL     1       9.839  23.038  42.281  1.00  0.00     0.053 C 
BRANCH  17  18
ATOM     18  C   UNL     1       9.509  23.161  40.826  1.00  0.00     0.041 C 
ATOM     19  O   UNL     1      10.027  22.375  39.990  1.00  0.00    -0.550 OA
ATOM     20  O   UNL     1       8.654  24.166  40.388  1.00  0.00    -0.550 OA
ENDBRANCH  17  18
ENDBRANCH  16  17
ENDBRANCH  15  16
ENDBRANCH  14  15
ENDBRANCH  13  14
ENDBRANCH  12  13
ENDBRANCH  11  12
ENDBRANCH   1  11
TORSDOF 15
ENDMDL
MODEL 6
REMARK VINA RESULT:    -4.885      1.781      9.616
REMARK INTER + INTRA:         -10.156
REMARK INTER:                  -9.305
REMARK INTRA:                  -0.851
REMARK UNBOUND:                -0.987
REMARK SMILES O=C([O-])CCCCCCCCCCCCCCC(=O)[O-]
REMARK SMILES IDX 10 1 9 2 8 3 7 4 6 5 5 6 4 7 2 8 1 9 3 10 11 11 12 12 13 13
REMARK SMILES IDX 14 14 15 15 16 16 17 17 18 18 19 19 20 20
REMARK H PARENT
REMARK Flexibility Score: inf
ROOT
ATOM      1  C   UNL     1      14.735  23.160  47.482  1.00  0.00     0.000 C 
ENDROOT
BRANCH   1   2
ATOM      2  C   UNL     1      13.221  23.014  47.260  1.00  0.00     0.000 C 
BRANCH   2   3
ATOM      3  C   UNL     1      12.772  23.548  45.889  1.00  0.00     0.000 C 
BRANCH   3   4
ATOM      4  C   UNL     1      12.222  22.444  44.967  1.00  0.00     0.000 C 
BRANCH   4   5
ATOM      5  C   UNL     1      11.412  22.950  43.759  1.00  0.00     0.000 C 
BRANCH   5   6
ATOM      6  C   UNL     1      11.947  22.423  42.416  1.00  0.00     0.006 C 
BRANCH   6   7
ATOM      7  C   UNL     1      11.133  22.943  41.225  1.00  0.00     0.053 C 
BRANCH   7   8
ATOM      8  C   UNL     1       9.784  22.295  41.146  1.00  0.00     0.041 C 
ATOM      9  O   UNL     1       9.676  21.097  40.776  1.00  0.00    -0.550 OA
ATOM     10  O   UNL     1       8.648  23.009  41.508  1.00  0.00    -0.550 OA
ENDBRANCH   7   8
ENDBRANCH   6   7
ENDBRANCH   5   6
ENDBRANCH   4   5
ENDBRANCH   3   4
ENDBRANCH   2   3
ENDBRANCH   1   2
BRANCH   1  11
ATOM     11  C   UNL     1      15.559  22.564  46.327  1.00  0.00     0.000 C 
BRANCH  11  12
ATOM     12  C   UNL     1      17.072  22.756  46.524  1.00  0.00     0.000 C 
BRANCH  12  13
ATOM     13  C   UNL     1      17.470  22.819  48.010  1.00  0.00     0.000 C 
BRANCH  13  14
ATOM     14  C   UNL     1      18.740  22.009  48.315  1.00  0.00     0.000 C 
BRANCH  14  15
ATOM     15  C   UNL     1      19.846  22.864  48.954  1.00  0.00     0.000 C 
BRANCH  15  16
ATOM     16  C   UNL     1      20.367  23.915  47.963  1.00  0.00     0.006 C 
BRANCH  16  17
ATOM     17  C   UNL     1      21.400  23.332  46.988  1.00  0.00     0.053 C 
BRANCH  17  18
ATOM     18  C   UNL     1      20.865  23.254  45.591  1.00  0.00     0.041 C 
ATOM     19  O   UNL     1      20.661  24.307  44.932  1.00  0.00    -0.550 OA
ATOM     20  O   UNL     1      20.561  22.020  45.029  1.00  0.00    -0.550 OA
ENDBRANCH  17  18
ENDBRANCH  16  17
ENDBRANCH  15  16
ENDBRANCH  14  15
ENDBRANCH  13  14
ENDBRANCH  12  13
ENDBRANCH  11  12
ENDBRANCH   1  11
TORSDOF 15
ENDMDL
MODEL 7
REMARK VINA RESULT:    -4.884      3.183      4.539
REMARK INTER + INTRA:         -10.153
REMARK INTER:                  -8.431
REMARK INTRA:                  -1.722
REMARK UNBOUND:                -0.987
REMARK SMILES O=C([O-])CCCCCCCCCCCCCCC(=O)[O-]
REMARK SMILES IDX 10 1 9 2 8 3 7 4 6 5 5 6 4 7 2 8 1 9 3 10 11 11 12 12 13 13
REMARK SMILES IDX 14 14 15 15 16 16 17 17 18 18 19 19 20 20
REMARK H PARENT
REMARK Flexibility Score: inf
ROOT
ATOM      1  C   UNL     1      17.658  23.641  47.725  1.00  0.00     0.000 C 
ENDROOT
BRANCH   1   2
ATOM      2  C   UNL     1      18.029  22.276  48.324  1.00  0.00     0.000 C 
BRANCH   2   3
ATOM      3  C   UNL     1      19.500  22.206  48.768  1.00  0.00     0.000 C 
BRANCH   3   4
ATOM      4  C   UNL     1      20.270  23.511  48.496  1.00  0.00     0.000 C 
BRANCH   4   5
ATOM      5  C   UNL     1      21.435  23.383  47.497  1.00  0.00     0.000 C 
BRANCH   5   6
ATOM      6  C   UNL     1      21.021  23.702  46.050  1.00  0.00     0.006 C 
BRANCH   6   7
ATOM      7  C   UNL     1      21.133  22.477  45.133  1.00  0.00     0.053 C 
BRANCH   7   8
ATOM      8  C   UNL     1      19.808  21.804  44.940  1.00  0.00     0.041 C 
ATOM      9  O   UNL     1      18.957  22.292  44.151  1.00  0.00    -0.550 OA
ATOM     10  O   UNL     1      19.525  20.621  45.612  1.00  0.00    -0.550 OA
ENDBRANCH   7   8
ENDBRANCH   6   7
ENDBRANCH   5   6
ENDBRANCH   4   5
ENDBRANCH   3   4
ENDBRANCH   2   3
ENDBRANCH   1   2
BRANCH   1  11
ATOM     11  C   UNL     1      16.692  23.518  46.532  1.00  0.00     0.000 C 
BRANCH  11  12
ATOM     12  C   UNL     1      15.472  22.640  46.852  1.00  0.00     0.000 C 
BRANCH  12  13
ATOM     13  C   UNL     1      14.523  23.297  47.870  1.00  0.00     0.000 C 
BRANCH  13  14
ATOM     14  C   UNL     1      13.047  23.192  47.453  1.00  0.00     0.000 C 
BRANCH  14  15
ATOM     15  C   UNL     1      12.739  21.893  46.692  1.00  0.00     0.000 C 
BRANCH  15  16
ATOM     16  C   UNL     1      12.230  22.196  45.275  1.00  0.00     0.006 C 
BRANCH  16  17
ATOM     17  C   UNL     1      12.381  23.678  44.908  1.00  0.00     0.053 C 
BRANCH  17  18
ATOM     18  C   UNL     1      13.501  23.900  43.938  1.00  0.00     0.041 C 
ATOM     19  O   UNL     1      14.118  22.919  43.448  1.00  0.00    -0.550 OA
ATOM     20  O   UNL     1      13.885  25.193  43.602  1.00  0.00    -0.550 OA
ENDBRANCH  17  18
ENDBRANCH  16  17
ENDBRANCH  15  16
ENDBRANCH  14  15
ENDBRANCH  13  14
ENDBRANCH  12  13
ENDBRANCH  11  12
ENDBRANCH   1  11
TORSDOF 15
ENDMDL
MODEL 8
REMARK VINA RESULT:    -4.864      1.952      3.266
REMARK INTER + INTRA:         -10.115
REMARK INTER:                  -9.531
REMARK INTRA:                  -0.584
REMARK UNBOUND:                -0.987
REMARK SMILES O=C([O-])CCCCCCCCCCCCCCC(=O)[O-]
REMARK SMILES IDX 10 1 9 2 8 3 7 4 6 5 5 6 4 7 2 8 1 9 3 10 11 11 12 12 13 13
REMARK SMILES IDX 14 14 15 15 16 16 17 17 18 18 19 19 20 20
REMARK H PARENT
REMARK Flexibility Score: inf
ROOT
ATOM      1  C   UNL     1      12.793  22.146  44.652  1.00  0.00     0.000 C 
ENDROOT
BRANCH   1   2
ATOM      2  C   UNL     1      12.517  21.862  46.136  1.00  0.00     0.000 C 
BRANCH   2   3
ATOM      3  C   UNL     1      13.204  22.875  47.069  1.00  0.00     0.000 C 
BRANCH   3   4
ATOM      4  C   UNL     1      14.659  23.172  46.662  1.00  0.00     0.000 C 
BRANCH   4   5
ATOM      5  C   UNL     1      15.643  23.327  47.836  1.00  0.00     0.000 C 
BRANCH   5   6
ATOM      6  C   UNL     1      17.113  23.174  47.410  1.00  0.00     0.006 C 
BRANCH   6   7
ATOM      7  C   UNL     1      17.883  22.212  48.324  1.00  0.00     0.053 C 
BRANCH   7   8
ATOM      8  C   UNL     1      19.366  22.350  48.155  1.00  0.00     0.041 C 
ATOM      9  O   UNL     1      20.058  22.900  49.052  1.00  0.00    -0.550 OA
ATOM     10  O   UNL     1      19.986  21.846  47.019  1.00  0.00    -0.550 OA
ENDBRANCH   7   8
ENDBRANCH   6   7
ENDBRANCH   5   6
ENDBRANCH   4   5
ENDBRANCH   3   4
ENDBRANCH   2   3
ENDBRANCH   1   2
BRANCH   1  11
ATOM     11  C   UNL     1      11.657  22.942  43.984  1.00  0.00     0.000 C 
BRANCH  11  12
ATOM     12  C   UNL     1      11.301  22.403  42.590  1.00  0.00     0.000 C 
BRANCH  12  13
ATOM     13  C   UNL     1      10.003  23.015  42.034  1.00  0.00     0.000 C 
BRANCH  13  14
ATOM     14  C   UNL     1       9.341  22.126  40.969  1.00  0.00     0.000 C 
BRANCH  14  15
ATOM     15  C   UNL     1      10.364  21.458  40.038  1.00  0.00     0.000 C 
BRANCH  15  16
ATOM     16  C   UNL     1      10.866  22.447  38.976  1.00  0.00     0.006 C 
BRANCH  16  17
ATOM     17  C   UNL     1      12.215  22.024  38.380  1.00  0.00     0.053 C 
BRANCH  17  18
ATOM     18  C   UNL     1      12.291  22.313  36.913  1.00  0.00     0.041 C 
ATOM     19  O   UNL     1      11.304  22.074  36.168  1.00  0.00    -0.550 OA
ATOM     20  O   UNL     1      13.464  22.814  36.361  1.00  0.00    -0.550 OA
ENDBRANCH  17  18
ENDBRANCH  16  17
ENDBRANCH  15  16
ENDBRANCH  14  15
ENDBRANCH  13  14
ENDBRANCH  12  13
ENDBRANCH  11  12
ENDBRANCH   1  11
TORSDOF 15
ENDMDL
MODEL 9
REMARK VINA RESULT:    -4.834      1.542      9.830
REMARK INTER + INTRA:         -10.059
REMARK INTER:                  -9.468
REMARK INTRA:                  -0.592
REMARK UNBOUND:                -0.987
REMARK SMILES O=C([O-])CCCCCCCCCCCCCCC(=O)[O-]
REMARK SMILES IDX 10 1 9 2 8 3 7 4 6 5 5 6 4 7 2 8 1 9 3 10 11 11 12 12 13 13
REMARK SMILES IDX 14 14 15 15 16 16 17 17 18 18 19 19 20 20
REMARK H PARENT
REMARK Flexibility Score: inf
ROOT
ATOM      1  C   UNL     1      12.554  21.948  46.350  1.00  0.00     0.000 C 
ENDROOT
BRANCH   1   2
ATOM      2  C   UNL     1      12.739  22.105  44.832  1.00  0.00     0.000 C 
BRANCH   2   3
ATOM      3  C   UNL     1      11.677  23.021  44.200  1.00  0.00     0.000 C 
BRANCH   3   4
ATOM      4  C   UNL     1      11.223  22.540  42.809  1.00  0.00     0.000 C 
BRANCH   4   5
ATOM      5  C   UNL     1       9.815  23.000  42.390  1.00  0.00     0.000 C 
BRANCH   5   6
ATOM      6  C   UNL     1       9.393  22.460  41.012  1.00  0.00     0.006 C 
BRANCH   6   7
ATOM      7  C   UNL     1      10.481  21.584  40.376  1.00  0.00     0.053 C 
BRANCH   7   8
ATOM      8  C   UNL     1      11.150  22.274  39.227  1.00  0.00     0.041 C 
ATOM      9  O   UNL     1      12.003  23.175  39.437  1.00  0.00    -0.550 OA
ATOM     10  O   UNL     1      10.850  21.900  37.923  1.00  0.00    -0.550 OA
ENDBRANCH   7   8
ENDBRANCH   6   7
ENDBRANCH   5   6
ENDBRANCH   4   5
ENDBRANCH   3   4
ENDBRANCH   2   3
ENDBRANCH   1   2
BRANCH   1  11
ATOM     11  C   UNL     1      13.474  22.883  47.155  1.00  0.00     0.000 C 
BRANCH  11  12
ATOM     12  C   UNL     1      14.949  22.755  46.742  1.00  0.00     0.000 C 
BRANCH  12  13
ATOM     13  C   UNL     1      15.909  23.329  47.799  1.00  0.00     0.000 C 
BRANCH  13  14
ATOM     14  C   UNL     1      17.371  22.924  47.550  1.00  0.00     0.000 C 
BRANCH  14  15
ATOM     15  C   UNL     1      18.371  23.946  48.113  1.00  0.00     0.000 C 
BRANCH  15  16
ATOM     16  C   UNL     1      19.773  23.332  48.232  1.00  0.00     0.006 C 
BRANCH  16  17
ATOM     17  C   UNL     1      20.023  22.247  47.176  1.00  0.00     0.053 C 
BRANCH  17  18
ATOM     18  C   UNL     1      20.998  22.699  46.132  1.00  0.00     0.041 C 
ATOM     19  O   UNL     1      22.073  23.259  46.470  1.00  0.00    -0.550 OA
ATOM     20  O   UNL     1      20.702  22.532  44.785  1.00  0.00    -0.550 OA
ENDBRANCH  17  18
ENDBRANCH  16  17
ENDBRANCH  15  16
ENDBRANCH  14  15
ENDBRANCH  13  14
ENDBRANCH  12  13
ENDBRANCH  11  12
ENDBRANCH   1  11
TORSDOF 15
ENDMDL
