MODEL 1
REMARK VINA RESULT:    -4.240      0.000      0.000
REMARK INTER + INTRA:          -4.596
REMARK INTER:                  -5.231
REMARK INTRA:                   0.635
REMARK UNBOUND:                 0.635
REMARK SMILES C=C1[C@H]2CC[C@@H]3[C@H]2C(C)(C)CCC[C@]13C
REMARK SMILES IDX 14 1 6 2 7 3 3 4 2 5 1 6 4 7 5 8 15 9 8 10 9 11 10 12 11 13
REMARK SMILES IDX 13 15 12 16
REMARK H PARENT
REMARK Flexibility Score: 80.00
ROOT
ATOM      1  C   UNL     1      30.082   9.689  33.180  1.00  0.00    -0.008 C 
ATOM      2  C   UNL     1      30.339   8.714  31.964  1.00  0.00     0.003 C 
ATOM      3  C   UNL     1      31.610   9.262  31.285  1.00  0.00     0.006 C 
ATOM      4  C   UNL     1      32.415   9.282  32.585  1.00  0.00     0.019 C 
ATOM      5  C   UNL     1      31.510  10.051  33.505  1.00  0.00    -0.068 C 
ATOM      6  C   UNL     1      31.919  10.848  34.499  1.00  0.00     0.009 C 
ATOM      7  C   UNL     1      32.319   7.798  33.012  1.00  0.00     0.008 C 
ATOM      8  C   UNL     1      30.924   7.373  32.490  1.00  0.00     0.005 C 
ATOM      9  C   UNL     1      29.401   9.001  34.394  1.00  0.00     0.016 C 
ENDROOT
BRANCH   3  10
ATOM     10  C   UNL     1      31.528  10.570  30.387  1.00  0.00    -0.032 C 
ATOM     11  C   UNL     1      31.625  10.133  28.899  1.00  0.00     0.011 C 
ATOM     12  C   UNL     1      32.734  11.512  30.639  1.00  0.00     0.011 C 
BRANCH  10  13
ATOM     13  C   UNL     1      30.190  11.357  30.495  1.00  0.00     0.007 CG0
ATOM     14  G   UNL     1      29.870  11.940  31.869  1.00  0.00     0.000 G0
ENDBRANCH  10  13
ENDBRANCH   3  10
BRANCH   1  15
ATOM     15  C   UNL     1      29.211  10.913  32.794  1.00  0.00     0.011 C 
BRANCH  15  16
ATOM     16  C   UNL     1      29.867  11.935  31.868  1.00  0.00     0.001 CG0
ATOM     17  G   UNL     1      30.202  11.350  30.499  1.00  0.00     0.000 G0
ENDBRANCH  15  16
ENDBRANCH   1  15
TORSDOF 0
ENDMDL
MODEL 2
REMARK VINA RESULT:    -4.085      1.580      2.749
REMARK INTER + INTRA:          -4.405
REMARK INTER:                  -5.040
REMARK INTRA:                   0.634
REMARK UNBOUND:                 0.635
REMARK SMILES C=C1[C@H]2CC[C@@H]3[C@H]2C(C)(C)CCC[C@]13C
REMARK SMILES IDX 14 1 6 2 7 3 3 4 2 5 1 6 4 7 5 8 15 9 8 10 9 11 10 12 11 13
REMARK SMILES IDX 13 15 12 16
REMARK H PARENT
REMARK Flexibility Score: 80.00
ROOT
ATOM      1  C   UNL     1      30.993   9.349  32.425  1.00  0.00    -0.008 C 
ATOM      2  C   UNL     1      32.336   9.900  31.801  1.00  0.00     0.003 C 
ATOM      3  C   UNL     1      31.896  11.077  30.907  1.00  0.00     0.006 C 
ATOM      4  C   UNL     1      31.099  11.755  32.022  1.00  0.00     0.019 C 
ATOM      5  C   UNL     1      30.215  10.639  32.501  1.00  0.00    -0.068 C 
ATOM      6  C   UNL     1      28.980  10.792  32.994  1.00  0.00     0.009 C 
ATOM      7  C   UNL     1      32.197  11.939  33.097  1.00  0.00     0.008 C 
ATOM      8  C   UNL     1      33.113  10.710  32.876  1.00  0.00     0.005 C 
ATOM      9  C   UNL     1      31.174   8.734  33.840  1.00  0.00     0.016 C 
ENDROOT
BRANCH   3  10
ATOM     10  C   UNL     1      31.207  10.793  29.503  1.00  0.00    -0.032 C 
ATOM     11  C   UNL     1      32.251  11.090  28.392  1.00  0.00     0.011 C 
ATOM     12  C   UNL     1      30.019  11.755  29.247  1.00  0.00     0.011 C 
BRANCH  10  13
ATOM     13  C   UNL     1      30.774   9.317  29.273  1.00  0.00     0.007 CG0
ATOM     14  G   UNL     1      29.707   8.780  30.223  1.00  0.00     0.000 G0
ENDBRANCH  10  13
ENDBRANCH   3  10
BRANCH   1  15
ATOM     15  C   UNL     1      30.315   8.273  31.537  1.00  0.00     0.011 C 
BRANCH  15  16
ATOM     16  C   UNL     1      29.717   8.771  30.223  1.00  0.00     0.001 CG0
ATOM     17  G   UNL     1      30.779   9.297  29.262  1.00  0.00     0.000 G0
ENDBRANCH  15  16
ENDBRANCH   1  15
TORSDOF 0
ENDMDL
MODEL 3
REMARK VINA RESULT:    -4.034      2.325      5.029
REMARK INTER + INTRA:          -4.342
REMARK INTER:                  -4.974
REMARK INTRA:                   0.632
REMARK UNBOUND:                 0.635
REMARK SMILES C=C1[C@H]2CC[C@@H]3[C@H]2C(C)(C)CCC[C@]13C
REMARK SMILES IDX 14 1 6 2 7 3 3 4 2 5 1 6 4 7 5 8 15 9 8 10 9 11 10 12 11 13
REMARK SMILES IDX 13 15 12 16
REMARK H PARENT
REMARK Flexibility Score: 80.00
ROOT
ATOM      1  C   UNL     1      29.962  10.350  27.515  1.00  0.00    -0.008 C 
ATOM      2  C   UNL     1      30.154  11.842  27.997  1.00  0.00     0.003 C 
ATOM      3  C   UNL     1      31.284  11.770  29.045  1.00  0.00     0.006 C 
ATOM      4  C   UNL     1      32.234  11.016  28.115  1.00  0.00     0.019 C 
ATOM      5  C   UNL     1      31.382   9.863  27.662  1.00  0.00    -0.068 C 
ATOM      6  C   UNL     1      31.838   8.642  27.357  1.00  0.00     0.009 C 
ATOM      7  C   UNL     1      32.317  11.997  26.921  1.00  0.00     0.008 C 
ATOM      8  C   UNL     1      30.911  12.647  26.904  1.00  0.00     0.005 C 
ATOM      9  C   UNL     1      29.492  10.232  26.039  1.00  0.00     0.016 C 
ENDROOT
BRANCH   3  10
ATOM     10  C   UNL     1      30.983  11.201  30.498  1.00  0.00    -0.032 C 
ATOM     11  C   UNL     1      30.923  12.405  31.478  1.00  0.00     0.011 C 
ATOM     12  C   UNL     1      32.133  10.292  31.003  1.00  0.00     0.011 C 
BRANCH  10  13
ATOM     13  C   UNL     1      29.612  10.482  30.649  1.00  0.00     0.007 CG0
ATOM     14  G   UNL     1      29.422   9.227  29.803  1.00  0.00     0.000 G0
ENDBRANCH  10  13
ENDBRANCH   3  10
BRANCH   1  15
ATOM     15  C   UNL     1      28.950   9.562  28.387  1.00  0.00     0.011 C 
BRANCH  15  16
ATOM     16  C   UNL     1      29.407   9.229  29.805  1.00  0.00     0.001 CG0
ATOM     17  G   UNL     1      29.613  10.476  30.659  1.00  0.00     0.000 G0
ENDBRANCH  15  16
ENDBRANCH   1  15
TORSDOF 0
ENDMDL
MODEL 4
REMARK VINA RESULT:    -4.025      1.593      3.892
REMARK INTER + INTRA:          -4.331
REMARK INTER:                  -4.958
REMARK INTRA:                   0.626
REMARK UNBOUND:                 0.635
REMARK SMILES C=C1[C@H]2CC[C@@H]3[C@H]2C(C)(C)CCC[C@]13C
REMARK SMILES IDX 14 1 6 2 7 3 3 4 2 5 1 6 4 7 5 8 15 9 8 10 9 11 10 12 11 13
REMARK SMILES IDX 13 15 12 16
REMARK H PARENT
REMARK Flexibility Score: 80.00
ROOT
ATOM      1  C   UNL     1      31.518  11.273  30.051  1.00  0.00    -0.008 C 
ATOM      2  C   UNL     1      31.614   9.700  29.933  1.00  0.00     0.003 C 
ATOM      3  C   UNL     1      30.892   9.170  31.188  1.00  0.00     0.006 C 
ATOM      4  C   UNL     1      29.632   9.997  30.934  1.00  0.00     0.019 C 
ATOM      5  C   UNL     1      30.192  11.381  30.762  1.00  0.00    -0.068 C 
ATOM      6  C   UNL     1      29.567  12.513  31.106  1.00  0.00     0.009 C 
ATOM      7  C   UNL     1      29.238   9.504  29.520  1.00  0.00     0.008 C 
ATOM      8  C   UNL     1      30.606   9.198  28.862  1.00  0.00     0.005 C 
ATOM      9  C   UNL     1      31.464  11.995  28.677  1.00  0.00     0.016 C 
ENDROOT
BRANCH   3  10
ATOM     10  C   UNL     1      31.610   9.238  32.604  1.00  0.00    -0.032 C 
ATOM     11  C   UNL     1      32.080   7.803  32.970  1.00  0.00     0.011 C 
ATOM     12  C   UNL     1      30.624   9.666  33.722  1.00  0.00     0.011 C 
BRANCH  10  13
ATOM     13  C   UNL     1      32.895  10.113  32.646  1.00  0.00     0.007 CG0
ATOM     14  G   UNL     1      32.701  11.597  32.350  1.00  0.00     0.000 G0
ENDBRANCH  10  13
ENDBRANCH   3  10
BRANCH   1  15
ATOM     15  C   UNL     1      32.696  11.888  30.851  1.00  0.00     0.011 C 
BRANCH  15  16
ATOM     16  C   UNL     1      32.710  11.599  32.350  1.00  0.00     0.001 CG0
ATOM     17  G   UNL     1      32.906  10.117  32.656  1.00  0.00     0.000 G0
ENDBRANCH  15  16
ENDBRANCH   1  15
TORSDOF 0
ENDMDL
MODEL 5
REMARK VINA RESULT:    -3.987      1.466      3.881
REMARK INTER + INTRA:          -4.284
REMARK INTER:                  -4.913
REMARK INTRA:                   0.630
REMARK UNBOUND:                 0.635
REMARK SMILES C=C1[C@H]2CC[C@@H]3[C@H]2C(C)(C)CCC[C@]13C
REMARK SMILES IDX 14 1 6 2 7 3 3 4 2 5 1 6 4 7 5 8 15 9 8 10 9 11 10 12 11 13
REMARK SMILES IDX 13 15 12 16
REMARK H PARENT
REMARK Flexibility Score: 80.00
ROOT
ATOM      1  C   UNL     1      29.737  11.180  29.923  1.00  0.00    -0.008 C 
ATOM      2  C   UNL     1      31.200  11.746  30.107  1.00  0.00     0.003 C 
ATOM      3  C   UNL     1      32.016  10.553  30.644  1.00  0.00     0.006 C 
ATOM      4  C   UNL     1      31.568   9.615  29.522  1.00  0.00     0.019 C 
ATOM      5  C   UNL     1      30.072   9.751  29.575  1.00  0.00    -0.068 C 
ATOM      6  C   UNL     1      29.200   8.783  29.273  1.00  0.00     0.009 C 
ATOM      7  C   UNL     1      32.038  10.404  28.276  1.00  0.00     0.008 C 
ATOM      8  C   UNL     1      31.883  11.880  28.717  1.00  0.00     0.005 C 
ATOM      9  C   UNL     1      28.952  11.856  28.766  1.00  0.00     0.016 C 
ENDROOT
BRANCH   3  10
ATOM     10  C   UNL     1      31.859  10.103  32.160  1.00  0.00    -0.032 C 
ATOM     11  C   UNL     1      33.123  10.573  32.930  1.00  0.00     0.011 C 
ATOM     12  C   UNL     1      31.822   8.558  32.295  1.00  0.00     0.011 C 
BRANCH  10  13
ATOM     13  C   UNL     1      30.658  10.745  32.913  1.00  0.00     0.007 CG0
ATOM     14  G   UNL     1      29.274  10.417  32.362  1.00  0.00     0.000 G0
ENDBRANCH  10  13
ENDBRANCH   3  10
BRANCH   1  15
ATOM     15  C   UNL     1      28.875  11.314  31.206  1.00  0.00     0.011 C 
BRANCH  15  16
ATOM     16  C   UNL     1      29.270  10.413  32.373  1.00  0.00     0.001 CG0
ATOM     17  G   UNL     1      30.660  10.736  32.914  1.00  0.00     0.000 G0
ENDBRANCH  15  16
ENDBRANCH   1  15
TORSDOF 0
ENDMDL
MODEL 6
REMARK VINA RESULT:    -3.970      1.421      1.986
REMARK INTER + INTRA:          -4.263
REMARK INTER:                  -4.896
REMARK INTRA:                   0.632
REMARK UNBOUND:                 0.635
REMARK SMILES C=C1[C@H]2CC[C@@H]3[C@H]2C(C)(C)CCC[C@]13C
REMARK SMILES IDX 14 1 6 2 7 3 3 4 2 5 1 6 4 7 5 8 15 9 8 10 9 11 10 12 11 13
REMARK SMILES IDX 13 15 12 16
REMARK H PARENT
REMARK Flexibility Score: 80.00
ROOT
ATOM      1  C   UNL     1      30.070  10.565  32.086  1.00  0.00    -0.008 C 
ATOM      2  C   UNL     1      30.548   9.090  31.780  1.00  0.00     0.003 C 
ATOM      3  C   UNL     1      31.550   9.238  30.617  1.00  0.00     0.006 C 
ATOM      4  C   UNL     1      32.379  10.301  31.337  1.00  0.00     0.019 C 
ATOM      5  C   UNL     1      31.333  11.307  31.727  1.00  0.00    -0.068 C 
ATOM      6  C   UNL     1      31.531  12.627  31.823  1.00  0.00     0.009 C 
ATOM      7  C   UNL     1      32.767   9.546  32.631  1.00  0.00     0.008 C 
ATOM      8  C   UNL     1      31.543   8.629  32.880  1.00  0.00     0.005 C 
ATOM      9  C   UNL     1      29.700  10.799  33.575  1.00  0.00     0.016 C 
ENDROOT
BRANCH   3  10
ATOM     10  C   UNL     1      31.022   9.511  29.144  1.00  0.00    -0.032 C 
ATOM     11  C   UNL     1      31.161   8.192  28.335  1.00  0.00     0.011 C 
ATOM     12  C   UNL     1      31.897  10.561  28.411  1.00  0.00     0.011 C 
BRANCH  10  13
ATOM     13  C   UNL     1      29.517   9.893  29.048  1.00  0.00     0.007 CG0
ATOM     14  G   UNL     1      29.114  11.193  29.739  1.00  0.00     0.000 G0
ENDBRANCH  10  13
ENDBRANCH   3  10
BRANCH   1  15
ATOM     15  C   UNL     1      28.845  10.988  31.232  1.00  0.00     0.011 C 
BRANCH  15  16
ATOM     16  C   UNL     1      29.107  11.189  29.742  1.00  0.00     0.001 CG0
ATOM     17  G   UNL     1      29.526   9.898  29.045  1.00  0.00     0.000 G0
ENDBRANCH  15  16
ENDBRANCH   1  15
TORSDOF 0
ENDMDL
MODEL 7
REMARK VINA RESULT:    -3.955      2.061      4.294
REMARK INTER + INTRA:          -4.245
REMARK INTER:                  -4.885
REMARK INTRA:                   0.640
REMARK UNBOUND:                 0.635
REMARK SMILES C=C1[C@H]2CC[C@@H]3[C@H]2C(C)(C)CCC[C@]13C
REMARK SMILES IDX 14 1 6 2 7 3 3 4 2 5 1 6 4 7 5 8 15 9 8 10 9 11 10 12 11 13
REMARK SMILES IDX 13 15 12 16
REMARK H PARENT
REMARK Flexibility Score: 80.00
ROOT
ATOM      1  C   UNL     1      30.227  10.824  32.936  1.00  0.00    -0.008 C 
ATOM      2  C   UNL     1      31.299  11.106  34.062  1.00  0.00     0.003 C 
ATOM      3  C   UNL     1      31.716   9.709  34.563  1.00  0.00     0.006 C 
ATOM      4  C   UNL     1      32.028   9.190  33.159  1.00  0.00     0.019 C 
ATOM      5  C   UNL     1      30.763   9.514  32.415  1.00  0.00    -0.068 C 
ATOM      6  C   UNL     1      30.261   8.799  31.401  1.00  0.00     0.009 C 
ATOM      7  C   UNL     1      33.088  10.218  32.695  1.00  0.00     0.008 C 
ATOM      8  C   UNL     1      32.644  11.522  33.403  1.00  0.00     0.005 C 
ATOM      9  C   UNL     1      30.211  11.896  31.813  1.00  0.00     0.016 C 
ENDROOT
BRANCH   3  10
ATOM     10  C   UNL     1      30.745   8.884  35.513  1.00  0.00    -0.032 C 
ATOM     11  C   UNL     1      31.327   8.938  36.952  1.00  0.00     0.011 C 
ATOM     12  C   UNL     1      30.703   7.385  35.121  1.00  0.00     0.011 C 
BRANCH  10  13
ATOM     13  C   UNL     1      29.304   9.457  35.633  1.00  0.00     0.007 CG0
ATOM     14  G   UNL     1      28.484   9.473  34.346  1.00  0.00     0.000 G0
ENDBRANCH  10  13
ENDBRANCH   3  10
BRANCH   1  15
ATOM     15  C   UNL     1      28.783  10.717  33.495  1.00  0.00     0.011 C 
BRANCH  15  16
ATOM     16  C   UNL     1      28.486   9.486  34.347  1.00  0.00     0.001 CG0
ATOM     17  G   UNL     1      29.312   9.451  35.629  1.00  0.00     0.000 G0
ENDBRANCH  15  16
ENDBRANCH   1  15
TORSDOF 0
ENDMDL
MODEL 8
REMARK VINA RESULT:    -3.864      3.327      5.222
REMARK INTER + INTRA:          -4.132
REMARK INTER:                  -4.770
REMARK INTRA:                   0.638
REMARK UNBOUND:                 0.635
REMARK SMILES C=C1[C@H]2CC[C@@H]3[C@H]2C(C)(C)CCC[C@]13C
REMARK SMILES IDX 14 1 6 2 7 3 3 4 2 5 1 6 4 7 5 8 15 9 8 10 9 11 10 12 11 13
REMARK SMILES IDX 13 15 12 16
REMARK H PARENT
REMARK Flexibility Score: 80.00
ROOT
ATOM      1  C   UNL     1      30.579   9.962  26.530  1.00  0.00    -0.008 C 
ATOM      2  C   UNL     1      31.756   9.456  27.455  1.00  0.00     0.003 C 
ATOM      3  C   UNL     1      31.371   9.930  28.871  1.00  0.00     0.006 C 
ATOM      4  C   UNL     1      29.974   9.312  28.805  1.00  0.00     0.019 C 
ATOM      5  C   UNL     1      29.441   9.873  27.516  1.00  0.00    -0.068 C 
ATOM      6  C   UNL     1      28.156  10.155  27.271  1.00  0.00     0.009 C 
ATOM      7  C   UNL     1      30.322   7.830  28.529  1.00  0.00     0.008 C 
ATOM      8  C   UNL     1      31.615   7.925  27.683  1.00  0.00     0.005 C 
ATOM      9  C   UNL     1      30.316   9.044  25.305  1.00  0.00     0.016 C 
ENDROOT
BRANCH   3  10
ATOM     10  C   UNL     1      31.541  11.459  29.269  1.00  0.00    -0.032 C 
ATOM     11  C   UNL     1      32.779  11.575  30.200  1.00  0.00     0.011 C 
ATOM     12  C   UNL     1      30.332  11.971  30.094  1.00  0.00     0.011 C 
BRANCH  10  13
ATOM     13  C   UNL     1      31.833  12.418  28.078  1.00  0.00     0.007 CG0
ATOM     14  G   UNL     1      30.744  12.510  27.014  1.00  0.00     0.000 G0
ENDBRANCH  10  13
ENDBRANCH   3  10
BRANCH   1  15
ATOM     15  C   UNL     1      30.814  11.397  25.990  1.00  0.00     0.011 C 
BRANCH  15  16
ATOM     16  C   UNL     1      30.739  12.519  27.022  1.00  0.00     0.001 CG0
ATOM     17  G   UNL     1      31.837  12.415  28.077  1.00  0.00     0.000 G0
ENDBRANCH  15  16
ENDBRANCH   1  15
TORSDOF 0
ENDMDL
MODEL 9
REMARK VINA RESULT:    -3.832      3.003      4.599
REMARK INTER + INTRA:          -4.093
REMARK INTER:                  -4.734
REMARK INTRA:                   0.641
REMARK UNBOUND:                 0.635
REMARK SMILES C=C1[C@H]2CC[C@@H]3[C@H]2C(C)(C)CCC[C@]13C
REMARK SMILES IDX 14 1 6 2 7 3 3 4 2 5 1 6 4 7 5 8 15 9 8 10 9 11 10 12 11 13
REMARK SMILES IDX 13 15 12 16
REMARK H PARENT
REMARK Flexibility Score: 80.00
ROOT
ATOM      1  C   UNL     1      29.747  11.467  29.224  1.00  0.00    -0.008 C 
ATOM      2  C   UNL     1      30.537  10.268  29.885  1.00  0.00     0.003 C 
ATOM      3  C   UNL     1      31.444   9.731  28.760  1.00  0.00     0.006 C 
ATOM      4  C   UNL     1      32.033  11.106  28.443  1.00  0.00     0.019 C 
ATOM      5  C   UNL     1      30.798  11.942  28.252  1.00  0.00    -0.068 C 
ATOM      6  C   UNL     1      30.696  12.985  27.420  1.00  0.00     0.009 C 
ATOM      7  C   UNL     1      32.620  11.498  29.821  1.00  0.00     0.008 C 
ATOM      8  C   UNL     1      31.644  10.830  30.820  1.00  0.00     0.005 C 
ATOM      9  C   UNL     1      29.379  12.594  30.227  1.00  0.00     0.016 C 
ENDROOT
BRANCH   3  10
ATOM     10  C   UNL     1      30.823   8.850  27.593  1.00  0.00    -0.032 C 
ATOM     11  C   UNL     1      31.239   7.373  27.838  1.00  0.00     0.011 C 
ATOM     12  C   UNL     1      31.410   9.239  26.211  1.00  0.00     0.011 C 
BRANCH  10  13
ATOM     13  C   UNL     1      29.269   8.833  27.540  1.00  0.00     0.007 CG0
ATOM     14  G   UNL     1      28.598  10.175  27.260  1.00  0.00     0.000 G0
ENDBRANCH  10  13
ENDBRANCH   3  10
BRANCH   1  15
ATOM     15  C   UNL     1      28.434  11.013  28.535  1.00  0.00     0.011 C 
BRANCH  15  16
ATOM     16  C   UNL     1      28.598  10.178  27.268  1.00  0.00     0.001 CG0
ATOM     17  G   UNL     1      29.268   8.834  27.538  1.00  0.00     0.000 G0
ENDBRANCH  15  16
ENDBRANCH   1  15
TORSDOF 0
ENDMDL
