MODEL 1
REMARK VINA RESULT:    -3.535      0.000      0.000
REMARK INTER + INTRA:          -4.187
REMARK INTER:                  -4.155
REMARK INTRA:                  -0.032
REMARK UNBOUND:                -0.032
REMARK SMILES O=C([O-])CCC(=O)[O-]
REMARK SMILES IDX 4 1 2 2 1 3 3 4 5 5 6 6 7 7 8 8
REMARK H PARENT
REMARK Flexibility Score: inf
ROOT
ATOM      1  C   UNL     1     -29.830 -21.548  18.314  1.00  0.00     0.059 C 
ENDROOT
BRANCH   1   2
ATOM      2  C   UNL     1     -29.741 -20.069  18.093  1.00  0.00     0.042 C 
ATOM      3  O   UNL     1     -29.155 -19.336  18.934  1.00  0.00    -0.550 OA
ATOM      4  O   UNL     1     -30.341 -19.493  16.980  1.00  0.00    -0.550 OA
ENDBRANCH   1   2
BRANCH   1   5
ATOM      5  C   UNL     1     -29.006 -22.324  17.280  1.00  0.00     0.059 C 
BRANCH   5   6
ATOM      6  C   UNL     1     -29.270 -23.796  17.356  1.00  0.00     0.042 C 
ATOM      7  O   UNL     1     -29.677 -24.312  18.431  1.00  0.00    -0.550 OA
ATOM      8  O   UNL     1     -29.030 -24.606  16.253  1.00  0.00    -0.550 OA
ENDBRANCH   5   6
ENDBRANCH   1   5
TORSDOF 3
ENDMDL
MODEL 2
REMARK VINA RESULT:    -3.494      0.305      4.312
REMARK INTER + INTRA:          -4.138
REMARK INTER:                  -4.112
REMARK INTRA:                  -0.026
REMARK UNBOUND:                -0.032
REMARK SMILES O=C([O-])CCC(=O)[O-]
REMARK SMILES IDX 4 1 2 2 1 3 3 4 5 5 6 6 7 7 8 8
REMARK H PARENT
REMARK Flexibility Score: inf
ROOT
ATOM      1  C   UNL     1     -28.940 -22.378  17.349  1.00  0.00     0.059 C 
ENDROOT
BRANCH   1   2
ATOM      2  C   UNL     1     -29.294 -23.829  17.238  1.00  0.00     0.042 C 
ATOM      3  O   UNL     1     -29.602 -24.323  16.121  1.00  0.00    -0.550 OA
ATOM      4  O   UNL     1     -29.325 -24.628  18.374  1.00  0.00    -0.550 OA
ENDBRANCH   1   2
BRANCH   1   5
ATOM      5  C   UNL     1     -29.959 -21.610  18.198  1.00  0.00     0.059 C 
BRANCH   5   6
ATOM      6  C   UNL     1     -29.795 -20.128  18.051  1.00  0.00     0.042 C 
ATOM      7  O   UNL     1     -29.208 -19.465  18.947  1.00  0.00    -0.550 OA
ATOM      8  O   UNL     1     -30.326 -19.474  16.947  1.00  0.00    -0.550 OA
ENDBRANCH   5   6
ENDBRANCH   1   5
TORSDOF 3
ENDMDL
MODEL 3
REMARK VINA RESULT:    -3.463     19.452     20.542
REMARK INTER + INTRA:          -4.102
REMARK INTER:                  -3.963
REMARK INTRA:                  -0.138
REMARK UNBOUND:                -0.032
REMARK SMILES O=C([O-])CCC(=O)[O-]
REMARK SMILES IDX 4 1 2 2 1 3 3 4 5 5 6 6 7 7 8 8
REMARK H PARENT
REMARK Flexibility Score: inf
ROOT
ATOM      1  C   UNL     1     -19.216 -27.175   2.248  1.00  0.00     0.059 C 
ENDROOT
BRANCH   1   2
ATOM      2  C   UNL     1     -17.802 -27.380   1.798  1.00  0.00     0.042 C 
ATOM      3  O   UNL     1     -16.859 -26.778   2.377  1.00  0.00    -0.550 OA
ATOM      4  O   UNL     1     -17.528 -28.205   0.714  1.00  0.00    -0.550 OA
ENDBRANCH   1   2
BRANCH   1   5
ATOM      5  C   UNL     1     -20.198 -27.241   1.073  1.00  0.00     0.059 C 
BRANCH   5   6
ATOM      6  C   UNL     1     -20.184 -25.978   0.269  1.00  0.00     0.042 C 
ATOM      7  O   UNL     1     -20.811 -24.963   0.673  1.00  0.00    -0.550 OA
ATOM      8  O   UNL     1     -19.512 -25.932  -0.946  1.00  0.00    -0.550 OA
ENDBRANCH   5   6
ENDBRANCH   1   5
TORSDOF 3
ENDMDL
MODEL 4
REMARK VINA RESULT:    -3.416     19.402     20.359
REMARK INTER + INTRA:          -4.046
REMARK INTER:                  -3.931
REMARK INTRA:                  -0.115
REMARK UNBOUND:                -0.032
REMARK SMILES O=C([O-])CCC(=O)[O-]
REMARK SMILES IDX 4 1 2 2 1 3 3 4 5 5 6 6 7 7 8 8
REMARK H PARENT
REMARK Flexibility Score: inf
ROOT
ATOM      1  C   UNL     1     -20.287 -27.228   1.062  1.00  0.00     0.059 C 
ENDROOT
BRANCH   1   2
ATOM      2  C   UNL     1     -20.259 -25.937   0.303  1.00  0.00     0.042 C 
ATOM      3  O   UNL     1     -20.923 -24.947   0.711  1.00  0.00    -0.550 OA
ATOM      4  O   UNL     1     -19.532 -25.837  -0.876  1.00  0.00    -0.550 OA
ENDBRANCH   1   2
BRANCH   1   5
ATOM      5  C   UNL     1     -19.293 -27.220   2.229  1.00  0.00     0.059 C 
BRANCH   5   6
ATOM      6  C   UNL     1     -17.884 -27.405   1.756  1.00  0.00     0.042 C 
ATOM      7  O   UNL     1     -17.639 -28.154   0.774  1.00  0.00    -0.550 OA
ATOM      8  O   UNL     1     -16.837 -26.781   2.423  1.00  0.00    -0.550 OA
ENDBRANCH   5   6
ENDBRANCH   1   5
TORSDOF 3
ENDMDL
MODEL 5
REMARK VINA RESULT:    -3.366     12.165     13.759
REMARK INTER + INTRA:          -3.988
REMARK INTER:                  -3.954
REMARK INTRA:                  -0.034
REMARK UNBOUND:                -0.032
REMARK SMILES O=C([O-])CCC(=O)[O-]
REMARK SMILES IDX 4 1 2 2 1 3 3 4 5 5 6 6 7 7 8 8
REMARK H PARENT
REMARK Flexibility Score: inf
ROOT
ATOM      1  C   UNL     1     -22.962 -31.653  12.113  1.00  0.00     0.059 C 
ENDROOT
BRANCH   1   2
ATOM      2  C   UNL     1     -22.952 -32.870  11.239  1.00  0.00     0.042 C 
ATOM      3  O   UNL     1     -23.923 -33.671  11.257  1.00  0.00    -0.550 OA
ATOM      4  O   UNL     1     -21.852 -33.140  10.434  1.00  0.00    -0.550 OA
ENDBRANCH   1   2
BRANCH   1   5
ATOM      5  C   UNL     1     -21.587 -31.395  12.740  1.00  0.00     0.059 C 
BRANCH   5   6
ATOM      6  C   UNL     1     -21.705 -30.711  14.067  1.00  0.00     0.042 C 
ATOM      7  O   UNL     1     -22.192 -31.323  15.054  1.00  0.00    -0.550 OA
ATOM      8  O   UNL     1     -21.314 -29.384  14.204  1.00  0.00    -0.550 OA
ENDBRANCH   5   6
ENDBRANCH   1   5
TORSDOF 3
ENDMDL
MODEL 6
REMARK VINA RESULT:    -3.340     10.736     12.188
REMARK INTER + INTRA:          -3.958
REMARK INTER:                  -3.930
REMARK INTRA:                  -0.027
REMARK UNBOUND:                -0.032
REMARK SMILES O=C([O-])CCC(=O)[O-]
REMARK SMILES IDX 4 1 2 2 1 3 3 4 5 5 6 6 7 7 8 8
REMARK H PARENT
REMARK Flexibility Score: inf
ROOT
ATOM      1  C   UNL     1     -22.185 -30.915  15.549  1.00  0.00     0.059 C 
ENDROOT
BRANCH   1   2
ATOM      2  C   UNL     1     -21.997 -30.069  16.770  1.00  0.00     0.042 C 
ATOM      3  O   UNL     1     -22.770 -29.101  16.995  1.00  0.00    -0.550 OA
ATOM      4  O   UNL     1     -20.944 -30.325  17.640  1.00  0.00    -0.550 OA
ENDBRANCH   1   2
BRANCH   1   5
ATOM      5  C   UNL     1     -21.534 -30.280  14.315  1.00  0.00     0.059 C 
BRANCH   5   6
ATOM      6  C   UNL     1     -21.649 -31.164  13.112  1.00  0.00     0.042 C 
ATOM      7  O   UNL     1     -22.782 -31.523  12.696  1.00  0.00    -0.550 OA
ATOM      8  O   UNL     1     -20.504 -31.626  12.474  1.00  0.00    -0.550 OA
ENDBRANCH   5   6
ENDBRANCH   1   5
TORSDOF 3
ENDMDL
MODEL 7
REMARK VINA RESULT:    -3.323     12.294     13.527
REMARK INTER + INTRA:          -3.938
REMARK INTER:                  -3.909
REMARK INTRA:                  -0.029
REMARK UNBOUND:                -0.032
REMARK SMILES O=C([O-])CCC(=O)[O-]
REMARK SMILES IDX 4 1 2 2 1 3 3 4 5 5 6 6 7 7 8 8
REMARK H PARENT
REMARK Flexibility Score: inf
ROOT
ATOM      1  C   UNL     1     -21.387 -31.499  12.588  1.00  0.00     0.059 C 
ENDROOT
BRANCH   1   2
ATOM      2  C   UNL     1     -21.632 -30.687  13.823  1.00  0.00     0.042 C 
ATOM      3  O   UNL     1     -21.307 -29.470  13.856  1.00  0.00    -0.550 OA
ATOM      4  O   UNL     1     -22.181 -31.282  14.951  1.00  0.00    -0.550 OA
ENDBRANCH   1   2
BRANCH   1   5
ATOM      5  C   UNL     1     -22.634 -31.567  11.699  1.00  0.00     0.059 C 
BRANCH   5   6
ATOM      6  C   UNL     1     -22.732 -32.879  10.984  1.00  0.00     0.042 C 
ATOM      7  O   UNL     1     -23.702 -33.650  11.207  1.00  0.00    -0.550 OA
ATOM      8  O   UNL     1     -21.733 -33.267  10.100  1.00  0.00    -0.550 OA
ENDBRANCH   5   6
ENDBRANCH   1   5
TORSDOF 3
ENDMDL
MODEL 8
REMARK VINA RESULT:    -3.313      8.238     10.493
REMARK INTER + INTRA:          -3.925
REMARK INTER:                  -3.895
REMARK INTRA:                  -0.030
REMARK UNBOUND:                -0.032
REMARK SMILES O=C([O-])CCC(=O)[O-]
REMARK SMILES IDX 4 1 2 2 1 3 3 4 5 5 6 6 7 7 8 8
REMARK H PARENT
REMARK Flexibility Score: inf
ROOT
ATOM      1  C   UNL     1     -22.196 -28.851  16.470  1.00  0.00     0.059 C 
ENDROOT
BRANCH   1   2
ATOM      2  C   UNL     1     -21.750 -30.258  16.722  1.00  0.00     0.042 C 
ATOM      3  O   UNL     1     -20.969 -30.515  17.676  1.00  0.00    -0.550 OA
ATOM      4  O   UNL     1     -22.164 -31.282  15.879  1.00  0.00    -0.550 OA
ENDBRANCH   1   2
BRANCH   1   5
ATOM      5  C   UNL     1     -23.074 -28.323  17.610  1.00  0.00     0.059 C 
BRANCH   5   6
ATOM      6  C   UNL     1     -23.357 -26.860  17.458  1.00  0.00     0.042 C 
ATOM      7  O   UNL     1     -22.416 -26.024  17.518  1.00  0.00    -0.550 OA
ATOM      8  O   UNL     1     -24.662 -26.416  17.290  1.00  0.00    -0.550 OA
ENDBRANCH   5   6
ENDBRANCH   1   5
TORSDOF 3
ENDMDL
MODEL 9
REMARK VINA RESULT:    -3.299      7.878      9.333
REMARK INTER + INTRA:          -3.910
REMARK INTER:                  -3.882
REMARK INTRA:                  -0.027
REMARK UNBOUND:                -0.032
REMARK SMILES O=C([O-])CCC(=O)[O-]
REMARK SMILES IDX 4 1 2 2 1 3 3 4 5 5 6 6 7 7 8 8
REMARK H PARENT
REMARK Flexibility Score: inf
ROOT
ATOM      1  C   UNL     1     -23.275 -28.224  18.227  1.00  0.00     0.059 C 
ENDROOT
BRANCH   1   2
ATOM      2  C   UNL     1     -23.898 -26.863  18.282  1.00  0.00     0.042 C 
ATOM      3  O   UNL     1     -24.874 -26.582  17.538  1.00  0.00    -0.550 OA
ATOM      4  O   UNL     1     -23.374 -25.891  19.125  1.00  0.00    -0.550 OA
ENDBRANCH   1   2
BRANCH   1   5
ATOM      5  C   UNL     1     -22.530 -28.453  16.907  1.00  0.00     0.059 C 
BRANCH   5   6
ATOM      6  C   UNL     1     -21.939 -29.828  16.838  1.00  0.00     0.042 C 
ATOM      7  O   UNL     1     -20.940 -30.124  17.545  1.00  0.00    -0.550 OA
ATOM      8  O   UNL     1     -22.466 -30.769  15.963  1.00  0.00    -0.550 OA
ENDBRANCH   5   6
ENDBRANCH   1   5
TORSDOF 3
ENDMDL
