MODEL 1
REMARK VINA RESULT:    -4.419      0.000      0.000
REMARK INTER + INTRA:         -10.142
REMARK INTER:                  -8.035
REMARK INTRA:                  -2.107
REMARK UNBOUND:                -2.107
REMARK SMILES CCCCCCCCCCCCCC[C@@H](C)C(=O)[O-]
REMARK SMILES IDX 9 1 10 2 11 3 12 4 13 5 14 6 15 7 16 8 17 9 18 10 19 11 8 12
REMARK SMILES IDX 7 13 6 14 5 15 4 16 3 17 2 18 1 19
REMARK H PARENT
REMARK Flexibility Score: inf
ROOT
ATOM      1  C   UNL     1     136.085 135.413 140.192  1.00  0.00     0.000 C 
ENDROOT
BRANCH   1   2
ATOM      2  C   UNL     1     137.300 136.326 140.431  1.00  0.00     0.000 C 
BRANCH   2   3
ATOM      3  C   UNL     1     137.972 136.774 139.124  1.00  0.00     0.000 C 
BRANCH   3   4
ATOM      4  C   UNL     1     139.497 136.853 139.291  1.00  0.00     0.000 C 
BRANCH   4   5
ATOM      5  C   UNL     1     140.029 135.869 140.346  1.00  0.00     0.001 C 
BRANCH   5   6
ATOM      6  C   UNL     1     140.703 134.636 139.719  1.00  0.00     0.009 C 
BRANCH   6   7
ATOM      7  C   UNL     1     139.827 133.367 139.814  1.00  0.00     0.032 C 
ATOM      8  C   UNL     1     138.997 133.330 141.106  1.00  0.00     0.014 C 
BRANCH   7   9
ATOM      9  C   UNL     1     138.915 133.280 138.622  1.00  0.00     0.044 C 
ATOM     10  O   UNL     1     137.709 132.935 138.760  1.00  0.00    -0.550 OA
ATOM     11  O   UNL     1     139.399 133.575 137.354  1.00  0.00    -0.550 OA
ENDBRANCH   7   9
ENDBRANCH   6   7
ENDBRANCH   5   6
ENDBRANCH   4   5
ENDBRANCH   3   4
ENDBRANCH   2   3
ENDBRANCH   1   2
BRANCH   1  12
ATOM     12  C   UNL     1     134.764 136.056 140.649  1.00  0.00     0.000 C 
BRANCH  12  13
ATOM     13  C   UNL     1     133.851 136.433 139.469  1.00  0.00    -0.000 C 
BRANCH  13  14
ATOM     14  C   UNL     1     134.243 137.772 138.822  1.00  0.00    -0.000 C 
BRANCH  14  15
ATOM     15  C   UNL     1     134.396 138.904 139.851  1.00  0.00    -0.000 C 
BRANCH  15  16
ATOM     16  C   UNL     1     135.715 139.681 139.692  1.00  0.00    -0.000 C 
BRANCH  16  17
ATOM     17  C   UNL     1     136.441 139.877 141.040  1.00  0.00    -0.000 C 
BRANCH  17  18
ATOM     18  C   UNL     1     135.568 140.538 142.119  1.00  0.00    -0.003 C 
ATOM     19  C   UNL     1     135.258 142.004 141.825  1.00  0.00     0.004 C 
ENDBRANCH  17  18
ENDBRANCH  16  17
ENDBRANCH  15  16
ENDBRANCH  14  15
ENDBRANCH  13  14
ENDBRANCH  12  13
ENDBRANCH   1  12
TORSDOF 14
ENDMDL
MODEL 2
REMARK VINA RESULT:    -4.375      8.507     11.760
REMARK INTER + INTRA:         -10.063
REMARK INTER:                  -8.409
REMARK INTRA:                  -1.654
REMARK UNBOUND:                -2.107
REMARK SMILES CCCCCCCCCCCCCC[C@@H](C)C(=O)[O-]
REMARK SMILES IDX 9 1 10 2 11 3 12 4 13 5 14 6 15 7 16 8 17 9 18 10 19 11 8 12
REMARK SMILES IDX 7 13 6 14 5 15 4 16 3 17 2 18 1 19
REMARK H PARENT
REMARK Flexibility Score: inf
ROOT
ATOM      1  C   UNL     1     126.273 142.222 136.873  1.00  0.00     0.000 C 
ENDROOT
BRANCH   1   2
ATOM      2  C   UNL     1     126.453 143.270 137.984  1.00  0.00     0.000 C 
BRANCH   2   3
ATOM      3  C   UNL     1     127.603 142.926 138.944  1.00  0.00     0.000 C 
BRANCH   3   4
ATOM      4  C   UNL     1     127.182 143.146 140.404  1.00  0.00     0.000 C 
BRANCH   4   5
ATOM      5  C   UNL     1     127.889 142.185 141.375  1.00  0.00     0.001 C 
BRANCH   5   6
ATOM      6  C   UNL     1     129.368 142.548 141.596  1.00  0.00     0.009 C 
BRANCH   6   7
ATOM      7  C   UNL     1     130.285 141.305 141.642  1.00  0.00     0.032 C 
ATOM      8  C   UNL     1     129.486 139.994 141.609  1.00  0.00     0.014 C 
BRANCH   7   9
ATOM      9  C   UNL     1     131.255 141.338 140.493  1.00  0.00     0.044 C 
ATOM     10  O   UNL     1     132.476 141.081 140.676  1.00  0.00    -0.550 OA
ATOM     11  O   UNL     1     130.809 141.657 139.216  1.00  0.00    -0.550 OA
ENDBRANCH   7   9
ENDBRANCH   6   7
ENDBRANCH   5   6
ENDBRANCH   4   5
ENDBRANCH   3   4
ENDBRANCH   2   3
ENDBRANCH   1   2
BRANCH   1  12
ATOM     12  C   UNL     1     125.371 142.722 135.731  1.00  0.00     0.000 C 
BRANCH  12  13
ATOM     13  C   UNL     1     124.312 141.686 135.317  1.00  0.00    -0.000 C 
BRANCH  13  14
ATOM     14  C   UNL     1     124.547 140.310 135.963  1.00  0.00    -0.000 C 
BRANCH  14  15
ATOM     15  C   UNL     1     124.761 139.197 134.923  1.00  0.00    -0.000 C 
BRANCH  15  16
ATOM     16  C   UNL     1     125.758 138.124 135.395  1.00  0.00    -0.000 C 
BRANCH  16  17
ATOM     17  C   UNL     1     126.308 138.420 136.807  1.00  0.00    -0.000 C 
BRANCH  17  18
ATOM     18  C   UNL     1     127.825 138.674 136.835  1.00  0.00    -0.003 C 
ATOM     19  C   UNL     1     128.280 139.450 138.069  1.00  0.00     0.004 C 
ENDBRANCH  17  18
ENDBRANCH  16  17
ENDBRANCH  15  16
ENDBRANCH  14  15
ENDBRANCH  13  14
ENDBRANCH  12  13
ENDBRANCH   1  12
TORSDOF 14
ENDMDL
MODEL 3
REMARK VINA RESULT:    -4.366      8.620     12.163
REMARK INTER + INTRA:         -10.046
REMARK INTER:                  -8.686
REMARK INTRA:                  -1.360
REMARK UNBOUND:                -2.107
REMARK SMILES CCCCCCCCCCCCCC[C@@H](C)C(=O)[O-]
REMARK SMILES IDX 9 1 10 2 11 3 12 4 13 5 14 6 15 7 16 8 17 9 18 10 19 11 8 12
REMARK SMILES IDX 7 13 6 14 5 15 4 16 3 17 2 18 1 19
REMARK H PARENT
REMARK Flexibility Score: inf
ROOT
ATOM      1  C   UNL     1     126.377 143.502 140.268  1.00  0.00     0.000 C 
ENDROOT
BRANCH   1   2
ATOM      2  C   UNL     1     126.244 143.955 138.804  1.00  0.00     0.000 C 
BRANCH   2   3
ATOM      3  C   UNL     1     126.520 142.823 137.804  1.00  0.00     0.000 C 
BRANCH   3   4
ATOM      4  C   UNL     1     125.856 143.113 136.450  1.00  0.00     0.000 C 
BRANCH   4   5
ATOM      5  C   UNL     1     125.244 141.857 135.809  1.00  0.00     0.001 C 
BRANCH   5   6
ATOM      6  C   UNL     1     125.560 140.574 136.599  1.00  0.00     0.009 C 
BRANCH   6   7
ATOM      7  C   UNL     1     124.873 139.325 136.003  1.00  0.00     0.032 C 
ATOM      8  C   UNL     1     124.148 139.634 134.686  1.00  0.00     0.014 C 
BRANCH   7   9
ATOM      9  C   UNL     1     125.887 138.236 135.781  1.00  0.00     0.044 C 
ATOM     10  O   UNL     1     127.044 138.327 136.275  1.00  0.00    -0.550 OA
ATOM     11  O   UNL     1     125.554 137.121 135.024  1.00  0.00    -0.550 OA
ENDBRANCH   7   9
ENDBRANCH   6   7
ENDBRANCH   5   6
ENDBRANCH   4   5
ENDBRANCH   3   4
ENDBRANCH   2   3
ENDBRANCH   1   2
BRANCH   1  12
ATOM     12  C   UNL     1     127.821 143.119 140.638  1.00  0.00     0.000 C 
BRANCH  12  13
ATOM     13  C   UNL     1     127.941 141.662 141.119  1.00  0.00    -0.000 C 
BRANCH  13  14
ATOM     14  C   UNL     1     129.049 140.887 140.386  1.00  0.00    -0.000 C 
BRANCH  14  15
ATOM     15  C   UNL     1     129.677 141.696 139.239  1.00  0.00    -0.000 C 
BRANCH  15  16
ATOM     16  C   UNL     1     130.991 141.081 138.726  1.00  0.00    -0.000 C 
BRANCH  16  17
ATOM     17  C   UNL     1     131.227 139.662 139.285  1.00  0.00    -0.000 C 
BRANCH  17  18
ATOM     18  C   UNL     1     131.243 138.569 138.203  1.00  0.00    -0.003 C 
ATOM     19  C   UNL     1     130.773 139.069 136.839  1.00  0.00     0.004 C 
ENDBRANCH  17  18
ENDBRANCH  16  17
ENDBRANCH  15  16
ENDBRANCH  14  15
ENDBRANCH  13  14
ENDBRANCH  12  13
ENDBRANCH   1  12
TORSDOF 14
ENDMDL
MODEL 4
REMARK VINA RESULT:    -4.356      8.472     11.546
REMARK INTER + INTRA:         -10.028
REMARK INTER:                  -8.127
REMARK INTRA:                  -1.900
REMARK UNBOUND:                -2.107
REMARK SMILES CCCCCCCCCCCCCC[C@@H](C)C(=O)[O-]
REMARK SMILES IDX 9 1 10 2 11 3 12 4 13 5 14 6 15 7 16 8 17 9 18 10 19 11 8 12
REMARK SMILES IDX 7 13 6 14 5 15 4 16 3 17 2 18 1 19
REMARK H PARENT
REMARK Flexibility Score: inf
ROOT
ATOM      1  C   UNL     1     127.390 142.929 138.611  1.00  0.00     0.000 C 
ENDROOT
BRANCH   1   2
ATOM      2  C   UNL     1     127.045 142.986 140.109  1.00  0.00     0.000 C 
BRANCH   2   3
ATOM      3  C   UNL     1     128.279 142.831 141.009  1.00  0.00     0.000 C 
BRANCH   3   4
ATOM      4  C   UNL     1     128.318 141.436 141.651  1.00  0.00     0.000 C 
BRANCH   4   5
ATOM      5  C   UNL     1     129.482 140.577 141.131  1.00  0.00     0.001 C 
BRANCH   5   6
ATOM      6  C   UNL     1     129.073 139.675 139.953  1.00  0.00     0.009 C 
BRANCH   6   7
ATOM      7  C   UNL     1     129.640 140.168 138.603  1.00  0.00     0.032 C 
ATOM      8  C   UNL     1     130.863 141.078 138.784  1.00  0.00     0.014 C 
BRANCH   7   9
ATOM      9  C   UNL     1     130.004 138.993 137.738  1.00  0.00     0.044 C 
ATOM     10  O   UNL     1     129.578 137.838 138.011  1.00  0.00    -0.550 OA
ATOM     11  O   UNL     1     130.822 139.174 136.629  1.00  0.00    -0.550 OA
ENDBRANCH   7   9
ENDBRANCH   6   7
ENDBRANCH   5   6
ENDBRANCH   4   5
ENDBRANCH   3   4
ENDBRANCH   2   3
ENDBRANCH   1   2
BRANCH   1  12
ATOM     12  C   UNL     1     126.201 142.469 137.748  1.00  0.00     0.000 C 
BRANCH  12  13
ATOM     13  C   UNL     1     125.850 143.478 136.641  1.00  0.00    -0.000 C 
BRANCH  13  14
ATOM     14  C   UNL     1     125.498 142.796 135.308  1.00  0.00    -0.000 C 
BRANCH  14  15
ATOM     15  C   UNL     1     124.166 142.031 135.370  1.00  0.00    -0.000 C 
BRANCH  15  16
ATOM     16  C   UNL     1     124.345 140.510 135.215  1.00  0.00    -0.000 C 
BRANCH  16  17
ATOM     17  C   UNL     1     123.970 139.746 136.503  1.00  0.00    -0.000 C 
BRANCH  17  18
ATOM     18  C   UNL     1     124.990 138.663 136.894  1.00  0.00    -0.003 C 
ATOM     19  C   UNL     1     126.429 139.045 136.556  1.00  0.00     0.004 C 
ENDBRANCH  17  18
ENDBRANCH  16  17
ENDBRANCH  15  16
ENDBRANCH  14  15
ENDBRANCH  13  14
ENDBRANCH  12  13
ENDBRANCH   1  12
TORSDOF 14
ENDMDL
MODEL 5
REMARK VINA RESULT:    -4.352      2.269      4.565
REMARK INTER + INTRA:         -10.021
REMARK INTER:                  -8.563
REMARK INTRA:                  -1.458
REMARK UNBOUND:                -2.107
REMARK SMILES CCCCCCCCCCCCCC[C@@H](C)C(=O)[O-]
REMARK SMILES IDX 9 1 10 2 11 3 12 4 13 5 14 6 15 7 16 8 17 9 18 10 19 11 8 12
REMARK SMILES IDX 7 13 6 14 5 15 4 16 3 17 2 18 1 19
REMARK H PARENT
REMARK Flexibility Score: inf
ROOT
ATOM      1  C   UNL     1     137.045 136.765 139.843  1.00  0.00     0.000 C 
ENDROOT
BRANCH   1   2
ATOM      2  C   UNL     1     137.649 137.316 141.146  1.00  0.00     0.000 C 
BRANCH   2   3
ATOM      3  C   UNL     1     139.073 136.801 141.404  1.00  0.00     0.000 C 
BRANCH   3   4
ATOM      4  C   UNL     1     139.790 136.485 140.084  1.00  0.00     0.000 C 
BRANCH   4   5
ATOM      5  C   UNL     1     140.913 135.448 140.253  1.00  0.00     0.001 C 
BRANCH   5   6
ATOM      6  C   UNL     1     140.618 134.129 139.518  1.00  0.00     0.009 C 
BRANCH   6   7
ATOM      7  C   UNL     1     139.348 134.209 138.640  1.00  0.00     0.032 C 
ATOM      8  C   UNL     1     139.613 133.762 137.195  1.00  0.00     0.014 C 
BRANCH   7   9
ATOM      9  C   UNL     1     138.254 133.368 139.239  1.00  0.00     0.044 C 
ATOM     10  O   UNL     1     137.450 132.739 138.499  1.00  0.00    -0.550 OA
ATOM     11  O   UNL     1     138.120 133.284 140.619  1.00  0.00    -0.550 OA
ENDBRANCH   7   9
ENDBRANCH   6   7
ENDBRANCH   5   6
ENDBRANCH   4   5
ENDBRANCH   3   4
ENDBRANCH   2   3
ENDBRANCH   1   2
BRANCH   1  12
ATOM     12  C   UNL     1     135.520 136.579 139.932  1.00  0.00     0.000 C 
BRANCH  12  13
ATOM     13  C   UNL     1     135.105 135.097 139.931  1.00  0.00    -0.000 C 
BRANCH  13  14
ATOM     14  C   UNL     1     133.677 134.883 140.460  1.00  0.00    -0.000 C 
BRANCH  14  15
ATOM     15  C   UNL     1     132.604 135.427 139.503  1.00  0.00    -0.000 C 
BRANCH  15  16
ATOM     16  C   UNL     1     132.189 134.405 138.429  1.00  0.00    -0.000 C 
BRANCH  16  17
ATOM     17  C   UNL     1     132.413 132.950 138.893  1.00  0.00    -0.000 C 
BRANCH  17  18
ATOM     18  C   UNL     1     131.156 132.296 139.493  1.00  0.00    -0.003 C 
ATOM     19  C   UNL     1     131.242 132.110 141.006  1.00  0.00     0.004 C 
ENDBRANCH  17  18
ENDBRANCH  16  17
ENDBRANCH  15  16
ENDBRANCH  14  15
ENDBRANCH  13  14
ENDBRANCH  12  13
ENDBRANCH   1  12
TORSDOF 14
ENDMDL
MODEL 6
REMARK VINA RESULT:    -4.335      3.305      7.221
REMARK INTER + INTRA:          -9.990
REMARK INTER:                  -7.854
REMARK INTRA:                  -2.136
REMARK UNBOUND:                -2.107
REMARK SMILES CCCCCCCCCCCCCC[C@@H](C)C(=O)[O-]
REMARK SMILES IDX 9 1 10 2 11 3 12 4 13 5 14 6 15 7 16 8 17 9 18 10 19 11 8 12
REMARK SMILES IDX 7 13 6 14 5 15 4 16 3 17 2 18 1 19
REMARK H PARENT
REMARK Flexibility Score: inf
ROOT
ATOM      1  C   UNL     1     137.583 136.723 139.862  1.00  0.00     0.000 C 
ENDROOT
BRANCH   1   2
ATOM      2  C   UNL     1     136.599 136.022 140.814  1.00  0.00     0.000 C 
BRANCH   2   3
ATOM      3  C   UNL     1     135.247 135.716 140.152  1.00  0.00     0.000 C 
BRANCH   3   4
ATOM      4  C   UNL     1     134.268 136.885 140.339  1.00  0.00     0.000 C 
BRANCH   4   5
ATOM      5  C   UNL     1     134.161 137.773 139.089  1.00  0.00     0.001 C 
BRANCH   5   6
ATOM      6  C   UNL     1     134.753 139.178 139.307  1.00  0.00     0.009 C 
BRANCH   6   7
ATOM      7  C   UNL     1     134.989 139.497 140.801  1.00  0.00     0.032 C 
ATOM      8  C   UNL     1     136.437 139.928 141.080  1.00  0.00     0.014 C 
BRANCH   7   9
ATOM      9  C   UNL     1     134.043 140.575 141.253  1.00  0.00     0.044 C 
ATOM     10  O   UNL     1     134.404 141.428 142.109  1.00  0.00    -0.550 OA
ATOM     11  O   UNL     1     132.757 140.634 140.730  1.00  0.00    -0.550 OA
ENDBRANCH   7   9
ENDBRANCH   6   7
ENDBRANCH   5   6
ENDBRANCH   4   5
ENDBRANCH   3   4
ENDBRANCH   2   3
ENDBRANCH   1   2
BRANCH   1  12
ATOM     12  C   UNL     1     138.960 136.961 140.507  1.00  0.00     0.000 C 
BRANCH  12  13
ATOM     13  C   UNL     1     140.117 136.445 139.635  1.00  0.00    -0.000 C 
BRANCH  13  14
ATOM     14  C   UNL     1     140.874 135.276 140.287  1.00  0.00    -0.000 C 
BRANCH  14  15
ATOM     15  C   UNL     1     140.081 134.625 141.433  1.00  0.00    -0.000 C 
BRANCH  15  16
ATOM     16  C   UNL     1     139.238 133.425 140.968  1.00  0.00    -0.000 C 
BRANCH  16  17
ATOM     17  C   UNL     1     139.641 132.942 139.558  1.00  0.00    -0.000 C 
BRANCH  17  18
ATOM     18  C   UNL     1     138.600 133.272 138.474  1.00  0.00    -0.003 C 
ATOM     19  C   UNL     1     139.223 133.818 137.192  1.00  0.00     0.004 C 
ENDBRANCH  17  18
ENDBRANCH  16  17
ENDBRANCH  15  16
ENDBRANCH  14  15
ENDBRANCH  13  14
ENDBRANCH  12  13
ENDBRANCH   1  12
TORSDOF 14
ENDMDL
MODEL 7
REMARK VINA RESULT:    -4.325      2.527      6.604
REMARK INTER + INTRA:          -9.972
REMARK INTER:                  -7.937
REMARK INTRA:                  -2.035
REMARK UNBOUND:                -2.107
REMARK SMILES CCCCCCCCCCCCCC[C@@H](C)C(=O)[O-]
REMARK SMILES IDX 9 1 10 2 11 3 12 4 13 5 14 6 15 7 16 8 17 9 18 10 19 11 8 12
REMARK SMILES IDX 7 13 6 14 5 15 4 16 3 17 2 18 1 19
REMARK H PARENT
REMARK Flexibility Score: inf
ROOT
ATOM      1  C   UNL     1     137.222 136.862 140.344  1.00  0.00     0.000 C 
ENDROOT
BRANCH   1   2
ATOM      2  C   UNL     1     136.415 138.167 140.443  1.00  0.00     0.000 C 
BRANCH   2   3
ATOM      3  C   UNL     1     135.950 138.683 139.073  1.00  0.00     0.000 C 
BRANCH   3   4
ATOM      4  C   UNL     1     134.417 138.762 139.008  1.00  0.00     0.000 C 
BRANCH   4   5
ATOM      5  C   UNL     1     133.747 138.363 140.332  1.00  0.00     0.001 C 
BRANCH   5   6
ATOM      6  C   UNL     1     132.774 137.181 140.172  1.00  0.00     0.009 C 
BRANCH   6   7
ATOM      7  C   UNL     1     133.416 135.978 139.445  1.00  0.00     0.032 C 
ATOM      8  C   UNL     1     134.085 134.999 140.421  1.00  0.00     0.014 C 
BRANCH   7   9
ATOM      9  C   UNL     1     132.378 135.254 138.632  1.00  0.00     0.044 C 
ATOM     10  O   UNL     1     131.400 135.879 138.137  1.00  0.00    -0.550 OA
ATOM     11  O   UNL     1     132.489 133.885 138.426  1.00  0.00    -0.550 OA
ENDBRANCH   7   9
ENDBRANCH   6   7
ENDBRANCH   5   6
ENDBRANCH   4   5
ENDBRANCH   3   4
ENDBRANCH   2   3
ENDBRANCH   1   2
BRANCH   1  12
ATOM     12  C   UNL     1     138.123 136.817 139.097  1.00  0.00     0.000 C 
BRANCH  12  13
ATOM     13  C   UNL     1     139.620 136.789 139.450  1.00  0.00    -0.000 C 
BRANCH  13  14
ATOM     14  C   UNL     1     139.880 136.297 140.883  1.00  0.00    -0.000 C 
BRANCH  14  15
ATOM     15  C   UNL     1     140.643 134.962 140.920  1.00  0.00    -0.000 C 
BRANCH  15  16
ATOM     16  C   UNL     1     139.719 133.754 141.163  1.00  0.00    -0.000 C 
BRANCH  16  17
ATOM     17  C   UNL     1     139.338 133.040 139.849  1.00  0.00    -0.000 C 
BRANCH  17  18
ATOM     18  C   UNL     1     140.366 133.236 138.722  1.00  0.00    -0.003 C 
ATOM     19  C   UNL     1     139.731 133.658 137.399  1.00  0.00     0.004 C 
ENDBRANCH  17  18
ENDBRANCH  16  17
ENDBRANCH  15  16
ENDBRANCH  14  15
ENDBRANCH  13  14
ENDBRANCH  12  13
ENDBRANCH   1  12
TORSDOF 14
ENDMDL
MODEL 8
REMARK VINA RESULT:    -4.321      8.549     11.432
REMARK INTER + INTRA:          -9.964
REMARK INTER:                  -8.321
REMARK INTRA:                  -1.643
REMARK UNBOUND:                -2.107
REMARK SMILES CCCCCCCCCCCCCC[C@@H](C)C(=O)[O-]
REMARK SMILES IDX 9 1 10 2 11 3 12 4 13 5 14 6 15 7 16 8 17 9 18 10 19 11 8 12
REMARK SMILES IDX 7 13 6 14 5 15 4 16 3 17 2 18 1 19
REMARK H PARENT
REMARK Flexibility Score: inf
ROOT
ATOM      1  C   UNL     1     130.846 140.757 138.707  1.00  0.00     0.000 C 
ENDROOT
BRANCH   1   2
ATOM      2  C   UNL     1     131.208 139.265 138.798  1.00  0.00     0.000 C 
BRANCH   2   3
ATOM      3  C   UNL     1     130.129 138.354 138.194  1.00  0.00     0.000 C 
BRANCH   3   4
ATOM      4  C   UNL     1     129.168 139.157 137.305  1.00  0.00     0.000 C 
BRANCH   4   5
ATOM      5  C   UNL     1     127.703 139.034 137.754  1.00  0.00     0.001 C 
BRANCH   5   6
ATOM      6  C   UNL     1     126.833 138.275 136.736  1.00  0.00     0.009 C 
BRANCH   6   7
ATOM      7  C   UNL     1     125.465 138.954 136.501  1.00  0.00     0.032 C 
ATOM      8  C   UNL     1     125.545 140.482 136.630  1.00  0.00     0.014 C 
BRANCH   7   9
ATOM      9  C   UNL     1     124.934 138.587 135.142  1.00  0.00     0.044 C 
ATOM     10  O   UNL     1     124.472 139.474 134.373  1.00  0.00    -0.550 OA
ATOM     11  O   UNL     1     124.947 137.262 134.726  1.00  0.00    -0.550 OA
ENDBRANCH   7   9
ENDBRANCH   6   7
ENDBRANCH   5   6
ENDBRANCH   4   5
ENDBRANCH   3   4
ENDBRANCH   2   3
ENDBRANCH   1   2
BRANCH   1  12
ATOM     12  C   UNL     1     130.923 141.468 140.070  1.00  0.00     0.000 C 
BRANCH  12  13
ATOM     13  C   UNL     1     129.947 140.875 141.101  1.00  0.00    -0.000 C 
BRANCH  13  14
ATOM     14  C   UNL     1     128.475 141.066 140.700  1.00  0.00    -0.000 C 
BRANCH  14  15
ATOM     15  C   UNL     1     128.108 142.544 140.485  1.00  0.00    -0.000 C 
BRANCH  15  16
ATOM     16  C   UNL     1     127.634 142.838 139.051  1.00  0.00    -0.000 C 
BRANCH  16  17
ATOM     17  C   UNL     1     126.248 143.518 139.024  1.00  0.00    -0.000 C 
BRANCH  17  18
ATOM     18  C   UNL     1     126.281 145.000 139.435  1.00  0.00    -0.003 C 
ATOM     19  C   UNL     1     125.831 145.941 138.321  1.00  0.00     0.004 C 
ENDBRANCH  17  18
ENDBRANCH  16  17
ENDBRANCH  15  16
ENDBRANCH  14  15
ENDBRANCH  13  14
ENDBRANCH  12  13
ENDBRANCH   1  12
TORSDOF 14
ENDMDL
MODEL 9
REMARK VINA RESULT:    -4.226      2.618      6.517
REMARK INTER + INTRA:          -9.792
REMARK INTER:                  -7.442
REMARK INTRA:                  -2.350
REMARK UNBOUND:                -2.107
REMARK SMILES CCCCCCCCCCCCCC[C@@H](C)C(=O)[O-]
REMARK SMILES IDX 9 1 10 2 11 3 12 4 13 5 14 6 15 7 16 8 17 9 18 10 19 11 8 12
REMARK SMILES IDX 7 13 6 14 5 15 4 16 3 17 2 18 1 19
REMARK H PARENT
REMARK Flexibility Score: inf
ROOT
ATOM      1  C   UNL     1     137.613 136.265 139.529  1.00  0.00     0.000 C 
ENDROOT
BRANCH   1   2
ATOM      2  C   UNL     1     137.875 137.619 140.210  1.00  0.00     0.000 C 
BRANCH   2   3
ATOM      3  C   UNL     1     136.748 138.030 141.169  1.00  0.00     0.000 C 
BRANCH   3   4
ATOM      4  C   UNL     1     136.127 139.368 140.745  1.00  0.00     0.000 C 
BRANCH   4   5
ATOM      5  C   UNL     1     134.627 139.251 140.427  1.00  0.00     0.001 C 
BRANCH   5   6
ATOM      6  C   UNL     1     134.362 138.616 139.050  1.00  0.00     0.009 C 
BRANCH   6   7
ATOM      7  C   UNL     1     133.654 137.246 139.154  1.00  0.00     0.032 C 
ATOM      8  C   UNL     1     133.070 136.999 140.553  1.00  0.00     0.014 C 
BRANCH   7   9
ATOM      9  C   UNL     1     132.563 137.149 138.124  1.00  0.00     0.044 C 
ATOM     10  O   UNL     1     132.021 138.192 137.664  1.00  0.00    -0.550 OA
ATOM     11  O   UNL     1     132.141 135.905 137.674  1.00  0.00    -0.550 OA
ENDBRANCH   7   9
ENDBRANCH   6   7
ENDBRANCH   5   6
ENDBRANCH   4   5
ENDBRANCH   3   4
ENDBRANCH   2   3
ENDBRANCH   1   2
BRANCH   1  12
ATOM     12  C   UNL     1     136.532 135.441 140.252  1.00  0.00     0.000 C 
BRANCH  12  13
ATOM     13  C   UNL     1     137.074 134.111 140.803  1.00  0.00    -0.000 C 
BRANCH  13  14
ATOM     14  C   UNL     1     138.032 134.310 141.990  1.00  0.00    -0.000 C 
BRANCH  14  15
ATOM     15  C   UNL     1     139.413 133.679 141.747  1.00  0.00    -0.000 C 
BRANCH  15  16
ATOM     16  C   UNL     1     140.492 134.722 141.404  1.00  0.00    -0.000 C 
BRANCH  16  17
ATOM     17  C   UNL     1     140.854 134.714 139.904  1.00  0.00    -0.000 C 
BRANCH  17  18
ATOM     18  C   UNL     1     140.413 133.434 139.172  1.00  0.00    -0.003 C 
ATOM     19  C   UNL     1     139.816 133.708 137.794  1.00  0.00     0.004 C 
ENDBRANCH  17  18
ENDBRANCH  16  17
ENDBRANCH  15  16
ENDBRANCH  14  15
ENDBRANCH  13  14
ENDBRANCH  12  13
ENDBRANCH   1  12
TORSDOF 14
ENDMDL
