MODEL 1
REMARK VINA RESULT:    -4.577      0.000      0.000
REMARK INTER + INTRA:          -4.577
REMARK INTER:                  -4.577
REMARK INTRA:                   0.000
REMARK UNBOUND:                 0.000
REMARK SMILES O=c1ccc2ccccc2o1
REMARK SMILES IDX 7 1 8 2 9 3 10 4 5 5 6 6 4 7 3 8 2 9 1 10 11 11
REMARK H PARENT
REMARK Flexibility Score: inf
ROOT
ATOM      1  C   UNL     1      16.125  -2.404  13.423  1.00  0.00     0.001 A 
ATOM      2  C   UNL     1      15.786  -3.754  13.279  1.00  0.00     0.004 A 
ATOM      3  C   UNL     1      14.611  -4.117  12.614  1.00  0.00     0.048 A 
ATOM      4  C   UNL     1      13.769  -3.130  12.089  1.00  0.00     0.138 A 
ATOM      5  C   UNL     1      14.111  -1.767  12.235  1.00  0.00     0.018 A 
ATOM      6  C   UNL     1      15.291  -1.409  12.903  1.00  0.00     0.012 A 
ATOM      7  C   UNL     1      13.251  -0.804  11.699  1.00  0.00     0.019 A 
ATOM      8  C   UNL     1      12.089  -1.211  11.044  1.00  0.00     0.094 A 
ATOM      9  C   UNL     1      11.815  -2.579  10.938  1.00  0.00     0.336 A 
ATOM     10  O   UNL     1      10.772  -2.968  10.350  1.00  0.00    -0.246 OA
ATOM     11  O   UNL     1      12.651  -3.476  11.455  1.00  0.00    -0.423 OA
ENDROOT
TORSDOF 0
ENDMDL
MODEL 2
REMARK VINA RESULT:    -3.872      1.164      2.184
REMARK INTER + INTRA:          -3.872
REMARK INTER:                  -3.872
REMARK INTRA:                   0.000
REMARK UNBOUND:                 0.000
REMARK SMILES O=c1ccc2ccccc2o1
REMARK SMILES IDX 7 1 8 2 9 3 10 4 5 5 6 6 4 7 3 8 2 9 1 10 11 11
REMARK H PARENT
REMARK Flexibility Score: inf
ROOT
ATOM      1  C   UNL     1      16.125  -2.064  12.965  1.00  0.00     0.001 A 
ATOM      2  C   UNL     1      15.776  -0.725  12.762  1.00  0.00     0.004 A 
ATOM      3  C   UNL     1      14.516  -0.396  12.251  1.00  0.00     0.048 A 
ATOM      4  C   UNL     1      13.600  -1.407  11.941  1.00  0.00     0.138 A 
ATOM      5  C   UNL     1      13.952  -2.760  12.146  1.00  0.00     0.018 A 
ATOM      6  C   UNL     1      15.217  -3.083  12.659  1.00  0.00     0.012 A 
ATOM      7  C   UNL     1      13.015  -3.747  11.829  1.00  0.00     0.019 A 
ATOM      8  C   UNL     1      11.771  -3.374  11.321  1.00  0.00     0.094 A 
ATOM      9  C   UNL     1      11.491  -2.014  11.145  1.00  0.00     0.336 A 
ATOM     10  O   UNL     1      10.375  -1.656  10.688  1.00  0.00    -0.246 OA
ATOM     11  O   UNL     1      12.401  -1.093  11.456  1.00  0.00    -0.423 OA
ENDROOT
TORSDOF 0
ENDMDL
MODEL 3
REMARK VINA RESULT:    -3.606      1.521      3.808
REMARK INTER + INTRA:          -3.606
REMARK INTER:                  -3.606
REMARK INTRA:                   0.000
REMARK UNBOUND:                 0.000
REMARK SMILES O=c1ccc2ccccc2o1
REMARK SMILES IDX 7 1 8 2 9 3 10 4 5 5 6 6 4 7 3 8 2 9 1 10 11 11
REMARK H PARENT
REMARK Flexibility Score: inf
ROOT
ATOM      1  C   UNL     1      11.325  -1.305  10.754  1.00  0.00     0.001 A 
ATOM      2  C   UNL     1      11.104  -2.685  10.823  1.00  0.00     0.004 A 
ATOM      3  C   UNL     1      12.062  -3.523  11.403  1.00  0.00     0.048 A 
ATOM      4  C   UNL     1      13.246  -2.983  11.916  1.00  0.00     0.138 A 
ATOM      5  C   UNL     1      13.470  -1.589  11.846  1.00  0.00     0.018 A 
ATOM      6  C   UNL     1      12.506  -0.755  11.264  1.00  0.00     0.012 A 
ATOM      7  C   UNL     1      14.663  -1.080  12.368  1.00  0.00     0.019 A 
ATOM      8  C   UNL     1      15.591  -1.952  12.937  1.00  0.00     0.094 A 
ATOM      9  C   UNL     1      15.301  -3.321  12.971  1.00  0.00     0.336 A 
ATOM     10  O   UNL     1      16.125  -4.125  13.480  1.00  0.00    -0.246 OA
ATOM     11  O   UNL     1      14.158  -3.781  12.468  1.00  0.00    -0.423 OA
ENDROOT
TORSDOF 0
ENDMDL
MODEL 4
REMARK VINA RESULT:    -2.626     15.981     18.098
REMARK INTER + INTRA:          -2.626
REMARK INTER:                  -2.626
REMARK INTRA:                   0.000
REMARK UNBOUND:                 0.000
REMARK SMILES O=c1ccc2ccccc2o1
REMARK SMILES IDX 7 1 8 2 9 3 10 4 5 5 6 6 4 7 3 8 2 9 1 10 11 11
REMARK H PARENT
REMARK Flexibility Score: inf
ROOT
ATOM      1  C   UNL     1      -1.421  -4.053  -0.876  1.00  0.00     0.001 A 
ATOM      2  C   UNL     1      -0.675  -3.586  -1.963  1.00  0.00     0.004 A 
ATOM      3  C   UNL     1       0.379  -2.689  -1.761  1.00  0.00     0.048 A 
ATOM      4  C   UNL     1       0.692  -2.257  -0.467  1.00  0.00     0.138 A 
ATOM      5  C   UNL     1      -0.061  -2.729   0.632  1.00  0.00     0.018 A 
ATOM      6  C   UNL     1      -1.117  -3.627   0.422  1.00  0.00     0.012 A 
ATOM      7  C   UNL     1       0.276  -2.280   1.912  1.00  0.00     0.019 A 
ATOM      8  C   UNL     1       1.335  -1.385   2.068  1.00  0.00     0.094 A 
ATOM      9  C   UNL     1       2.036  -0.961   0.933  1.00  0.00     0.336 A 
ATOM     10  O   UNL     1       2.995  -0.154   1.052  1.00  0.00    -0.246 OA
ATOM     11  O   UNL     1       1.696  -1.404  -0.274  1.00  0.00    -0.423 OA
ENDROOT
TORSDOF 0
ENDMDL
MODEL 5
REMARK VINA RESULT:    -2.082     16.172     17.921
REMARK INTER + INTRA:          -2.082
REMARK INTER:                  -2.082
REMARK INTRA:                   0.000
REMARK UNBOUND:                 0.000
REMARK SMILES O=c1ccc2ccccc2o1
REMARK SMILES IDX 7 1 8 2 9 3 10 4 5 5 6 6 4 7 3 8 2 9 1 10 11 11
REMARK H PARENT
REMARK Flexibility Score: inf
ROOT
ATOM      1  C   UNL     1       1.519  -1.130   2.489  1.00  0.00     0.001 A 
ATOM      2  C   UNL     1       2.381  -0.706   1.472  1.00  0.00     0.004 A 
ATOM      3  C   UNL     1       2.135  -1.068   0.144  1.00  0.00     0.048 A 
ATOM      4  C   UNL     1       1.024  -1.857  -0.172  1.00  0.00     0.138 A 
ATOM      5  C   UNL     1       0.152  -2.286   0.854  1.00  0.00     0.018 A 
ATOM      6  C   UNL     1       0.405  -1.919   2.184  1.00  0.00     0.012 A 
ATOM      7  C   UNL     1      -0.950  -3.072   0.507  1.00  0.00     0.019 A 
ATOM      8  C   UNL     1      -1.157  -3.410  -0.830  1.00  0.00     0.094 A 
ATOM      9  C   UNL     1      -0.252  -2.950  -1.794  1.00  0.00     0.336 A 
ATOM     10  O   UNL     1      -0.421  -3.243  -3.006  1.00  0.00    -0.246 OA
ATOM     11  O   UNL     1       0.789  -2.201  -1.437  1.00  0.00    -0.423 OA
ENDROOT
TORSDOF 0
ENDMDL
