MODEL 1
REMARK VINA RESULT:    -6.043      0.000      0.000
REMARK INTER + INTRA:          -7.549
REMARK INTER:                  -7.279
REMARK INTRA:                  -0.270
REMARK UNBOUND:                -0.270
REMARK SMILES O=c1c(O)c(-c2ccc(O)c(O)c2)oc2cc(O)cc(O)c12
REMARK SMILES IDX 5 1 3 2 2 3 1 4 22 5 20 6 19 7 17 8 16 9 15 10 14 11 6 12
REMARK SMILES IDX 7 13 8 14 9 15 13 16 11 17 10 18 12 20 4 22 21 24 18 26
REMARK H PARENT 10 19 12 21 4 23 21 25 18 27
REMARK Flexibility Score: inf
ROOT
ATOM      1  C   UNL     1       8.578 -52.751 -21.425  1.00  0.00     0.180 A 
ATOM      2  C   UNL     1       8.748 -53.141 -20.085  1.00  0.00     0.208 A 
ATOM      3  C   UNL     1       8.184 -54.351 -19.651  1.00  0.00     0.238 A 
ATOM      4  O   UNL     1       8.293 -54.669 -18.438  1.00  0.00    -0.285 OA
ATOM      5  C   UNL     1       7.470 -55.164 -20.565  1.00  0.00     0.111 A 
ATOM      6  C   UNL     1       6.892 -56.428 -20.245  1.00  0.00     0.134 A 
ATOM      7  C   UNL     1       6.097 -57.084 -21.194  1.00  0.00     0.093 A 
ATOM      8  C   UNL     1       5.915 -56.552 -22.472  1.00  0.00     0.123 A 
ATOM      9  C   UNL     1       6.524 -55.348 -22.814  1.00  0.00     0.094 A 
ATOM     10  C   UNL     1       7.293 -54.652 -21.878  1.00  0.00     0.146 A 
ATOM     11  O   UNL     1       7.849 -53.502 -22.241  1.00  0.00    -0.452 OA
ENDROOT
BRANCH   1  12
ATOM     12  C   UNL     1       9.163 -51.502 -21.962  1.00  0.00     0.025 A 
ATOM     13  C   UNL     1      10.296 -51.524 -22.795  1.00  0.00     0.016 A 
ATOM     14  C   UNL     1      10.817 -50.334 -23.310  1.00  0.00     0.051 A 
ATOM     15  C   UNL     1      10.209 -49.107 -23.013  1.00  0.00     0.157 A 
ATOM     16  C   UNL     1       8.545 -50.272 -21.684  1.00  0.00     0.062 A 
ATOM     17  C   UNL     1       9.065 -49.078 -22.198  1.00  0.00     0.158 A 
BRANCH  15  18
ATOM     18  O   UNL     1      10.732 -47.922 -23.526  1.00  0.00    -0.504 OA
ATOM     19  H   UNL     1      10.232 -47.378 -24.220  1.00  0.00     0.293 HD
ENDBRANCH  15  18
BRANCH  17  20
ATOM     20  O   UNL     1       8.431 -47.875 -21.888  1.00  0.00    -0.504 OA
ATOM     21  H   UNL     1       8.111 -47.661 -20.951  1.00  0.00     0.293 HD
ENDBRANCH  17  20
ENDBRANCH   1  12
BRANCH   2  22
ATOM     22  O   UNL     1       9.437 -52.313 -19.194  1.00  0.00    -0.502 OA
ATOM     23  H   UNL     1      10.410 -52.461 -18.956  1.00  0.00     0.293 HD
ENDBRANCH   2  22
BRANCH   6  24
ATOM     24  O   UNL     1       7.087 -57.091 -19.030  1.00  0.00    -0.507 OA
ATOM     25  H   UNL     1       6.405 -57.143 -18.288  1.00  0.00     0.293 HD
ENDBRANCH   6  24
BRANCH   8  26
ATOM     26  O   UNL     1       5.136 -57.219 -23.415  1.00  0.00    -0.508 OA
ATOM     27  H   UNL     1       4.124 -57.167 -23.398  1.00  0.00     0.293 HD
ENDBRANCH   8  26
TORSDOF 6
ENDMDL
MODEL 2
REMARK VINA RESULT:    -5.893      1.436      1.645
REMARK INTER + INTRA:          -7.368
REMARK INTER:                  -7.293
REMARK INTRA:                  -0.075
REMARK UNBOUND:                -0.270
REMARK SMILES O=c1c(O)c(-c2ccc(O)c(O)c2)oc2cc(O)cc(O)c12
REMARK SMILES IDX 5 1 3 2 2 3 1 4 22 5 20 6 19 7 17 8 16 9 15 10 14 11 6 12
REMARK SMILES IDX 7 13 8 14 9 15 13 16 11 17 10 18 12 20 4 22 21 24 18 26
REMARK H PARENT 10 19 12 21 4 23 21 25 18 27
REMARK Flexibility Score: inf
ROOT
ATOM      1  C   UNL     1       7.847 -53.518 -20.799  1.00  0.00     0.180 A 
ATOM      2  C   UNL     1       7.719 -54.215 -19.584  1.00  0.00     0.208 A 
ATOM      3  C   UNL     1       7.188 -55.515 -19.598  1.00  0.00     0.238 A 
ATOM      4  O   UNL     1       7.025 -56.113 -18.503  1.00  0.00    -0.285 OA
ATOM      5  C   UNL     1       6.806 -56.107 -20.826  1.00  0.00     0.111 A 
ATOM      6  C   UNL     1       6.295 -57.432 -20.963  1.00  0.00     0.134 A 
ATOM      7  C   UNL     1       5.827 -57.868 -22.209  1.00  0.00     0.093 A 
ATOM      8  C   UNL     1       5.914 -57.048 -23.337  1.00  0.00     0.123 A 
ATOM      9  C   UNL     1       6.467 -55.775 -23.226  1.00  0.00     0.094 A 
ATOM     10  C   UNL     1       6.908 -55.299 -21.989  1.00  0.00     0.146 A 
ATOM     11  O   UNL     1       7.419 -54.075 -21.925  1.00  0.00    -0.452 OA
ENDROOT
BRANCH   1  12
ATOM     12  C   UNL     1       8.420 -52.155 -20.867  1.00  0.00     0.025 A 
ATOM     13  C   UNL     1       9.685 -51.865 -20.326  1.00  0.00     0.016 A 
ATOM     14  C   UNL     1      10.217 -50.577 -20.424  1.00  0.00     0.051 A 
ATOM     15  C   UNL     1       9.501 -49.563 -21.075  1.00  0.00     0.157 A 
ATOM     16  C   UNL     1       7.717 -51.141 -21.536  1.00  0.00     0.062 A 
ATOM     17  C   UNL     1       8.246 -49.848 -21.636  1.00  0.00     0.158 A 
BRANCH  15  18
ATOM     18  O   UNL     1      10.033 -48.278 -21.169  1.00  0.00    -0.504 OA
ATOM     19  H   UNL     1       9.741 -47.635 -21.896  1.00  0.00     0.293 HD
ENDBRANCH  15  18
BRANCH  17  20
ATOM     20  O   UNL     1       7.511 -48.865 -22.296  1.00  0.00    -0.504 OA
ATOM     21  H   UNL     1       7.742 -48.558 -23.233  1.00  0.00     0.293 HD
ENDBRANCH  17  20
ENDBRANCH   1  12
BRANCH   2  22
ATOM     22  O   UNL     1       8.081 -53.603 -18.381  1.00  0.00    -0.502 OA
ATOM     23  H   UNL     1       8.923 -53.852 -17.876  1.00  0.00     0.293 HD
ENDBRANCH   2  22
BRANCH   6  24
ATOM     24  O   UNL     1       6.248 -58.362 -19.920  1.00  0.00    -0.507 OA
ATOM     25  H   UNL     1       5.581 -59.116 -19.852  1.00  0.00     0.293 HD
ENDBRANCH   6  24
BRANCH   8  26
ATOM     26  O   UNL     1       5.461 -57.494 -24.576  1.00  0.00    -0.508 OA
ATOM     27  H   UNL     1       5.500 -58.474 -24.833  1.00  0.00     0.293 HD
ENDBRANCH   8  26
TORSDOF 6
ENDMDL
MODEL 3
REMARK VINA RESULT:    -5.608      7.330     11.327
REMARK INTER + INTRA:          -7.026
REMARK INTER:                  -6.792
REMARK INTRA:                  -0.233
REMARK UNBOUND:                -0.270
REMARK SMILES O=c1c(O)c(-c2ccc(O)c(O)c2)oc2cc(O)cc(O)c12
REMARK SMILES IDX 5 1 3 2 2 3 1 4 22 5 20 6 19 7 17 8 16 9 15 10 14 11 6 12
REMARK SMILES IDX 7 13 8 14 9 15 13 16 11 17 10 18 12 20 4 22 21 24 18 26
REMARK H PARENT 10 19 12 21 4 23 21 25 18 27
REMARK Flexibility Score: inf
ROOT
ATOM      1  C   UNL     1       0.910 -59.241 -18.300  1.00  0.00     0.180 A 
ATOM      2  C   UNL     1       1.896 -59.998 -17.642  1.00  0.00     0.208 A 
ATOM      3  C   UNL     1       3.184 -60.068 -18.197  1.00  0.00     0.238 A 
ATOM      4  O   UNL     1       4.047 -60.791 -17.634  1.00  0.00    -0.285 OA
ATOM      5  C   UNL     1       3.475 -59.369 -19.393  1.00  0.00     0.111 A 
ATOM      6  C   UNL     1       4.755 -59.336 -20.022  1.00  0.00     0.134 A 
ATOM      7  C   UNL     1       4.896 -58.720 -21.272  1.00  0.00     0.093 A 
ATOM      8  C   UNL     1       3.817 -58.077 -21.883  1.00  0.00     0.123 A 
ATOM      9  C   UNL     1       2.577 -58.052 -21.249  1.00  0.00     0.094 A 
ATOM     10  C   UNL     1       2.397 -58.689 -20.019  1.00  0.00     0.146 A 
ATOM     11  O   UNL     1       1.196 -58.650 -19.453  1.00  0.00    -0.452 OA
ENDROOT
BRANCH   1  12
ATOM     12  C   UNL     1      -0.462 -59.099 -17.763  1.00  0.00     0.025 A 
ATOM     13  C   UNL     1      -0.717 -58.368 -16.590  1.00  0.00     0.016 A 
ATOM     14  C   UNL     1      -2.024 -58.227 -16.115  1.00  0.00     0.051 A 
ATOM     15  C   UNL     1      -3.096 -58.801 -16.811  1.00  0.00     0.157 A 
ATOM     16  C   UNL     1      -1.542 -59.655 -18.468  1.00  0.00     0.062 A 
ATOM     17  C   UNL     1      -2.852 -59.516 -17.996  1.00  0.00     0.158 A 
BRANCH  15  18
ATOM     18  O   UNL     1      -4.398 -58.661 -16.335  1.00  0.00    -0.504 OA
ATOM     19  H   UNL     1      -5.175 -59.150 -16.763  1.00  0.00     0.293 HD
ENDBRANCH  15  18
BRANCH  17  20
ATOM     20  O   UNL     1      -3.896 -60.094 -18.716  1.00  0.00    -0.504 OA
ATOM     21  H   UNL     1      -3.767 -60.929 -19.275  1.00  0.00     0.293 HD
ENDBRANCH  17  20
ENDBRANCH   1  12
BRANCH   2  22
ATOM     22  O   UNL     1       1.581 -60.699 -16.474  1.00  0.00    -0.502 OA
ATOM     23  H   UNL     1       0.839 -60.409 -15.850  1.00  0.00     0.293 HD
ENDBRANCH   2  22
BRANCH   6  24
ATOM     24  O   UNL     1       5.917 -59.868 -19.455  1.00  0.00    -0.507 OA
ATOM     25  H   UNL     1       6.006 -60.155 -18.491  1.00  0.00     0.293 HD
ENDBRANCH   6  24
BRANCH   8  26
ATOM     26  O   UNL     1       3.969 -57.453 -23.118  1.00  0.00    -0.508 OA
ATOM     27  H   UNL     1       4.657 -57.769 -23.792  1.00  0.00     0.293 HD
ENDBRANCH   8  26
TORSDOF 6
ENDMDL
MODEL 4
REMARK VINA RESULT:    -5.413      1.620      6.545
REMARK INTER + INTRA:          -6.790
REMARK INTER:                  -6.672
REMARK INTRA:                  -0.119
REMARK UNBOUND:                -0.270
REMARK SMILES O=c1c(O)c(-c2ccc(O)c(O)c2)oc2cc(O)cc(O)c12
REMARK SMILES IDX 5 1 3 2 2 3 1 4 22 5 20 6 19 7 17 8 16 9 15 10 14 11 6 12
REMARK SMILES IDX 7 13 8 14 9 15 13 16 11 17 10 18 12 20 4 22 21 24 18 26
REMARK H PARENT 10 19 12 21 4 23 21 25 18 27
REMARK Flexibility Score: inf
ROOT
ATOM      1  C   UNL     1       8.033 -53.992 -21.197  1.00  0.00     0.180 A 
ATOM      2  C   UNL     1       9.077 -54.275 -20.298  1.00  0.00     0.208 A 
ATOM      3  C   UNL     1       9.827 -53.212 -19.770  1.00  0.00     0.238 A 
ATOM      4  O   UNL     1      10.794 -53.473 -19.009  1.00  0.00    -0.285 OA
ATOM      5  C   UNL     1       9.514 -51.879 -20.134  1.00  0.00     0.111 A 
ATOM      6  C   UNL     1      10.181 -50.724 -19.629  1.00  0.00     0.134 A 
ATOM      7  C   UNL     1       9.875 -49.463 -20.158  1.00  0.00     0.093 A 
ATOM      8  C   UNL     1       8.880 -49.311 -21.126  1.00  0.00     0.123 A 
ATOM      9  C   UNL     1       8.182 -50.426 -21.582  1.00  0.00     0.094 A 
ATOM     10  C   UNL     1       8.490 -51.700 -21.100  1.00  0.00     0.146 A 
ATOM     11  O   UNL     1       7.807 -52.739 -21.570  1.00  0.00    -0.452 OA
ENDROOT
BRANCH   1  12
ATOM     12  C   UNL     1       7.183 -55.057 -21.776  1.00  0.00     0.025 A 
ATOM     13  C   UNL     1       6.446 -55.931 -20.958  1.00  0.00     0.016 A 
ATOM     14  C   UNL     1       5.631 -56.913 -21.527  1.00  0.00     0.051 A 
ATOM     15  C   UNL     1       5.530 -57.029 -22.920  1.00  0.00     0.157 A 
ATOM     16  C   UNL     1       7.061 -55.164 -23.171  1.00  0.00     0.062 A 
ATOM     17  C   UNL     1       6.247 -56.147 -23.745  1.00  0.00     0.158 A 
BRANCH  15  18
ATOM     18  O   UNL     1       4.718 -58.011 -23.485  1.00  0.00    -0.504 OA
ATOM     19  H   UNL     1       4.782 -58.251 -24.467  1.00  0.00     0.293 HD
ENDBRANCH  15  18
BRANCH  17  20
ATOM     20  O   UNL     1       6.163 -56.230 -25.134  1.00  0.00    -0.504 OA
ATOM     21  H   UNL     1       6.959 -56.050 -25.733  1.00  0.00     0.293 HD
ENDBRANCH  17  20
ENDBRANCH   1  12
BRANCH   2  22
ATOM     22  O   UNL     1       9.383 -55.598 -19.970  1.00  0.00    -0.502 OA
ATOM     23  H   UNL     1       8.704 -56.227 -19.558  1.00  0.00     0.293 HD
ENDBRANCH   2  22
BRANCH   6  24
ATOM     24  O   UNL     1      11.125 -50.755 -18.598  1.00  0.00    -0.507 OA
ATOM     25  H   UNL     1      10.941 -51.080 -17.661  1.00  0.00     0.293 HD
ENDBRANCH   6  24
BRANCH   8  26
ATOM     26  O   UNL     1       8.571 -48.052 -21.635  1.00  0.00    -0.508 OA
ATOM     27  H   UNL     1       9.166 -47.250 -21.464  1.00  0.00     0.293 HD
ENDBRANCH   8  26
TORSDOF 6
ENDMDL
MODEL 5
REMARK VINA RESULT:    -5.372      1.629      2.779
REMARK INTER + INTRA:          -6.741
REMARK INTER:                  -6.597
REMARK INTRA:                  -0.143
REMARK UNBOUND:                -0.270
REMARK SMILES O=c1c(O)c(-c2ccc(O)c(O)c2)oc2cc(O)cc(O)c12
REMARK SMILES IDX 5 1 3 2 2 3 1 4 22 5 20 6 19 7 17 8 16 9 15 10 14 11 6 12
REMARK SMILES IDX 7 13 8 14 9 15 13 16 11 17 10 18 12 20 4 22 21 24 18 26
REMARK H PARENT 10 19 12 21 4 23 21 25 18 27
REMARK Flexibility Score: inf
ROOT
ATOM      1  C   UNL     1       7.502 -54.757 -21.524  1.00  0.00     0.180 A 
ATOM      2  C   UNL     1       7.460 -55.319 -20.235  1.00  0.00     0.208 A 
ATOM      3  C   UNL     1       6.845 -56.568 -20.057  1.00  0.00     0.238 A 
ATOM      4  O   UNL     1       6.761 -57.041 -18.894  1.00  0.00    -0.285 OA
ATOM      5  C   UNL     1       6.295 -57.248 -21.170  1.00  0.00     0.111 A 
ATOM      6  C   UNL     1       5.685 -58.537 -21.113  1.00  0.00     0.134 A 
ATOM      7  C   UNL     1       5.058 -59.056 -22.252  1.00  0.00     0.093 A 
ATOM      8  C   UNL     1       5.078 -58.362 -23.464  1.00  0.00     0.123 A 
ATOM      9  C   UNL     1       5.723 -57.131 -23.546  1.00  0.00     0.094 A 
ATOM     10  C   UNL     1       6.325 -56.570 -22.417  1.00  0.00     0.146 A 
ATOM     11  O   UNL     1       6.921 -55.389 -22.536  1.00  0.00    -0.452 OA
ENDROOT
BRANCH   1  12
ATOM     12  C   UNL     1       8.155 -53.456 -21.795  1.00  0.00     0.025 A 
ATOM     13  C   UNL     1       7.679 -52.265 -21.218  1.00  0.00     0.016 A 
ATOM     14  C   UNL     1       8.325 -51.051 -21.469  1.00  0.00     0.051 A 
ATOM     15  C   UNL     1       9.462 -51.011 -22.287  1.00  0.00     0.157 A 
ATOM     16  C   UNL     1       9.306 -53.413 -22.596  1.00  0.00     0.062 A 
ATOM     17  C   UNL     1       9.956 -52.199 -22.851  1.00  0.00     0.158 A 
BRANCH  15  18
ATOM     18  O   UNL     1      10.103 -49.799 -22.537  1.00  0.00    -0.504 OA
ATOM     19  H   UNL     1      10.008 -49.010 -21.909  1.00  0.00     0.293 HD
ENDBRANCH  15  18
BRANCH  17  20
ATOM     20  O   UNL     1      11.089 -52.195 -23.663  1.00  0.00    -0.504 OA
ATOM     21  H   UNL     1      11.026 -52.230 -24.674  1.00  0.00     0.293 HD
ENDBRANCH  17  20
ENDBRANCH   1  12
BRANCH   2  22
ATOM     22  O   UNL     1       7.989 -54.620 -19.146  1.00  0.00    -0.502 OA
ATOM     23  H   UNL     1       8.793 -54.950 -18.627  1.00  0.00     0.293 HD
ENDBRANCH   2  22
BRANCH   6  24
ATOM     24  O   UNL     1       5.690 -59.352 -19.977  1.00  0.00    -0.507 OA
ATOM     25  H   UNL     1       5.536 -60.349 -19.986  1.00  0.00     0.293 HD
ENDBRANCH   6  24
BRANCH   8  26
ATOM     26  O   UNL     1       4.466 -58.893 -24.597  1.00  0.00    -0.508 OA
ATOM     27  H   UNL     1       3.460 -58.999 -24.656  1.00  0.00     0.293 HD
ENDBRANCH   8  26
TORSDOF 6
ENDMDL
MODEL 6
REMARK VINA RESULT:    -5.370      3.616      6.097
REMARK INTER + INTRA:          -6.739
REMARK INTER:                  -6.410
REMARK INTRA:                  -0.328
REMARK UNBOUND:                -0.270
REMARK SMILES O=c1c(O)c(-c2ccc(O)c(O)c2)oc2cc(O)cc(O)c12
REMARK SMILES IDX 5 1 3 2 2 3 1 4 22 5 20 6 19 7 17 8 16 9 15 10 14 11 6 12
REMARK SMILES IDX 7 13 8 14 9 15 13 16 11 17 10 18 12 20 4 22 21 24 18 26
REMARK H PARENT 10 19 12 21 4 23 21 25 18 27
REMARK Flexibility Score: inf
ROOT
ATOM      1  C   UNL     1       5.997 -57.555 -21.835  1.00  0.00     0.180 A 
ATOM      2  C   UNL     1       5.048 -58.392 -21.223  1.00  0.00     0.208 A 
ATOM      3  C   UNL     1       4.398 -59.366 -21.998  1.00  0.00     0.238 A 
ATOM      4  O   UNL     1       3.511 -60.076 -21.458  1.00  0.00    -0.285 OA
ATOM      5  C   UNL     1       4.718 -59.503 -23.371  1.00  0.00     0.111 A 
ATOM      6  C   UNL     1       4.153 -60.482 -24.241  1.00  0.00     0.134 A 
ATOM      7  C   UNL     1       4.444 -60.440 -25.610  1.00  0.00     0.093 A 
ATOM      8  C   UNL     1       5.333 -59.495 -26.128  1.00  0.00     0.123 A 
ATOM      9  C   UNL     1       5.937 -58.573 -25.277  1.00  0.00     0.094 A 
ATOM     10  C   UNL     1       5.637 -58.567 -23.913  1.00  0.00     0.146 A 
ATOM     11  O   UNL     1       6.227 -57.663 -23.138  1.00  0.00    -0.452 OA
ENDROOT
BRANCH   1  12
ATOM     12  C   UNL     1       6.740 -56.521 -21.079  1.00  0.00     0.025 A 
ATOM     13  C   UNL     1       7.913 -56.836 -20.369  1.00  0.00     0.016 A 
ATOM     14  C   UNL     1       8.611 -55.839 -19.682  1.00  0.00     0.051 A 
ATOM     15  C   UNL     1       8.157 -54.514 -19.704  1.00  0.00     0.157 A 
ATOM     16  C   UNL     1       6.302 -55.188 -21.114  1.00  0.00     0.062 A 
ATOM     17  C   UNL     1       6.998 -54.187 -20.427  1.00  0.00     0.158 A 
BRANCH  15  18
ATOM     18  O   UNL     1       8.854 -53.522 -19.016  1.00  0.00    -0.504 OA
ATOM     19  H   UNL     1       9.390 -53.732 -18.182  1.00  0.00     0.293 HD
ENDBRANCH  15  18
BRANCH  17  20
ATOM     20  O   UNL     1       6.523 -52.877 -20.475  1.00  0.00    -0.504 OA
ATOM     21  H   UNL     1       7.147 -52.081 -20.528  1.00  0.00     0.293 HD
ENDBRANCH  17  20
ENDBRANCH   1  12
BRANCH   2  22
ATOM     22  O   UNL     1       4.731 -58.226 -19.872  1.00  0.00    -0.502 OA
ATOM     23  H   UNL     1       4.836 -57.338 -19.394  1.00  0.00     0.293 HD
ENDBRANCH   2  22
BRANCH   6  24
ATOM     24  O   UNL     1       3.326 -61.523 -23.811  1.00  0.00    -0.507 OA
ATOM     25  H   UNL     1       3.284 -61.871 -22.865  1.00  0.00     0.293 HD
ENDBRANCH   6  24
BRANCH   8  26
ATOM     26  O   UNL     1       5.631 -59.471 -27.489  1.00  0.00    -0.508 OA
ATOM     27  H   UNL     1       4.925 -59.663 -28.190  1.00  0.00     0.293 HD
ENDBRANCH   8  26
TORSDOF 6
ENDMDL
MODEL 7
REMARK VINA RESULT:    -5.366      2.063      4.149
REMARK INTER + INTRA:          -6.733
REMARK INTER:                  -6.433
REMARK INTRA:                  -0.300
REMARK UNBOUND:                -0.270
REMARK SMILES O=c1c(O)c(-c2ccc(O)c(O)c2)oc2cc(O)cc(O)c12
REMARK SMILES IDX 5 1 3 2 2 3 1 4 22 5 20 6 19 7 17 8 16 9 15 10 14 11 6 12
REMARK SMILES IDX 7 13 8 14 9 15 13 16 11 17 10 18 12 20 4 22 21 24 18 26
REMARK H PARENT 10 19 12 21 4 23 21 25 18 27
REMARK Flexibility Score: inf
ROOT
ATOM      1  C   UNL     1       7.530 -55.248 -21.416  1.00  0.00     0.180 A 
ATOM      2  C   UNL     1       6.593 -55.881 -22.252  1.00  0.00     0.208 A 
ATOM      3  C   UNL     1       6.064 -57.122 -21.864  1.00  0.00     0.238 A 
ATOM      4  O   UNL     1       5.268 -57.711 -22.642  1.00  0.00    -0.285 OA
ATOM      5  C   UNL     1       6.464 -57.707 -20.638  1.00  0.00     0.111 A 
ATOM      6  C   UNL     1       5.961 -58.940 -20.126  1.00  0.00     0.134 A 
ATOM      7  C   UNL     1       6.525 -59.488 -18.966  1.00  0.00     0.093 A 
ATOM      8  C   UNL     1       7.526 -58.812 -18.264  1.00  0.00     0.123 A 
ATOM      9  C   UNL     1       7.981 -57.579 -18.723  1.00  0.00     0.094 A 
ATOM     10  C   UNL     1       7.464 -57.025 -19.896  1.00  0.00     0.146 A 
ATOM     11  O   UNL     1       7.934 -55.851 -20.305  1.00  0.00    -0.452 OA
ENDROOT
BRANCH   1  12
ATOM     12  C   UNL     1       8.113 -53.928 -21.745  1.00  0.00     0.025 A 
ATOM     13  C   UNL     1       7.638 -52.748 -21.146  1.00  0.00     0.016 A 
ATOM     14  C   UNL     1       8.220 -51.515 -21.454  1.00  0.00     0.051 A 
ATOM     15  C   UNL     1       9.293 -51.444 -22.353  1.00  0.00     0.157 A 
ATOM     16  C   UNL     1       9.202 -53.853 -22.629  1.00  0.00     0.062 A 
ATOM     17  C   UNL     1       9.787 -52.620 -22.941  1.00  0.00     0.158 A 
BRANCH  15  18
ATOM     18  O   UNL     1       9.871 -50.213 -22.660  1.00  0.00    -0.504 OA
ATOM     19  H   UNL     1      10.681 -49.868 -22.158  1.00  0.00     0.293 HD
ENDBRANCH  15  18
BRANCH  17  20
ATOM     20  O   UNL     1      10.857 -52.585 -23.833  1.00  0.00    -0.504 OA
ATOM     21  H   UNL     1      11.293 -53.430 -24.184  1.00  0.00     0.293 HD
ENDBRANCH  17  20
ENDBRANCH   1  12
BRANCH   2  22
ATOM     22  O   UNL     1       6.230 -55.298 -23.469  1.00  0.00    -0.502 OA
ATOM     23  H   UNL     1       6.886 -54.780 -24.041  1.00  0.00     0.293 HD
ENDBRANCH   2  22
BRANCH   6  24
ATOM     24  O   UNL     1       4.902 -59.650 -20.699  1.00  0.00    -0.507 OA
ATOM     25  H   UNL     1       4.023 -59.838 -20.241  1.00  0.00     0.293 HD
ENDBRANCH   6  24
BRANCH   8  26
ATOM     26  O   UNL     1       8.069 -59.356 -17.103  1.00  0.00    -0.508 OA
ATOM     27  H   UNL     1       9.011 -59.132 -16.802  1.00  0.00     0.293 HD
ENDBRANCH   8  26
TORSDOF 6
ENDMDL
MODEL 8
REMARK VINA RESULT:    -5.285      1.938      6.769
REMARK INTER + INTRA:          -6.636
REMARK INTER:                  -6.443
REMARK INTRA:                  -0.193
REMARK UNBOUND:                -0.270
REMARK SMILES O=c1c(O)c(-c2ccc(O)c(O)c2)oc2cc(O)cc(O)c12
REMARK SMILES IDX 5 1 3 2 2 3 1 4 22 5 20 6 19 7 17 8 16 9 15 10 14 11 6 12
REMARK SMILES IDX 7 13 8 14 9 15 13 16 11 17 10 18 12 20 4 22 21 24 18 26
REMARK H PARENT 10 19 12 21 4 23 21 25 18 27
REMARK Flexibility Score: inf
ROOT
ATOM      1  C   UNL     1       8.565 -54.312 -21.770  1.00  0.00     0.180 A 
ATOM      2  C   UNL     1       8.780 -53.229 -20.899  1.00  0.00     0.208 A 
ATOM      3  C   UNL     1       9.406 -52.073 -21.391  1.00  0.00     0.238 A 
ATOM      4  O   UNL     1       9.645 -51.129 -20.595  1.00  0.00    -0.285 OA
ATOM      5  C   UNL     1       9.793 -52.007 -22.752  1.00  0.00     0.111 A 
ATOM      6  C   UNL     1      10.397 -50.870 -23.368  1.00  0.00     0.134 A 
ATOM      7  C   UNL     1      10.859 -50.963 -24.687  1.00  0.00     0.093 A 
ATOM      8  C   UNL     1      10.677 -52.130 -25.433  1.00  0.00     0.123 A 
ATOM      9  C   UNL     1      10.035 -53.225 -24.859  1.00  0.00     0.094 A 
ATOM     10  C   UNL     1       9.597 -53.175 -23.534  1.00  0.00     0.146 A 
ATOM     11  O   UNL     1       8.999 -54.245 -23.022  1.00  0.00    -0.452 OA
ENDROOT
BRANCH   1  12
ATOM     12  C   UNL     1       7.891 -55.555 -21.330  1.00  0.00     0.025 A 
ATOM     13  C   UNL     1       8.492 -56.426 -20.405  1.00  0.00     0.016 A 
ATOM     14  C   UNL     1       7.827 -57.581 -19.985  1.00  0.00     0.051 A 
ATOM     15  C   UNL     1       6.547 -57.876 -20.473  1.00  0.00     0.157 A 
ATOM     16  C   UNL     1       6.600 -55.845 -21.799  1.00  0.00     0.062 A 
ATOM     17  C   UNL     1       5.930 -57.001 -21.383  1.00  0.00     0.158 A 
BRANCH  15  18
ATOM     18  O   UNL     1       5.886 -59.030 -20.055  1.00  0.00    -0.504 OA
ATOM     19  H   UNL     1       4.964 -59.268 -20.402  1.00  0.00     0.293 HD
ENDBRANCH  15  18
BRANCH  17  20
ATOM     20  O   UNL     1       4.655 -57.262 -21.882  1.00  0.00    -0.504 OA
ATOM     21  H   UNL     1       3.872 -56.643 -21.709  1.00  0.00     0.293 HD
ENDBRANCH  17  20
ENDBRANCH   1  12
BRANCH   2  22
ATOM     22  O   UNL     1       8.410 -53.325 -19.554  1.00  0.00    -0.502 OA
ATOM     23  H   UNL     1       7.477 -53.101 -19.230  1.00  0.00     0.293 HD
ENDBRANCH   2  22
BRANCH   6  24
ATOM     24  O   UNL     1      10.543 -49.629 -22.742  1.00  0.00    -0.507 OA
ATOM     25  H   UNL     1      10.831 -48.781 -23.208  1.00  0.00     0.293 HD
ENDBRANCH   6  24
BRANCH   8  26
ATOM     26  O   UNL     1      11.125 -52.208 -26.749  1.00  0.00    -0.508 OA
ATOM     27  H   UNL     1      10.704 -52.846 -27.415  1.00  0.00     0.293 HD
ENDBRANCH   8  26
TORSDOF 6
ENDMDL
MODEL 9
REMARK VINA RESULT:    -5.245     10.505     11.676
REMARK INTER + INTRA:          -6.588
REMARK INTER:                  -6.350
REMARK INTRA:                  -0.239
REMARK UNBOUND:                -0.270
REMARK SMILES O=c1c(O)c(-c2ccc(O)c(O)c2)oc2cc(O)cc(O)c12
REMARK SMILES IDX 5 1 3 2 2 3 1 4 22 5 20 6 19 7 17 8 16 9 15 10 14 11 6 12
REMARK SMILES IDX 7 13 8 14 9 15 13 16 11 17 10 18 12 20 4 22 21 24 18 26
REMARK H PARENT 10 19 12 21 4 23 21 25 18 27
REMARK Flexibility Score: inf
ROOT
ATOM      1  C   UNL     1       1.927 -59.756 -28.057  1.00  0.00     0.180 A 
ATOM      2  C   UNL     1       2.834 -60.222 -27.089  1.00  0.00     0.208 A 
ATOM      3  C   UNL     1       2.335 -60.769 -25.896  1.00  0.00     0.238 A 
ATOM      4  O   UNL     1       3.150 -61.133 -25.010  1.00  0.00    -0.285 OA
ATOM      5  C   UNL     1       0.936 -60.859 -25.693  1.00  0.00     0.111 A 
ATOM      6  C   UNL     1       0.320 -61.433 -24.541  1.00  0.00     0.134 A 
ATOM      7  C   UNL     1      -1.070 -61.350 -24.388  1.00  0.00     0.093 A 
ATOM      8  C   UNL     1      -1.870 -60.774 -25.377  1.00  0.00     0.123 A 
ATOM      9  C   UNL     1      -1.283 -60.265 -26.533  1.00  0.00     0.094 A 
ATOM     10  C   UNL     1       0.103 -60.300 -26.697  1.00  0.00     0.146 A 
ATOM     11  O   UNL     1       0.624 -59.794 -27.810  1.00  0.00    -0.452 OA
ENDROOT
BRANCH   1  12
ATOM     12  C   UNL     1       2.377 -59.189 -29.349  1.00  0.00     0.025 A 
ATOM     13  C   UNL     1       2.202 -59.889 -30.555  1.00  0.00     0.016 A 
ATOM     14  C   UNL     1       2.612 -59.324 -31.766  1.00  0.00     0.051 A 
ATOM     15  C   UNL     1       3.189 -58.047 -31.791  1.00  0.00     0.157 A 
ATOM     16  C   UNL     1       2.937 -57.902 -29.382  1.00  0.00     0.062 A 
ATOM     17  C   UNL     1       3.349 -57.332 -30.593  1.00  0.00     0.158 A 
BRANCH  15  18
ATOM     18  O   UNL     1       3.600 -57.487 -33.000  1.00  0.00    -0.504 OA
ATOM     19  H   UNL     1       3.467 -56.503 -33.200  1.00  0.00     0.293 HD
ENDBRANCH  15  18
BRANCH  17  20
ATOM     20  O   UNL     1       3.914 -56.058 -30.584  1.00  0.00    -0.504 OA
ATOM     21  H   UNL     1       4.909 -55.911 -30.465  1.00  0.00     0.293 HD
ENDBRANCH  17  20
ENDBRANCH   1  12
BRANCH   2  22
ATOM     22  O   UNL     1       4.211 -60.102 -27.299  1.00  0.00    -0.502 OA
ATOM     23  H   UNL     1       4.833 -59.703 -26.607  1.00  0.00     0.293 HD
ENDBRANCH   2  22
BRANCH   6  24
ATOM     24  O   UNL     1       1.019 -62.112 -23.539  1.00  0.00    -0.507 OA
ATOM     25  H   UNL     1       1.971 -61.914 -23.268  1.00  0.00     0.293 HD
ENDBRANCH   6  24
BRANCH   8  26
ATOM     26  O   UNL     1      -3.253 -60.710 -25.224  1.00  0.00    -0.508 OA
ATOM     27  H   UNL     1      -3.733 -61.245 -24.509  1.00  0.00     0.293 HD
ENDBRANCH   8  26
TORSDOF 6
ENDMDL
