MODEL 1
REMARK VINA RESULT:    -3.488      0.000      0.000
REMARK INTER + INTRA:          -4.213
REMARK INTER:                  -4.100
REMARK INTRA:                  -0.113
REMARK UNBOUND:                -0.113
REMARK SMILES O=C([O-])CCC(=O)[O-]
REMARK SMILES IDX 4 1 2 2 1 3 3 4 5 5 6 6 7 7 8 8
REMARK H PARENT
REMARK Flexibility Score: inf
ROOT
ATOM      1  C   UNL     1     -16.635  35.581 -18.836  1.00  0.00     0.059 C 
ENDROOT
BRANCH   1   2
ATOM      2  C   UNL     1     -15.338  34.893 -18.540  1.00  0.00     0.042 C 
ATOM      3  O   UNL     1     -14.897  34.009 -19.320  1.00  0.00    -0.550 OA
ATOM      4  O   UNL     1     -14.597  35.256 -17.423  1.00  0.00    -0.550 OA
ENDBRANCH   1   2
BRANCH   1   5
ATOM      5  C   UNL     1     -17.823  34.829 -18.228  1.00  0.00     0.059 C 
BRANCH   5   6
ATOM      6  C   UNL     1     -18.727  34.278 -19.288  1.00  0.00     0.042 C 
ATOM      7  O   UNL     1     -18.295  34.094 -20.457  1.00  0.00    -0.550 OA
ATOM      8  O   UNL     1     -20.035  33.930 -18.975  1.00  0.00    -0.550 OA
ENDBRANCH   5   6
ENDBRANCH   1   5
TORSDOF 3
ENDMDL
MODEL 2
REMARK VINA RESULT:    -3.474      0.324      3.959
REMARK INTER + INTRA:          -4.197
REMARK INTER:                  -4.090
REMARK INTRA:                  -0.106
REMARK UNBOUND:                -0.113
REMARK SMILES O=C([O-])CCC(=O)[O-]
REMARK SMILES IDX 4 1 2 2 1 3 3 4 5 5 6 6 7 7 8 8
REMARK H PARENT
REMARK Flexibility Score: inf
ROOT
ATOM      1  C   UNL     1     -17.761  34.593 -18.448  1.00  0.00     0.059 C 
ENDROOT
BRANCH   1   2
ATOM      2  C   UNL     1     -18.603  34.301 -19.652  1.00  0.00     0.042 C 
ATOM      3  O   UNL     1     -18.115  34.404 -20.807  1.00  0.00    -0.550 OA
ATOM      4  O   UNL     1     -19.916  33.878 -19.495  1.00  0.00    -0.550 OA
ENDBRANCH   1   2
BRANCH   1   5
ATOM      5  C   UNL     1     -16.610  35.546 -18.784  1.00  0.00     0.059 C 
BRANCH   5   6
ATOM      6  C   UNL     1     -15.278  34.929 -18.482  1.00  0.00     0.042 C 
ATOM      7  O   UNL     1     -14.784  34.074 -19.262  1.00  0.00    -0.550 OA
ATOM      8  O   UNL     1     -14.566  35.330 -17.358  1.00  0.00    -0.550 OA
ENDBRANCH   5   6
ENDBRANCH   1   5
TORSDOF 3
ENDMDL
MODEL 3
REMARK VINA RESULT:    -3.440      1.006      1.277
REMARK INTER + INTRA:          -4.156
REMARK INTER:                  -4.095
REMARK INTRA:                  -0.061
REMARK UNBOUND:                -0.113
REMARK SMILES O=C([O-])CCC(=O)[O-]
REMARK SMILES IDX 4 1 2 2 1 3 3 4 5 5 6 6 7 7 8 8
REMARK H PARENT
REMARK Flexibility Score: inf
ROOT
ATOM      1  C   UNL     1     -16.453  35.583 -18.824  1.00  0.00     0.059 C 
ENDROOT
BRANCH   1   2
ATOM      2  C   UNL     1     -15.174  34.908 -18.434  1.00  0.00     0.042 C 
ATOM      3  O   UNL     1     -14.691  33.998 -19.157  1.00  0.00    -0.550 OA
ATOM      4  O   UNL     1     -14.495  35.312 -17.292  1.00  0.00    -0.550 OA
ENDBRANCH   1   2
BRANCH   1   5
ATOM      5  C   UNL     1     -17.496  34.574 -19.313  1.00  0.00     0.059 C 
BRANCH   5   6
ATOM      6  C   UNL     1     -18.764  34.664 -18.520  1.00  0.00     0.042 C 
ATOM      7  O   UNL     1     -18.816  35.379 -17.485  1.00  0.00    -0.550 OA
ATOM      8  O   UNL     1     -19.901  33.988 -18.947  1.00  0.00    -0.550 OA
ENDBRANCH   5   6
ENDBRANCH   1   5
TORSDOF 3
ENDMDL
MODEL 4
REMARK VINA RESULT:    -3.260      1.365      1.787
REMARK INTER + INTRA:          -3.945
REMARK INTER:                  -3.853
REMARK INTRA:                  -0.092
REMARK UNBOUND:                -0.113
REMARK SMILES O=C([O-])CCC(=O)[O-]
REMARK SMILES IDX 4 1 2 2 1 3 3 4 5 5 6 6 7 7 8 8
REMARK H PARENT
REMARK Flexibility Score: inf
ROOT
ATOM      1  C   UNL     1     -16.142  34.025 -19.333  1.00  0.00     0.059 C 
ENDROOT
BRANCH   1   2
ATOM      2  C   UNL     1     -15.575  35.118 -18.480  1.00  0.00     0.042 C 
ATOM      3  O   UNL     1     -16.274  36.125 -18.192  1.00  0.00    -0.550 OA
ATOM      4  O   UNL     1     -14.289  35.006 -17.970  1.00  0.00    -0.550 OA
ENDBRANCH   1   2
BRANCH   1   5
ATOM      5  C   UNL     1     -17.021  34.586 -20.456  1.00  0.00     0.059 C 
BRANCH   5   6
ATOM      6  C   UNL     1     -18.477  34.374 -20.173  1.00  0.00     0.042 C 
ATOM      7  O   UNL     1     -18.847  33.913 -19.062  1.00  0.00    -0.550 OA
ATOM      8  O   UNL     1     -19.428  34.723 -21.125  1.00  0.00    -0.550 OA
ENDBRANCH   5   6
ENDBRANCH   1   5
TORSDOF 3
ENDMDL
MODEL 5
REMARK VINA RESULT:    -2.824      1.798      3.936
REMARK INTER + INTRA:          -3.433
REMARK INTER:                  -3.321
REMARK INTRA:                  -0.111
REMARK UNBOUND:                -0.113
REMARK SMILES O=C([O-])CCC(=O)[O-]
REMARK SMILES IDX 4 1 2 2 1 3 3 4 5 5 6 6 7 7 8 8
REMARK H PARENT
REMARK Flexibility Score: inf
ROOT
ATOM      1  C   UNL     1     -18.030  34.586 -20.713  1.00  0.00     0.059 C 
ENDROOT
BRANCH   1   2
ATOM      2  C   UNL     1     -19.492  34.767 -20.440  1.00  0.00     0.042 C 
ATOM      3  O   UNL     1     -20.099  35.779 -20.877  1.00  0.00    -0.550 OA
ATOM      4  O   UNL     1     -20.191  33.797 -19.733  1.00  0.00    -0.550 OA
ENDBRANCH   1   2
BRANCH   1   5
ATOM      5  C   UNL     1     -17.298  34.000 -19.502  1.00  0.00     0.059 C 
BRANCH   5   6
ATOM      6  C   UNL     1     -17.181  35.000 -18.393  1.00  0.00     0.042 C 
ATOM      7  O   UNL     1     -16.262  35.861 -18.409  1.00  0.00    -0.550 OA
ATOM      8  O   UNL     1     -18.111  35.006 -17.360  1.00  0.00    -0.550 OA
ENDBRANCH   5   6
ENDBRANCH   1   5
TORSDOF 3
ENDMDL
MODEL 6
REMARK VINA RESULT:    -2.564      1.902      4.089
REMARK INTER + INTRA:          -3.127
REMARK INTER:                  -3.017
REMARK INTRA:                  -0.110
REMARK UNBOUND:                -0.113
REMARK SMILES O=C([O-])CCC(=O)[O-]
REMARK SMILES IDX 4 1 2 2 1 3 3 4 5 5 6 6 7 7 8 8
REMARK H PARENT
REMARK Flexibility Score: inf
ROOT
ATOM      1  C   UNL     1     -18.564  34.908 -18.157  1.00  0.00     0.059 C 
ENDROOT
BRANCH   1   2
ATOM      2  C   UNL     1     -19.986  34.799 -18.615  1.00  0.00     0.042 C 
ATOM      3  O   UNL     1     -20.779  35.763 -18.455  1.00  0.00    -0.550 OA
ATOM      4  O   UNL     1     -20.424  33.646 -19.253  1.00  0.00    -0.550 OA
ENDBRANCH   1   2
BRANCH   1   5
ATOM      5  C   UNL     1     -17.646  35.399 -19.280  1.00  0.00     0.059 C 
BRANCH   5   6
ATOM      6  C   UNL     1     -16.844  34.278 -19.867  1.00  0.00     0.042 C 
ATOM      7  O   UNL     1     -16.719  33.193 -19.241  1.00  0.00    -0.550 OA
ATOM      8  O   UNL     1     -16.267  34.419 -21.124  1.00  0.00    -0.550 OA
ENDBRANCH   5   6
ENDBRANCH   1   5
TORSDOF 3
ENDMDL
MODEL 7
REMARK VINA RESULT:    -2.494     24.372     25.386
REMARK INTER + INTRA:          -3.044
REMARK INTER:                  -2.947
REMARK INTRA:                  -0.097
REMARK UNBOUND:                -0.113
REMARK SMILES O=C([O-])CCC(=O)[O-]
REMARK SMILES IDX 4 1 2 2 1 3 3 4 5 5 6 6 7 7 8 8
REMARK H PARENT
REMARK Flexibility Score: inf
ROOT
ATOM      1  C   UNL     1      -6.204  19.750  -1.919  1.00  0.00     0.059 C 
ENDROOT
BRANCH   1   2
ATOM      2  C   UNL     1      -5.408  18.716  -1.185  1.00  0.00     0.042 C 
ATOM      3  O   UNL     1      -5.931  17.614  -0.875  1.00  0.00    -0.550 OA
ATOM      4  O   UNL     1      -4.075  18.954  -0.877  1.00  0.00    -0.550 OA
ENDBRANCH   1   2
BRANCH   1   5
ATOM      5  C   UNL     1      -7.405  20.225  -1.095  1.00  0.00     0.059 C 
BRANCH   5   6
ATOM      6  C   UNL     1      -8.688  19.642  -1.604  1.00  0.00     0.042 C 
ATOM      7  O   UNL     1      -9.061  18.501  -1.224  1.00  0.00    -0.550 OA
ATOM      8  O   UNL     1      -9.491  20.377  -2.469  1.00  0.00    -0.550 OA
ENDBRANCH   5   6
ENDBRANCH   1   5
TORSDOF 3
ENDMDL
MODEL 8
REMARK VINA RESULT:    -2.359     24.417     25.684
REMARK INTER + INTRA:          -2.886
REMARK INTER:                  -3.055
REMARK INTRA:                   0.170
REMARK UNBOUND:                -0.113
REMARK SMILES O=C([O-])CCC(=O)[O-]
REMARK SMILES IDX 4 1 2 2 1 3 3 4 5 5 6 6 7 7 8 8
REMARK H PARENT
REMARK Flexibility Score: inf
ROOT
ATOM      1  C   UNL     1      -7.365  20.352  -1.158  1.00  0.00     0.059 C 
ENDROOT
BRANCH   1   2
ATOM      2  C   UNL     1      -8.628  19.632  -1.522  1.00  0.00     0.042 C 
ATOM      3  O   UNL     1      -9.395  20.103  -2.401  1.00  0.00    -0.550 OA
ATOM      4  O   UNL     1      -8.936  18.422  -0.917  1.00  0.00    -0.550 OA
ENDBRANCH   1   2
BRANCH   1   5
ATOM      5  C   UNL     1      -6.165  19.816  -1.944  1.00  0.00     0.059 C 
BRANCH   5   6
ATOM      6  C   UNL     1      -5.460  18.724  -1.198  1.00  0.00     0.042 C 
ATOM      7  O   UNL     1      -6.078  17.676  -0.876  1.00  0.00    -0.550 OA
ATOM      8  O   UNL     1      -4.110  18.849  -0.894  1.00  0.00    -0.550 OA
ENDBRANCH   5   6
ENDBRANCH   1   5
TORSDOF 3
ENDMDL
MODEL 9
REMARK VINA RESULT:    -2.207      1.917      2.265
REMARK INTER + INTRA:          -2.707
REMARK INTER:                  -2.633
REMARK INTRA:                  -0.074
REMARK UNBOUND:                -0.113
REMARK SMILES O=C([O-])CCC(=O)[O-]
REMARK SMILES IDX 4 1 2 2 1 3 3 4 5 5 6 6 7 7 8 8
REMARK H PARENT
REMARK Flexibility Score: inf
ROOT
ATOM      1  C   UNL     1     -17.776  35.798 -18.951  1.00  0.00     0.059 C 
ENDROOT
BRANCH   1   2
ATOM      2  C   UNL     1     -16.616  34.851 -18.978  1.00  0.00     0.042 C 
ATOM      3  O   UNL     1     -16.522  33.989 -19.891  1.00  0.00    -0.550 OA
ATOM      4  O   UNL     1     -15.618  34.946 -18.017  1.00  0.00    -0.550 OA
ENDBRANCH   1   2
BRANCH   1   5
ATOM      5  C   UNL     1     -19.100  35.060 -18.733  1.00  0.00     0.059 C 
BRANCH   5   6
ATOM      6  C   UNL     1     -19.772  35.496 -17.467  1.00  0.00     0.042 C 
ATOM      7  O   UNL     1     -19.125  36.125 -16.590  1.00  0.00    -0.550 OA
ATOM      8  O   UNL     1     -21.125  35.241 -17.275  1.00  0.00    -0.550 OA
ENDBRANCH   5   6
ENDBRANCH   1   5
TORSDOF 3
ENDMDL
