MODEL 1
REMARK VINA RESULT:    -3.413      0.000      0.000
REMARK INTER + INTRA:          -3.753
REMARK INTER:                  -3.612
REMARK INTRA:                  -0.141
REMARK UNBOUND:                -0.141
REMARK SMILES CC(C)[C@@H]1CC[C@@H](C)CC1=O
REMARK SMILES IDX 8 1 7 2 6 3 5 4 4 5 10 6 11 7 9 8 2 9 1 10 3 11
REMARK H PARENT
REMARK Flexibility Score: inf
ROOT
ATOM      1  C   UNL     1     133.239 140.659 140.283  1.00  0.00     0.008 C 
ATOM      2  C   UNL     1     134.337 140.740 141.349  1.00  0.00    -0.007 C 
ATOM      3  C   UNL     1     134.255 142.078 142.110  1.00  0.00     0.004 C 
ATOM      4  C   UNL     1     135.330 142.148 143.204  1.00  0.00     0.012 C 
ATOM      5  C   UNL     1     136.751 142.010 142.611  1.00  0.00     0.058 C 
ATOM      6  C   UNL     1     136.813 140.773 141.727  1.00  0.00     0.136 C 
ATOM      7  O   UNL     1     137.767 140.011 141.751  1.00  0.00    -0.299 OA
ATOM      8  C   UNL     1     135.725 140.558 140.709  1.00  0.00     0.079 C 
ENDROOT
BRANCH   5   9
ATOM      9  C   UNL     1     137.849 142.116 143.718  1.00  0.00    -0.007 C 
ATOM     10  C   UNL     1     139.142 142.820 143.265  1.00  0.00     0.008 C 
ATOM     11  C   UNL     1     137.307 142.757 145.006  1.00  0.00     0.008 C 
ENDBRANCH   5   9
TORSDOF 1
ENDMDL
MODEL 2
REMARK VINA RESULT:    -3.408      7.550     10.046
REMARK INTER + INTRA:          -3.748
REMARK INTER:                  -3.618
REMARK INTRA:                  -0.130
REMARK UNBOUND:                -0.141
REMARK SMILES CC(C)[C@@H]1CC[C@@H](C)CC1=O
REMARK SMILES IDX 8 1 7 2 6 3 5 4 4 5 10 6 11 7 9 8 2 9 1 10 3 11
REMARK H PARENT
REMARK Flexibility Score: inf
ROOT
ATOM      1  C   UNL     1     148.081 141.133 139.959  1.00  0.00     0.008 C 
ATOM      2  C   UNL     1     147.138 141.005 141.161  1.00  0.00    -0.007 C 
ATOM      3  C   UNL     1     147.355 139.658 141.877  1.00  0.00     0.004 C 
ATOM      4  C   UNL     1     146.439 139.542 143.104  1.00  0.00     0.012 C 
ATOM      5  C   UNL     1     144.948 139.649 142.709  1.00  0.00     0.058 C 
ATOM      6  C   UNL     1     144.737 140.898 141.866  1.00  0.00     0.136 C 
ATOM      7  O   UNL     1     143.775 141.632 142.031  1.00  0.00    -0.299 OA
ATOM      8  C   UNL     1     145.672 141.159 140.716  1.00  0.00     0.079 C 
ENDROOT
BRANCH   5   9
ATOM      9  C   UNL     1     144.011 139.495 143.950  1.00  0.00    -0.007 C 
ATOM     10  C   UNL     1     142.667 138.807 143.651  1.00  0.00     0.008 C 
ATOM     11  C   UNL     1     144.722 138.803 145.125  1.00  0.00     0.008 C 
ENDBRANCH   5   9
TORSDOF 1
ENDMDL
MODEL 3
REMARK VINA RESULT:    -3.399      5.927      7.024
REMARK INTER + INTRA:          -3.739
REMARK INTER:                  -3.601
REMARK INTRA:                  -0.138
REMARK UNBOUND:                -0.141
REMARK SMILES CC(C)[C@@H]1CC[C@@H](C)CC1=O
REMARK SMILES IDX 8 1 7 2 6 3 5 4 4 5 10 6 11 7 9 8 2 9 1 10 3 11
REMARK H PARENT
REMARK Flexibility Score: inf
ROOT
ATOM      1  C   UNL     1     140.488 148.051 139.925  1.00  0.00     0.008 C 
ATOM      2  C   UNL     1     140.624 147.114 141.130  1.00  0.00    -0.007 C 
ATOM      3  C   UNL     1     141.984 147.318 141.825  1.00  0.00     0.004 C 
ATOM      4  C   UNL     1     142.109 146.408 143.055  1.00  0.00     0.012 C 
ATOM      5  C   UNL     1     141.978 144.916 142.670  1.00  0.00     0.058 C 
ATOM      6  C   UNL     1     140.714 144.715 141.847  1.00  0.00     0.136 C 
ATOM      7  O   UNL     1     139.971 143.763 142.029  1.00  0.00    -0.299 OA
ATOM      8  C   UNL     1     140.446 145.647 140.696  1.00  0.00     0.079 C 
ENDROOT
BRANCH   5   9
ATOM      9  C   UNL     1     142.140 143.984 143.914  1.00  0.00    -0.007 C 
ATOM     10  C   UNL     1     142.839 142.645 143.618  1.00  0.00     0.008 C 
ATOM     11  C   UNL     1     142.825 144.705 145.087  1.00  0.00     0.008 C 
ENDBRANCH   5   9
TORSDOF 1
ENDMDL
MODEL 4
REMARK VINA RESULT:    -3.377      6.028      7.148
REMARK INTER + INTRA:          -3.715
REMARK INTER:                  -3.587
REMARK INTRA:                  -0.128
REMARK UNBOUND:                -0.141
REMARK SMILES CC(C)[C@@H]1CC[C@@H](C)CC1=O
REMARK SMILES IDX 8 1 7 2 6 3 5 4 4 5 10 6 11 7 9 8 2 9 1 10 3 11
REMARK H PARENT
REMARK Flexibility Score: inf
ROOT
ATOM      1  C   UNL     1     141.243 133.708 139.912  1.00  0.00     0.008 C 
ATOM      2  C   UNL     1     141.079 134.616 141.135  1.00  0.00    -0.007 C 
ATOM      3  C   UNL     1     139.726 134.356 141.826  1.00  0.00     0.004 C 
ATOM      4  C   UNL     1     139.574 135.237 143.074  1.00  0.00     0.012 C 
ATOM      5  C   UNL     1     139.659 136.739 142.720  1.00  0.00     0.058 C 
ATOM      6  C   UNL     1     140.916 136.996 141.901  1.00  0.00     0.136 C 
ATOM      7  O   UNL     1     141.629 137.966 142.103  1.00  0.00    -0.299 OA
ATOM      8  C   UNL     1     141.212 136.096 140.731  1.00  0.00     0.079 C 
ENDROOT
BRANCH   5   9
ATOM      9  C   UNL     1     139.469 137.640 143.982  1.00  0.00    -0.007 C 
ATOM     10  C   UNL     1     138.767 138.982 143.706  1.00  0.00     0.008 C 
ATOM     11  C   UNL     1     138.767 136.888 145.125  1.00  0.00     0.008 C 
ENDBRANCH   5   9
TORSDOF 1
ENDMDL
MODEL 5
REMARK VINA RESULT:    -3.365      7.037      8.178
REMARK INTER + INTRA:          -3.702
REMARK INTER:                  -3.530
REMARK INTRA:                  -0.172
REMARK UNBOUND:                -0.141
REMARK SMILES CC(C)[C@@H]1CC[C@@H](C)CC1=O
REMARK SMILES IDX 8 1 7 2 6 3 5 4 4 5 10 6 11 7 9 8 2 9 1 10 3 11
REMARK H PARENT
REMARK Flexibility Score: inf
ROOT
ATOM      1  C   UNL     1     140.499 148.941 138.637  1.00  0.00     0.008 C 
ATOM      2  C   UNL     1     141.127 147.947 139.620  1.00  0.00    -0.007 C 
ATOM      3  C   UNL     1     140.042 147.056 140.256  1.00  0.00     0.004 C 
ATOM      4  C   UNL     1     140.671 146.033 141.213  1.00  0.00     0.012 C 
ATOM      5  C   UNL     1     141.457 146.730 142.348  1.00  0.00     0.058 C 
ATOM      6  C   UNL     1     142.432 147.732 141.747  1.00  0.00     0.136 C 
ATOM      7  O   UNL     1     143.575 147.846 142.161  1.00  0.00    -0.299 OA
ATOM      8  C   UNL     1     141.928 148.692 140.703  1.00  0.00     0.079 C 
ENDROOT
BRANCH   5   9
ATOM      9  C   UNL     1     142.068 145.693 143.345  1.00  0.00    -0.007 C 
ATOM     10  C   UNL     1     141.360 145.631 144.711  1.00  0.00     0.008 C 
ATOM     11  C   UNL     1     142.170 144.290 142.724  1.00  0.00     0.008 C 
ENDBRANCH   5   9
TORSDOF 1
ENDMDL
MODEL 6
REMARK VINA RESULT:    -3.363      7.185      8.328
REMARK INTER + INTRA:          -3.700
REMARK INTER:                  -3.529
REMARK INTRA:                  -0.171
REMARK UNBOUND:                -0.141
REMARK SMILES CC(C)[C@@H]1CC[C@@H](C)CC1=O
REMARK SMILES IDX 8 1 7 2 6 3 5 4 4 5 10 6 11 7 9 8 2 9 1 10 3 11
REMARK H PARENT
REMARK Flexibility Score: inf
ROOT
ATOM      1  C   UNL     1     141.211 132.766 138.639  1.00  0.00     0.008 C 
ATOM      2  C   UNL     1     140.553 133.750 139.611  1.00  0.00    -0.007 C 
ATOM      3  C   UNL     1     141.614 134.662 140.259  1.00  0.00     0.004 C 
ATOM      4  C   UNL     1     140.954 135.675 141.206  1.00  0.00     0.012 C 
ATOM      5  C   UNL     1     140.167 134.967 142.332  1.00  0.00     0.058 C 
ATOM      6  C   UNL     1     139.218 133.946 141.721  1.00  0.00     0.136 C 
ATOM      7  O   UNL     1     138.071 133.813 142.121  1.00  0.00    -0.299 OA
ATOM      8  C   UNL     1     139.752 132.993 140.686  1.00  0.00     0.079 C 
ENDROOT
BRANCH   5   9
ATOM      9  C   UNL     1     139.524 135.995 143.318  1.00  0.00    -0.007 C 
ATOM     10  C   UNL     1     140.194 136.052 144.703  1.00  0.00     0.008 C 
ATOM     11  C   UNL     1     139.432 137.401 142.704  1.00  0.00     0.008 C 
ENDBRANCH   5   9
TORSDOF 1
ENDMDL
MODEL 7
REMARK VINA RESULT:    -3.326      1.354      4.278
REMARK INTER + INTRA:          -3.662
REMARK INTER:                  -3.488
REMARK INTRA:                  -0.174
REMARK UNBOUND:                -0.141
REMARK SMILES CC(C)[C@@H]1CC[C@@H](C)CC1=O
REMARK SMILES IDX 8 1 7 2 6 3 5 4 4 5 10 6 11 7 9 8 2 9 1 10 3 11
REMARK H PARENT
REMARK Flexibility Score: inf
ROOT
ATOM      1  C   UNL     1     139.006 142.372 145.010  1.00  0.00     0.008 C 
ATOM      2  C   UNL     1     137.797 142.512 144.079  1.00  0.00    -0.007 C 
ATOM      3  C   UNL     1     136.600 141.707 144.623  1.00  0.00     0.004 C 
ATOM      4  C   UNL     1     135.374 141.875 143.713  1.00  0.00     0.012 C 
ATOM      5  C   UNL     1     135.670 141.396 142.272  1.00  0.00     0.058 C 
ATOM      6  C   UNL     1     136.941 142.064 141.768  1.00  0.00     0.136 C 
ATOM      7  O   UNL     1     137.028 142.508 140.634  1.00  0.00    -0.299 OA
ATOM      8  C   UNL     1     138.158 142.060 142.653  1.00  0.00     0.079 C 
ENDROOT
BRANCH   5   9
ATOM      9  C   UNL     1     134.414 141.532 141.352  1.00  0.00    -0.007 C 
ATOM     10  C   UNL     1     133.473 140.313 141.378  1.00  0.00     0.008 C 
ATOM     11  C   UNL     1     133.631 142.825 141.634  1.00  0.00     0.008 C 
ENDBRANCH   5   9
TORSDOF 1
ENDMDL
MODEL 8
REMARK VINA RESULT:    -3.276      7.857      9.877
REMARK INTER + INTRA:          -3.608
REMARK INTER:                  -3.442
REMARK INTRA:                  -0.166
REMARK UNBOUND:                -0.141
REMARK SMILES CC(C)[C@@H]1CC[C@@H](C)CC1=O
REMARK SMILES IDX 8 1 7 2 6 3 5 4 4 5 10 6 11 7 9 8 2 9 1 10 3 11
REMARK H PARENT
REMARK Flexibility Score: inf
ROOT
ATOM      1  C   UNL     1     142.783 139.188 144.981  1.00  0.00     0.008 C 
ATOM      2  C   UNL     1     143.987 139.101 144.036  1.00  0.00    -0.007 C 
ATOM      3  C   UNL     1     145.136 139.998 144.539  1.00  0.00     0.004 C 
ATOM      4  C   UNL     1     146.357 139.885 143.615  1.00  0.00     0.012 C 
ATOM      5  C   UNL     1     146.011 140.301 142.167  1.00  0.00     0.058 C 
ATOM      6  C   UNL     1     144.780 139.537 141.701  1.00  0.00     0.136 C 
ATOM      7  O   UNL     1     144.707 139.056 140.581  1.00  0.00    -0.299 OA
ATOM      8  C   UNL     1     143.577 139.487 142.603  1.00  0.00     0.079 C 
ENDROOT
BRANCH   5   9
ATOM      9  C   UNL     1     147.260 140.222 141.232  1.00  0.00    -0.007 C 
ATOM     10  C   UNL     1     148.163 141.469 141.269  1.00  0.00     0.008 C 
ATOM     11  C   UNL     1     148.087 138.949 141.483  1.00  0.00     0.008 C 
ENDBRANCH   5   9
TORSDOF 1
ENDMDL
MODEL 9
REMARK VINA RESULT:    -3.252      6.667      7.668
REMARK INTER + INTRA:          -3.583
REMARK INTER:                  -3.414
REMARK INTRA:                  -0.169
REMARK UNBOUND:                -0.141
REMARK SMILES CC(C)[C@@H]1CC[C@@H](C)CC1=O
REMARK SMILES IDX 8 1 7 2 6 3 5 4 4 5 10 6 11 7 9 8 2 9 1 10 3 11
REMARK H PARENT
REMARK Flexibility Score: inf
ROOT
ATOM      1  C   UNL     1     142.386 142.682 145.102  1.00  0.00     0.008 C 
ATOM      2  C   UNL     1     142.504 143.871 144.142  1.00  0.00    -0.007 C 
ATOM      3  C   UNL     1     141.671 145.064 144.652  1.00  0.00     0.004 C 
ATOM      4  C   UNL     1     141.817 146.270 143.713  1.00  0.00     0.012 C 
ATOM      5  C   UNL     1     141.351 145.928 142.279  1.00  0.00     0.058 C 
ATOM      6  C   UNL     1     142.049 144.660 141.808  1.00  0.00     0.136 C 
ATOM      7  O   UNL     1     142.499 144.554 140.679  1.00  0.00    -0.299 OA
ATOM      8  C   UNL     1     142.066 143.465 142.723  1.00  0.00     0.079 C 
ENDROOT
BRANCH   5   9
ATOM      9  C   UNL     1     141.464 147.164 141.328  1.00  0.00    -0.007 C 
ATOM     10  C   UNL     1     140.250 148.110 141.368  1.00  0.00     0.008 C 
ATOM     11  C   UNL     1     142.768 147.948 141.556  1.00  0.00     0.008 C 
ENDBRANCH   5   9
TORSDOF 1
ENDMDL
