MODEL 1
REMARK VINA RESULT:    -2.091      0.000      0.000
REMARK INTER + INTRA:          -2.091
REMARK INTER:                  -2.091
REMARK INTRA:                   0.000
REMARK UNBOUND:                 0.000
REMARK SMILES CC(=O)[O-]
REMARK SMILES IDX 1 1 2 2 3 3 4 4
REMARK H PARENT
REMARK Flexibility Score: inf
ROOT
ATOM      1  C   UNL     1      15.935 -17.298  14.838  1.00  0.00     0.063 C 
ATOM      2  C   UNL     1      17.182 -17.166  14.031  1.00  0.00     0.038 C 
ATOM      3  O   UNL     1      17.172 -16.514  12.954  1.00  0.00    -0.550 OA
ATOM      4  O   UNL     1      18.370 -17.719  14.492  1.00  0.00    -0.550 OA
ENDROOT
TORSDOF 0
ENDMDL
MODEL 2
REMARK VINA RESULT:    -2.025     17.789     18.207
REMARK INTER + INTRA:          -2.025
REMARK INTER:                  -2.025
REMARK INTRA:                   0.000
REMARK UNBOUND:                 0.000
REMARK SMILES CC(=O)[O-]
REMARK SMILES IDX 1 1 2 2 3 3 4 4
REMARK H PARENT
REMARK Flexibility Score: inf
ROOT
ATOM      1  C   UNL     1      14.823   0.921  13.087  1.00  0.00     0.063 C 
ATOM      2  C   UNL     1      15.994   0.809  12.170  1.00  0.00     0.038 C 
ATOM      3  O   UNL     1      16.995   0.123  12.503  1.00  0.00    -0.550 OA
ATOM      4  O   UNL     1      15.961   1.419  10.922  1.00  0.00    -0.550 OA
ENDROOT
TORSDOF 0
ENDMDL
MODEL 3
REMARK VINA RESULT:    -1.981     11.372     11.934
REMARK INTER + INTRA:          -1.981
REMARK INTER:                  -1.981
REMARK INTRA:                   0.000
REMARK UNBOUND:                 0.000
REMARK SMILES CC(=O)[O-]
REMARK SMILES IDX 1 1 2 2 3 3 4 4
REMARK H PARENT
REMARK Flexibility Score: inf
ROOT
ATOM      1  C   UNL     1      25.347 -10.006   7.443  1.00  0.00     0.063 C 
ATOM      2  C   UNL     1      24.092  -9.689   8.184  1.00  0.00     0.038 C 
ATOM      3  O   UNL     1      23.672  -8.503   8.238  1.00  0.00    -0.550 OA
ATOM      4  O   UNL     1      23.355 -10.709   8.771  1.00  0.00    -0.550 OA
ENDROOT
TORSDOF 0
ENDMDL
MODEL 4
REMARK VINA RESULT:    -1.980     17.973     18.383
REMARK INTER + INTRA:          -1.980
REMARK INTER:                  -1.980
REMARK INTRA:                   0.000
REMARK UNBOUND:                 0.000
REMARK SMILES CC(=O)[O-]
REMARK SMILES IDX 1 1 2 2 3 3 4 4
REMARK H PARENT
REMARK Flexibility Score: inf
ROOT
ATOM      1  C   UNL     1      15.529   1.960  11.658  1.00  0.00     0.063 C 
ATOM      2  C   UNL     1      15.374   0.900  12.696  1.00  0.00     0.038 C 
ATOM      3  O   UNL     1      16.326   0.114  12.944  1.00  0.00    -0.550 OA
ATOM      4  O   UNL     1      14.197   0.811  13.428  1.00  0.00    -0.550 OA
ENDROOT
TORSDOF 0
ENDMDL
MODEL 5
REMARK VINA RESULT:    -1.967      7.381      7.931
REMARK INTER + INTRA:          -1.967
REMARK INTER:                  -1.967
REMARK INTRA:                   0.000
REMARK UNBOUND:                 0.000
REMARK SMILES CC(=O)[O-]
REMARK SMILES IDX 1 1 2 2 3 3 4 4
REMARK H PARENT
REMARK Flexibility Score: inf
ROOT
ATOM      1  C   UNL     1      21.068 -15.053   6.924  1.00  0.00     0.063 C 
ATOM      2  C   UNL     1      21.390 -14.575   8.299  1.00  0.00     0.038 C 
ATOM      3  O   UNL     1      21.719 -15.397   9.194  1.00  0.00    -0.550 OA
ATOM      4  O   UNL     1      21.377 -13.215   8.584  1.00  0.00    -0.550 OA
ENDROOT
TORSDOF 0
ENDMDL
MODEL 6
REMARK VINA RESULT:    -1.967     11.948     12.450
REMARK INTER + INTRA:          -1.967
REMARK INTER:                  -1.967
REMARK INTRA:                   0.000
REMARK UNBOUND:                 0.000
REMARK SMILES CC(=O)[O-]
REMARK SMILES IDX 1 1 2 2 3 3 4 4
REMARK H PARENT
REMARK Flexibility Score: inf
ROOT
ATOM      1  C   UNL     1      24.065 -10.335   8.757  1.00  0.00     0.063 C 
ATOM      2  C   UNL     1      24.303  -9.110   7.941  1.00  0.00     0.038 C 
ATOM      3  O   UNL     1      25.205  -9.100   7.063  1.00  0.00    -0.550 OA
ATOM      4  O   UNL     1      23.493  -7.994   8.109  1.00  0.00    -0.550 OA
ENDROOT
TORSDOF 0
ENDMDL
MODEL 7
REMARK VINA RESULT:    -1.966     11.542     12.050
REMARK INTER + INTRA:          -1.966
REMARK INTER:                  -1.966
REMARK INTRA:                   0.000
REMARK UNBOUND:                 0.000
REMARK SMILES CC(=O)[O-]
REMARK SMILES IDX 1 1 2 2 3 3 4 4
REMARK H PARENT
REMARK Flexibility Score: inf
ROOT
ATOM      1  C   UNL     1      23.698  -8.201   8.014  1.00  0.00     0.063 C 
ATOM      2  C   UNL     1      24.266  -9.567   8.206  1.00  0.00     0.038 C 
ATOM      3  O   UNL     1      25.470  -9.798   7.921  1.00  0.00    -0.550 OA
ATOM      4  O   UNL     1      23.481 -10.576   8.750  1.00  0.00    -0.550 OA
ENDROOT
TORSDOF 0
ENDMDL
MODEL 8
REMARK VINA RESULT:    -1.955     13.274     13.821
REMARK INTER + INTRA:          -1.955
REMARK INTER:                  -1.955
REMARK INTRA:                   0.000
REMARK UNBOUND:                 0.000
REMARK SMILES CC(=O)[O-]
REMARK SMILES IDX 1 1 2 2 3 3 4 4
REMARK H PARENT
REMARK Flexibility Score: inf
ROOT
ATOM      1  C   UNL     1      23.739  -8.406   8.063  1.00  0.00     0.063 C 
ATOM      2  C   UNL     1      23.702  -7.032   7.485  1.00  0.00     0.038 C 
ATOM      3  O   UNL     1      23.013  -6.133   8.034  1.00  0.00    -0.550 OA
ATOM      4  O   UNL     1      24.470  -6.727   6.368  1.00  0.00    -0.550 OA
ENDROOT
TORSDOF 0
ENDMDL
MODEL 9
REMARK VINA RESULT:    -1.941      1.380      2.031
REMARK INTER + INTRA:          -1.941
REMARK INTER:                  -1.941
REMARK INTRA:                   0.000
REMARK UNBOUND:                 0.000
REMARK SMILES CC(=O)[O-]
REMARK SMILES IDX 1 1 2 2 3 3 4 4
REMARK H PARENT
REMARK Flexibility Score: inf
ROOT
ATOM      1  C   UNL     1      18.165 -18.125  14.564  1.00  0.00     0.063 C 
ATOM      2  C   UNL     1      17.041 -17.236  14.151  1.00  0.00     0.038 C 
ATOM      3  O   UNL     1      16.039 -17.094  14.899  1.00  0.00    -0.550 OA
ATOM      4  O   UNL     1      17.122 -16.520  12.963  1.00  0.00    -0.550 OA
ENDROOT
TORSDOF 0
ENDMDL
