MODEL 1
REMARK VINA RESULT:    -2.849      0.000      0.000
REMARK INTER + INTRA:          -4.833
REMARK INTER:                  -4.348
REMARK INTRA:                  -0.485
REMARK UNBOUND:                -0.485
REMARK SMILES CCCCCCCCCCC(=O)[O-]
REMARK SMILES IDX 7 1 8 2 9 3 10 4 11 5 12 6 13 7 6 8 5 9 4 10 3 11 2 12 1 13
REMARK H PARENT
REMARK Flexibility Score: inf
ROOT
ATOM      1  C   UNL     1      -2.576  16.245   8.253  1.00  0.00     0.000 C 
ENDROOT
BRANCH   1   2
ATOM      2  C   UNL     1      -3.612  15.106   8.351  1.00  0.00     0.000 C 
BRANCH   2   3
ATOM      3  C   UNL     1      -3.492  14.314   9.665  1.00  0.00     0.006 C 
BRANCH   3   4
ATOM      4  C   UNL     1      -2.285  13.366   9.664  1.00  0.00     0.053 C 
BRANCH   4   5
ATOM      5  C   UNL     1      -1.374  13.622  10.824  1.00  0.00     0.041 C 
ATOM      6  O   UNL     1      -1.315  12.801  11.777  1.00  0.00    -0.550 OA
ATOM      7  O   UNL     1      -0.613  14.783  10.869  1.00  0.00    -0.550 OA
ENDBRANCH   4   5
ENDBRANCH   3   4
ENDBRANCH   2   3
ENDBRANCH   1   2
BRANCH   1   8
ATOM      8  C   UNL     1      -3.204  17.650   8.176  1.00  0.00     0.000 C 
BRANCH   8   9
ATOM      9  C   UNL     1      -4.527  17.815   8.949  1.00  0.00    -0.000 C 
BRANCH   9  10
ATOM     10  C   UNL     1      -4.381  17.888  10.480  1.00  0.00    -0.000 C 
BRANCH  10  11
ATOM     11  C   UNL     1      -5.008  19.154  11.081  1.00  0.00    -0.000 C 
BRANCH  11  12
ATOM     12  C   UNL     1      -4.742  19.236  12.588  1.00  0.00    -0.003 C 
ATOM     13  C   UNL     1      -4.661  20.686  13.057  1.00  0.00     0.004 C 
ENDBRANCH  11  12
ENDBRANCH  10  11
ENDBRANCH   9  10
ENDBRANCH   8   9
ENDBRANCH   1   8
TORSDOF 9
ENDMDL
MODEL 2
REMARK VINA RESULT:    -2.766     22.666     23.938
REMARK INTER + INTRA:          -4.706
REMARK INTER:                  -3.936
REMARK INTRA:                  -0.770
REMARK UNBOUND:                -0.485
REMARK SMILES CCCCCCCCCCC(=O)[O-]
REMARK SMILES IDX 7 1 8 2 9 3 10 4 11 5 12 6 13 7 6 8 5 9 4 10 3 11 2 12 1 13
REMARK H PARENT
REMARK Flexibility Score: inf
ROOT
ATOM      1  C   UNL     1      13.634  28.341  20.725  1.00  0.00     0.000 C 
ENDROOT
BRANCH   1   2
ATOM      2  C   UNL     1      14.681  29.475  20.706  1.00  0.00     0.000 C 
BRANCH   2   3
ATOM      3  C   UNL     1      14.577  30.350  19.445  1.00  0.00     0.006 C 
BRANCH   3   4
ATOM      4  C   UNL     1      13.233  30.175  18.725  1.00  0.00     0.053 C 
BRANCH   4   5
ATOM      5  C   UNL     1      13.414  29.748  17.302  1.00  0.00     0.041 C 
ATOM      6  O   UNL     1      14.172  28.783  17.021  1.00  0.00    -0.550 OA
ATOM      7  O   UNL     1      12.770  30.436  16.281  1.00  0.00    -0.550 OA
ENDBRANCH   4   5
ENDBRANCH   3   4
ENDBRANCH   2   3
ENDBRANCH   1   2
BRANCH   1   8
ATOM      8  C   UNL     1      14.235  26.945  20.971  1.00  0.00     0.000 C 
BRANCH   8   9
ATOM      9  C   UNL     1      14.685  26.675  22.419  1.00  0.00    -0.000 C 
BRANCH   9  10
ATOM     10  C   UNL     1      13.553  26.682  23.464  1.00  0.00    -0.000 C 
BRANCH  10  11
ATOM     11  C   UNL     1      13.961  27.351  24.784  1.00  0.00    -0.000 C 
BRANCH  11  12
ATOM     12  C   UNL     1      13.417  28.782  24.866  1.00  0.00    -0.003 C 
ATOM     13  C   UNL     1      12.215  28.969  23.945  1.00  0.00     0.004 C 
ENDBRANCH  11  12
ENDBRANCH  10  11
ENDBRANCH   9  10
ENDBRANCH   8   9
ENDBRANCH   1   8
TORSDOF 9
ENDMDL
MODEL 3
REMARK VINA RESULT:    -2.599     23.579     24.813
REMARK INTER + INTRA:          -4.451
REMARK INTER:                  -3.473
REMARK INTRA:                  -0.978
REMARK UNBOUND:                -0.485
REMARK SMILES CCCCCCCCCCC(=O)[O-]
REMARK SMILES IDX 7 1 8 2 9 3 10 4 11 5 12 6 13 7 6 8 5 9 4 10 3 11 2 12 1 13
REMARK H PARENT
REMARK Flexibility Score: inf
ROOT
ATOM      1  C   UNL     1      14.565  26.606  22.471  1.00  0.00     0.000 C 
ENDROOT
BRANCH   1   2
ATOM      2  C   UNL     1      13.436  26.676  23.521  1.00  0.00     0.000 C 
BRANCH   2   3
ATOM      3  C   UNL     1      13.922  27.241  24.867  1.00  0.00     0.006 C 
BRANCH   3   4
ATOM      4  C   UNL     1      14.618  28.600  24.711  1.00  0.00     0.053 C 
BRANCH   4   5
ATOM      5  C   UNL     1      13.842  29.703  25.361  1.00  0.00     0.041 C 
ATOM      6  O   UNL     1      12.741  29.458  25.920  1.00  0.00    -0.550 OA
ATOM      7  O   UNL     1      14.318  31.007  25.322  1.00  0.00    -0.550 OA
ENDBRANCH   4   5
ENDBRANCH   3   4
ENDBRANCH   2   3
ENDBRANCH   1   2
BRANCH   1   8
ATOM      8  C   UNL     1      14.067  26.713  21.017  1.00  0.00     0.000 C 
BRANCH   8   9
ATOM      9  C   UNL     1      15.080  27.315  20.025  1.00  0.00    -0.000 C 
BRANCH   9  10
ATOM     10  C   UNL     1      14.687  28.687  19.447  1.00  0.00    -0.000 C 
BRANCH  10  11
ATOM     11  C   UNL     1      14.398  29.733  20.533  1.00  0.00    -0.000 C 
BRANCH  11  12
ATOM     12  C   UNL     1      12.911  30.103  20.556  1.00  0.00    -0.003 C 
ATOM     13  C   UNL     1      12.330  29.968  21.960  1.00  0.00     0.004 C 
ENDBRANCH  11  12
ENDBRANCH  10  11
ENDBRANCH   9  10
ENDBRANCH   8   9
ENDBRANCH   1   8
TORSDOF 9
ENDMDL
MODEL 4
REMARK VINA RESULT:    -2.499     22.762     24.060
REMARK INTER + INTRA:          -4.299
REMARK INTER:                  -3.866
REMARK INTRA:                  -0.432
REMARK UNBOUND:                -0.485
REMARK SMILES CCCCCCCCCCC(=O)[O-]
REMARK SMILES IDX 7 1 8 2 9 3 10 4 11 5 12 6 13 7 6 8 5 9 4 10 3 11 2 12 1 13
REMARK H PARENT
REMARK Flexibility Score: inf
ROOT
ATOM      1  C   UNL     1      12.250  29.787  22.261  1.00  0.00     0.000 C 
ENDROOT
BRANCH   1   2
ATOM      2  C   UNL     1      12.639  29.014  23.539  1.00  0.00     0.000 C 
BRANCH   2   3
ATOM      3  C   UNL     1      13.732  27.963  23.279  1.00  0.00     0.006 C 
BRANCH   3   4
ATOM      4  C   UNL     1      13.349  26.579  23.822  1.00  0.00     0.053 C 
BRANCH   4   5
ATOM      5  C   UNL     1      14.224  26.166  24.964  1.00  0.00     0.041 C 
ATOM      6  O   UNL     1      14.818  27.036  25.654  1.00  0.00    -0.550 OA
ATOM      7  O   UNL     1      14.411  24.819  25.247  1.00  0.00    -0.550 OA
ENDBRANCH   4   5
ENDBRANCH   3   4
ENDBRANCH   2   3
ENDBRANCH   1   2
BRANCH   1   8
ATOM      8  C   UNL     1      13.427  30.533  21.605  1.00  0.00     0.000 C 
BRANCH   8   9
ATOM      9  C   UNL     1      13.618  30.254  20.102  1.00  0.00    -0.000 C 
BRANCH   9  10
ATOM     10  C   UNL     1      12.318  30.225  19.276  1.00  0.00    -0.000 C 
BRANCH  10  11
ATOM     11  C   UNL     1      12.509  30.738  17.841  1.00  0.00    -0.000 C 
BRANCH  11  12
ATOM     12  C   UNL     1      13.343  29.755  17.013  1.00  0.00    -0.003 C 
ATOM     13  C   UNL     1      14.597  30.423  16.459  1.00  0.00     0.004 C 
ENDBRANCH  11  12
ENDBRANCH  10  11
ENDBRANCH   9  10
ENDBRANCH   8   9
ENDBRANCH   1   8
TORSDOF 9
ENDMDL
MODEL 5
REMARK VINA RESULT:    -2.489     22.507     23.971
REMARK INTER + INTRA:          -4.282
REMARK INTER:                  -3.511
REMARK INTRA:                  -0.771
REMARK UNBOUND:                -0.485
REMARK SMILES CCCCCCCCCCC(=O)[O-]
REMARK SMILES IDX 7 1 8 2 9 3 10 4 11 5 12 6 13 7 6 8 5 9 4 10 3 11 2 12 1 13
REMARK H PARENT
REMARK Flexibility Score: inf
ROOT
ATOM      1  C   UNL     1      13.197  29.134  21.000  1.00  0.00     0.000 C 
ENDROOT
BRANCH   1   2
ATOM      2  C   UNL     1      14.647  29.414  21.448  1.00  0.00     0.000 C 
BRANCH   2   3
ATOM      3  C   UNL     1      14.861  29.145  22.947  1.00  0.00     0.006 C 
BRANCH   3   4
ATOM      4  C   UNL     1      14.781  27.650  23.287  1.00  0.00     0.053 C 
BRANCH   4   5
ATOM      5  C   UNL     1      13.571  27.328  24.108  1.00  0.00     0.041 C 
ATOM      6  O   UNL     1      13.268  26.130  24.347  1.00  0.00    -0.550 OA
ATOM      7  O   UNL     1      12.760  28.351  24.583  1.00  0.00    -0.550 OA
ENDBRANCH   4   5
ENDBRANCH   3   4
ENDBRANCH   2   3
ENDBRANCH   1   2
BRANCH   1   8
ATOM      8  C   UNL     1      12.400  30.405  20.649  1.00  0.00     0.000 C 
BRANCH   8   9
ATOM      9  C   UNL     1      12.730  31.022  19.277  1.00  0.00    -0.000 C 
BRANCH   9  10
ATOM     10  C   UNL     1      12.211  30.225  18.065  1.00  0.00    -0.000 C 
BRANCH  10  11
ATOM     11  C   UNL     1      13.152  30.297  16.854  1.00  0.00    -0.000 C 
BRANCH  11  12
ATOM     12  C   UNL     1      14.593  29.968  17.259  1.00  0.00    -0.003 C 
ATOM     13  C   UNL     1      14.787  28.465  17.437  1.00  0.00     0.004 C 
ENDBRANCH  11  12
ENDBRANCH  10  11
ENDBRANCH   9  10
ENDBRANCH   8   9
ENDBRANCH   1   8
TORSDOF 9
ENDMDL
MODEL 6
REMARK VINA RESULT:    -2.483     23.280     24.993
REMARK INTER + INTRA:          -4.274
REMARK INTER:                  -3.617
REMARK INTRA:                  -0.656
REMARK UNBOUND:                -0.485
REMARK SMILES CCCCCCCCCCC(=O)[O-]
REMARK SMILES IDX 7 1 8 2 9 3 10 4 11 5 12 6 13 7 6 8 5 9 4 10 3 11 2 12 1 13
REMARK H PARENT
REMARK Flexibility Score: inf
ROOT
ATOM      1  C   UNL     1      13.262  26.816  23.184  1.00  0.00     0.000 C 
ENDROOT
BRANCH   1   2
ATOM      2  C   UNL     1      14.448  26.813  22.197  1.00  0.00     0.000 C 
BRANCH   2   3
ATOM      3  C   UNL     1      14.080  27.431  20.837  1.00  0.00     0.006 C 
BRANCH   3   4
ATOM      4  C   UNL     1      14.214  28.961  20.838  1.00  0.00     0.053 C 
BRANCH   4   5
ATOM      5  C   UNL     1      12.888  29.636  20.674  1.00  0.00     0.041 C 
ATOM      6  O   UNL     1      12.424  29.851  19.523  1.00  0.00    -0.550 OA
ATOM      7  O   UNL     1      12.178  30.059  21.791  1.00  0.00    -0.550 OA
ENDBRANCH   4   5
ENDBRANCH   3   4
ENDBRANCH   2   3
ENDBRANCH   1   2
BRANCH   1   8
ATOM      8  C   UNL     1      13.594  26.195  24.554  1.00  0.00     0.000 C 
BRANCH   8   9
ATOM      9  C   UNL     1      15.016  26.480  25.071  1.00  0.00    -0.000 C 
BRANCH   9  10
ATOM     10  C   UNL     1      15.091  27.444  26.270  1.00  0.00    -0.000 C 
BRANCH  10  11
ATOM     11  C   UNL     1      14.003  28.528  26.235  1.00  0.00    -0.000 C 
BRANCH  11  12
ATOM     12  C   UNL     1      14.409  29.683  25.313  1.00  0.00    -0.003 C 
ATOM     13  C   UNL     1      14.533  30.991  26.087  1.00  0.00     0.004 C 
ENDBRANCH  11  12
ENDBRANCH  10  11
ENDBRANCH   9  10
ENDBRANCH   8   9
ENDBRANCH   1   8
TORSDOF 9
ENDMDL
MODEL 7
REMARK VINA RESULT:    -2.287      3.099      5.774
REMARK INTER + INTRA:          -3.975
REMARK INTER:                  -3.029
REMARK INTRA:                  -0.946
REMARK UNBOUND:                -0.485
REMARK SMILES CCCCCCCCCCC(=O)[O-]
REMARK SMILES IDX 7 1 8 2 9 3 10 4 11 5 12 6 13 7 6 8 5 9 4 10 3 11 2 12 1 13
REMARK H PARENT
REMARK Flexibility Score: inf
ROOT
ATOM      1  C   UNL     1      -3.526  13.124   7.926  1.00  0.00     0.000 C 
ENDROOT
BRANCH   1   2
ATOM      2  C   UNL     1      -4.360  13.741   9.068  1.00  0.00     0.000 C 
BRANCH   2   3
ATOM      3  C   UNL     1      -4.905  15.135   8.710  1.00  0.00     0.006 C 
BRANCH   3   4
ATOM      4  C   UNL     1      -3.786  16.175   8.560  1.00  0.00     0.053 C 
BRANCH   4   5
ATOM      5  C   UNL     1      -4.247  17.548   8.941  1.00  0.00     0.041 C 
ATOM      6  O   UNL     1      -4.250  17.903  10.149  1.00  0.00    -0.550 OA
ATOM      7  O   UNL     1      -4.702  18.426   7.966  1.00  0.00    -0.550 OA
ENDBRANCH   4   5
ENDBRANCH   3   4
ENDBRANCH   2   3
ENDBRANCH   1   2
BRANCH   1   8
ATOM      8  C   UNL     1      -2.630  11.954   8.375  1.00  0.00     0.000 C 
BRANCH   8   9
ATOM      9  C   UNL     1      -3.194  11.108   9.532  1.00  0.00    -0.000 C 
BRANCH   9  10
ATOM     10  C   UNL     1      -2.461  11.275  10.876  1.00  0.00    -0.000 C 
BRANCH  10  11
ATOM     11  C   UNL     1      -1.104  11.981  10.735  1.00  0.00    -0.000 C 
BRANCH  11  12
ATOM     12  C   UNL     1      -1.086  13.297  11.520  1.00  0.00    -0.003 C 
ATOM     13  C   UNL     1      -1.010  14.498  10.583  1.00  0.00     0.004 C 
ENDBRANCH  11  12
ENDBRANCH  10  11
ENDBRANCH   9  10
ENDBRANCH   8   9
ENDBRANCH   1   8
TORSDOF 9
ENDMDL
MODEL 8
REMARK VINA RESULT:     0.015     22.728     23.819
REMARK INTER + INTRA:          -0.461
REMARK INTER:                   0.242
REMARK INTRA:                  -0.703
REMARK UNBOUND:                -0.485
REMARK SMILES CCCCCCCCCCC(=O)[O-]
REMARK SMILES IDX 7 1 8 2 9 3 10 4 11 5 12 6 13 7 6 8 5 9 4 10 3 11 2 12 1 13
REMARK H PARENT
REMARK Flexibility Score: inf
ROOT
ATOM      1  C   UNL     1      14.067  27.021  20.831  1.00  0.00     0.000 C 
ENDROOT
BRANCH   1   2
ATOM      2  C   UNL     1      15.125  26.333  21.719  1.00  0.00     0.000 C 
BRANCH   2   3
ATOM      3  C   UNL     1      14.957  26.678  23.209  1.00  0.00     0.006 C 
BRANCH   3   4
ATOM      4  C   UNL     1      13.481  26.739  23.628  1.00  0.00     0.053 C 
BRANCH   4   5
ATOM      5  C   UNL     1      13.150  28.026  24.318  1.00  0.00     0.041 C 
ATOM      6  O   UNL     1      13.865  28.436  25.271  1.00  0.00    -0.550 OA
ATOM      7  O   UNL     1      12.034  28.758  23.931  1.00  0.00    -0.550 OA
ENDBRANCH   4   5
ENDBRANCH   3   4
ENDBRANCH   2   3
ENDBRANCH   1   2
BRANCH   1   8
ATOM      8  C   UNL     1      14.375  28.501  20.533  1.00  0.00     0.000 C 
BRANCH   8   9
ATOM      9  C   UNL     1      13.187  29.464  20.723  1.00  0.00    -0.000 C 
BRANCH   9  10
ATOM     10  C   UNL     1      13.100  30.600  19.687  1.00  0.00    -0.000 C 
BRANCH  10  11
ATOM     11  C   UNL     1      12.148  30.279  18.525  1.00  0.00    -0.000 C 
BRANCH  11  12
ATOM     12  C   UNL     1      12.865  30.410  17.177  1.00  0.00    -0.003 C 
ATOM     13  C   UNL     1      13.947  29.347  17.020  1.00  0.00     0.004 C 
ENDBRANCH  11  12
ENDBRANCH  10  11
ENDBRANCH   9  10
ENDBRANCH   8   9
ENDBRANCH   1   8
TORSDOF 9
ENDMDL
