MODEL 1
REMARK VINA RESULT:    -3.936      0.000      0.000
REMARK INTER + INTRA:          -7.238
REMARK INTER:                  -6.007
REMARK INTRA:                  -1.231
REMARK UNBOUND:                -1.231
REMARK SMILES CCCCCCCCCCC(=O)[O-]
REMARK SMILES IDX 7 1 8 2 9 3 10 4 11 5 12 6 13 7 6 8 5 9 4 10 3 11 2 12 1 13
REMARK H PARENT
REMARK Flexibility Score: inf
ROOT
ATOM      1  C   UNL     1     -20.206  16.680 -23.022  1.00  0.00     0.000 C 
ENDROOT
BRANCH   1   2
ATOM      2  C   UNL     1     -21.091  15.464 -22.716  1.00  0.00     0.000 C 
BRANCH   2   3
ATOM      3  C   UNL     1     -21.691  15.561 -21.307  1.00  0.00     0.006 C 
BRANCH   3   4
ATOM      4  C   UNL     1     -23.219  15.473 -21.354  1.00  0.00     0.053 C 
BRANCH   4   5
ATOM      5  C   UNL     1     -23.693  14.237 -20.658  1.00  0.00     0.041 C 
ATOM      6  O   UNL     1     -24.848  13.787 -20.880  1.00  0.00    -0.550 OA
ATOM      7  O   UNL     1     -22.841  13.552 -19.799  1.00  0.00    -0.550 OA
ENDBRANCH   4   5
ENDBRANCH   3   4
ENDBRANCH   2   3
ENDBRANCH   1   2
BRANCH   1   8
ATOM      8  C   UNL     1     -20.608  17.395 -24.322  1.00  0.00     0.000 C 
BRANCH   8   9
ATOM      9  C   UNL     1     -21.973  16.932 -24.854  1.00  0.00    -0.000 C 
BRANCH   9  10
ATOM     10  C   UNL     1     -22.880  18.131 -25.153  1.00  0.00    -0.000 C 
BRANCH  10  11
ATOM     11  C   UNL     1     -22.727  19.219 -24.085  1.00  0.00    -0.000 C 
BRANCH  11  12
ATOM     12  C   UNL     1     -23.497  18.851 -22.810  1.00  0.00    -0.003 C 
ATOM     13  C   UNL     1     -22.723  19.263 -21.562  1.00  0.00     0.004 C 
ENDBRANCH  11  12
ENDBRANCH  10  11
ENDBRANCH   9  10
ENDBRANCH   8   9
ENDBRANCH   1   8
TORSDOF 9
ENDMDL
MODEL 2
REMARK VINA RESULT:    -3.934      3.834      5.646
REMARK INTER + INTRA:          -7.235
REMARK INTER:                  -6.124
REMARK INTRA:                  -1.111
REMARK UNBOUND:                -1.231
REMARK SMILES CCCCCCCCCCC(=O)[O-]
REMARK SMILES IDX 7 1 8 2 9 3 10 4 11 5 12 6 13 7 6 8 5 9 4 10 3 11 2 12 1 13
REMARK H PARENT
REMARK Flexibility Score: inf
ROOT
ATOM      1  C   UNL     1     -22.803  19.170 -24.151  1.00  0.00     0.000 C 
ENDROOT
BRANCH   1   2
ATOM      2  C   UNL     1     -21.587  19.705 -24.921  1.00  0.00     0.000 C 
BRANCH   2   3
ATOM      3  C   UNL     1     -20.624  18.567 -25.283  1.00  0.00     0.006 C 
BRANCH   3   4
ATOM      4  C   UNL     1     -21.342  17.469 -26.074  1.00  0.00     0.053 C 
BRANCH   4   5
ATOM      5  C   UNL     1     -21.055  17.604 -27.535  1.00  0.00     0.041 C 
ATOM      6  O   UNL     1     -21.218  18.711 -28.114  1.00  0.00    -0.550 OA
ATOM      7  O   UNL     1     -20.559  16.521 -28.250  1.00  0.00    -0.550 OA
ENDBRANCH   4   5
ENDBRANCH   3   4
ENDBRANCH   2   3
ENDBRANCH   1   2
BRANCH   1   8
ATOM      8  C   UNL     1     -22.919  19.764 -22.738  1.00  0.00     0.000 C 
BRANCH   8   9
ATOM      9  C   UNL     1     -23.061  18.687 -21.653  1.00  0.00    -0.000 C 
BRANCH   9  10
ATOM     10  C   UNL     1     -23.488  17.346 -22.262  1.00  0.00    -0.000 C 
BRANCH  10  11
ATOM     11  C   UNL     1     -22.618  16.199 -21.736  1.00  0.00    -0.000 C 
BRANCH  11  12
ATOM     12  C   UNL     1     -21.564  15.789 -22.772  1.00  0.00    -0.003 C 
ATOM     13  C   UNL     1     -20.200  16.380 -22.432  1.00  0.00     0.004 C 
ENDBRANCH  11  12
ENDBRANCH  10  11
ENDBRANCH   9  10
ENDBRANCH   8   9
ENDBRANCH   1   8
TORSDOF 9
ENDMDL
MODEL 3
REMARK VINA RESULT:    -3.920      4.521      6.017
REMARK INTER + INTRA:          -7.214
REMARK INTER:                  -6.182
REMARK INTRA:                  -1.032
REMARK UNBOUND:                -1.231
REMARK SMILES CCCCCCCCCCC(=O)[O-]
REMARK SMILES IDX 7 1 8 2 9 3 10 4 11 5 12 6 13 7 6 8 5 9 4 10 3 11 2 12 1 13
REMARK H PARENT
REMARK Flexibility Score: inf
ROOT
ATOM      1  C   UNL     1     -22.627  19.079 -21.961  1.00  0.00     0.000 C 
ENDROOT
BRANCH   1   2
ATOM      2  C   UNL     1     -23.215  20.344 -21.321  1.00  0.00     0.000 C 
BRANCH   2   3
ATOM      3  C   UNL     1     -23.377  21.460 -22.361  1.00  0.00     0.006 C 
BRANCH   3   4
ATOM      4  C   UNL     1     -22.828  21.026 -23.724  1.00  0.00     0.053 C 
BRANCH   4   5
ATOM      5  C   UNL     1     -22.606  22.217 -24.601  1.00  0.00     0.041 C 
ATOM      6  O   UNL     1     -23.521  23.068 -24.760  1.00  0.00    -0.550 OA
ATOM      7  O   UNL     1     -21.371  22.415 -25.207  1.00  0.00    -0.550 OA
ENDBRANCH   4   5
ENDBRANCH   3   4
ENDBRANCH   2   3
ENDBRANCH   1   2
BRANCH   1   8
ATOM      8  C   UNL     1     -23.635  17.920 -22.018  1.00  0.00     0.000 C 
BRANCH   8   9
ATOM      9  C   UNL     1     -23.959  17.486 -23.456  1.00  0.00    -0.000 C 
BRANCH   9  10
ATOM     10  C   UNL     1     -22.679  17.151 -24.230  1.00  0.00    -0.000 C 
BRANCH  10  11
ATOM     11  C   UNL     1     -22.701  17.776 -25.630  1.00  0.00    -0.000 C 
BRANCH  11  12
ATOM     12  C   UNL     1     -21.408  18.554 -25.904  1.00  0.00    -0.003 C 
ATOM     13  C   UNL     1     -20.340  18.233 -24.863  1.00  0.00     0.004 C 
ENDBRANCH  11  12
ENDBRANCH  10  11
ENDBRANCH   9  10
ENDBRANCH   8   9
ENDBRANCH   1   8
TORSDOF 9
ENDMDL
MODEL 4
REMARK VINA RESULT:    -3.916      1.367      2.345
REMARK INTER + INTRA:          -7.208
REMARK INTER:                  -6.113
REMARK INTRA:                  -1.095
REMARK UNBOUND:                -1.231
REMARK SMILES CCCCCCCCCCC(=O)[O-]
REMARK SMILES IDX 7 1 8 2 9 3 10 4 11 5 12 6 13 7 6 8 5 9 4 10 3 11 2 12 1 13
REMARK H PARENT
REMARK Flexibility Score: inf
ROOT
ATOM      1  C   UNL     1     -20.986  17.403 -25.076  1.00  0.00     0.000 C 
ENDROOT
BRANCH   1   2
ATOM      2  C   UNL     1     -20.329  17.141 -23.714  1.00  0.00     0.000 C 
BRANCH   2   3
ATOM      3  C   UNL     1     -20.774  15.790 -23.139  1.00  0.00     0.006 C 
BRANCH   3   4
ATOM      4  C   UNL     1     -20.966  15.874 -21.622  1.00  0.00     0.053 C 
BRANCH   4   5
ATOM      5  C   UNL     1     -21.286  14.526 -21.060  1.00  0.00     0.041 C 
ATOM      6  O   UNL     1     -20.397  13.636 -21.002  1.00  0.00    -0.550 OA
ATOM      7  O   UNL     1     -22.554  14.266 -20.554  1.00  0.00    -0.550 OA
ENDBRANCH   4   5
ENDBRANCH   3   4
ENDBRANCH   2   3
ENDBRANCH   1   2
BRANCH   1   8
ATOM      8  C   UNL     1     -22.506  17.173 -25.055  1.00  0.00     0.000 C 
BRANCH   8   9
ATOM      9  C   UNL     1     -23.252  18.222 -24.217  1.00  0.00    -0.000 C 
BRANCH   9  10
ATOM     10  C   UNL     1     -24.143  17.551 -23.165  1.00  0.00    -0.000 C 
BRANCH  10  11
ATOM     11  C   UNL     1     -23.879  18.128 -21.769  1.00  0.00    -0.000 C 
BRANCH  11  12
ATOM     12  C   UNL     1     -22.728  19.141 -21.802  1.00  0.00    -0.003 C 
ATOM     13  C   UNL     1     -23.173  20.497 -21.261  1.00  0.00     0.004 C 
ENDBRANCH  11  12
ENDBRANCH  10  11
ENDBRANCH   9  10
ENDBRANCH   8   9
ENDBRANCH   1   8
TORSDOF 9
ENDMDL
MODEL 5
REMARK VINA RESULT:    -3.909      3.137      4.410
REMARK INTER + INTRA:          -7.197
REMARK INTER:                  -6.167
REMARK INTRA:                  -1.030
REMARK UNBOUND:                -1.231
REMARK SMILES CCCCCCCCCCC(=O)[O-]
REMARK SMILES IDX 7 1 8 2 9 3 10 4 11 5 12 6 13 7 6 8 5 9 4 10 3 11 2 12 1 13
REMARK H PARENT
REMARK Flexibility Score: inf
ROOT
ATOM      1  C   UNL     1     -20.630  15.637 -22.690  1.00  0.00     0.000 C 
ENDROOT
BRANCH   1   2
ATOM      2  C   UNL     1     -20.719  16.188 -24.120  1.00  0.00     0.000 C 
BRANCH   2   3
ATOM      3  C   UNL     1     -20.000  17.539 -24.234  1.00  0.00     0.006 C 
BRANCH   3   4
ATOM      4  C   UNL     1     -20.920  18.602 -24.842  1.00  0.00     0.053 C 
BRANCH   4   5
ATOM      5  C   UNL     1     -21.751  18.010 -25.936  1.00  0.00     0.041 C 
ATOM      6  O   UNL     1     -22.979  17.793 -25.754  1.00  0.00    -0.550 OA
ATOM      7  O   UNL     1     -21.182  17.743 -27.175  1.00  0.00    -0.550 OA
ENDBRANCH   4   5
ENDBRANCH   3   4
ENDBRANCH   2   3
ENDBRANCH   1   2
BRANCH   1   8
ATOM      8  C   UNL     1     -21.630  16.306 -21.734  1.00  0.00     0.000 C 
BRANCH   8   9
ATOM      9  C   UNL     1     -23.020  16.487 -22.360  1.00  0.00    -0.000 C 
BRANCH   9  10
ATOM     10  C   UNL     1     -23.610  17.856 -22.003  1.00  0.00    -0.000 C 
BRANCH  10  11
ATOM     11  C   UNL     1     -22.522  18.810 -21.497  1.00  0.00    -0.000 C 
BRANCH  11  12
ATOM     12  C   UNL     1     -23.053  20.246 -21.398  1.00  0.00    -0.003 C 
ATOM     13  C   UNL     1     -23.186  20.879 -22.779  1.00  0.00     0.004 C 
ENDBRANCH  11  12
ENDBRANCH  10  11
ENDBRANCH   9  10
ENDBRANCH   8   9
ENDBRANCH   1   8
TORSDOF 9
ENDMDL
MODEL 6
REMARK VINA RESULT:    -3.905      2.279      3.922
REMARK INTER + INTRA:          -7.190
REMARK INTER:                  -6.262
REMARK INTRA:                  -0.928
REMARK UNBOUND:                -1.231
REMARK SMILES CCCCCCCCCCC(=O)[O-]
REMARK SMILES IDX 7 1 8 2 9 3 10 4 11 5 12 6 13 7 6 8 5 9 4 10 3 11 2 12 1 13
REMARK H PARENT
REMARK Flexibility Score: inf
ROOT
ATOM      1  C   UNL     1     -22.857  19.227 -21.872  1.00  0.00     0.000 C 
ENDROOT
BRANCH   1   2
ATOM      2  C   UNL     1     -23.739  18.006 -22.168  1.00  0.00     0.000 C 
BRANCH   2   3
ATOM      3  C   UNL     1     -22.926  16.708 -22.079  1.00  0.00     0.006 C 
BRANCH   3   4
ATOM      4  C   UNL     1     -21.424  17.002 -22.022  1.00  0.00     0.053 C 
BRANCH   4   5
ATOM      5  C   UNL     1     -20.640  15.814 -22.482  1.00  0.00     0.041 C 
ATOM      6  O   UNL     1     -20.100  15.047 -21.641  1.00  0.00    -0.550 OA
ATOM      7  O   UNL     1     -20.547  15.524 -23.837  1.00  0.00    -0.550 OA
ENDBRANCH   4   5
ENDBRANCH   3   4
ENDBRANCH   2   3
ENDBRANCH   1   2
BRANCH   1   8
ATOM      8  C   UNL     1     -22.882  20.266 -23.004  1.00  0.00     0.000 C 
BRANCH   8   9
ATOM      9  C   UNL     1     -22.837  19.623 -24.399  1.00  0.00    -0.000 C 
BRANCH   9  10
ATOM     10  C   UNL     1     -21.516  19.943 -25.108  1.00  0.00    -0.000 C 
BRANCH  10  11
ATOM     11  C   UNL     1     -20.751  18.661 -25.454  1.00  0.00    -0.000 C 
BRANCH  11  12
ATOM     12  C   UNL     1     -21.557  17.782 -26.418  1.00  0.00    -0.003 C 
ATOM     13  C   UNL     1     -21.046  17.923 -27.849  1.00  0.00     0.004 C 
ENDBRANCH  11  12
ENDBRANCH  10  11
ENDBRANCH   9  10
ENDBRANCH   8   9
ENDBRANCH   1   8
TORSDOF 9
ENDMDL
MODEL 7
REMARK VINA RESULT:    -3.889      3.859      5.358
REMARK INTER + INTRA:          -7.166
REMARK INTER:                  -6.169
REMARK INTRA:                  -0.996
REMARK UNBOUND:                -1.231
REMARK SMILES CCCCCCCCCCC(=O)[O-]
REMARK SMILES IDX 7 1 8 2 9 3 10 4 11 5 12 6 13 7 6 8 5 9 4 10 3 11 2 12 1 13
REMARK H PARENT
REMARK Flexibility Score: inf
ROOT
ATOM      1  C   UNL     1     -24.173  18.423 -22.350  1.00  0.00     0.000 C 
ENDROOT
BRANCH   1   2
ATOM      2  C   UNL     1     -23.938  17.505 -23.558  1.00  0.00     0.000 C 
BRANCH   2   3
ATOM      3  C   UNL     1     -22.571  17.778 -24.197  1.00  0.00     0.006 C 
BRANCH   3   4
ATOM      4  C   UNL     1     -22.656  17.718 -25.725  1.00  0.00     0.053 C 
BRANCH   4   5
ATOM      5  C   UNL     1     -21.335  18.061 -26.337  1.00  0.00     0.041 C 
ATOM      6  O   UNL     1     -20.335  18.281 -25.603  1.00  0.00    -0.550 OA
ATOM      7  O   UNL     1     -21.194  18.091 -27.719  1.00  0.00    -0.550 OA
ENDBRANCH   4   5
ENDBRANCH   3   4
ENDBRANCH   2   3
ENDBRANCH   1   2
BRANCH   1   8
ATOM      8  C   UNL     1     -22.863  18.885 -21.693  1.00  0.00     0.000 C 
BRANCH   8   9
ATOM      9  C   UNL     1     -22.913  20.351 -21.238  1.00  0.00    -0.000 C 
BRANCH   9  10
ATOM     10  C   UNL     1     -23.891  21.160 -22.098  1.00  0.00    -0.000 C 
BRANCH  10  11
ATOM     11  C   UNL     1     -23.212  22.401 -22.687  1.00  0.00    -0.000 C 
BRANCH  11  12
ATOM     12  C   UNL     1     -23.243  22.369 -24.220  1.00  0.00    -0.003 C 
ATOM     13  C   UNL     1     -22.223  21.376 -24.770  1.00  0.00     0.004 C 
ENDBRANCH  11  12
ENDBRANCH  10  11
ENDBRANCH   9  10
ENDBRANCH   8   9
ENDBRANCH   1   8
TORSDOF 9
ENDMDL
MODEL 8
REMARK VINA RESULT:    -3.878      1.635      3.483
REMARK INTER + INTRA:          -7.149
REMARK INTER:                  -6.122
REMARK INTRA:                  -1.027
REMARK UNBOUND:                -1.231
REMARK SMILES CCCCCCCCCCC(=O)[O-]
REMARK SMILES IDX 7 1 8 2 9 3 10 4 11 5 12 6 13 7 6 8 5 9 4 10 3 11 2 12 1 13
REMARK H PARENT
REMARK Flexibility Score: inf
ROOT
ATOM      1  C   UNL     1     -23.234  20.865 -22.414  1.00  0.00     0.000 C 
ENDROOT
BRANCH   1   2
ATOM      2  C   UNL     1     -22.953  19.423 -21.970  1.00  0.00     0.000 C 
BRANCH   2   3
ATOM      3  C   UNL     1     -24.260  18.665 -21.704  1.00  0.00     0.006 C 
BRANCH   3   4
ATOM      4  C   UNL     1     -24.234  17.279 -22.355  1.00  0.00     0.053 C 
BRANCH   4   5
ATOM      5  C   UNL     1     -23.767  16.250 -21.375  1.00  0.00     0.041 C 
ATOM      6  O   UNL     1     -22.621  15.738 -21.491  1.00  0.00    -0.550 OA
ATOM      7  O   UNL     1     -24.576  15.890 -20.305  1.00  0.00    -0.550 OA
ENDBRANCH   4   5
ENDBRANCH   3   4
ENDBRANCH   2   3
ENDBRANCH   1   2
BRANCH   1   8
ATOM      8  C   UNL     1     -22.816  21.130 -23.869  1.00  0.00     0.000 C 
BRANCH   8   9
ATOM      9  C   UNL     1     -22.584  19.837 -24.664  1.00  0.00    -0.000 C 
BRANCH   9  10
ATOM     10  C   UNL     1     -21.205  19.844 -25.335  1.00  0.00    -0.000 C 
BRANCH  10  11
ATOM     11  C   UNL     1     -20.732  18.418 -25.638  1.00  0.00    -0.000 C 
BRANCH  11  12
ATOM     12  C   UNL     1     -21.230  17.435 -24.571  1.00  0.00    -0.003 C 
ATOM     13  C   UNL     1     -20.110  17.056 -23.607  1.00  0.00     0.004 C 
ENDBRANCH  11  12
ENDBRANCH  10  11
ENDBRANCH   9  10
ENDBRANCH   8   9
ENDBRANCH   1   8
TORSDOF 9
ENDMDL
MODEL 9
REMARK VINA RESULT:    -3.878      4.040      5.421
REMARK INTER + INTRA:          -7.149
REMARK INTER:                  -5.986
REMARK INTRA:                  -1.162
REMARK UNBOUND:                -1.231
REMARK SMILES CCCCCCCCCCC(=O)[O-]
REMARK SMILES IDX 7 1 8 2 9 3 10 4 11 5 12 6 13 7 6 8 5 9 4 10 3 11 2 12 1 13
REMARK H PARENT
REMARK Flexibility Score: inf
ROOT
ATOM      1  C   UNL     1     -19.921  18.036 -24.637  1.00  0.00     0.000 C 
ENDROOT
BRANCH   1   2
ATOM      2  C   UNL     1     -21.116  18.217 -25.583  1.00  0.00     0.000 C 
BRANCH   2   3
ATOM      3  C   UNL     1     -21.384  19.704 -25.851  1.00  0.00     0.006 C 
BRANCH   3   4
ATOM      4  C   UNL     1     -22.546  20.216 -24.993  1.00  0.00     0.053 C 
BRANCH   4   5
ATOM      5  C   UNL     1     -22.354  21.662 -24.663  1.00  0.00     0.041 C 
ATOM      6  O   UNL     1     -21.561  22.367 -25.342  1.00  0.00    -0.550 OA
ATOM      7  O   UNL     1     -23.087  22.244 -23.637  1.00  0.00    -0.550 OA
ENDBRANCH   4   5
ENDBRANCH   3   4
ENDBRANCH   2   3
ENDBRANCH   1   2
BRANCH   1   8
ATOM      8  C   UNL     1     -20.241  17.116 -23.447  1.00  0.00     0.000 C 
BRANCH   8   9
ATOM      9  C   UNL     1     -21.619  16.449 -23.568  1.00  0.00    -0.000 C 
BRANCH   9  10
ATOM     10  C   UNL     1     -22.493  16.770 -22.349  1.00  0.00    -0.000 C 
BRANCH  10  11
ATOM     11  C   UNL     1     -23.798  17.454 -22.772  1.00  0.00    -0.000 C 
BRANCH  11  12
ATOM     12  C   UNL     1     -24.055  18.713 -21.934  1.00  0.00    -0.003 C 
ATOM     13  C   UNL     1     -22.745  19.347 -21.478  1.00  0.00     0.004 C 
ENDBRANCH  11  12
ENDBRANCH  10  11
ENDBRANCH   9  10
ENDBRANCH   8   9
ENDBRANCH   1   8
TORSDOF 9
ENDMDL
