MODEL 1
REMARK VINA RESULT:    -4.208      0.000      0.000
REMARK INTER + INTRA:          -9.065
REMARK INTER:                  -7.405
REMARK INTRA:                  -1.660
REMARK UNBOUND:                -1.660
REMARK SMILES CCCCCCCCCCCCCCC(=O)[O-]
REMARK SMILES IDX 9 1 10 2 11 3 12 4 13 5 14 6 15 7 16 8 17 9 8 10 7 11 6 12
REMARK SMILES IDX 5 13 4 14 3 15 2 16 1 17
REMARK H PARENT
REMARK Flexibility Score: inf
ROOT
ATOM      1  C   UNL     1      27.877  -5.390  19.772  1.00  0.00     0.000 C 
ENDROOT
BRANCH   1   2
ATOM      2  C   UNL     1      28.758  -6.153  18.769  1.00  0.00     0.000 C 
BRANCH   2   3
ATOM      3  C   UNL     1      27.940  -7.071  17.846  1.00  0.00     0.000 C 
BRANCH   3   4
ATOM      4  C   UNL     1      26.424  -6.938  18.070  1.00  0.00     0.000 C 
BRANCH   4   5
ATOM      5  C   UNL     1      25.613  -7.115  16.773  1.00  0.00     0.006 C 
BRANCH   5   6
ATOM      6  C   UNL     1      24.111  -7.349  16.995  1.00  0.00     0.053 C 
BRANCH   6   7
ATOM      7  C   UNL     1      23.852  -8.390  18.041  1.00  0.00     0.041 C 
ATOM      8  O   UNL     1      23.293  -8.074  19.124  1.00  0.00    -0.550 OA
ATOM      9  O   UNL     1      24.262  -9.701  17.833  1.00  0.00    -0.550 OA
ENDBRANCH   6   7
ENDBRANCH   5   6
ENDBRANCH   4   5
ENDBRANCH   3   4
ENDBRANCH   2   3
ENDBRANCH   1   2
BRANCH   1  10
ATOM     10  C   UNL     1      28.001  -3.862  19.636  1.00  0.00     0.000 C 
BRANCH  10  11
ATOM     11  C   UNL     1      26.767  -3.151  19.042  1.00  0.00    -0.000 C 
BRANCH  11  12
ATOM     12  C   UNL     1      25.408  -3.662  19.554  1.00  0.00    -0.000 C 
BRANCH  12  13
ATOM     13  C   UNL     1      24.382  -3.855  18.428  1.00  0.00    -0.000 C 
BRANCH  13  14
ATOM     14  C   UNL     1      23.120  -4.559  18.950  1.00  0.00    -0.000 C 
BRANCH  14  15
ATOM     15  C   UNL     1      23.081  -4.623  20.492  1.00  0.00    -0.000 C 
BRANCH  15  16
ATOM     16  C   UNL     1      21.903  -3.852  21.111  1.00  0.00    -0.003 C 
ATOM     17  C   UNL     1      20.881  -3.387  20.075  1.00  0.00     0.004 C 
ENDBRANCH  15  16
ENDBRANCH  14  15
ENDBRANCH  13  14
ENDBRANCH  12  13
ENDBRANCH  11  12
ENDBRANCH  10  11
ENDBRANCH   1  10
TORSDOF 13
ENDMDL
MODEL 2
REMARK VINA RESULT:    -4.114      2.469      4.844
REMARK INTER + INTRA:          -8.901
REMARK INTER:                  -6.701
REMARK INTRA:                  -2.200
REMARK UNBOUND:                -1.660
REMARK SMILES CCCCCCCCCCCCCCC(=O)[O-]
REMARK SMILES IDX 9 1 10 2 11 3 12 4 13 5 14 6 15 7 16 8 17 9 8 10 7 11 6 12
REMARK SMILES IDX 5 13 4 14 3 15 2 16 1 17
REMARK H PARENT
REMARK Flexibility Score: inf
ROOT
ATOM      1  C   UNL     1      25.499  -7.562  18.539  1.00  0.00     0.000 C 
ENDROOT
BRANCH   1   2
ATOM      2  C   UNL     1      24.109  -7.417  17.897  1.00  0.00     0.000 C 
BRANCH   2   3
ATOM      3  C   UNL     1      23.124  -6.650  18.792  1.00  0.00     0.000 C 
BRANCH   3   4
ATOM      4  C   UNL     1      23.825  -5.898  19.937  1.00  0.00     0.000 C 
BRANCH   4   5
ATOM      5  C   UNL     1      23.330  -4.447  20.087  1.00  0.00     0.006 C 
BRANCH   5   6
ATOM      6  C   UNL     1      22.239  -4.047  19.081  1.00  0.00     0.053 C 
BRANCH   6   7
ATOM      7  C   UNL     1      21.078  -3.375  19.749  1.00  0.00     0.041 C 
ATOM      8  O   UNL     1      20.848  -3.574  20.971  1.00  0.00    -0.550 OA
ATOM      9  O   UNL     1      20.230  -2.557  19.012  1.00  0.00    -0.550 OA
ENDBRANCH   6   7
ENDBRANCH   5   6
ENDBRANCH   4   5
ENDBRANCH   3   4
ENDBRANCH   2   3
ENDBRANCH   1   2
BRANCH   1  10
ATOM     10  C   UNL     1      26.639  -7.121  17.603  1.00  0.00     0.000 C 
BRANCH  10  11
ATOM     11  C   UNL     1      27.913  -6.613  18.310  1.00  0.00    -0.000 C 
BRANCH  11  12
ATOM     12  C   UNL     1      27.667  -5.751  19.562  1.00  0.00    -0.000 C 
BRANCH  12  13
ATOM     13  C   UNL     1      27.960  -4.262  19.328  1.00  0.00    -0.000 C 
BRANCH  13  14
ATOM     14  C   UNL     1      26.656  -3.466  19.159  1.00  0.00    -0.000 C 
BRANCH  14  15
ATOM     15  C   UNL     1      26.523  -2.855  17.747  1.00  0.00    -0.000 C 
BRANCH  15  16
ATOM     16  C   UNL     1      25.146  -3.088  17.103  1.00  0.00    -0.003 C 
ATOM     17  C   UNL     1      25.125  -4.282  16.150  1.00  0.00     0.004 C 
ENDBRANCH  15  16
ENDBRANCH  14  15
ENDBRANCH  13  14
ENDBRANCH  12  13
ENDBRANCH  11  12
ENDBRANCH  10  11
ENDBRANCH   1  10
TORSDOF 13
ENDMDL
MODEL 3
REMARK VINA RESULT:    -4.066      2.258      5.082
REMARK INTER + INTRA:          -8.816
REMARK INTER:                  -7.219
REMARK INTRA:                  -1.598
REMARK UNBOUND:                -1.660
REMARK SMILES CCCCCCCCCCCCCCC(=O)[O-]
REMARK SMILES IDX 9 1 10 2 11 3 12 4 13 5 14 6 15 7 16 8 17 9 8 10 7 11 6 12
REMARK SMILES IDX 5 13 4 14 3 15 2 16 1 17
REMARK H PARENT
REMARK Flexibility Score: inf
ROOT
ATOM      1  C   UNL     1      27.666  -5.069  19.334  1.00  0.00     0.000 C 
ENDROOT
BRANCH   1   2
ATOM      2  C   UNL     1      27.132  -3.629  19.260  1.00  0.00     0.000 C 
BRANCH   2   3
ATOM      3  C   UNL     1      25.620  -3.547  19.524  1.00  0.00     0.000 C 
BRANCH   3   4
ATOM      4  C   UNL     1      24.785  -3.699  18.241  1.00  0.00     0.000 C 
BRANCH   4   5
ATOM      5  C   UNL     1      23.405  -4.332  18.501  1.00  0.00     0.006 C 
BRANCH   5   6
ATOM      6  C   UNL     1      23.147  -4.699  19.971  1.00  0.00     0.053 C 
BRANCH   6   7
ATOM      7  C   UNL     1      21.898  -4.061  20.498  1.00  0.00     0.041 C 
ATOM      8  O   UNL     1      21.744  -3.897  21.737  1.00  0.00    -0.550 OA
ATOM      9  O   UNL     1      20.888  -3.681  19.623  1.00  0.00    -0.550 OA
ENDBRANCH   6   7
ENDBRANCH   5   6
ENDBRANCH   4   5
ENDBRANCH   3   4
ENDBRANCH   2   3
ENDBRANCH   1   2
BRANCH   1  10
ATOM     10  C   UNL     1      27.948  -5.674  17.948  1.00  0.00     0.000 C 
BRANCH  10  11
ATOM     11  C   UNL     1      27.327  -7.064  17.697  1.00  0.00    -0.000 C 
BRANCH  11  12
ATOM     12  C   UNL     1      25.807  -7.069  17.455  1.00  0.00    -0.000 C 
BRANCH  12  13
ATOM     13  C   UNL     1      25.023  -7.724  18.602  1.00  0.00    -0.000 C 
BRANCH  13  14
ATOM     14  C   UNL     1      23.806  -8.494  18.066  1.00  0.00    -0.000 C 
BRANCH  14  15
ATOM     15  C   UNL     1      24.213  -9.647  17.123  1.00  0.00    -0.000 C 
BRANCH  15  16
ATOM     16  C   UNL     1      23.421  -9.673  15.804  1.00  0.00    -0.003 C 
ATOM     17  C   UNL     1      24.316  -9.777  14.571  1.00  0.00     0.004 C 
ENDBRANCH  15  16
ENDBRANCH  14  15
ENDBRANCH  13  14
ENDBRANCH  12  13
ENDBRANCH  11  12
ENDBRANCH  10  11
ENDBRANCH   1  10
TORSDOF 13
ENDMDL
MODEL 4
REMARK VINA RESULT:    -4.057      3.684      4.976
REMARK INTER + INTRA:          -8.799
REMARK INTER:                  -7.305
REMARK INTRA:                  -1.494
REMARK UNBOUND:                -1.660
REMARK SMILES CCCCCCCCCCCCCCC(=O)[O-]
REMARK SMILES IDX 9 1 10 2 11 3 12 4 13 5 14 6 15 7 16 8 17 9 8 10 7 11 6 12
REMARK SMILES IDX 5 13 4 14 3 15 2 16 1 17
REMARK H PARENT
REMARK Flexibility Score: inf
ROOT
ATOM      1  C   UNL     1      23.415  -4.506  16.825  1.00  0.00     0.000 C 
ENDROOT
BRANCH   1   2
ATOM      2  C   UNL     1      22.537  -3.637  15.909  1.00  0.00     0.000 C 
BRANCH   2   3
ATOM      3  C   UNL     1      23.332  -3.014  14.751  1.00  0.00     0.000 C 
BRANCH   3   4
ATOM      4  C   UNL     1      22.432  -2.581  13.580  1.00  0.00     0.000 C 
BRANCH   4   5
ATOM      5  C   UNL     1      21.511  -3.713  13.088  1.00  0.00     0.006 C 
BRANCH   5   6
ATOM      6  C   UNL     1      22.256  -4.913  12.481  1.00  0.00     0.053 C 
BRANCH   6   7
ATOM      7  C   UNL     1      21.716  -6.219  12.978  1.00  0.00     0.041 C 
ATOM      8  O   UNL     1      20.800  -6.239  13.842  1.00  0.00    -0.550 OA
ATOM      9  O   UNL     1      22.250  -7.414  12.514  1.00  0.00    -0.550 OA
ENDBRANCH   6   7
ENDBRANCH   5   6
ENDBRANCH   4   5
ENDBRANCH   3   4
ENDBRANCH   2   3
ENDBRANCH   1   2
BRANCH   1  10
ATOM     10  C   UNL     1      24.422  -3.682  17.647  1.00  0.00     0.000 C 
BRANCH  10  11
ATOM     11  C   UNL     1      24.541  -4.079  19.133  1.00  0.00    -0.000 C 
BRANCH  11  12
ATOM     12  C   UNL     1      24.052  -5.499  19.473  1.00  0.00    -0.000 C 
BRANCH  12  13
ATOM     13  C   UNL     1      22.714  -5.504  20.228  1.00  0.00    -0.000 C 
BRANCH  13  14
ATOM     14  C   UNL     1      22.568  -4.243  21.093  1.00  0.00    -0.000 C 
BRANCH  14  15
ATOM     15  C   UNL     1      21.262  -3.475  20.792  1.00  0.00    -0.000 C 
BRANCH  15  16
ATOM     16  C   UNL     1      20.872  -3.484  19.304  1.00  0.00    -0.003 C 
ATOM     17  C   UNL     1      20.393  -2.123  18.802  1.00  0.00     0.004 C 
ENDBRANCH  15  16
ENDBRANCH  14  15
ENDBRANCH  13  14
ENDBRANCH  12  13
ENDBRANCH  11  12
ENDBRANCH  10  11
ENDBRANCH   1  10
TORSDOF 13
ENDMDL
MODEL 5
REMARK VINA RESULT:    -4.035      2.582      3.807
REMARK INTER + INTRA:          -8.762
REMARK INTER:                  -7.379
REMARK INTRA:                  -1.383
REMARK UNBOUND:                -1.660
REMARK SMILES CCCCCCCCCCCCCCC(=O)[O-]
REMARK SMILES IDX 9 1 10 2 11 3 12 4 13 5 14 6 15 7 16 8 17 9 8 10 7 11 6 12
REMARK SMILES IDX 5 13 4 14 3 15 2 16 1 17
REMARK H PARENT
REMARK Flexibility Score: inf
ROOT
ATOM      1  C   UNL     1      25.432  -3.651  19.286  1.00  0.00     0.000 C 
ENDROOT
BRANCH   1   2
ATOM      2  C   UNL     1      26.755  -4.432  19.217  1.00  0.00     0.000 C 
BRANCH   2   3
ATOM      3  C   UNL     1      26.539  -5.952  19.162  1.00  0.00     0.000 C 
BRANCH   3   4
ATOM      4  C   UNL     1      26.715  -6.525  17.745  1.00  0.00     0.000 C 
BRANCH   4   5
ATOM      5  C   UNL     1      25.524  -7.397  17.304  1.00  0.00     0.006 C 
BRANCH   5   6
ATOM      6  C   UNL     1      24.770  -8.067  18.464  1.00  0.00     0.053 C 
BRANCH   6   7
ATOM      7  C   UNL     1      23.829  -9.128  17.983  1.00  0.00     0.041 C 
ATOM      8  O   UNL     1      23.665  -9.319  16.749  1.00  0.00    -0.550 OA
ATOM      9  O   UNL     1      23.104  -9.881  18.899  1.00  0.00    -0.550 OA
ENDBRANCH   6   7
ENDBRANCH   5   6
ENDBRANCH   4   5
ENDBRANCH   3   4
ENDBRANCH   2   3
ENDBRANCH   1   2
BRANCH   1  10
ATOM     10  C   UNL     1      24.228  -4.544  19.633  1.00  0.00     0.000 C 
BRANCH  10  11
ATOM     11  C   UNL     1      22.918  -4.201  18.893  1.00  0.00    -0.000 C 
BRANCH  11  12
ATOM     12  C   UNL     1      22.911  -4.527  17.389  1.00  0.00    -0.000 C 
BRANCH  12  13
ATOM     13  C   UNL     1      23.145  -3.289  16.509  1.00  0.00    -0.000 C 
BRANCH  13  14
ATOM     14  C   UNL     1      22.698  -3.551  15.063  1.00  0.00    -0.000 C 
BRANCH  14  15
ATOM     15  C   UNL     1      21.956  -4.896  14.915  1.00  0.00    -0.000 C 
BRANCH  15  16
ATOM     16  C   UNL     1      21.375  -5.128  13.509  1.00  0.00    -0.003 C 
ATOM     17  C   UNL     1      21.198  -3.836  12.714  1.00  0.00     0.004 C 
ENDBRANCH  15  16
ENDBRANCH  14  15
ENDBRANCH  13  14
ENDBRANCH  12  13
ENDBRANCH  11  12
ENDBRANCH  10  11
ENDBRANCH   1  10
TORSDOF 13
ENDMDL
MODEL 6
REMARK VINA RESULT:    -3.996      2.776      4.201
REMARK INTER + INTRA:          -8.692
REMARK INTER:                  -6.629
REMARK INTRA:                  -2.063
REMARK UNBOUND:                -1.660
REMARK SMILES CCCCCCCCCCCCCCC(=O)[O-]
REMARK SMILES IDX 9 1 10 2 11 3 12 4 13 5 14 6 15 7 16 8 17 9 8 10 7 11 6 12
REMARK SMILES IDX 5 13 4 14 3 15 2 16 1 17
REMARK H PARENT
REMARK Flexibility Score: inf
ROOT
ATOM      1  C   UNL     1      26.860  -5.909  19.233  1.00  0.00     0.000 C 
ENDROOT
BRANCH   1   2
ATOM      2  C   UNL     1      26.344  -7.058  18.350  1.00  0.00     0.000 C 
BRANCH   2   3
ATOM      3  C   UNL     1      24.855  -7.357  18.584  1.00  0.00     0.000 C 
BRANCH   3   4
ATOM      4  C   UNL     1      24.324  -6.742  19.891  1.00  0.00     0.000 C 
BRANCH   4   5
ATOM      5  C   UNL     1      23.017  -5.953  19.688  1.00  0.00     0.006 C 
BRANCH   5   6
ATOM      6  C   UNL     1      22.911  -4.679  20.541  1.00  0.00     0.053 C 
BRANCH   6   7
ATOM      7  C   UNL     1      21.595  -3.988  20.358  1.00  0.00     0.041 C 
ATOM      8  O   UNL     1      20.860  -3.751  21.354  1.00  0.00    -0.550 OA
ATOM      9  O   UNL     1      21.162  -3.639  19.085  1.00  0.00    -0.550 OA
ENDBRANCH   6   7
ENDBRANCH   5   6
ENDBRANCH   4   5
ENDBRANCH   3   4
ENDBRANCH   2   3
ENDBRANCH   1   2
BRANCH   1  10
ATOM     10  C   UNL     1      27.025  -4.589  18.460  1.00  0.00     0.000 C 
BRANCH  10  11
ATOM     11  C   UNL     1      25.920  -3.540  18.703  1.00  0.00    -0.000 C 
BRANCH  11  12
ATOM     12  C   UNL     1      24.796  -3.519  17.652  1.00  0.00    -0.000 C 
BRANCH  12  13
ATOM     13  C   UNL     1      25.207  -4.180  16.327  1.00  0.00    -0.000 C 
BRANCH  13  14
ATOM     14  C   UNL     1      24.151  -5.198  15.871  1.00  0.00    -0.000 C 
BRANCH  14  15
ATOM     15  C   UNL     1      22.717  -4.635  15.964  1.00  0.00    -0.000 C 
BRANCH  15  16
ATOM     16  C   UNL     1      22.083  -4.335  14.595  1.00  0.00    -0.003 C 
ATOM     17  C   UNL     1      21.285  -5.510  14.034  1.00  0.00     0.004 C 
ENDBRANCH  15  16
ENDBRANCH  14  15
ENDBRANCH  13  14
ENDBRANCH  12  13
ENDBRANCH  11  12
ENDBRANCH  10  11
ENDBRANCH   1  10
TORSDOF 13
ENDMDL
MODEL 7
REMARK VINA RESULT:    -3.996      2.592      3.613
REMARK INTER + INTRA:          -8.692
REMARK INTER:                  -7.042
REMARK INTRA:                  -1.650
REMARK UNBOUND:                -1.660
REMARK SMILES CCCCCCCCCCCCCCC(=O)[O-]
REMARK SMILES IDX 9 1 10 2 11 3 12 4 13 5 14 6 15 7 16 8 17 9 8 10 7 11 6 12
REMARK SMILES IDX 5 13 4 14 3 15 2 16 1 17
REMARK H PARENT
REMARK Flexibility Score: inf
ROOT
ATOM      1  C   UNL     1      27.470  -3.913  19.320  1.00  0.00     0.000 C 
ENDROOT
BRANCH   1   2
ATOM      2  C   UNL     1      27.737  -5.065  18.337  1.00  0.00     0.000 C 
BRANCH   2   3
ATOM      3  C   UNL     1      27.189  -6.409  18.842  1.00  0.00     0.000 C 
BRANCH   3   4
ATOM      4  C   UNL     1      26.280  -7.104  17.814  1.00  0.00     0.000 C 
BRANCH   4   5
ATOM      5  C   UNL     1      24.964  -7.612  18.432  1.00  0.00     0.006 C 
BRANCH   5   6
ATOM      6  C   UNL     1      24.512  -6.836  19.679  1.00  0.00     0.053 C 
BRANCH   6   7
ATOM      7  C   UNL     1      23.029  -6.910  19.881  1.00  0.00     0.041 C 
ATOM      8  O   UNL     1      22.434  -8.017  19.803  1.00  0.00    -0.550 OA
ATOM      9  O   UNL     1      22.301  -5.751  20.117  1.00  0.00    -0.550 OA
ENDBRANCH   6   7
ENDBRANCH   5   6
ENDBRANCH   4   5
ENDBRANCH   3   4
ENDBRANCH   2   3
ENDBRANCH   1   2
BRANCH   1  10
ATOM     10  C   UNL     1      26.029  -3.378  19.238  1.00  0.00     0.000 C 
BRANCH  10  11
ATOM     11  C   UNL     1      25.413  -3.359  17.824  1.00  0.00    -0.000 C 
BRANCH  11  12
ATOM     12  C   UNL     1      23.922  -3.736  17.754  1.00  0.00    -0.000 C 
BRANCH  12  13
ATOM     13  C   UNL     1      23.596  -4.658  16.570  1.00  0.00    -0.000 C 
BRANCH  13  14
ATOM     14  C   UNL     1      22.318  -4.199  15.852  1.00  0.00    -0.000 C 
BRANCH  14  15
ATOM     15  C   UNL     1      22.583  -3.801  14.384  1.00  0.00    -0.000 C 
BRANCH  15  16
ATOM     16  C   UNL     1      21.543  -4.360  13.397  1.00  0.00    -0.003 C 
ATOM     17  C   UNL     1      21.056  -5.759  13.768  1.00  0.00     0.004 C 
ENDBRANCH  15  16
ENDBRANCH  14  15
ENDBRANCH  13  14
ENDBRANCH  12  13
ENDBRANCH  11  12
ENDBRANCH  10  11
ENDBRANCH   1  10
TORSDOF 13
ENDMDL
MODEL 8
REMARK VINA RESULT:    -3.988      2.816      5.028
REMARK INTER + INTRA:          -8.678
REMARK INTER:                  -6.388
REMARK INTRA:                  -2.290
REMARK UNBOUND:                -1.660
REMARK SMILES CCCCCCCCCCCCCCC(=O)[O-]
REMARK SMILES IDX 9 1 10 2 11 3 12 4 13 5 14 6 15 7 16 8 17 9 8 10 7 11 6 12
REMARK SMILES IDX 5 13 4 14 3 15 2 16 1 17
REMARK H PARENT
REMARK Flexibility Score: inf
ROOT
ATOM      1  C   UNL     1      23.915  -5.129  15.746  1.00  0.00     0.000 C 
ENDROOT
BRANCH   1   2
ATOM      2  C   UNL     1      22.912  -4.459  16.700  1.00  0.00     0.000 C 
BRANCH   2   3
ATOM      3  C   UNL     1      23.584  -3.451  17.646  1.00  0.00     0.000 C 
BRANCH   3   4
ATOM      4  C   UNL     1      25.120  -3.511  17.584  1.00  0.00     0.000 C 
BRANCH   4   5
ATOM      5  C   UNL     1      25.769  -3.564  18.980  1.00  0.00     0.006 C 
BRANCH   5   6
ATOM      6  C   UNL     1      26.981  -4.504  19.076  1.00  0.00     0.053 C 
BRANCH   6   7
ATOM      7  C   UNL     1      28.075  -3.927  19.922  1.00  0.00     0.041 C 
ATOM      8  O   UNL     1      29.052  -4.642  20.267  1.00  0.00    -0.550 OA
ATOM      9  O   UNL     1      27.995  -2.611  20.359  1.00  0.00    -0.550 OA
ENDBRANCH   6   7
ENDBRANCH   5   6
ENDBRANCH   4   5
ENDBRANCH   3   4
ENDBRANCH   2   3
ENDBRANCH   1   2
BRANCH   1  10
ATOM     10  C   UNL     1      24.031  -6.647  15.971  1.00  0.00     0.000 C 
BRANCH  10  11
ATOM     11  C   UNL     1      25.362  -7.120  16.593  1.00  0.00    -0.000 C 
BRANCH  11  12
ATOM     12  C   UNL     1      25.224  -7.924  17.899  1.00  0.00    -0.000 C 
BRANCH  12  13
ATOM     13  C   UNL     1      24.591  -7.109  19.037  1.00  0.00    -0.000 C 
BRANCH  13  14
ATOM     14  C   UNL     1      23.131  -7.528  19.267  1.00  0.00    -0.000 C 
BRANCH  14  15
ATOM     15  C   UNL     1      22.325  -6.449  20.020  1.00  0.00    -0.000 C 
BRANCH  15  16
ATOM     16  C   UNL     1      23.205  -5.412  20.739  1.00  0.00    -0.003 C 
ATOM     17  C   UNL     1      22.418  -4.203  21.240  1.00  0.00     0.004 C 
ENDBRANCH  15  16
ENDBRANCH  14  15
ENDBRANCH  13  14
ENDBRANCH  12  13
ENDBRANCH  11  12
ENDBRANCH  10  11
ENDBRANCH   1  10
TORSDOF 13
ENDMDL
MODEL 9
REMARK VINA RESULT:    -3.984      2.333      5.033
REMARK INTER + INTRA:          -8.671
REMARK INTER:                  -7.047
REMARK INTRA:                  -1.624
REMARK UNBOUND:                -1.660
REMARK SMILES CCCCCCCCCCCCCCC(=O)[O-]
REMARK SMILES IDX 9 1 10 2 11 3 12 4 13 5 14 6 15 7 16 8 17 9 8 10 7 11 6 12
REMARK SMILES IDX 5 13 4 14 3 15 2 16 1 17
REMARK H PARENT
REMARK Flexibility Score: inf
ROOT
ATOM      1  C   UNL     1      26.105  -2.859  17.376  1.00  0.00     0.000 C 
ENDROOT
BRANCH   1   2
ATOM      2  C   UNL     1      24.989  -3.019  16.330  1.00  0.00     0.000 C 
BRANCH   2   3
ATOM      3  C   UNL     1      23.761  -3.756  16.887  1.00  0.00     0.000 C 
BRANCH   3   4
ATOM      4  C   UNL     1      22.508  -2.865  16.938  1.00  0.00     0.000 C 
BRANCH   4   5
ATOM      5  C   UNL     1      21.639  -3.132  18.181  1.00  0.00     0.006 C 
BRANCH   5   6
ATOM      6  C   UNL     1      22.182  -4.234  19.105  1.00  0.00     0.053 C 
BRANCH   6   7
ATOM      7  C   UNL     1      21.726  -4.056  20.520  1.00  0.00     0.041 C 
ATOM      8  O   UNL     1      20.621  -3.504  20.765  1.00  0.00    -0.550 OA
ATOM      9  O   UNL     1      22.538  -4.467  21.570  1.00  0.00    -0.550 OA
ENDBRANCH   6   7
ENDBRANCH   5   6
ENDBRANCH   4   5
ENDBRANCH   3   4
ENDBRANCH   2   3
ENDBRANCH   1   2
BRANCH   1  10
ATOM     10  C   UNL     1      25.872  -3.714  18.634  1.00  0.00     0.000 C 
BRANCH  10  11
ATOM     11  C   UNL     1      26.855  -4.887  18.825  1.00  0.00    -0.000 C 
BRANCH  11  12
ATOM     12  C   UNL     1      26.248  -6.288  18.625  1.00  0.00    -0.000 C 
BRANCH  12  13
ATOM     13  C   UNL     1      24.985  -6.516  19.469  1.00  0.00    -0.000 C 
BRANCH  13  14
ATOM     14  C   UNL     1      24.035  -7.507  18.779  1.00  0.00    -0.000 C 
BRANCH  14  15
ATOM     15  C   UNL     1      24.478  -7.833  17.336  1.00  0.00    -0.000 C 
BRANCH  15  16
ATOM     16  C   UNL     1      24.224  -9.294  16.929  1.00  0.00    -0.003 C 
ATOM     17  C   UNL     1      23.590 -10.125  18.043  1.00  0.00     0.004 C 
ENDBRANCH  15  16
ENDBRANCH  14  15
ENDBRANCH  13  14
ENDBRANCH  12  13
ENDBRANCH  11  12
ENDBRANCH  10  11
ENDBRANCH   1  10
TORSDOF 13
ENDMDL
