MODEL 1
REMARK VINA RESULT:    -6.637      0.000      0.000
REMARK INTER + INTRA:          -8.389
REMARK INTER:                  -7.995
REMARK INTRA:                  -0.395
REMARK UNBOUND:                -0.395
REMARK SMILES Oc1cc(O)c2c(c1)O[C@H](c1ccc(O)c(O)c1)[C@H](O)C2
REMARK SMILES IDX 21 1 19 2 10 3 9 4 7 5 8 6 2 7 3 8 4 9 6 10 20 11 11 13
REMARK SMILES IDX 18 14 12 15 16 16 13 17 14 18 17 19 15 21 5 23 1 25
REMARK H PARENT 20 12 17 20 15 22 5 24 1 26
REMARK Flexibility Score: inf
ROOT
ATOM      1  C   UNL     1      12.286  28.250  40.065  1.00  0.00     0.079 C 
ATOM      2  C   UNL     1      11.144  28.185  41.091  1.00  0.00     0.164 C 
ATOM      3  C   UNL     1      11.005  26.738  41.609  1.00  0.00     0.232 C 
ATOM      4  O   UNL     1      10.788  25.842  40.517  1.00  0.00    -0.482 OA
ATOM      5  C   UNL     1      11.430  26.004  39.283  1.00  0.00     0.131 A 
ATOM      6  C   UNL     1      11.324  24.998  38.317  1.00  0.00     0.093 A 
ATOM      7  C   UNL     1      11.960  25.140  37.078  1.00  0.00     0.122 A 
ATOM      8  C   UNL     1      12.705  26.292  36.808  1.00  0.00     0.092 A 
ATOM      9  C   UNL     1      12.816  27.309  37.767  1.00  0.00     0.126 A 
ATOM     10  C   UNL     1      12.159  27.178  39.005  1.00  0.00     0.039 A 
ENDROOT
BRANCH   2  11
ATOM     11  O   UNL     1       9.950  28.606  40.478  1.00  0.00    -0.389 OA
ATOM     12  H   UNL     1      10.179  28.877  39.550  1.00  0.00     0.211 HD
ENDBRANCH   2  11
BRANCH   3  13
ATOM     13  C   UNL     1       9.896  26.613  42.628  1.00  0.00    -0.001 A 
ATOM     14  C   UNL     1       8.866  25.679  42.429  1.00  0.00     0.057 A 
ATOM     15  C   UNL     1       9.909  27.376  43.809  1.00  0.00     0.012 A 
ATOM     16  C   UNL     1       7.848  25.526  43.378  1.00  0.00     0.157 A 
ATOM     17  C   UNL     1       8.895  27.226  44.757  1.00  0.00     0.050 A 
ATOM     18  C   UNL     1       7.860  26.304  44.547  1.00  0.00     0.157 A 
BRANCH  16  19
ATOM     19  O   UNL     1       6.837  24.596  43.142  1.00  0.00    -0.504 OA
ATOM     20  H   UNL     1       5.904  24.875  42.865  1.00  0.00     0.293 HD
ENDBRANCH  16  19
BRANCH  18  21
ATOM     21  O   UNL     1       6.848  26.157  45.496  1.00  0.00    -0.504 OA
ATOM     22  H   UNL     1       6.462  25.248  45.723  1.00  0.00     0.293 HD
ENDBRANCH  18  21
ENDBRANCH   3  13
BRANCH   9  23
ATOM     23  O   UNL     1      13.577  28.446  37.494  1.00  0.00    -0.507 OA
ATOM     24  H   UNL     1      14.523  28.379  37.139  1.00  0.00     0.293 HD
ENDBRANCH   9  23
BRANCH   7  25
ATOM     25  O   UNL     1      11.860  24.144  36.111  1.00  0.00    -0.508 OA
ATOM     26  H   UNL     1      12.681  23.771  35.647  1.00  0.00     0.293 HD
ENDBRANCH   7  25
TORSDOF 6
ENDMDL
MODEL 2
REMARK VINA RESULT:    -6.534      1.778      3.555
REMARK INTER + INTRA:          -8.265
REMARK INTER:                  -7.922
REMARK INTRA:                  -0.343
REMARK UNBOUND:                -0.395
REMARK SMILES Oc1cc(O)c2c(c1)O[C@H](c1ccc(O)c(O)c1)[C@H](O)C2
REMARK SMILES IDX 21 1 19 2 10 3 9 4 7 5 8 6 2 7 3 8 4 9 6 10 20 11 11 13
REMARK SMILES IDX 18 14 12 15 16 16 13 17 14 18 17 19 15 21 5 23 1 25
REMARK H PARENT 20 12 17 20 15 22 5 24 1 26
REMARK Flexibility Score: inf
ROOT
ATOM      1  C   UNL     1       9.374  23.313  38.253  1.00  0.00     0.079 C 
ATOM      2  C   UNL     1       8.940  23.191  39.722  1.00  0.00     0.164 C 
ATOM      3  C   UNL     1       8.593  24.591  40.270  1.00  0.00     0.232 C 
ATOM      4  O   UNL     1       9.709  25.470  40.119  1.00  0.00    -0.482 OA
ATOM      5  C   UNL     1      10.542  25.429  38.993  1.00  0.00     0.131 A 
ATOM      6  C   UNL     1      11.501  26.430  38.813  1.00  0.00     0.093 A 
ATOM      7  C   UNL     1      12.341  26.409  37.693  1.00  0.00     0.122 A 
ATOM      8  C   UNL     1      12.217  25.382  36.752  1.00  0.00     0.092 A 
ATOM      9  C   UNL     1      11.261  24.371  36.924  1.00  0.00     0.126 A 
ATOM     10  C   UNL     1      10.430  24.379  38.060  1.00  0.00     0.039 A 
ENDROOT
BRANCH   2  11
ATOM     11  O   UNL     1       9.987  22.616  40.465  1.00  0.00    -0.389 OA
ATOM     12  H   UNL     1      10.378  23.337  41.024  1.00  0.00     0.211 HD
ENDBRANCH   2  11
BRANCH   3  13
ATOM     13  C   UNL     1       8.153  24.532  41.715  1.00  0.00    -0.001 A 
ATOM     14  C   UNL     1       8.629  25.486  42.630  1.00  0.00     0.057 A 
ATOM     15  C   UNL     1       7.223  23.571  42.150  1.00  0.00     0.012 A 
ATOM     16  C   UNL     1       8.207  25.468  43.964  1.00  0.00     0.157 A 
ATOM     17  C   UNL     1       6.801  23.550  43.481  1.00  0.00     0.050 A 
ATOM     18  C   UNL     1       7.290  24.494  44.394  1.00  0.00     0.157 A 
BRANCH  16  19
ATOM     19  O   UNL     1       8.708  26.425  44.846  1.00  0.00    -0.504 OA
ATOM     20  H   UNL     1       9.632  26.348  45.254  1.00  0.00     0.293 HD
ENDBRANCH  16  19
BRANCH  18  21
ATOM     21  O   UNL     1       6.867  24.470  45.723  1.00  0.00    -0.504 OA
ATOM     22  H   UNL     1       7.521  24.573  46.490  1.00  0.00     0.293 HD
ENDBRANCH  18  21
ENDBRANCH   3  13
BRANCH   9  23
ATOM     23  O   UNL     1      11.134  23.361  35.969  1.00  0.00    -0.507 OA
ATOM     24  H   UNL     1      10.358  23.340  35.319  1.00  0.00     0.293 HD
ENDBRANCH   9  23
BRANCH   7  25
ATOM     25  O   UNL     1      13.298  27.402  37.506  1.00  0.00    -0.508 OA
ATOM     26  H   UNL     1      13.037  28.352  37.264  1.00  0.00     0.293 HD
ENDBRANCH   7  25
TORSDOF 6
ENDMDL
MODEL 3
REMARK VINA RESULT:    -6.519      1.563      6.722
REMARK INTER + INTRA:          -8.247
REMARK INTER:                  -7.948
REMARK INTRA:                  -0.299
REMARK UNBOUND:                -0.395
REMARK SMILES Oc1cc(O)c2c(c1)O[C@H](c1ccc(O)c(O)c1)[C@H](O)C2
REMARK SMILES IDX 21 1 19 2 10 3 9 4 7 5 8 6 2 7 3 8 4 9 6 10 20 11 11 13
REMARK SMILES IDX 18 14 12 15 16 16 13 17 14 18 17 19 15 21 5 23 1 25
REMARK H PARENT 20 12 17 20 15 22 5 24 1 26
REMARK Flexibility Score: inf
ROOT
ATOM      1  C   UNL     1      11.800  27.559  42.136  1.00  0.00     0.079 C 
ATOM      2  C   UNL     1      11.930  26.663  40.893  1.00  0.00     0.164 C 
ATOM      3  C   UNL     1      10.591  26.659  40.125  1.00  0.00     0.232 C 
ATOM      4  O   UNL     1       9.532  26.226  40.983  1.00  0.00    -0.482 OA
ATOM      5  C   UNL     1       9.476  26.587  42.335  1.00  0.00     0.131 A 
ATOM      6  C   UNL     1       8.327  26.291  43.076  1.00  0.00     0.093 A 
ATOM      7  C   UNL     1       8.249  26.645  44.427  1.00  0.00     0.122 A 
ATOM      8  C   UNL     1       9.325  27.299  45.037  1.00  0.00     0.092 A 
ATOM      9  C   UNL     1      10.483  27.597  44.306  1.00  0.00     0.126 A 
ATOM     10  C   UNL     1      10.571  27.223  42.952  1.00  0.00     0.039 A 
ENDROOT
BRANCH   2  11
ATOM     11  O   UNL     1      12.270  25.360  41.299  1.00  0.00    -0.389 OA
ATOM     12  H   UNL     1      11.755  24.733  40.727  1.00  0.00     0.211 HD
ENDBRANCH   2  11
BRANCH   3  13
ATOM     13  C   UNL     1      10.660  25.795  38.887  1.00  0.00    -0.001 A 
ATOM     14  C   UNL     1      11.805  25.830  38.074  1.00  0.00     0.057 A 
ATOM     15  C   UNL     1       9.620  24.905  38.566  1.00  0.00     0.012 A 
ATOM     16  C   UNL     1      11.901  25.013  36.942  1.00  0.00     0.157 A 
ATOM     17  C   UNL     1       9.713  24.089  37.437  1.00  0.00     0.050 A 
ATOM     18  C   UNL     1      10.850  24.139  36.619  1.00  0.00     0.157 A 
BRANCH  16  19
ATOM     19  O   UNL     1      13.049  25.082  36.153  1.00  0.00    -0.504 OA
ATOM     20  H   UNL     1      13.277  24.368  35.472  1.00  0.00     0.293 HD
ENDBRANCH  16  19
BRANCH  18  21
ATOM     21  O   UNL     1      10.940  23.323  35.492  1.00  0.00    -0.504 OA
ATOM     22  H   UNL     1      11.372  23.648  34.635  1.00  0.00     0.293 HD
ENDBRANCH  18  21
ENDBRANCH   3  13
BRANCH   9  23
ATOM     23  O   UNL     1      11.543  28.267  44.919  1.00  0.00    -0.507 OA
ATOM     24  H   UNL     1      11.628  28.314  45.927  1.00  0.00     0.293 HD
ENDBRANCH   9  23
BRANCH   7  25
ATOM     25  O   UNL     1       7.109  26.355  45.172  1.00  0.00    -0.508 OA
ATOM     26  H   UNL     1       6.227  26.129  44.726  1.00  0.00     0.293 HD
ENDBRANCH   7  25
TORSDOF 6
ENDMDL
MODEL 4
REMARK VINA RESULT:    -6.373      2.916      5.931
REMARK INTER + INTRA:          -8.071
REMARK INTER:                  -7.714
REMARK INTRA:                  -0.357
REMARK UNBOUND:                -0.395
REMARK SMILES Oc1cc(O)c2c(c1)O[C@H](c1ccc(O)c(O)c1)[C@H](O)C2
REMARK SMILES IDX 21 1 19 2 10 3 9 4 7 5 8 6 2 7 3 8 4 9 6 10 20 11 11 13
REMARK SMILES IDX 18 14 12 15 16 16 13 17 14 18 17 19 15 21 5 23 1 25
REMARK H PARENT 20 12 17 20 15 22 5 24 1 26
REMARK Flexibility Score: inf
ROOT
ATOM      1  C   UNL     1       7.576  25.137  41.586  1.00  0.00     0.079 C 
ATOM      2  C   UNL     1       8.944  25.819  41.751  1.00  0.00     0.164 C 
ATOM      3  C   UNL     1       9.546  26.096  40.357  1.00  0.00     0.232 C 
ATOM      4  O   UNL     1       9.646  24.880  39.613  1.00  0.00    -0.482 OA
ATOM      5  C   UNL     1       8.666  23.882  39.682  1.00  0.00     0.131 A 
ATOM      6  C   UNL     1       8.723  22.802  38.796  1.00  0.00     0.093 A 
ATOM      7  C   UNL     1       7.751  21.796  38.847  1.00  0.00     0.122 A 
ATOM      8  C   UNL     1       6.719  21.874  39.787  1.00  0.00     0.092 A 
ATOM      9  C   UNL     1       6.653  22.951  40.683  1.00  0.00     0.126 A 
ATOM     10  C   UNL     1       7.642  23.952  40.647  1.00  0.00     0.039 A 
ENDROOT
BRANCH   2  11
ATOM     11  O   UNL     1       9.790  24.979  42.496  1.00  0.00    -0.389 OA
ATOM     12  H   UNL     1      10.245  24.377  41.851  1.00  0.00     0.211 HD
ENDBRANCH   2  11
BRANCH   3  13
ATOM     13  C   UNL     1      10.894  26.772  40.457  1.00  0.00    -0.001 A 
ATOM     14  C   UNL     1      11.052  27.900  41.279  1.00  0.00     0.057 A 
ATOM     15  C   UNL     1      12.016  26.253  39.785  1.00  0.00     0.012 A 
ATOM     16  C   UNL     1      12.300  28.519  41.410  1.00  0.00     0.157 A 
ATOM     17  C   UNL     1      13.262  26.870  39.914  1.00  0.00     0.050 A 
ATOM     18  C   UNL     1      13.411  28.004  40.723  1.00  0.00     0.157 A 
BRANCH  16  19
ATOM     19  O   UNL     1      12.415  29.643  42.228  1.00  0.00    -0.504 OA
ATOM     20  H   UNL     1      12.948  30.457  41.950  1.00  0.00     0.293 HD
ENDBRANCH  16  19
BRANCH  18  21
ATOM     21  O   UNL     1      14.657  28.618  40.848  1.00  0.00    -0.504 OA
ATOM     22  H   UNL     1      15.518  28.107  40.694  1.00  0.00     0.293 HD
ENDBRANCH  18  21
ENDBRANCH   3  13
BRANCH   9  23
ATOM     23  O   UNL     1       5.609  23.029  41.605  1.00  0.00    -0.507 OA
ATOM     24  H   UNL     1       4.757  23.536  41.400  1.00  0.00     0.293 HD
ENDBRANCH   9  23
BRANCH   7  25
ATOM     25  O   UNL     1       7.801  20.717  37.968  1.00  0.00    -0.508 OA
ATOM     26  H   UNL     1       8.466  19.962  38.092  1.00  0.00     0.293 HD
ENDBRANCH   7  25
TORSDOF 6
ENDMDL
MODEL 5
REMARK VINA RESULT:    -6.351      9.695     11.339
REMARK INTER + INTRA:          -8.045
REMARK INTER:                  -7.737
REMARK INTRA:                  -0.308
REMARK UNBOUND:                -0.395
REMARK SMILES Oc1cc(O)c2c(c1)O[C@H](c1ccc(O)c(O)c1)[C@H](O)C2
REMARK SMILES IDX 21 1 19 2 10 3 9 4 7 5 8 6 2 7 3 8 4 9 6 10 20 11 11 13
REMARK SMILES IDX 18 14 12 15 16 16 13 17 14 18 17 19 15 21 5 23 1 25
REMARK H PARENT 20 12 17 20 15 22 5 24 1 26
REMARK Flexibility Score: inf
ROOT
ATOM      1  C   UNL     1      17.324  20.360  41.863  1.00  0.00     0.079 C 
ATOM      2  C   UNL     1      16.351  19.298  41.327  1.00  0.00     0.164 C 
ATOM      3  C   UNL     1      17.118  17.982  41.078  1.00  0.00     0.232 C 
ATOM      4  O   UNL     1      18.205  18.208  40.177  1.00  0.00    -0.482 OA
ATOM      5  C   UNL     1      18.971  19.380  40.214  1.00  0.00     0.131 A 
ATOM      6  C   UNL     1      20.131  19.466  39.438  1.00  0.00     0.093 A 
ATOM      7  C   UNL     1      20.911  20.627  39.463  1.00  0.00     0.122 A 
ATOM      8  C   UNL     1      20.529  21.704  40.270  1.00  0.00     0.092 A 
ATOM      9  C   UNL     1      19.366  21.630  41.050  1.00  0.00     0.126 A 
ATOM     10  C   UNL     1      18.569  20.472  41.010  1.00  0.00     0.039 A 
ENDROOT
BRANCH   2  11
ATOM     11  O   UNL     1      15.772  19.765  40.133  1.00  0.00    -0.389 OA
ATOM     12  H   UNL     1      16.084  20.699  40.004  1.00  0.00     0.211 HD
ENDBRANCH   2  11
BRANCH   3  13
ATOM     13  C   UNL     1      16.208  16.896  40.552  1.00  0.00    -0.001 A 
ATOM     14  C   UNL     1      14.931  16.723  41.112  1.00  0.00     0.057 A 
ATOM     15  C   UNL     1      16.593  16.091  39.465  1.00  0.00     0.012 A 
ATOM     16  C   UNL     1      14.061  15.745  40.616  1.00  0.00     0.157 A 
ATOM     17  C   UNL     1      15.727  15.114  38.969  1.00  0.00     0.050 A 
ATOM     18  C   UNL     1      14.461  14.934  39.541  1.00  0.00     0.157 A 
BRANCH  16  19
ATOM     19  O   UNL     1      12.806  15.595  41.204  1.00  0.00    -0.504 OA
ATOM     20  H   UNL     1      11.976  16.028  40.817  1.00  0.00     0.293 HD
ENDBRANCH  16  19
BRANCH  18  21
ATOM     21  O   UNL     1      13.599  13.957  39.044  1.00  0.00    -0.504 OA
ATOM     22  H   UNL     1      13.513  13.781  38.049  1.00  0.00     0.293 HD
ENDBRANCH  18  21
ENDBRANCH   3  13
BRANCH   9  23
ATOM     23  O   UNL     1      19.004  22.704  41.865  1.00  0.00    -0.507 OA
ATOM     24  H   UNL     1      18.711  23.591  41.475  1.00  0.00     0.293 HD
ENDBRANCH   9  23
BRANCH   7  25
ATOM     25  O   UNL     1      22.068  20.721  38.694  1.00  0.00    -0.508 OA
ATOM     26  H   UNL     1      22.707  21.502  38.790  1.00  0.00     0.293 HD
ENDBRANCH   7  25
TORSDOF 6
ENDMDL
MODEL 6
REMARK VINA RESULT:    -6.340      1.777      6.525
REMARK INTER + INTRA:          -8.032
REMARK INTER:                  -7.649
REMARK INTRA:                  -0.382
REMARK UNBOUND:                -0.395
REMARK SMILES Oc1cc(O)c2c(c1)O[C@H](c1ccc(O)c(O)c1)[C@H](O)C2
REMARK SMILES IDX 21 1 19 2 10 3 9 4 7 5 8 6 2 7 3 8 4 9 6 10 20 11 11 13
REMARK SMILES IDX 18 14 12 15 16 16 13 17 14 18 17 19 15 21 5 23 1 25
REMARK H PARENT 20 12 17 20 15 22 5 24 1 26
REMARK Flexibility Score: inf
ROOT
ATOM      1  C   UNL     1       9.166  26.017  44.141  1.00  0.00     0.079 C 
ATOM      2  C   UNL     1      10.459  26.375  43.392  1.00  0.00     0.164 C 
ATOM      3  C   UNL     1      10.110  26.829  41.959  1.00  0.00     0.232 C 
ATOM      4  O   UNL     1       9.371  25.808  41.284  1.00  0.00    -0.482 OA
ATOM      5  C   UNL     1       8.415  25.024  41.941  1.00  0.00     0.131 A 
ATOM      6  C   UNL     1       7.597  24.171  41.194  1.00  0.00     0.093 A 
ATOM      7  C   UNL     1       6.633  23.381  41.831  1.00  0.00     0.122 A 
ATOM      8  C   UNL     1       6.489  23.447  43.221  1.00  0.00     0.092 A 
ATOM      9  C   UNL     1       7.307  24.295  43.981  1.00  0.00     0.126 A 
ATOM     10  C   UNL     1       8.290  25.075  43.344  1.00  0.00     0.039 A 
ENDROOT
BRANCH   2  11
ATOM     11  O   UNL     1      11.300  25.248  43.361  1.00  0.00    -0.389 OA
ATOM     12  H   UNL     1      10.735  24.458  43.567  1.00  0.00     0.211 HD
ENDBRANCH   2  11
BRANCH   3  13
ATOM     13  C   UNL     1      11.346  27.200  41.173  1.00  0.00    -0.001 A 
ATOM     14  C   UNL     1      11.546  26.663  39.891  1.00  0.00     0.057 A 
ATOM     15  C   UNL     1      12.276  28.126  41.680  1.00  0.00     0.012 A 
ATOM     16  C   UNL     1      12.668  27.021  39.134  1.00  0.00     0.157 A 
ATOM     17  C   UNL     1      13.397  28.484  40.928  1.00  0.00     0.050 A 
ATOM     18  C   UNL     1      13.600  27.934  39.655  1.00  0.00     0.157 A 
BRANCH  16  19
ATOM     19  O   UNL     1      12.839  26.461  37.869  1.00  0.00    -0.504 OA
ATOM     20  H   UNL     1      12.131  25.877  37.440  1.00  0.00     0.293 HD
ENDBRANCH  16  19
BRANCH  18  21
ATOM     21  O   UNL     1      14.721  28.293  38.907  1.00  0.00    -0.504 OA
ATOM     22  H   UNL     1      15.097  29.234  38.933  1.00  0.00     0.293 HD
ENDBRANCH  18  21
ENDBRANCH   3  13
BRANCH   9  23
ATOM     23  O   UNL     1       7.142  24.367  45.365  1.00  0.00    -0.507 OA
ATOM     24  H   UNL     1       7.935  24.385  45.994  1.00  0.00     0.293 HD
ENDBRANCH   9  23
BRANCH   7  25
ATOM     25  O   UNL     1       5.813  22.530  41.095  1.00  0.00    -0.508 OA
ATOM     26  H   UNL     1       5.231  22.876  40.340  1.00  0.00     0.293 HD
ENDBRANCH   7  25
TORSDOF 6
ENDMDL
MODEL 7
REMARK VINA RESULT:    -6.335      1.890      3.354
REMARK INTER + INTRA:          -8.026
REMARK INTER:                  -7.639
REMARK INTRA:                  -0.387
REMARK UNBOUND:                -0.395
REMARK SMILES Oc1cc(O)c2c(c1)O[C@H](c1ccc(O)c(O)c1)[C@H](O)C2
REMARK SMILES IDX 21 1 19 2 10 3 9 4 7 5 8 6 2 7 3 8 4 9 6 10 20 11 11 13
REMARK SMILES IDX 18 14 12 15 16 16 13 17 14 18 17 19 15 21 5 23 1 25
REMARK H PARENT 20 12 17 20 15 22 5 24 1 26
REMARK Flexibility Score: inf
ROOT
ATOM      1  C   UNL     1       8.475  24.091  39.380  1.00  0.00     0.079 C 
ATOM      2  C   UNL     1       8.732  24.517  40.834  1.00  0.00     0.164 C 
ATOM      3  C   UNL     1       9.350  25.931  40.849  1.00  0.00     0.232 C 
ATOM      4  O   UNL     1      10.549  25.954  40.071  1.00  0.00    -0.482 OA
ATOM      5  C   UNL     1      10.675  25.230  38.879  1.00  0.00     0.131 A 
ATOM      6  C   UNL     1      11.796  25.434  38.068  1.00  0.00     0.093 A 
ATOM      7  C   UNL     1      11.940  24.724  36.871  1.00  0.00     0.122 A 
ATOM      8  C   UNL     1      10.957  23.806  36.486  1.00  0.00     0.092 A 
ATOM      9  C   UNL     1       9.831  23.590  37.292  1.00  0.00     0.126 A 
ATOM     10  C   UNL     1       9.695  24.288  38.506  1.00  0.00     0.039 A 
ENDROOT
BRANCH   2  11
ATOM     11  O   UNL     1       9.601  23.592  41.438  1.00  0.00    -0.389 OA
ATOM     12  H   UNL     1       9.340  22.691  41.113  1.00  0.00     0.211 HD
ENDBRANCH   2  11
BRANCH   3  13
ATOM     13  C   UNL     1       9.621  26.407  42.258  1.00  0.00    -0.001 A 
ATOM     14  C   UNL     1       8.556  26.560  43.161  1.00  0.00     0.057 A 
ATOM     15  C   UNL     1      10.934  26.640  42.704  1.00  0.00     0.012 A 
ATOM     16  C   UNL     1       8.791  26.967  44.479  1.00  0.00     0.157 A 
ATOM     17  C   UNL     1      11.172  27.046  44.019  1.00  0.00     0.050 A 
ATOM     18  C   UNL     1      10.104  27.214  44.911  1.00  0.00     0.157 A 
BRANCH  16  19
ATOM     19  O   UNL     1       7.707  27.118  45.344  1.00  0.00    -0.504 OA
ATOM     20  H   UNL     1       7.230  26.324  45.752  1.00  0.00     0.293 HD
ENDBRANCH  16  19
BRANCH  18  21
ATOM     21  O   UNL     1      10.344  27.621  46.224  1.00  0.00    -0.504 OA
ATOM     22  H   UNL     1       9.622  28.058  46.784  1.00  0.00     0.293 HD
ENDBRANCH  18  21
ENDBRANCH   3  13
BRANCH   9  23
ATOM     23  O   UNL     1       8.847  22.685  36.889  1.00  0.00    -0.507 OA
ATOM     24  H   UNL     1       8.044  22.981  36.348  1.00  0.00     0.293 HD
ENDBRANCH   9  23
BRANCH   7  25
ATOM     25  O   UNL     1      13.052  24.921  36.058  1.00  0.00    -0.508 OA
ATOM     26  H   UNL     1      13.524  24.146  35.606  1.00  0.00     0.293 HD
ENDBRANCH   7  25
TORSDOF 6
ENDMDL
MODEL 8
REMARK VINA RESULT:    -6.327      1.977      6.990
REMARK INTER + INTRA:          -8.016
REMARK INTER:                  -7.629
REMARK INTRA:                  -0.387
REMARK UNBOUND:                -0.395
REMARK SMILES Oc1cc(O)c2c(c1)O[C@H](c1ccc(O)c(O)c1)[C@H](O)C2
REMARK SMILES IDX 21 1 19 2 10 3 9 4 7 5 8 6 2 7 3 8 4 9 6 10 20 11 11 13
REMARK SMILES IDX 18 14 12 15 16 16 13 17 14 18 17 19 15 21 5 23 1 25
REMARK H PARENT 20 12 17 20 15 22 5 24 1 26
REMARK Flexibility Score: inf
ROOT
ATOM      1  C   UNL     1       8.014  23.632  39.740  1.00  0.00     0.079 C 
ATOM      2  C   UNL     1       8.985  24.677  39.167  1.00  0.00     0.164 C 
ATOM      3  C   UNL     1      10.260  24.719  40.035  1.00  0.00     0.232 C 
ATOM      4  O   UNL     1       9.921  24.999  41.395  1.00  0.00    -0.482 OA
ATOM      5  C   UNL     1       8.772  24.474  41.999  1.00  0.00     0.131 A 
ATOM      6  C   UNL     1       8.589  24.630  43.377  1.00  0.00     0.093 A 
ATOM      7  C   UNL     1       7.448  24.110  43.999  1.00  0.00     0.122 A 
ATOM      8  C   UNL     1       6.489  23.432  43.239  1.00  0.00     0.092 A 
ATOM      9  C   UNL     1       6.660  23.274  41.857  1.00  0.00     0.126 A 
ATOM     10  C   UNL     1       7.796  23.814  41.225  1.00  0.00     0.039 A 
ENDROOT
BRANCH   2  11
ATOM     11  O   UNL     1       8.354  25.933  39.156  1.00  0.00    -0.389 OA
ATOM     12  H   UNL     1       8.968  26.572  39.604  1.00  0.00     0.211 HD
ENDBRANCH   2  11
BRANCH   3  13
ATOM     13  C   UNL     1      11.256  25.729  39.515  1.00  0.00    -0.001 A 
ATOM     14  C   UNL     1      11.725  25.633  38.195  1.00  0.00     0.057 A 
ATOM     15  C   UNL     1      11.678  26.807  40.314  1.00  0.00     0.012 A 
ATOM     16  C   UNL     1      12.622  26.579  37.685  1.00  0.00     0.157 A 
ATOM     17  C   UNL     1      12.574  27.752  39.808  1.00  0.00     0.050 A 
ATOM     18  C   UNL     1      13.051  27.643  38.495  1.00  0.00     0.157 A 
BRANCH  16  19
ATOM     19  O   UNL     1      13.073  26.445  36.372  1.00  0.00    -0.504 OA
ATOM     20  H   UNL     1      12.626  25.823  35.711  1.00  0.00     0.293 HD
ENDBRANCH  16  19
BRANCH  18  21
ATOM     21  O   UNL     1      13.946  28.588  37.993  1.00  0.00    -0.504 OA
ATOM     22  H   UNL     1      13.624  29.436  37.543  1.00  0.00     0.293 HD
ENDBRANCH  18  21
ENDBRANCH   3  13
BRANCH   9  23
ATOM     23  O   UNL     1       5.706  22.580  41.111  1.00  0.00    -0.507 OA
ATOM     24  H   UNL     1       5.175  23.031  40.376  1.00  0.00     0.293 HD
ENDBRANCH   9  23
BRANCH   7  25
ATOM     25  O   UNL     1       7.258  24.260  45.371  1.00  0.00    -0.508 OA
ATOM     26  H   UNL     1       6.670  23.624  45.897  1.00  0.00     0.293 HD
ENDBRANCH   7  25
TORSDOF 6
ENDMDL
MODEL 9
REMARK VINA RESULT:    -6.169      2.082      3.376
REMARK INTER + INTRA:          -7.826
REMARK INTER:                  -7.445
REMARK INTRA:                  -0.381
REMARK UNBOUND:                -0.395
REMARK SMILES Oc1cc(O)c2c(c1)O[C@H](c1ccc(O)c(O)c1)[C@H](O)C2
REMARK SMILES IDX 21 1 19 2 10 3 9 4 7 5 8 6 2 7 3 8 4 9 6 10 20 11 11 13
REMARK SMILES IDX 18 14 12 15 16 16 13 17 14 18 17 19 15 21 5 23 1 25
REMARK H PARENT 20 12 17 20 15 22 5 24 1 26
REMARK Flexibility Score: inf
ROOT
ATOM      1  C   UNL     1      10.380  25.968  38.110  1.00  0.00     0.079 C 
ATOM      2  C   UNL     1       9.565  25.056  39.042  1.00  0.00     0.164 C 
ATOM      3  C   UNL     1       9.180  25.841  40.314  1.00  0.00     0.232 C 
ATOM      4  O   UNL     1      10.353  26.343  40.957  1.00  0.00    -0.482 OA
ATOM      5  C   UNL     1      11.449  26.828  40.233  1.00  0.00     0.131 A 
ATOM      6  C   UNL     1      12.487  27.475  40.911  1.00  0.00     0.093 A 
ATOM      7  C   UNL     1      13.590  27.970  40.205  1.00  0.00     0.122 A 
ATOM      8  C   UNL     1      13.652  27.816  38.816  1.00  0.00     0.092 A 
ATOM      9  C   UNL     1      12.619  27.166  38.126  1.00  0.00     0.126 A 
ATOM     10  C   UNL     1      11.519  26.650  38.837  1.00  0.00     0.039 A 
ENDROOT
BRANCH   2  11
ATOM     11  O   UNL     1      10.337  23.928  39.372  1.00  0.00    -0.389 OA
ATOM     12  H   UNL     1      10.890  23.710  38.577  1.00  0.00     0.211 HD
ENDBRANCH   2  11
BRANCH   3  13
ATOM     13  C   UNL     1       8.371  24.993  41.268  1.00  0.00    -0.001 A 
ATOM     14  C   UNL     1       7.196  24.365  40.822  1.00  0.00     0.057 A 
ATOM     15  C   UNL     1       8.807  24.769  42.587  1.00  0.00     0.012 A 
ATOM     16  C   UNL     1       6.452  23.549  41.681  1.00  0.00     0.157 A 
ATOM     17  C   UNL     1       8.066  23.957  43.447  1.00  0.00     0.050 A 
ATOM     18  C   UNL     1       6.886  23.345  43.001  1.00  0.00     0.157 A 
BRANCH  16  19
ATOM     19  O   UNL     1       5.286  22.950  41.205  1.00  0.00    -0.504 OA
ATOM     20  H   UNL     1       5.212  22.594  40.260  1.00  0.00     0.293 HD
ENDBRANCH  16  19
BRANCH  18  21
ATOM     21  O   UNL     1       6.148  22.534  43.863  1.00  0.00    -0.504 OA
ATOM     22  H   UNL     1       5.136  22.498  43.821  1.00  0.00     0.293 HD
ENDBRANCH  18  21
ENDBRANCH   3  13
BRANCH   9  23
ATOM     23  O   UNL     1      12.682  27.034  36.738  1.00  0.00    -0.507 OA
ATOM     24  H   UNL     1      12.273  26.240  36.261  1.00  0.00     0.293 HD
ENDBRANCH   9  23
BRANCH   7  25
ATOM     25  O   UNL     1      14.628  28.616  40.872  1.00  0.00    -0.508 OA
ATOM     26  H   UNL     1      14.447  29.308  41.590  1.00  0.00     0.293 HD
ENDBRANCH   7  25
TORSDOF 6
ENDMDL
