MODEL 1
REMARK VINA RESULT:    -6.054      0.000      0.000
REMARK INTER + INTRA:          -6.649
REMARK INTER:                  -6.585
REMARK INTRA:                  -0.064
REMARK UNBOUND:                -0.064
REMARK SMILES COc1cc2ccc(=O)oc2cc1O
REMARK SMILES IDX 3 1 13 2 12 3 11 4 5 5 4 6 6 7 7 8 8 9 9 10 10 11 2 12 1 13
REMARK SMILES IDX 14 14
REMARK H PARENT 14 15
REMARK Flexibility Score: inf
ROOT
ATOM      1  C   UNL     1     -36.027  16.224  50.744  1.00  0.00     0.161 A 
ATOM      2  C   UNL     1     -35.044  16.674  49.847  1.00  0.00     0.161 A 
ATOM      3  C   UNL     1     -33.687  16.429  50.103  1.00  0.00     0.098 A 
ATOM      4  C   UNL     1     -33.302  15.735  51.253  1.00  0.00     0.142 A 
ATOM      5  C   UNL     1     -34.282  15.280  52.159  1.00  0.00     0.022 A 
ATOM      6  C   UNL     1     -35.639  15.524  51.904  1.00  0.00     0.062 A 
ATOM      7  C   UNL     1     -33.866  14.588  53.301  1.00  0.00     0.019 A 
ATOM      8  C   UNL     1     -32.504  14.370  53.510  1.00  0.00     0.094 A 
ATOM      9  C   UNL     1     -31.588  14.851  52.568  1.00  0.00     0.336 A 
ATOM     10  O   UNL     1     -30.355  14.663  52.738  1.00  0.00    -0.246 OA
ATOM     11  O   UNL     1     -32.013  15.506  51.490  1.00  0.00    -0.423 OA
ENDROOT
BRANCH   1  12
ATOM     12  O   UNL     1     -37.373  16.492  50.447  1.00  0.00    -0.493 OA
ATOM     13  C   UNL     1     -38.322  15.508  50.048  1.00  0.00     0.278 C 
ENDBRANCH   1  12
BRANCH   2  14
ATOM     14  O   UNL     1     -35.426  17.366  48.699  1.00  0.00    -0.504 OA
ATOM     15  H   UNL     1     -34.745  17.817  48.101  1.00  0.00     0.293 HD
ENDBRANCH   2  14
TORSDOF 2
ENDMDL
MODEL 2
REMARK VINA RESULT:    -5.707      1.229      5.422
REMARK INTER + INTRA:          -6.271
REMARK INTER:                  -6.223
REMARK INTRA:                  -0.048
REMARK UNBOUND:                -0.064
REMARK SMILES COc1cc2ccc(=O)oc2cc1O
REMARK SMILES IDX 3 1 13 2 12 3 11 4 5 5 4 6 6 7 7 8 8 9 9 10 10 11 2 12 1 13
REMARK SMILES IDX 14 14
REMARK H PARENT 14 15
REMARK Flexibility Score: inf
ROOT
ATOM      1  C   UNL     1     -32.029  15.114  52.453  1.00  0.00     0.161 A 
ATOM      2  C   UNL     1     -32.998  14.637  53.351  1.00  0.00     0.161 A 
ATOM      3  C   UNL     1     -34.363  14.808  53.077  1.00  0.00     0.098 A 
ATOM      4  C   UNL     1     -34.770  15.456  51.907  1.00  0.00     0.142 A 
ATOM      5  C   UNL     1     -33.803  15.938  51.001  1.00  0.00     0.022 A 
ATOM      6  C   UNL     1     -32.439  15.768  51.274  1.00  0.00     0.062 A 
ATOM      7  C   UNL     1     -34.242  16.582  49.839  1.00  0.00     0.019 A 
ATOM      8  C   UNL     1     -35.611  16.728  49.612  1.00  0.00     0.094 A 
ATOM      9  C   UNL     1     -36.511  16.224  50.557  1.00  0.00     0.336 A 
ATOM     10  O   UNL     1     -37.751  16.344  50.370  1.00  0.00    -0.246 OA
ATOM     11  O   UNL     1     -36.066  15.615  51.653  1.00  0.00    -0.423 OA
ENDROOT
BRANCH   1  12
ATOM     12  O   UNL     1     -30.675  14.921  52.769  1.00  0.00    -0.493 OA
ATOM     13  C   UNL     1     -29.624  15.804  52.389  1.00  0.00     0.278 C 
ENDBRANCH   1  12
BRANCH   2  14
ATOM     14  O   UNL     1     -32.594  13.990  54.518  1.00  0.00    -0.504 OA
ATOM     15  H   UNL     1     -32.796  13.011  54.679  1.00  0.00     0.293 HD
ENDBRANCH   2  14
TORSDOF 2
ENDMDL
MODEL 3
REMARK VINA RESULT:    -5.623      7.284      8.523
REMARK INTER + INTRA:          -6.181
REMARK INTER:                  -6.137
REMARK INTRA:                  -0.044
REMARK UNBOUND:                -0.064
REMARK SMILES COc1cc2ccc(=O)oc2cc1O
REMARK SMILES IDX 3 1 13 2 12 3 11 4 5 5 4 6 6 7 7 8 8 9 9 10 10 11 2 12 1 13
REMARK SMILES IDX 14 14
REMARK H PARENT 14 15
REMARK Flexibility Score: inf
ROOT
ATOM      1  C   UNL     1     -26.931  16.585  54.248  1.00  0.00     0.161 A 
ATOM      2  C   UNL     1     -27.499  16.764  52.976  1.00  0.00     0.161 A 
ATOM      3  C   UNL     1     -27.472  15.724  52.035  1.00  0.00     0.098 A 
ATOM      4  C   UNL     1     -26.879  14.500  52.357  1.00  0.00     0.142 A 
ATOM      5  C   UNL     1     -26.307  14.312  53.631  1.00  0.00     0.022 A 
ATOM      6  C   UNL     1     -26.333  15.351  54.572  1.00  0.00     0.062 A 
ATOM      7  C   UNL     1     -25.721  13.075  53.923  1.00  0.00     0.019 A 
ATOM      8  C   UNL     1     -25.720  12.073  52.953  1.00  0.00     0.094 A 
ATOM      9  C   UNL     1     -26.307  12.332  51.710  1.00  0.00     0.336 A 
ATOM     10  O   UNL     1     -26.316  11.440  50.821  1.00  0.00    -0.246 OA
ATOM     11  O   UNL     1     -26.857  13.517  51.460  1.00  0.00    -0.423 OA
ENDROOT
BRANCH   1  12
ATOM     12  O   UNL     1     -26.981  17.653  55.157  1.00  0.00    -0.493 OA
ATOM     13  C   UNL     1     -25.966  18.643  55.296  1.00  0.00     0.278 C 
ENDBRANCH   1  12
BRANCH   2  14
ATOM     14  O   UNL     1     -28.091  17.984  52.654  1.00  0.00    -0.504 OA
ATOM     15  H   UNL     1     -28.046  18.364  51.716  1.00  0.00     0.293 HD
ENDBRANCH   2  14
TORSDOF 2
ENDMDL
MODEL 4
REMARK VINA RESULT:    -5.612      1.672      5.353
REMARK INTER + INTRA:          -6.168
REMARK INTER:                  -6.120
REMARK INTRA:                  -0.048
REMARK UNBOUND:                -0.064
REMARK SMILES COc1cc2ccc(=O)oc2cc1O
REMARK SMILES IDX 3 1 13 2 12 3 11 4 5 5 4 6 6 7 7 8 8 9 9 10 10 11 2 12 1 13
REMARK SMILES IDX 14 14
REMARK H PARENT 14 15
REMARK Flexibility Score: inf
ROOT
ATOM      1  C   UNL     1     -31.591  13.679  54.152  1.00  0.00     0.161 A 
ATOM      2  C   UNL     1     -30.634  14.104  53.217  1.00  0.00     0.161 A 
ATOM      3  C   UNL     1     -31.013  14.903  52.128  1.00  0.00     0.098 A 
ATOM      4  C   UNL     1     -32.348  15.282  51.965  1.00  0.00     0.142 A 
ATOM      5  C   UNL     1     -33.316  14.859  52.899  1.00  0.00     0.022 A 
ATOM      6  C   UNL     1     -32.938  14.061  53.988  1.00  0.00     0.062 A 
ATOM      7  C   UNL     1     -34.644  15.254  52.708  1.00  0.00     0.019 A 
ATOM      8  C   UNL     1     -34.971  16.049  51.609  1.00  0.00     0.094 A 
ATOM      9  C   UNL     1     -33.957  16.430  50.724  1.00  0.00     0.336 A 
ATOM     10  O   UNL     1     -34.231  17.147  49.726  1.00  0.00    -0.246 OA
ATOM     11  O   UNL     1     -32.702  16.039  50.930  1.00  0.00    -0.423 OA
ENDROOT
BRANCH   1  12
ATOM     12  O   UNL     1     -31.166  12.881  55.226  1.00  0.00    -0.493 OA
ATOM     13  C   UNL     1     -31.779  12.866  56.512  1.00  0.00     0.278 C 
ENDBRANCH   1  12
BRANCH   2  14
ATOM     14  O   UNL     1     -29.302  13.728  53.378  1.00  0.00    -0.504 OA
ATOM     15  H   UNL     1     -28.623  13.850  52.637  1.00  0.00     0.293 HD
ENDBRANCH   2  14
TORSDOF 2
ENDMDL
MODEL 5
REMARK VINA RESULT:    -5.599      7.470      8.331
REMARK INTER + INTRA:          -6.154
REMARK INTER:                  -6.108
REMARK INTRA:                  -0.046
REMARK UNBOUND:                -0.064
REMARK SMILES COc1cc2ccc(=O)oc2cc1O
REMARK SMILES IDX 3 1 13 2 12 3 11 4 5 5 4 6 6 7 7 8 8 9 9 10 10 11 2 12 1 13
REMARK SMILES IDX 14 14
REMARK H PARENT 14 15
REMARK Flexibility Score: inf
ROOT
ATOM      1  C   UNL     1     -27.186  15.696  52.870  1.00  0.00     0.161 A 
ATOM      2  C   UNL     1     -27.564  16.905  53.474  1.00  0.00     0.161 A 
ATOM      3  C   UNL     1     -27.643  17.005  54.871  1.00  0.00     0.098 A 
ATOM      4  C   UNL     1     -27.345  15.901  55.673  1.00  0.00     0.142 A 
ATOM      5  C   UNL     1     -26.964  14.683  55.075  1.00  0.00     0.022 A 
ATOM      6  C   UNL     1     -26.885  14.582  53.679  1.00  0.00     0.062 A 
ATOM      7  C   UNL     1     -26.671  13.595  55.905  1.00  0.00     0.019 A 
ATOM      8  C   UNL     1     -26.764  13.745  57.288  1.00  0.00     0.094 A 
ATOM      9  C   UNL     1     -27.149  14.984  57.811  1.00  0.00     0.336 A 
ATOM     10  O   UNL     1     -27.239  15.141  59.057  1.00  0.00    -0.246 OA
ATOM     11  O   UNL     1     -27.421  16.003  56.998  1.00  0.00    -0.423 OA
ENDROOT
BRANCH   1  12
ATOM     12  O   UNL     1     -27.121  15.642  51.469  1.00  0.00    -0.493 OA
ATOM     13  C   UNL     1     -27.187  14.442  50.704  1.00  0.00     0.278 C 
ENDBRANCH   1  12
BRANCH   2  14
ATOM     14  O   UNL     1     -27.863  18.008  52.675  1.00  0.00    -0.504 OA
ATOM     15  H   UNL     1     -27.364  18.884  52.773  1.00  0.00     0.293 HD
ENDBRANCH   2  14
TORSDOF 2
ENDMDL
MODEL 6
REMARK VINA RESULT:    -5.533      2.182      3.759
REMARK INTER + INTRA:          -6.083
REMARK INTER:                  -6.018
REMARK INTRA:                  -0.065
REMARK UNBOUND:                -0.064
REMARK SMILES COc1cc2ccc(=O)oc2cc1O
REMARK SMILES IDX 3 1 13 2 12 3 11 4 5 5 4 6 6 7 7 8 8 9 9 10 10 11 2 12 1 13
REMARK SMILES IDX 14 14
REMARK H PARENT 14 15
REMARK Flexibility Score: inf
ROOT
ATOM      1  C   UNL     1     -32.819  15.761  52.054  1.00  0.00     0.161 A 
ATOM      2  C   UNL     1     -31.418  15.718  51.963  1.00  0.00     0.161 A 
ATOM      3  C   UNL     1     -30.688  14.780  52.707  1.00  0.00     0.098 A 
ATOM      4  C   UNL     1     -31.350  13.879  53.546  1.00  0.00     0.142 A 
ATOM      5  C   UNL     1     -32.756  13.915  53.643  1.00  0.00     0.022 A 
ATOM      6  C   UNL     1     -33.486  14.852  52.900  1.00  0.00     0.062 A 
ATOM      7  C   UNL     1     -33.389  13.000  54.491  1.00  0.00     0.019 A 
ATOM      8  C   UNL     1     -32.618  12.087  55.210  1.00  0.00     0.094 A 
ATOM      9  C   UNL     1     -31.227  12.110  55.064  1.00  0.00     0.336 A 
ATOM     10  O   UNL     1     -30.514  11.293  55.703  1.00  0.00    -0.246 OA
ATOM     11  O   UNL     1     -30.651  12.991  54.249  1.00  0.00    -0.423 OA
ENDROOT
BRANCH   1  12
ATOM     12  O   UNL     1     -33.508  16.717  51.291  1.00  0.00    -0.493 OA
ATOM     13  C   UNL     1     -34.237  16.427  50.102  1.00  0.00     0.278 C 
ENDBRANCH   1  12
BRANCH   2  14
ATOM     14  O   UNL     1     -30.757  16.616  51.127  1.00  0.00    -0.504 OA
ATOM     15  H   UNL     1     -30.499  17.544  51.442  1.00  0.00     0.293 HD
ENDBRANCH   2  14
TORSDOF 2
ENDMDL
MODEL 7
REMARK VINA RESULT:    -5.464      7.489      8.626
REMARK INTER + INTRA:          -6.007
REMARK INTER:                  -5.944
REMARK INTRA:                  -0.064
REMARK UNBOUND:                -0.064
REMARK SMILES COc1cc2ccc(=O)oc2cc1O
REMARK SMILES IDX 3 1 13 2 12 3 11 4 5 5 4 6 6 7 7 8 8 9 9 10 10 11 2 12 1 13
REMARK SMILES IDX 14 14
REMARK H PARENT 14 15
REMARK Flexibility Score: inf
ROOT
ATOM      1  C   UNL     1     -26.742  15.724  55.388  1.00  0.00     0.161 A 
ATOM      2  C   UNL     1     -27.200  16.882  54.738  1.00  0.00     0.161 A 
ATOM      3  C   UNL     1     -27.415  16.879  53.352  1.00  0.00     0.098 A 
ATOM      4  C   UNL     1     -27.175  15.723  52.605  1.00  0.00     0.142 A 
ATOM      5  C   UNL     1     -26.715  14.556  53.249  1.00  0.00     0.022 A 
ATOM      6  C   UNL     1     -26.500  14.557  54.634  1.00  0.00     0.062 A 
ATOM      7  C   UNL     1     -26.483  13.414  52.474  1.00  0.00     0.019 A 
ATOM      8  C   UNL     1     -26.712  13.462  51.099  1.00  0.00     0.094 A 
ATOM      9  C   UNL     1     -27.169  14.655  50.530  1.00  0.00     0.336 A 
ATOM     10  O   UNL     1     -27.382  14.719  49.290  1.00  0.00    -0.246 OA
ATOM     11  O   UNL     1     -27.381  15.727  51.291  1.00  0.00    -0.423 OA
ENDROOT
BRANCH   1  12
ATOM     12  O   UNL     1     -26.541  15.773  56.776  1.00  0.00    -0.493 OA
ATOM     13  C   UNL     1     -27.468  15.288  57.743  1.00  0.00     0.278 C 
ENDBRANCH   1  12
BRANCH   2  14
ATOM     14  O   UNL     1     -27.441  18.036  55.481  1.00  0.00    -0.504 OA
ATOM     15  H   UNL     1     -26.970  18.208  56.361  1.00  0.00     0.293 HD
ENDBRANCH   2  14
TORSDOF 2
ENDMDL
MODEL 8
REMARK VINA RESULT:    -5.461      2.111      5.837
REMARK INTER + INTRA:          -6.004
REMARK INTER:                  -5.940
REMARK INTRA:                  -0.064
REMARK UNBOUND:                -0.064
REMARK SMILES COc1cc2ccc(=O)oc2cc1O
REMARK SMILES IDX 3 1 13 2 12 3 11 4 5 5 4 6 6 7 7 8 8 9 9 10 10 11 2 12 1 13
REMARK SMILES IDX 14 14
REMARK H PARENT 14 15
REMARK Flexibility Score: inf
ROOT
ATOM      1  C   UNL     1     -29.425  14.551  52.885  1.00  0.00     0.161 A 
ATOM      2  C   UNL     1     -29.380  15.488  51.840  1.00  0.00     0.161 A 
ATOM      3  C   UNL     1     -30.564  16.064  51.354  1.00  0.00     0.098 A 
ATOM      4  C   UNL     1     -31.797  15.710  51.907  1.00  0.00     0.142 A 
ATOM      5  C   UNL     1     -31.851  14.770  52.957  1.00  0.00     0.022 A 
ATOM      6  C   UNL     1     -30.669  14.194  53.443  1.00  0.00     0.062 A 
ATOM      7  C   UNL     1     -33.100  14.436  53.489  1.00  0.00     0.019 A 
ATOM      8  C   UNL     1     -34.248  15.037  52.972  1.00  0.00     0.094 A 
ATOM      9  C   UNL     1     -34.117  15.961  51.929  1.00  0.00     0.336 A 
ATOM     10  O   UNL     1     -35.141  16.515  51.449  1.00  0.00    -0.246 OA
ATOM     11  O   UNL     1     -32.916  16.260  51.442  1.00  0.00    -0.423 OA
ENDROOT
BRANCH   1  12
ATOM     12  O   UNL     1     -28.216  14.000  53.339  1.00  0.00    -0.493 OA
ATOM     13  C   UNL     1     -27.631  14.275  54.608  1.00  0.00     0.278 C 
ENDBRANCH   1  12
BRANCH   2  14
ATOM     14  O   UNL     1     -28.151  15.842  51.287  1.00  0.00    -0.504 OA
ATOM     15  H   UNL     1     -27.403  16.220  51.855  1.00  0.00     0.293 HD
ENDBRANCH   2  14
TORSDOF 2
ENDMDL
MODEL 9
REMARK VINA RESULT:    -5.447      1.724      3.175
REMARK INTER + INTRA:          -5.988
REMARK INTER:                  -5.938
REMARK INTRA:                  -0.050
REMARK UNBOUND:                -0.064
REMARK SMILES COc1cc2ccc(=O)oc2cc1O
REMARK SMILES IDX 3 1 13 2 12 3 11 4 5 5 4 6 6 7 7 8 8 9 9 10 10 11 2 12 1 13
REMARK SMILES IDX 14 14
REMARK H PARENT 14 15
REMARK Flexibility Score: inf
ROOT
ATOM      1  C   UNL     1     -34.291  15.803  51.913  1.00  0.00     0.161 A 
ATOM      2  C   UNL     1     -34.415  14.900  52.982  1.00  0.00     0.161 A 
ATOM      3  C   UNL     1     -33.273  14.334  53.567  1.00  0.00     0.098 A 
ATOM      4  C   UNL     1     -32.002  14.663  53.091  1.00  0.00     0.142 A 
ATOM      5  C   UNL     1     -31.868  15.569  52.018  1.00  0.00     0.022 A 
ATOM      6  C   UNL     1     -33.009  16.136  51.433  1.00  0.00     0.062 A 
ATOM      7  C   UNL     1     -30.582  15.879  51.564  1.00  0.00     0.019 A 
ATOM      8  C   UNL     1     -29.477  15.289  52.179  1.00  0.00     0.094 A 
ATOM      9  C   UNL     1     -29.687  14.399  53.238  1.00  0.00     0.336 A 
ATOM     10  O   UNL     1     -28.704  13.856  53.807  1.00  0.00    -0.246 OA
ATOM     11  O   UNL     1     -30.922  14.122  53.650  1.00  0.00    -0.423 OA
ENDROOT
BRANCH   1  12
ATOM     12  O   UNL     1     -35.461  16.345  51.359  1.00  0.00    -0.493 OA
ATOM     13  C   UNL     1     -35.669  16.561  49.966  1.00  0.00     0.278 C 
ENDBRANCH   1  12
BRANCH   2  14
ATOM     14  O   UNL     1     -35.683  14.570  53.458  1.00  0.00    -0.504 OA
ATOM     15  H   UNL     1     -36.113  15.081  54.219  1.00  0.00     0.293 HD
ENDBRANCH   2  14
TORSDOF 2
ENDMDL
