MODEL 1
REMARK VINA RESULT:    -3.392      0.000      0.000
REMARK INTER + INTRA:          -5.888
REMARK INTER:                  -5.177
REMARK INTRA:                  -0.711
REMARK UNBOUND:                -0.711
REMARK SMILES O=C([O-])CCCCCCCCC(=O)[O-]
REMARK SMILES IDX 7 1 6 2 5 3 4 4 2 5 1 6 3 7 8 8 9 9 10 10 11 11 12 12 13 13
REMARK SMILES IDX 14 14
REMARK H PARENT
REMARK Flexibility Score: inf
ROOT
ATOM      1  C   UNL     1       6.793   9.908   7.407  1.00  0.00     0.000 C 
ENDROOT
BRANCH   1   2
ATOM      2  C   UNL     1       7.771   9.183   8.351  1.00  0.00     0.000 C 
BRANCH   2   3
ATOM      3  C   UNL     1       9.243   9.623   8.199  1.00  0.00     0.006 C 
BRANCH   3   4
ATOM      4  C   UNL     1      10.056   8.742   7.236  1.00  0.00     0.053 C 
BRANCH   4   5
ATOM      5  C   UNL     1      10.274   9.397   5.908  1.00  0.00     0.041 C 
ATOM      6  O   UNL     1       9.834  10.558   5.693  1.00  0.00    -0.550 OA
ATOM      7  O   UNL     1      10.966   8.727   4.907  1.00  0.00    -0.550 OA
ENDBRANCH   4   5
ENDBRANCH   3   4
ENDBRANCH   2   3
ENDBRANCH   1   2
BRANCH   1   8
ATOM      8  C   UNL     1       5.403  10.155   8.037  1.00  0.00     0.000 C 
BRANCH   8   9
ATOM      9  C   UNL     1       4.802  11.498   7.591  1.00  0.00     0.000 C 
BRANCH   9  10
ATOM     10  C   UNL     1       5.376  12.693   8.370  1.00  0.00     0.006 C 
BRANCH  10  11
ATOM     11  C   UNL     1       6.281  13.580   7.503  1.00  0.00     0.053 C 
BRANCH  11  12
ATOM     12  C   UNL     1       7.716  13.373   7.868  1.00  0.00     0.041 C 
ATOM     13  O   UNL     1       8.629  13.709   7.066  1.00  0.00    -0.550 OA
ATOM     14  O   UNL     1       8.049  12.854   9.111  1.00  0.00    -0.550 OA
ENDBRANCH  11  12
ENDBRANCH  10  11
ENDBRANCH   9  10
ENDBRANCH   8   9
ENDBRANCH   1   8
TORSDOF 9
ENDMDL
MODEL 2
REMARK VINA RESULT:    -3.375      1.234      5.070
REMARK INTER + INTRA:          -5.862
REMARK INTER:                  -4.867
REMARK INTRA:                  -0.995
REMARK UNBOUND:                -0.711
REMARK SMILES O=C([O-])CCCCCCCCC(=O)[O-]
REMARK SMILES IDX 7 1 6 2 5 3 4 4 2 5 1 6 3 7 8 8 9 9 10 10 11 11 12 12 13 13
REMARK SMILES IDX 14 14
REMARK H PARENT
REMARK Flexibility Score: inf
ROOT
ATOM      1  C   UNL     1       6.905   9.140   7.308  1.00  0.00     0.000 C 
ENDROOT
BRANCH   1   2
ATOM      2  C   UNL     1       5.679  10.031   7.580  1.00  0.00     0.000 C 
BRANCH   2   3
ATOM      3  C   UNL     1       5.962  11.233   8.507  1.00  0.00     0.006 C 
BRANCH   3   4
ATOM      4  C   UNL     1       6.330  12.522   7.754  1.00  0.00     0.053 C 
BRANCH   4   5
ATOM      5  C   UNL     1       7.676  13.048   8.144  1.00  0.00     0.041 C 
ATOM      6  O   UNL     1       8.118  12.858   9.309  1.00  0.00    -0.550 OA
ATOM      7  O   UNL     1       8.445  13.745   7.222  1.00  0.00    -0.550 OA
ENDBRANCH   4   5
ENDBRANCH   3   4
ENDBRANCH   2   3
ENDBRANCH   1   2
BRANCH   1   8
ATOM      8  C   UNL     1       7.973   9.208   8.424  1.00  0.00     0.000 C 
BRANCH   8   9
ATOM      9  C   UNL     1       9.330   9.695   7.890  1.00  0.00     0.000 C 
BRANCH   9  10
ATOM     10  C   UNL     1       9.261  10.157   6.425  1.00  0.00     0.006 C 
BRANCH  10  11
ATOM     11  C   UNL     1      10.255   9.411   5.525  1.00  0.00     0.053 C 
BRANCH  11  12
ATOM     12  C   UNL     1       9.566   8.302   4.796  1.00  0.00     0.041 C 
ATOM     13  O   UNL     1       9.720   7.108   5.166  1.00  0.00    -0.550 OA
ATOM     14  O   UNL     1       8.715   8.589   3.737  1.00  0.00    -0.550 OA
ENDBRANCH  11  12
ENDBRANCH  10  11
ENDBRANCH   9  10
ENDBRANCH   8   9
ENDBRANCH   1   8
TORSDOF 9
ENDMDL
MODEL 3
REMARK VINA RESULT:    -3.358      1.282      5.563
REMARK INTER + INTRA:          -5.837
REMARK INTER:                  -5.048
REMARK INTRA:                  -0.789
REMARK UNBOUND:                -0.711
REMARK SMILES O=C([O-])CCCCCCCCC(=O)[O-]
REMARK SMILES IDX 7 1 6 2 5 3 4 4 2 5 1 6 3 7 8 8 9 9 10 10 11 11 12 12 13 13
REMARK SMILES IDX 14 14
REMARK H PARENT
REMARK Flexibility Score: inf
ROOT
ATOM      1  C   UNL     1       8.098   9.357   8.604  1.00  0.00     0.000 C 
ENDROOT
BRANCH   1   2
ATOM      2  C   UNL     1       6.922   9.900   7.771  1.00  0.00     0.000 C 
BRANCH   2   3
ATOM      3  C   UNL     1       6.122  11.024   8.462  1.00  0.00     0.006 C 
BRANCH   3   4
ATOM      4  C   UNL     1       6.331  12.411   7.831  1.00  0.00     0.053 C 
BRANCH   4   5
ATOM      5  C   UNL     1       7.647  13.017   8.206  1.00  0.00     0.041 C 
ATOM      6  O   UNL     1       8.112  12.856   9.365  1.00  0.00    -0.550 OA
ATOM      7  O   UNL     1       8.363  13.759   7.275  1.00  0.00    -0.550 OA
ENDBRANCH   4   5
ENDBRANCH   3   4
ENDBRANCH   2   3
ENDBRANCH   1   2
BRANCH   1   8
ATOM      8  C   UNL     1       9.469   9.518   7.908  1.00  0.00     0.000 C 
BRANCH   8   9
ATOM      9  C   UNL     1       9.343  10.228   6.550  1.00  0.00     0.000 C 
BRANCH   9  10
ATOM     10  C   UNL     1       9.724   9.321   5.368  1.00  0.00     0.006 C 
BRANCH  10  11
ATOM     11  C   UNL     1      10.580   8.122   5.799  1.00  0.00     0.053 C 
BRANCH  11  12
ATOM     12  C   UNL     1      11.797   8.015   4.936  1.00  0.00     0.041 C 
ATOM     13  O   UNL     1      12.128   6.903   4.443  1.00  0.00    -0.550 OA
ATOM     14  O   UNL     1      12.538   9.149   4.636  1.00  0.00    -0.550 OA
ENDBRANCH  11  12
ENDBRANCH  10  11
ENDBRANCH   9  10
ENDBRANCH   8   9
ENDBRANCH   1   8
TORSDOF 9
ENDMDL
MODEL 4
REMARK VINA RESULT:    -3.281      0.855      4.755
REMARK INTER + INTRA:          -5.718
REMARK INTER:                  -4.821
REMARK INTRA:                  -0.897
REMARK UNBOUND:                -0.711
REMARK SMILES O=C([O-])CCCCCCCCC(=O)[O-]
REMARK SMILES IDX 7 1 6 2 5 3 4 4 2 5 1 6 3 7 8 8 9 9 10 10 11 11 12 12 13 13
REMARK SMILES IDX 14 14
REMARK H PARENT
REMARK Flexibility Score: inf
ROOT
ATOM      1  C   UNL     1       4.896  10.280   7.912  1.00  0.00     0.000 C 
ENDROOT
BRANCH   1   2
ATOM      2  C   UNL     1       4.470  11.722   7.580  1.00  0.00     0.000 C 
BRANCH   2   3
ATOM      3  C   UNL     1       5.220  12.805   8.385  1.00  0.00     0.006 C 
BRANCH   3   4
ATOM      4  C   UNL     1       6.170  13.663   7.532  1.00  0.00     0.053 C 
BRANCH   4   5
ATOM      5  C   UNL     1       7.602  13.505   7.937  1.00  0.00     0.041 C 
ATOM      6  O   UNL     1       7.893  13.088   9.089  1.00  0.00    -0.550 OA
ATOM      7  O   UNL     1       8.617  13.814   7.041  1.00  0.00    -0.550 OA
ENDBRANCH   4   5
ENDBRANCH   3   4
ENDBRANCH   2   3
ENDBRANCH   1   2
BRANCH   1   8
ATOM      8  C   UNL     1       6.365   9.973   7.541  1.00  0.00     0.000 C 
BRANCH   8   9
ATOM      9  C   UNL     1       7.225   9.694   8.784  1.00  0.00     0.000 C 
BRANCH   9  10
ATOM     10  C   UNL     1       8.732   9.718   8.480  1.00  0.00     0.006 C 
BRANCH  10  11
ATOM     11  C   UNL     1       9.037  10.194   7.053  1.00  0.00     0.053 C 
BRANCH  11  12
ATOM     12  C   UNL     1       9.764   9.130   6.293  1.00  0.00     0.041 C 
ATOM     13  O   UNL     1       9.453   7.918   6.445  1.00  0.00    -0.550 OA
ATOM     14  O   UNL     1      10.751   9.478   5.381  1.00  0.00    -0.550 OA
ENDBRANCH  11  12
ENDBRANCH  10  11
ENDBRANCH   9  10
ENDBRANCH   8   9
ENDBRANCH   1   8
TORSDOF 9
ENDMDL
MODEL 5
REMARK VINA RESULT:    -3.263      1.335      2.088
REMARK INTER + INTRA:          -5.690
REMARK INTER:                  -5.038
REMARK INTRA:                  -0.653
REMARK UNBOUND:                -0.711
REMARK SMILES O=C([O-])CCCCCCCCC(=O)[O-]
REMARK SMILES IDX 7 1 6 2 5 3 4 4 2 5 1 6 3 7 8 8 9 9 10 10 11 11 12 12 13 13
REMARK SMILES IDX 14 14
REMARK H PARENT
REMARK Flexibility Score: inf
ROOT
ATOM      1  C   UNL     1       8.734   9.182   7.780  1.00  0.00     0.000 C 
ENDROOT
BRANCH   1   2
ATOM      2  C   UNL     1       8.930   9.834   6.399  1.00  0.00     0.000 C 
BRANCH   2   3
ATOM      3  C   UNL     1       9.617   8.923   5.359  1.00  0.00     0.006 C 
BRANCH   3   4
ATOM      4  C   UNL     1      11.092   8.625   5.675  1.00  0.00     0.053 C 
BRANCH   4   5
ATOM      5  C   UNL     1      11.924   8.481   4.440  1.00  0.00     0.041 C 
ATOM      6  O   UNL     1      11.578   7.679   3.532  1.00  0.00    -0.550 OA
ATOM      7  O   UNL     1      13.080   9.235   4.287  1.00  0.00    -0.550 OA
ENDBRANCH   4   5
ENDBRANCH   3   4
ENDBRANCH   2   3
ENDBRANCH   1   2
BRANCH   1   8
ATOM      8  C   UNL     1       7.290   9.307   8.317  1.00  0.00     0.000 C 
BRANCH   8   9
ATOM      9  C   UNL     1       6.424  10.218   7.432  1.00  0.00     0.000 C 
BRANCH   9  10
ATOM     10  C   UNL     1       5.839  11.413   8.203  1.00  0.00     0.006 C 
BRANCH  10  11
ATOM     11  C   UNL     1       6.378  12.759   7.699  1.00  0.00     0.053 C 
BRANCH  11  12
ATOM     12  C   UNL     1       7.775  12.976   8.185  1.00  0.00     0.041 C 
ATOM     13  O   UNL     1       8.691  13.271   7.371  1.00  0.00    -0.550 OA
ATOM     14  O   UNL     1       8.058  12.901   9.542  1.00  0.00    -0.550 OA
ENDBRANCH  11  12
ENDBRANCH  10  11
ENDBRANCH   9  10
ENDBRANCH   8   9
ENDBRANCH   1   8
TORSDOF 9
ENDMDL
MODEL 6
REMARK VINA RESULT:    -3.251      2.017      5.161
REMARK INTER + INTRA:          -5.673
REMARK INTER:                  -4.908
REMARK INTRA:                  -0.765
REMARK UNBOUND:                -0.711
REMARK SMILES O=C([O-])CCCCCCCCC(=O)[O-]
REMARK SMILES IDX 7 1 6 2 5 3 4 4 2 5 1 6 3 7 8 8 9 9 10 10 11 11 12 12 13 13
REMARK SMILES IDX 14 14
REMARK H PARENT
REMARK Flexibility Score: inf
ROOT
ATOM      1  C   UNL     1       4.921   9.940   7.685  1.00  0.00     0.000 C 
ENDROOT
BRANCH   1   2
ATOM      2  C   UNL     1       4.653  11.456   7.669  1.00  0.00     0.000 C 
BRANCH   2   3
ATOM      3  C   UNL     1       5.848  12.316   8.135  1.00  0.00     0.006 C 
BRANCH   3   4
ATOM      4  C   UNL     1       5.875  13.724   7.519  1.00  0.00     0.053 C 
BRANCH   4   5
ATOM      5  C   UNL     1       4.911  14.657   8.182  1.00  0.00     0.041 C 
ATOM      6  O   UNL     1       4.150  15.382   7.488  1.00  0.00    -0.550 OA
ATOM      7  O   UNL     1       4.850  14.727   9.568  1.00  0.00    -0.550 OA
ENDBRANCH   4   5
ENDBRANCH   3   4
ENDBRANCH   2   3
ENDBRANCH   1   2
BRANCH   1   8
ATOM      8  C   UNL     1       6.317   9.569   8.235  1.00  0.00     0.000 C 
BRANCH   8   9
ATOM      9  C   UNL     1       7.221   8.963   7.148  1.00  0.00     0.000 C 
BRANCH   9  10
ATOM     10  C   UNL     1       8.712   9.247   7.390  1.00  0.00     0.006 C 
BRANCH  10  11
ATOM     11  C   UNL     1       9.220  10.450   6.584  1.00  0.00     0.053 C 
BRANCH  11  12
ATOM     12  C   UNL     1       9.305  11.663   7.456  1.00  0.00     0.041 C 
ATOM     13  O   UNL     1       9.344  11.541   8.709  1.00  0.00    -0.550 OA
ATOM     14  O   UNL     1       9.390  12.925   6.884  1.00  0.00    -0.550 OA
ENDBRANCH  11  12
ENDBRANCH  10  11
ENDBRANCH   9  10
ENDBRANCH   8   9
ENDBRANCH   1   8
TORSDOF 9
ENDMDL
MODEL 7
REMARK VINA RESULT:    -3.217      2.928      5.928
REMARK INTER + INTRA:          -5.621
REMARK INTER:                  -5.033
REMARK INTRA:                  -0.589
REMARK UNBOUND:                -0.711
REMARK SMILES O=C([O-])CCCCCCCCC(=O)[O-]
REMARK SMILES IDX 7 1 6 2 5 3 4 4 2 5 1 6 3 7 8 8 9 9 10 10 11 11 12 12 13 13
REMARK SMILES IDX 14 14
REMARK H PARENT
REMARK Flexibility Score: inf
ROOT
ATOM      1  C   UNL     1       5.607  12.300   8.395  1.00  0.00     0.000 C 
ENDROOT
BRANCH   1   2
ATOM      2  C   UNL     1       5.892  13.532   7.516  1.00  0.00     0.000 C 
BRANCH   2   3
ATOM      3  C   UNL     1       4.847  14.660   7.648  1.00  0.00     0.006 C 
BRANCH   3   4
ATOM      4  C   UNL     1       3.448  14.271   7.145  1.00  0.00     0.053 C 
BRANCH   4   5
ATOM      5  C   UNL     1       2.944  15.196   6.082  1.00  0.00     0.041 C 
ATOM      6  O   UNL     1       1.965  14.862   5.363  1.00  0.00    -0.550 OA
ATOM      7  O   UNL     1       3.552  16.429   5.886  1.00  0.00    -0.550 OA
ENDBRANCH   4   5
ENDBRANCH   3   4
ENDBRANCH   2   3
ENDBRANCH   1   2
BRANCH   1   8
ATOM      8  C   UNL     1       5.456  10.991   7.587  1.00  0.00     0.000 C 
BRANCH   8   9
ATOM      9  C   UNL     1       6.667  10.061   7.769  1.00  0.00     0.000 C 
BRANCH   9  10
ATOM     10  C   UNL     1       7.719  10.638   8.731  1.00  0.00     0.006 C 
BRANCH  10  11
ATOM     11  C   UNL     1       9.152  10.456   8.214  1.00  0.00     0.053 C 
BRANCH  11  12
ATOM     12  C   UNL     1       9.399  11.350   7.040  1.00  0.00     0.041 C 
ATOM     13  O   UNL     1       9.651  10.855   5.909  1.00  0.00    -0.550 OA
ATOM     14  O   UNL     1       9.304  12.727   7.183  1.00  0.00    -0.550 OA
ENDBRANCH  11  12
ENDBRANCH  10  11
ENDBRANCH   9  10
ENDBRANCH   8   9
ENDBRANCH   1   8
TORSDOF 9
ENDMDL
MODEL 8
REMARK VINA RESULT:    -3.168      2.077      4.753
REMARK INTER + INTRA:          -5.545
REMARK INTER:                  -4.526
REMARK INTRA:                  -1.020
REMARK UNBOUND:                -0.711
REMARK SMILES O=C([O-])CCCCCCCCC(=O)[O-]
REMARK SMILES IDX 7 1 6 2 5 3 4 4 2 5 1 6 3 7 8 8 9 9 10 10 11 11 12 12 13 13
REMARK SMILES IDX 14 14
REMARK H PARENT
REMARK Flexibility Score: inf
ROOT
ATOM      1  C   UNL     1       4.814  12.461   7.883  1.00  0.00     0.000 C 
ENDROOT
BRANCH   1   2
ATOM      2  C   UNL     1       6.139  13.188   7.585  1.00  0.00     0.000 C 
BRANCH   2   3
ATOM      3  C   UNL     1       6.760  13.899   8.805  1.00  0.00     0.006 C 
BRANCH   3   4
ATOM      4  C   UNL     1       6.207  13.411  10.154  1.00  0.00     0.053 C 
BRANCH   4   5
ATOM      5  C   UNL     1       7.236  12.690  10.967  1.00  0.00     0.041 C 
ATOM      6  O   UNL     1       6.970  11.567  11.474  1.00  0.00    -0.550 OA
ATOM      7  O   UNL     1       8.489  13.254  11.164  1.00  0.00    -0.550 OA
ENDBRANCH   4   5
ENDBRANCH   3   4
ENDBRANCH   2   3
ENDBRANCH   1   2
BRANCH   1   8
ATOM      8  C   UNL     1       4.864  10.946   7.581  1.00  0.00     0.000 C 
BRANCH   8   9
ATOM      9  C   UNL     1       6.011  10.249   8.330  1.00  0.00     0.000 C 
BRANCH   9  10
ATOM     10  C   UNL     1       6.912   9.421   7.399  1.00  0.00     0.006 C 
BRANCH  10  11
ATOM     11  C   UNL     1       8.211  10.152   7.034  1.00  0.00     0.053 C 
BRANCH  11  12
ATOM     12  C   UNL     1       8.959  10.533   8.272  1.00  0.00     0.041 C 
ATOM     13  O   UNL     1       9.402  11.705   8.410  1.00  0.00    -0.550 OA
ATOM     14  O   UNL     1       9.125   9.610   9.296  1.00  0.00    -0.550 OA
ENDBRANCH  11  12
ENDBRANCH  10  11
ENDBRANCH   9  10
ENDBRANCH   8   9
ENDBRANCH   1   8
TORSDOF 9
ENDMDL
MODEL 9
REMARK VINA RESULT:    -3.150      2.060      2.966
REMARK INTER + INTRA:          -5.519
REMARK INTER:                  -4.461
REMARK INTRA:                  -1.058
REMARK UNBOUND:                -0.711
REMARK SMILES O=C([O-])CCCCCCCCC(=O)[O-]
REMARK SMILES IDX 7 1 6 2 5 3 4 4 2 5 1 6 3 7 8 8 9 9 10 10 11 11 12 12 13 13
REMARK SMILES IDX 14 14
REMARK H PARENT
REMARK Flexibility Score: inf
ROOT
ATOM      1  C   UNL     1       4.757  10.989   7.572  1.00  0.00     0.000 C 
ENDROOT
BRANCH   1   2
ATOM      2  C   UNL     1       5.803  10.182   8.363  1.00  0.00     0.000 C 
BRANCH   2   3
ATOM      3  C   UNL     1       6.743   9.329   7.484  1.00  0.00     0.006 C 
BRANCH   3   4
ATOM      4  C   UNL     1       8.034  10.055   7.072  1.00  0.00     0.053 C 
BRANCH   4   5
ATOM      5  C   UNL     1       8.869  10.450   8.249  1.00  0.00     0.041 C 
ATOM      6  O   UNL     1       9.084   9.626   9.178  1.00  0.00    -0.550 OA
ATOM      7  O   UNL     1       9.415  11.725   8.320  1.00  0.00    -0.550 OA
ENDBRANCH   4   5
ENDBRANCH   3   4
ENDBRANCH   2   3
ENDBRANCH   1   2
BRANCH   1   8
ATOM      8  C   UNL     1       4.724  12.487   7.952  1.00  0.00     0.000 C 
BRANCH   8   9
ATOM      9  C   UNL     1       6.022  13.210   7.554  1.00  0.00     0.000 C 
BRANCH   9  10
ATOM     10  C   UNL     1       6.735  13.852   8.754  1.00  0.00     0.006 C 
BRANCH  10  11
ATOM     11  C   UNL     1       6.183  13.360  10.099  1.00  0.00     0.053 C 
BRANCH  11  12
ATOM     12  C   UNL     1       7.255  12.670  10.881  1.00  0.00     0.041 C 
ATOM     13  O   UNL     1       8.369  13.231  11.062  1.00  0.00    -0.550 OA
ATOM     14  O   UNL     1       7.009  11.428  11.452  1.00  0.00    -0.550 OA
ENDBRANCH  11  12
ENDBRANCH  10  11
ENDBRANCH   9  10
ENDBRANCH   8   9
ENDBRANCH   1   8
TORSDOF 9
ENDMDL
