MODEL 1
REMARK VINA RESULT:    -4.132      0.000      0.000
REMARK INTER + INTRA:          -9.149
REMARK INTER:                  -7.756
REMARK INTRA:                  -1.393
REMARK UNBOUND:                -1.393
REMARK SMILES O=C([O-])CCCCCCCCCCCCCCC(=O)[O-]
REMARK SMILES IDX 10 1 9 2 8 3 7 4 6 5 5 6 4 7 2 8 1 9 3 10 11 11 12 12 13 13
REMARK SMILES IDX 14 14 15 15 16 16 17 17 18 18 19 19 20 20
REMARK H PARENT
REMARK Flexibility Score: inf
ROOT
ATOM      1  C   UNL     1      -3.127  -7.909 -40.384  1.00  0.00     0.000 C 
ENDROOT
BRANCH   1   2
ATOM      2  C   UNL     1      -1.786  -8.324 -39.752  1.00  0.00     0.000 C 
BRANCH   2   3
ATOM      3  C   UNL     1      -1.328  -7.350 -38.656  1.00  0.00     0.000 C 
BRANCH   3   4
ATOM      4  C   UNL     1      -0.376  -8.011 -37.645  1.00  0.00     0.000 C 
BRANCH   4   5
ATOM      5  C   UNL     1      -0.840  -9.430 -37.301  1.00  0.00     0.000 C 
BRANCH   5   6
ATOM      6  C   UNL     1      -0.293  -9.873 -35.936  1.00  0.00     0.006 C 
BRANCH   6   7
ATOM      7  C   UNL     1      -1.394  -9.964 -34.871  1.00  0.00     0.053 C 
BRANCH   7   8
ATOM      8  C   UNL     1      -1.110 -11.041 -33.867  1.00  0.00     0.041 C 
ATOM      9  O   UNL     1      -1.918 -11.261 -32.928  1.00  0.00    -0.550 OA
ATOM     10  O   UNL     1       0.065 -11.778 -33.952  1.00  0.00    -0.550 OA
ENDBRANCH   7   8
ENDBRANCH   6   7
ENDBRANCH   5   6
ENDBRANCH   4   5
ENDBRANCH   3   4
ENDBRANCH   2   3
ENDBRANCH   1   2
BRANCH   1  11
ATOM     11  C   UNL     1      -3.120  -8.076 -41.918  1.00  0.00     0.000 C 
BRANCH  11  12
ATOM     12  C   UNL     1      -2.072  -9.081 -42.424  1.00  0.00     0.000 C 
BRANCH  12  13
ATOM     13  C   UNL     1      -2.637 -10.501 -42.589  1.00  0.00     0.000 C 
BRANCH  13  14
ATOM     14  C   UNL     1      -1.571 -11.598 -42.410  1.00  0.00     0.000 C 
BRANCH  14  15
ATOM     15  C   UNL     1      -1.152 -11.874 -40.954  1.00  0.00     0.000 C 
BRANCH  15  16
ATOM     16  C   UNL     1       0.232 -11.306 -40.608  1.00  0.00     0.006 C 
BRANCH  16  17
ATOM     17  C   UNL     1       1.271 -11.714 -41.656  1.00  0.00     0.053 C 
BRANCH  17  18
ATOM     18  C   UNL     1       2.241 -10.600 -41.896  1.00  0.00     0.041 C 
ATOM     19  O   UNL     1       1.854  -9.527 -42.427  1.00  0.00    -0.550 OA
ATOM     20  O   UNL     1       3.582 -10.765 -41.575  1.00  0.00    -0.550 OA
ENDBRANCH  17  18
ENDBRANCH  16  17
ENDBRANCH  15  16
ENDBRANCH  14  15
ENDBRANCH  13  14
ENDBRANCH  12  13
ENDBRANCH  11  12
ENDBRANCH   1  11
TORSDOF 15
ENDMDL
MODEL 2
REMARK VINA RESULT:    -4.132      1.589      7.354
REMARK INTER + INTRA:          -9.148
REMARK INTER:                  -7.892
REMARK INTRA:                  -1.256
REMARK UNBOUND:                -1.393
REMARK SMILES O=C([O-])CCCCCCCCCCCCCCC(=O)[O-]
REMARK SMILES IDX 10 1 9 2 8 3 7 4 6 5 5 6 4 7 2 8 1 9 3 10 11 11 12 12 13 13
REMARK SMILES IDX 14 14 15 15 16 16 17 17 18 18 19 19 20 20
REMARK H PARENT
REMARK Flexibility Score: inf
ROOT
ATOM      1  C   UNL     1      -2.392  -8.943 -40.453  1.00  0.00     0.000 C 
ENDROOT
BRANCH   1   2
ATOM      2  C   UNL     1      -2.150  -8.811 -41.967  1.00  0.00     0.000 C 
BRANCH   2   3
ATOM      3  C   UNL     1      -0.806  -9.414 -42.402  1.00  0.00     0.000 C 
BRANCH   3   4
ATOM      4  C   UNL     1      -0.769 -10.942 -42.241  1.00  0.00     0.000 C 
BRANCH   4   5
ATOM      5  C   UNL     1       0.473 -11.382 -41.457  1.00  0.00     0.000 C 
BRANCH   5   6
ATOM      6  C   UNL     1       1.644 -10.417 -41.694  1.00  0.00     0.006 C 
BRANCH   6   7
ATOM      7  C   UNL     1       2.799 -11.081 -42.455  1.00  0.00     0.053 C 
BRANCH   7   8
ATOM      8  C   UNL     1       2.429 -11.383 -43.876  1.00  0.00     0.041 C 
ATOM      9  O   UNL     1       2.269 -12.574 -44.250  1.00  0.00    -0.550 OA
ATOM     10  O   UNL     1       2.293 -10.348 -44.793  1.00  0.00    -0.550 OA
ENDBRANCH   7   8
ENDBRANCH   6   7
ENDBRANCH   5   6
ENDBRANCH   4   5
ENDBRANCH   3   4
ENDBRANCH   2   3
ENDBRANCH   1   2
BRANCH   1  11
ATOM     11  C   UNL     1      -1.289  -8.248 -39.628  1.00  0.00     0.000 C 
BRANCH  11  12
ATOM     12  C   UNL     1      -0.468  -9.216 -38.758  1.00  0.00     0.000 C 
BRANCH  12  13
ATOM     13  C   UNL     1      -1.206  -9.640 -37.478  1.00  0.00     0.000 C 
BRANCH  13  14
ATOM     14  C   UNL     1      -0.572  -9.065 -36.199  1.00  0.00     0.000 C 
BRANCH  14  15
ATOM     15  C   UNL     1      -0.059 -10.112 -35.192  1.00  0.00     0.000 C 
BRANCH  15  16
ATOM     16  C   UNL     1      -0.872 -11.414 -35.211  1.00  0.00     0.006 C 
BRANCH  16  17
ATOM     17  C   UNL     1      -1.108 -11.935 -33.791  1.00  0.00     0.053 C 
BRANCH  17  18
ATOM     18  C   UNL     1       0.095 -12.676 -33.297  1.00  0.00     0.041 C 
ATOM     19  O   UNL     1       0.268 -12.853 -32.064  1.00  0.00    -0.550 OA
ATOM     20  O   UNL     1       1.050 -13.128 -34.199  1.00  0.00    -0.550 OA
ENDBRANCH  17  18
ENDBRANCH  16  17
ENDBRANCH  15  16
ENDBRANCH  14  15
ENDBRANCH  13  14
ENDBRANCH  12  13
ENDBRANCH  11  12
ENDBRANCH   1  11
TORSDOF 15
ENDMDL
MODEL 3
REMARK VINA RESULT:    -4.119      1.404      6.977
REMARK INTER + INTRA:          -9.124
REMARK INTER:                  -7.623
REMARK INTRA:                  -1.500
REMARK UNBOUND:                -1.393
REMARK SMILES O=C([O-])CCCCCCCCCCCCCCC(=O)[O-]
REMARK SMILES IDX 10 1 9 2 8 3 7 4 6 5 5 6 4 7 2 8 1 9 3 10 11 11 12 12 13 13
REMARK SMILES IDX 14 14 15 15 16 16 17 17 18 18 19 19 20 20
REMARK H PARENT
REMARK Flexibility Score: inf
ROOT
ATOM      1  C   UNL     1      -2.552  -9.329 -40.108  1.00  0.00     0.000 C 
ENDROOT
BRANCH   1   2
ATOM      2  C   UNL     1      -1.584 -10.475 -39.761  1.00  0.00     0.000 C 
BRANCH   2   3
ATOM      3  C   UNL     1      -1.046 -11.188 -41.011  1.00  0.00     0.000 C 
BRANCH   3   4
ATOM      4  C   UNL     1      -0.690 -10.207 -42.139  1.00  0.00     0.000 C 
BRANCH   4   5
ATOM      5  C   UNL     1       0.669  -9.546 -41.883  1.00  0.00     0.000 C 
BRANCH   5   6
ATOM      6  C   UNL     1       1.542  -9.575 -43.146  1.00  0.00     0.006 C 
BRANCH   6   7
ATOM      7  C   UNL     1       2.248 -10.924 -43.335  1.00  0.00     0.053 C 
BRANCH   7   8
ATOM      8  C   UNL     1       2.823 -11.436 -42.049  1.00  0.00     0.041 C 
ATOM      9  O   UNL     1       3.836 -10.886 -41.544  1.00  0.00    -0.550 OA
ATOM     10  O   UNL     1       2.258 -12.542 -41.426  1.00  0.00    -0.550 OA
ENDBRANCH   7   8
ENDBRANCH   6   7
ENDBRANCH   5   6
ENDBRANCH   4   5
ENDBRANCH   3   4
ENDBRANCH   2   3
ENDBRANCH   1   2
BRANCH   1  11
ATOM     11  C   UNL     1      -2.059  -7.971 -39.566  1.00  0.00     0.000 C 
BRANCH  11  12
ATOM     12  C   UNL     1      -0.735  -8.062 -38.788  1.00  0.00     0.000 C 
BRANCH  12  13
ATOM     13  C   UNL     1      -0.619  -7.001 -37.681  1.00  0.00     0.000 C 
BRANCH  13  14
ATOM     14  C   UNL     1      -0.477  -7.611 -36.275  1.00  0.00     0.000 C 
BRANCH  14  15
ATOM     15  C   UNL     1      -1.198  -8.956 -36.067  1.00  0.00     0.000 C 
BRANCH  15  16
ATOM     16  C   UNL     1      -0.276 -10.054 -35.518  1.00  0.00     0.006 C 
BRANCH  16  17
ATOM     17  C   UNL     1      -1.042 -11.365 -35.319  1.00  0.00     0.053 C 
BRANCH  17  18
ATOM     18  C   UNL     1      -1.499 -11.495 -33.899  1.00  0.00     0.041 C 
ATOM     19  O   UNL     1      -0.869 -10.916 -32.976  1.00  0.00    -0.550 OA
ATOM     20  O   UNL     1      -2.592 -12.295 -33.592  1.00  0.00    -0.550 OA
ENDBRANCH  17  18
ENDBRANCH  16  17
ENDBRANCH  15  16
ENDBRANCH  14  15
ENDBRANCH  13  14
ENDBRANCH  12  13
ENDBRANCH  11  12
ENDBRANCH   1  11
TORSDOF 15
ENDMDL
MODEL 4
REMARK VINA RESULT:    -4.101      1.892      2.892
REMARK INTER + INTRA:          -9.089
REMARK INTER:                  -7.079
REMARK INTRA:                  -2.011
REMARK UNBOUND:                -1.393
REMARK SMILES O=C([O-])CCCCCCCCCCCCCCC(=O)[O-]
REMARK SMILES IDX 10 1 9 2 8 3 7 4 6 5 5 6 4 7 2 8 1 9 3 10 11 11 12 12 13 13
REMARK SMILES IDX 14 14 15 15 16 16 17 17 18 18 19 19 20 20
REMARK H PARENT
REMARK Flexibility Score: inf
ROOT
ATOM      1  C   UNL     1      -4.793  -9.478 -41.572  1.00  0.00     0.000 C 
ENDROOT
BRANCH   1   2
ATOM      2  C   UNL     1      -3.943  -8.347 -42.179  1.00  0.00     0.000 C 
BRANCH   2   3
ATOM      3  C   UNL     1      -2.528  -8.294 -41.585  1.00  0.00     0.000 C 
BRANCH   3   4
ATOM      4  C   UNL     1      -2.476  -8.823 -40.143  1.00  0.00     0.000 C 
BRANCH   4   5
ATOM      5  C   UNL     1      -1.135  -8.485 -39.482  1.00  0.00     0.000 C 
BRANCH   5   6
ATOM      6  C   UNL     1      -1.291  -7.338 -38.473  1.00  0.00     0.006 C 
BRANCH   6   7
ATOM      7  C   UNL     1      -0.384  -7.515 -37.247  1.00  0.00     0.053 C 
BRANCH   7   8
ATOM      8  C   UNL     1      -1.089  -8.226 -36.132  1.00  0.00     0.041 C 
ATOM      9  O   UNL     1      -1.077  -9.483 -36.074  1.00  0.00    -0.550 OA
ATOM     10  O   UNL     1      -1.786  -7.499 -35.175  1.00  0.00    -0.550 OA
ENDBRANCH   7   8
ENDBRANCH   6   7
ENDBRANCH   5   6
ENDBRANCH   4   5
ENDBRANCH   3   4
ENDBRANCH   2   3
ENDBRANCH   1   2
BRANCH   1  11
ATOM     11  C   UNL     1      -5.203 -10.525 -42.629  1.00  0.00     0.000 C 
BRANCH  11  12
ATOM     12  C   UNL     1      -4.187 -11.669 -42.789  1.00  0.00     0.000 C 
BRANCH  12  13
ATOM     13  C   UNL     1      -3.709 -12.235 -41.442  1.00  0.00     0.000 C 
BRANCH  13  14
ATOM     14  C   UNL     1      -2.184 -12.437 -41.381  1.00  0.00     0.000 C 
BRANCH  14  15
ATOM     15  C   UNL     1      -1.370 -11.594 -42.382  1.00  0.00     0.000 C 
BRANCH  15  16
ATOM     16  C   UNL     1      -0.008 -11.151 -41.827  1.00  0.00     0.006 C 
BRANCH  16  17
ATOM     17  C   UNL     1       0.649 -10.118 -42.746  1.00  0.00     0.053 C 
BRANCH  17  18
ATOM     18  C   UNL     1       2.017 -10.569 -43.150  1.00  0.00     0.041 C 
ATOM     19  O   UNL     1       2.273 -10.813 -44.358  1.00  0.00    -0.550 OA
ATOM     20  O   UNL     1       2.996 -10.767 -42.185  1.00  0.00    -0.550 OA
ENDBRANCH  17  18
ENDBRANCH  16  17
ENDBRANCH  15  16
ENDBRANCH  14  15
ENDBRANCH  13  14
ENDBRANCH  12  13
ENDBRANCH  11  12
ENDBRANCH   1  11
TORSDOF 15
ENDMDL
MODEL 5
REMARK VINA RESULT:    -4.056      2.809      5.889
REMARK INTER + INTRA:          -9.005
REMARK INTER:                  -6.721
REMARK INTRA:                  -2.284
REMARK UNBOUND:                -1.393
REMARK SMILES O=C([O-])CCCCCCCCCCCCCCC(=O)[O-]
REMARK SMILES IDX 10 1 9 2 8 3 7 4 6 5 5 6 4 7 2 8 1 9 3 10 11 11 12 12 13 13
REMARK SMILES IDX 14 14 15 15 16 16 17 17 18 18 19 19 20 20
REMARK H PARENT
REMARK Flexibility Score: inf
ROOT
ATOM      1  C   UNL     1      -4.655 -11.899 -43.085  1.00  0.00     0.000 C 
ENDROOT
BRANCH   1   2
ATOM      2  C   UNL     1      -4.646 -11.603 -41.574  1.00  0.00     0.000 C 
BRANCH   2   3
ATOM      3  C   UNL     1      -3.237 -11.686 -40.968  1.00  0.00     0.000 C 
BRANCH   3   4
ATOM      4  C   UNL     1      -2.145 -11.844 -42.039  1.00  0.00     0.000 C 
BRANCH   4   5
ATOM      5  C   UNL     1      -0.754 -11.598 -41.445  1.00  0.00     0.000 C 
BRANCH   5   6
ATOM      6  C   UNL     1       0.124 -10.793 -42.414  1.00  0.00     0.006 C 
BRANCH   6   7
ATOM      7  C   UNL     1       1.398 -10.264 -41.741  1.00  0.00     0.053 C 
BRANCH   7   8
ATOM      8  C   UNL     1       2.547 -11.213 -41.899  1.00  0.00     0.041 C 
ATOM      9  O   UNL     1       2.338 -12.413 -42.215  1.00  0.00    -0.550 OA
ATOM     10  O   UNL     1       3.845 -10.778 -41.666  1.00  0.00    -0.550 OA
ENDBRANCH   7   8
ENDBRANCH   6   7
ENDBRANCH   5   6
ENDBRANCH   4   5
ENDBRANCH   3   4
ENDBRANCH   2   3
ENDBRANCH   1   2
BRANCH   1  11
ATOM     11  C   UNL     1      -5.506 -10.879 -43.870  1.00  0.00     0.000 C 
BRANCH  11  12
ATOM     12  C   UNL     1      -5.221  -9.416 -43.490  1.00  0.00     0.000 C 
BRANCH  12  13
ATOM     13  C   UNL     1      -3.801  -8.966 -43.872  1.00  0.00     0.000 C 
BRANCH  13  14
ATOM     14  C   UNL     1      -3.052  -8.287 -42.711  1.00  0.00     0.000 C 
BRANCH  14  15
ATOM     15  C   UNL     1      -3.926  -7.905 -41.501  1.00  0.00     0.000 C 
BRANCH  15  16
ATOM     16  C   UNL     1      -3.135  -7.838 -40.186  1.00  0.00     0.006 C 
BRANCH  16  17
ATOM     17  C   UNL     1      -1.715  -8.379 -40.371  1.00  0.00     0.053 C 
BRANCH  17  18
ATOM     18  C   UNL     1      -0.956  -8.312 -39.083  1.00  0.00     0.041 C 
ATOM     19  O   UNL     1      -0.482  -9.360 -38.572  1.00  0.00    -0.550 OA
ATOM     20  O   UNL     1      -0.813  -7.098 -38.422  1.00  0.00    -0.550 OA
ENDBRANCH  17  18
ENDBRANCH  16  17
ENDBRANCH  15  16
ENDBRANCH  14  15
ENDBRANCH  13  14
ENDBRANCH  12  13
ENDBRANCH  11  12
ENDBRANCH   1  11
TORSDOF 15
ENDMDL
MODEL 6
REMARK VINA RESULT:    -4.055      4.073      7.150
REMARK INTER + INTRA:          -9.005
REMARK INTER:                  -7.103
REMARK INTRA:                  -1.901
REMARK UNBOUND:                -1.393
REMARK SMILES O=C([O-])CCCCCCCCCCCCCCC(=O)[O-]
REMARK SMILES IDX 10 1 9 2 8 3 7 4 6 5 5 6 4 7 2 8 1 9 3 10 11 11 12 12 13 13
REMARK SMILES IDX 14 14 15 15 16 16 17 17 18 18 19 19 20 20
REMARK H PARENT
REMARK Flexibility Score: inf
ROOT
ATOM      1  C   UNL     1      -2.907  -8.733 -40.495  1.00  0.00     0.000 C 
ENDROOT
BRANCH   1   2
ATOM      2  C   UNL     1      -2.958  -8.126 -41.908  1.00  0.00     0.000 C 
BRANCH   2   3
ATOM      3  C   UNL     1      -3.104  -9.195 -43.002  1.00  0.00     0.000 C 
BRANCH   3   4
ATOM      4  C   UNL     1      -3.894 -10.422 -42.520  1.00  0.00     0.000 C 
BRANCH   4   5
ATOM      5  C   UNL     1      -5.376 -10.301 -42.890  1.00  0.00     0.000 C 
BRANCH   5   6
ATOM      6  C   UNL     1      -5.688 -11.076 -44.179  1.00  0.00     0.006 C 
BRANCH   6   7
ATOM      7  C   UNL     1      -6.397 -10.204 -45.224  1.00  0.00     0.053 C 
BRANCH   7   8
ATOM      8  C   UNL     1      -7.630 -10.867 -45.758  1.00  0.00     0.041 C 
ATOM      9  O   UNL     1      -8.672 -10.927 -45.054  1.00  0.00    -0.550 OA
ATOM     10  O   UNL     1      -7.618 -11.448 -47.020  1.00  0.00    -0.550 OA
ENDBRANCH   7   8
ENDBRANCH   6   7
ENDBRANCH   5   6
ENDBRANCH   4   5
ENDBRANCH   3   4
ENDBRANCH   2   3
ENDBRANCH   1   2
BRANCH   1  11
ATOM     11  C   UNL     1      -1.586  -8.401 -39.769  1.00  0.00     0.000 C 
BRANCH  11  12
ATOM     12  C   UNL     1      -0.943  -9.613 -39.074  1.00  0.00     0.000 C 
BRANCH  12  13
ATOM     13  C   UNL     1      -1.359 -10.952 -39.704  1.00  0.00     0.000 C 
BRANCH  13  14
ATOM     14  C   UNL     1      -0.231 -11.611 -40.518  1.00  0.00     0.000 C 
BRANCH  14  15
ATOM     15  C   UNL     1      -0.317 -11.408 -42.043  1.00  0.00     0.000 C 
BRANCH  15  16
ATOM     16  C   UNL     1       0.380 -10.125 -42.519  1.00  0.00     0.006 C 
BRANCH  16  17
ATOM     17  C   UNL     1       1.684  -9.892 -41.752  1.00  0.00     0.053 C 
BRANCH  17  18
ATOM     18  C   UNL     1       2.784 -10.733 -42.319  1.00  0.00     0.041 C 
ATOM     19  O   UNL     1       3.765 -11.061 -41.601  1.00  0.00    -0.550 OA
ATOM     20  O   UNL     1       2.750 -11.114 -43.654  1.00  0.00    -0.550 OA
ENDBRANCH  17  18
ENDBRANCH  16  17
ENDBRANCH  15  16
ENDBRANCH  14  15
ENDBRANCH  13  14
ENDBRANCH  12  13
ENDBRANCH  11  12
ENDBRANCH   1  11
TORSDOF 15
ENDMDL
MODEL 7
REMARK VINA RESULT:    -4.028      1.373      2.211
REMARK INTER + INTRA:          -8.954
REMARK INTER:                  -7.865
REMARK INTRA:                  -1.089
REMARK UNBOUND:                -1.393
REMARK SMILES O=C([O-])CCCCCCCCCCCCCCC(=O)[O-]
REMARK SMILES IDX 10 1 9 2 8 3 7 4 6 5 5 6 4 7 2 8 1 9 3 10 11 11 12 12 13 13
REMARK SMILES IDX 14 14 15 15 16 16 17 17 18 18 19 19 20 20
REMARK H PARENT
REMARK Flexibility Score: inf
ROOT
ATOM      1  C   UNL     1      -1.196  -7.201 -38.581  1.00  0.00     0.000 C 
ENDROOT
BRANCH   1   2
ATOM      2  C   UNL     1      -0.367  -7.481 -37.315  1.00  0.00     0.000 C 
BRANCH   2   3
ATOM      3  C   UNL     1      -1.186  -7.310 -36.026  1.00  0.00     0.000 C 
BRANCH   3   4
ATOM      4  C   UNL     1      -1.409  -8.642 -35.292  1.00  0.00     0.000 C 
BRANCH   4   5
ATOM      5  C   UNL     1      -0.560  -9.758 -35.910  1.00  0.00     0.000 C 
BRANCH   5   6
ATOM      6  C   UNL     1      -0.004 -10.692 -34.825  1.00  0.00     0.006 C 
BRANCH   6   7
ATOM      7  C   UNL     1      -0.973 -10.857 -33.647  1.00  0.00     0.053 C 
BRANCH   7   8
ATOM      8  C   UNL     1      -1.790 -12.108 -33.768  1.00  0.00     0.041 C 
ATOM      9  O   UNL     1      -2.946 -12.064 -34.265  1.00  0.00    -0.550 OA
ATOM     10  O   UNL     1      -1.286 -13.316 -33.303  1.00  0.00    -0.550 OA
ENDBRANCH   7   8
ENDBRANCH   6   7
ENDBRANCH   5   6
ENDBRANCH   4   5
ENDBRANCH   3   4
ENDBRANCH   2   3
ENDBRANCH   1   2
BRANCH   1  11
ATOM     11  C   UNL     1      -1.583  -8.500 -39.318  1.00  0.00     0.000 C 
BRANCH  11  12
ATOM     12  C   UNL     1      -2.608  -8.287 -40.445  1.00  0.00     0.000 C 
BRANCH  12  13
ATOM     13  C   UNL     1      -2.048  -8.631 -41.835  1.00  0.00     0.000 C 
BRANCH  13  14
ATOM     14  C   UNL     1      -2.155 -10.128 -42.174  1.00  0.00     0.000 C 
BRANCH  14  15
ATOM     15  C   UNL     1      -0.813 -10.847 -42.405  1.00  0.00     0.000 C 
BRANCH  15  16
ATOM     16  C   UNL     1       0.365 -10.164 -41.695  1.00  0.00     0.006 C 
BRANCH  16  17
ATOM     17  C   UNL     1       1.357  -9.588 -42.709  1.00  0.00     0.053 C 
BRANCH  17  18
ATOM     18  C   UNL     1       2.133 -10.686 -43.367  1.00  0.00     0.041 C 
ATOM     19  O   UNL     1       2.674 -11.584 -42.671  1.00  0.00    -0.550 OA
ATOM     20  O   UNL     1       2.298 -10.690 -44.746  1.00  0.00    -0.550 OA
ENDBRANCH  17  18
ENDBRANCH  16  17
ENDBRANCH  15  16
ENDBRANCH  14  15
ENDBRANCH  13  14
ENDBRANCH  12  13
ENDBRANCH  11  12
ENDBRANCH   1  11
TORSDOF 15
ENDMDL
MODEL 8
REMARK VINA RESULT:    -3.979      2.047      6.201
REMARK INTER + INTRA:          -8.861
REMARK INTER:                  -6.685
REMARK INTRA:                  -2.176
REMARK UNBOUND:                -1.393
REMARK SMILES O=C([O-])CCCCCCCCCCCCCCC(=O)[O-]
REMARK SMILES IDX 10 1 9 2 8 3 7 4 6 5 5 6 4 7 2 8 1 9 3 10 11 11 12 12 13 13
REMARK SMILES IDX 14 14 15 15 16 16 17 17 18 18 19 19 20 20
REMARK H PARENT
REMARK Flexibility Score: inf
ROOT
ATOM      1  C   UNL     1      -3.375  -9.487 -43.125  1.00  0.00     0.000 C 
ENDROOT
BRANCH   1   2
ATOM      2  C   UNL     1      -3.124  -8.346 -42.122  1.00  0.00     0.000 C 
BRANCH   2   3
ATOM      3  C   UNL     1      -1.916  -8.619 -41.213  1.00  0.00     0.000 C 
BRANCH   3   4
ATOM      4  C   UNL     1      -0.859  -9.504 -41.891  1.00  0.00     0.000 C 
BRANCH   4   5
ATOM      5  C   UNL     1       0.453  -9.496 -41.100  1.00  0.00     0.000 C 
BRANCH   5   6
ATOM      6  C   UNL     1       1.395 -10.609 -41.583  1.00  0.00     0.006 C 
BRANCH   6   7
ATOM      7  C   UNL     1       0.816 -11.385 -42.773  1.00  0.00     0.053 C 
BRANCH   7   8
ATOM      8  C   UNL     1       1.807 -11.512 -43.891  1.00  0.00     0.041 C 
ATOM      9  O   UNL     1       2.230 -12.647 -44.235  1.00  0.00    -0.550 OA
ATOM     10  O   UNL     1       2.287 -10.375 -44.528  1.00  0.00    -0.550 OA
ENDBRANCH   7   8
ENDBRANCH   6   7
ENDBRANCH   5   6
ENDBRANCH   4   5
ENDBRANCH   3   4
ENDBRANCH   2   3
ENDBRANCH   1   2
BRANCH   1  11
ATOM     11  C   UNL     1      -4.594 -10.347 -42.731  1.00  0.00     0.000 C 
BRANCH  11  12
ATOM     12  C   UNL     1      -4.320 -11.860 -42.775  1.00  0.00     0.000 C 
BRANCH  12  13
ATOM     13  C   UNL     1      -3.107 -12.272 -41.927  1.00  0.00     0.000 C 
BRANCH  13  14
ATOM     14  C   UNL     1      -3.481 -12.639 -40.480  1.00  0.00     0.000 C 
BRANCH  14  15
ATOM     15  C   UNL     1      -3.173 -11.557 -39.427  1.00  0.00     0.000 C 
BRANCH  15  16
ATOM     16  C   UNL     1      -1.724 -11.604 -38.922  1.00  0.00     0.006 C 
BRANCH  16  17
ATOM     17  C   UNL     1      -1.438 -10.440 -37.969  1.00  0.00     0.053 C 
BRANCH  17  18
ATOM     18  C   UNL     1      -1.415 -10.917 -36.551  1.00  0.00     0.041 C 
ATOM     19  O   UNL     1      -0.717 -10.317 -35.692  1.00  0.00    -0.550 OA
ATOM     20  O   UNL     1      -2.126 -12.054 -36.189  1.00  0.00    -0.550 OA
ENDBRANCH  17  18
ENDBRANCH  16  17
ENDBRANCH  15  16
ENDBRANCH  14  15
ENDBRANCH  13  14
ENDBRANCH  12  13
ENDBRANCH  11  12
ENDBRANCH   1  11
TORSDOF 15
ENDMDL
MODEL 9
REMARK VINA RESULT:    -3.903      4.921      7.850
REMARK INTER + INTRA:          -8.718
REMARK INTER:                  -7.180
REMARK INTRA:                  -1.538
REMARK UNBOUND:                -1.393
REMARK SMILES O=C([O-])CCCCCCCCCCCCCCC(=O)[O-]
REMARK SMILES IDX 10 1 9 2 8 3 7 4 6 5 5 6 4 7 2 8 1 9 3 10 11 11 12 12 13 13
REMARK SMILES IDX 14 14 15 15 16 16 17 17 18 18 19 19 20 20
REMARK H PARENT
REMARK Flexibility Score: inf
ROOT
ATOM      1  C   UNL     1      -4.595  -6.876 -45.093  1.00  0.00     0.000 C 
ENDROOT
BRANCH   1   2
ATOM      2  C   UNL     1      -4.527  -7.742 -43.822  1.00  0.00     0.000 C 
BRANCH   2   3
ATOM      3  C   UNL     1      -3.375  -8.757 -43.864  1.00  0.00     0.000 C 
BRANCH   3   4
ATOM      4  C   UNL     1      -2.457  -8.653 -42.635  1.00  0.00     0.000 C 
BRANCH   4   5
ATOM      5  C   UNL     1      -2.298 -10.016 -41.953  1.00  0.00     0.000 C 
BRANCH   5   6
ATOM      6  C   UNL     1      -0.908 -10.610 -42.225  1.00  0.00     0.006 C 
BRANCH   6   7
ATOM      7  C   UNL     1       0.201  -9.865 -41.470  1.00  0.00     0.053 C 
BRANCH   7   8
ATOM      8  C   UNL     1       1.405  -9.635 -42.332  1.00  0.00     0.041 C 
ATOM      9  O   UNL     1       2.487 -10.226 -42.079  1.00  0.00    -0.550 OA
ATOM     10  O   UNL     1       1.339  -8.743 -43.395  1.00  0.00    -0.550 OA
ENDBRANCH   7   8
ENDBRANCH   6   7
ENDBRANCH   5   6
ENDBRANCH   4   5
ENDBRANCH   3   4
ENDBRANCH   2   3
ENDBRANCH   1   2
BRANCH   1  11
ATOM     11  C   UNL     1      -3.372  -7.094 -46.008  1.00  0.00     0.000 C 
BRANCH  11  12
ATOM     12  C   UNL     1      -3.681  -6.910 -47.503  1.00  0.00     0.000 C 
BRANCH  12  13
ATOM     13  C   UNL     1      -2.998  -7.966 -48.388  1.00  0.00     0.000 C 
BRANCH  13  14
ATOM     14  C   UNL     1      -3.920  -9.149 -48.734  1.00  0.00     0.000 C 
BRANCH  14  15
ATOM     15  C   UNL     1      -5.404  -8.954 -48.368  1.00  0.00     0.000 C 
BRANCH  15  16
ATOM     16  C   UNL     1      -5.873  -9.888 -47.243  1.00  0.00     0.006 C 
BRANCH  16  17
ATOM     17  C   UNL     1      -7.185  -9.392 -46.629  1.00  0.00     0.053 C 
BRANCH  17  18
ATOM     18  C   UNL     1      -7.275  -9.792 -45.189  1.00  0.00     0.041 C 
ATOM     19  O   UNL     1      -7.822  -9.027 -44.353  1.00  0.00    -0.550 OA
ATOM     20  O   UNL     1      -6.711 -10.988 -44.764  1.00  0.00    -0.550 OA
ENDBRANCH  17  18
ENDBRANCH  16  17
ENDBRANCH  15  16
ENDBRANCH  14  15
ENDBRANCH  13  14
ENDBRANCH  12  13
ENDBRANCH  11  12
ENDBRANCH   1  11
TORSDOF 15
ENDMDL
