MODEL 1
REMARK VINA RESULT:    -3.323      0.000      0.000
REMARK INTER + INTRA:          -3.961
REMARK INTER:                  -3.906
REMARK INTRA:                  -0.055
REMARK UNBOUND:                -0.055
REMARK SMILES CCCCC(=O)[O-]
REMARK SMILES IDX 4 1 5 2 6 3 7 4 3 5 2 6 1 7
REMARK H PARENT
REMARK Flexibility Score: inf
ROOT
ATOM      1  C   UNL     1      26.845   5.202  10.583  1.00  0.00     0.053 C 
ENDROOT
BRANCH   1   2
ATOM      2  C   UNL     1      26.687   5.916   9.278  1.00  0.00     0.041 C 
ATOM      3  O   UNL     1      26.726   5.274   8.196  1.00  0.00    -0.550 OA
ATOM      4  O   UNL     1      26.445   7.284   9.259  1.00  0.00    -0.550 OA
ENDBRANCH   1   2
BRANCH   1   5
ATOM      5  C   UNL     1      27.733   3.966  10.414  1.00  0.00     0.006 C 
BRANCH   5   6
ATOM      6  C   UNL     1      28.819   3.918  11.495  1.00  0.00    -0.003 C 
ATOM      7  C   UNL     1      29.056   5.297  12.100  1.00  0.00     0.004 C 
ENDBRANCH   5   6
ENDBRANCH   1   5
TORSDOF 3
ENDMDL
MODEL 2
REMARK VINA RESULT:    -3.320      1.601      2.085
REMARK INTER + INTRA:          -3.957
REMARK INTER:                  -3.878
REMARK INTRA:                  -0.079
REMARK UNBOUND:                -0.055
REMARK SMILES CCCCC(=O)[O-]
REMARK SMILES IDX 4 1 5 2 6 3 7 4 3 5 2 6 1 7
REMARK H PARENT
REMARK Flexibility Score: inf
ROOT
ATOM      1  C   UNL     1      26.883   4.627   9.639  1.00  0.00     0.053 C 
ENDROOT
BRANCH   1   2
ATOM      2  C   UNL     1      27.217   4.136   8.267  1.00  0.00     0.041 C 
ATOM      3  O   UNL     1      27.993   3.156   8.116  1.00  0.00    -0.550 OA
ATOM      4  O   UNL     1      26.633   4.729   7.154  1.00  0.00    -0.550 OA
ENDBRANCH   1   2
BRANCH   1   5
ATOM      5  C   UNL     1      27.890   5.688  10.090  1.00  0.00     0.006 C 
BRANCH   5   6
ATOM      6  C   UNL     1      28.476   5.341  11.463  1.00  0.00    -0.003 C 
ATOM      7  C   UNL     1      28.846   3.864  11.547  1.00  0.00     0.004 C 
ENDBRANCH   5   6
ENDBRANCH   1   5
TORSDOF 3
ENDMDL
MODEL 3
REMARK VINA RESULT:    -3.294      2.620      3.712
REMARK INTER + INTRA:          -3.927
REMARK INTER:                  -3.820
REMARK INTRA:                  -0.107
REMARK UNBOUND:                -0.055
REMARK SMILES CCCCC(=O)[O-]
REMARK SMILES IDX 4 1 5 2 6 3 7 4 3 5 2 6 1 7
REMARK H PARENT
REMARK Flexibility Score: inf
ROOT
ATOM      1  C   UNL     1      28.439   5.234  10.025  1.00  0.00     0.053 C 
ENDROOT
BRANCH   1   2
ATOM      2  C   UNL     1      28.799   4.784  11.406  1.00  0.00     0.041 C 
ATOM      3  O   UNL     1      28.962   5.629  12.325  1.00  0.00    -0.550 OA
ATOM      4  O   UNL     1      28.906   3.428  11.689  1.00  0.00    -0.550 OA
ENDBRANCH   1   2
BRANCH   1   5
ATOM      5  C   UNL     1      27.091   5.962  10.032  1.00  0.00     0.006 C 
BRANCH   5   6
ATOM      6  C   UNL     1      25.940   4.984  10.294  1.00  0.00    -0.003 C 
ATOM      7  C   UNL     1      24.836   5.640  11.116  1.00  0.00     0.004 C 
ENDBRANCH   5   6
ENDBRANCH   1   5
TORSDOF 3
ENDMDL
MODEL 4
REMARK VINA RESULT:    -3.291      0.673      1.736
REMARK INTER + INTRA:          -3.924
REMARK INTER:                  -3.859
REMARK INTRA:                  -0.065
REMARK UNBOUND:                -0.055
REMARK SMILES CCCCC(=O)[O-]
REMARK SMILES IDX 4 1 5 2 6 3 7 4 3 5 2 6 1 7
REMARK H PARENT
REMARK Flexibility Score: inf
ROOT
ATOM      1  C   UNL     1      26.929   5.248  10.562  1.00  0.00     0.053 C 
ENDROOT
BRANCH   1   2
ATOM      2  C   UNL     1      26.812   5.967   9.255  1.00  0.00     0.041 C 
ATOM      3  O   UNL     1      26.769   7.225   9.225  1.00  0.00    -0.550 OA
ATOM      4  O   UNL     1      26.801   5.249   8.065  1.00  0.00    -0.550 OA
ENDBRANCH   1   2
BRANCH   1   5
ATOM      5  C   UNL     1      28.279   5.546  11.220  1.00  0.00     0.006 C 
BRANCH   5   6
ATOM      6  C   UNL     1      28.978   4.252  11.650  1.00  0.00    -0.003 C 
ATOM      7  C   UNL     1      28.424   3.049  10.895  1.00  0.00     0.004 C 
ENDBRANCH   5   6
ENDBRANCH   1   5
TORSDOF 3
ENDMDL
MODEL 5
REMARK VINA RESULT:    -3.258      9.607     10.109
REMARK INTER + INTRA:          -3.885
REMARK INTER:                  -3.775
REMARK INTRA:                  -0.109
REMARK UNBOUND:                -0.055
REMARK SMILES CCCCC(=O)[O-]
REMARK SMILES IDX 4 1 5 2 6 3 7 4 3 5 2 6 1 7
REMARK H PARENT
REMARK Flexibility Score: inf
ROOT
ATOM      1  C   UNL     1      25.207   1.294  17.853  1.00  0.00     0.053 C 
ENDROOT
BRANCH   1   2
ATOM      2  C   UNL     1      24.493   0.202  18.585  1.00  0.00     0.041 C 
ATOM      3  O   UNL     1      23.470   0.462  19.270  1.00  0.00    -0.550 OA
ATOM      4  O   UNL     1      24.928  -1.113  18.469  1.00  0.00    -0.550 OA
ENDBRANCH   1   2
BRANCH   1   5
ATOM      5  C   UNL     1      24.231   2.408  17.466  1.00  0.00     0.006 C 
BRANCH   5   6
ATOM      6  C   UNL     1      24.651   3.746  18.085  1.00  0.00    -0.003 C 
ATOM      7  C   UNL     1      23.838   4.053  19.338  1.00  0.00     0.004 C 
ENDBRANCH   5   6
ENDBRANCH   1   5
TORSDOF 3
ENDMDL
MODEL 6
REMARK VINA RESULT:    -3.258      1.623      2.256
REMARK INTER + INTRA:          -3.884
REMARK INTER:                  -3.792
REMARK INTRA:                  -0.093
REMARK UNBOUND:                -0.055
REMARK SMILES CCCCC(=O)[O-]
REMARK SMILES IDX 4 1 5 2 6 3 7 4 3 5 2 6 1 7
REMARK H PARENT
REMARK Flexibility Score: inf
ROOT
ATOM      1  C   UNL     1      26.815   4.836   9.514  1.00  0.00     0.053 C 
ENDROOT
BRANCH   1   2
ATOM      2  C   UNL     1      27.134   4.226   8.187  1.00  0.00     0.041 C 
ATOM      3  O   UNL     1      26.650   4.714   7.132  1.00  0.00    -0.550 OA
ATOM      4  O   UNL     1      28.007   3.147   8.109  1.00  0.00    -0.550 OA
ENDBRANCH   1   2
BRANCH   1   5
ATOM      5  C   UNL     1      27.997   5.666  10.022  1.00  0.00     0.006 C 
BRANCH   5   6
ATOM      6  C   UNL     1      28.389   5.253  11.445  1.00  0.00    -0.003 C 
ATOM      7  C   UNL     1      28.835   3.795  11.492  1.00  0.00     0.004 C 
ENDBRANCH   5   6
ENDBRANCH   1   5
TORSDOF 3
ENDMDL
MODEL 7
REMARK VINA RESULT:    -3.251      2.864      3.656
REMARK INTER + INTRA:          -3.876
REMARK INTER:                  -3.798
REMARK INTRA:                  -0.078
REMARK UNBOUND:                -0.055
REMARK SMILES CCCCC(=O)[O-]
REMARK SMILES IDX 4 1 5 2 6 3 7 4 3 5 2 6 1 7
REMARK H PARENT
REMARK Flexibility Score: inf
ROOT
ATOM      1  C   UNL     1      28.264   5.160  10.196  1.00  0.00     0.053 C 
ENDROOT
BRANCH   1   2
ATOM      2  C   UNL     1      28.809   4.698  11.509  1.00  0.00     0.041 C 
ATOM      3  O   UNL     1      29.048   3.476  11.701  1.00  0.00    -0.550 OA
ATOM      4  O   UNL     1      29.102   5.621  12.505  1.00  0.00    -0.550 OA
ENDBRANCH   1   2
BRANCH   1   5
ATOM      5  C   UNL     1      27.302   4.120   9.616  1.00  0.00     0.006 C 
BRANCH   5   6
ATOM      6  C   UNL     1      27.856   3.522   8.318  1.00  0.00    -0.003 C 
ATOM      7  C   UNL     1      27.696   2.005   8.298  1.00  0.00     0.004 C 
ENDBRANCH   5   6
ENDBRANCH   1   5
TORSDOF 3
ENDMDL
MODEL 8
REMARK VINA RESULT:    -3.227      2.616      3.937
REMARK INTER + INTRA:          -3.848
REMARK INTER:                  -3.804
REMARK INTRA:                  -0.044
REMARK UNBOUND:                -0.055
REMARK SMILES CCCCC(=O)[O-]
REMARK SMILES IDX 4 1 5 2 6 3 7 4 3 5 2 6 1 7
REMARK H PARENT
REMARK Flexibility Score: inf
ROOT
ATOM      1  C   UNL     1      28.451   4.944  10.031  1.00  0.00     0.053 C 
ENDROOT
BRANCH   1   2
ATOM      2  C   UNL     1      28.889   4.678  11.436  1.00  0.00     0.041 C 
ATOM      3  O   UNL     1      29.002   5.628  12.255  1.00  0.00    -0.550 OA
ATOM      4  O   UNL     1      29.125   3.374  11.856  1.00  0.00    -0.550 OA
ENDBRANCH   1   2
BRANCH   1   5
ATOM      5  C   UNL     1      27.375   6.033  10.001  1.00  0.00     0.006 C 
BRANCH   5   6
ATOM      6  C   UNL     1      26.424   5.833   8.815  1.00  0.00    -0.003 C 
ATOM      7  C   UNL     1      26.812   4.605   7.998  1.00  0.00     0.004 C 
ENDBRANCH   5   6
ENDBRANCH   1   5
TORSDOF 3
ENDMDL
MODEL 9
REMARK VINA RESULT:    -3.002      1.742      2.319
REMARK INTER + INTRA:          -3.584
REMARK INTER:                  -3.555
REMARK INTRA:                  -0.029
REMARK UNBOUND:                -0.055
REMARK SMILES CCCCC(=O)[O-]
REMARK SMILES IDX 4 1 5 2 6 3 7 4 3 5 2 6 1 7
REMARK H PARENT
REMARK Flexibility Score: inf
ROOT
ATOM      1  C   UNL     1      28.035   3.837   9.060  1.00  0.00     0.053 C 
ENDROOT
BRANCH   1   2
ATOM      2  C   UNL     1      27.182   3.611   7.853  1.00  0.00     0.041 C 
ATOM      3  O   UNL     1      26.842   2.444   7.525  1.00  0.00    -0.550 OA
ATOM      4  O   UNL     1      26.719   4.695   7.116  1.00  0.00    -0.550 OA
ENDBRANCH   1   2
BRANCH   1   5
ATOM      5  C   UNL     1      27.221   4.494  10.178  1.00  0.00     0.006 C 
BRANCH   5   6
ATOM      6  C   UNL     1      28.023   5.608  10.859  1.00  0.00    -0.003 C 
ATOM      7  C   UNL     1      28.987   5.039  11.895  1.00  0.00     0.004 C 
ENDBRANCH   5   6
ENDBRANCH   1   5
TORSDOF 3
ENDMDL
