MODEL 1
REMARK VINA RESULT:    -4.685      0.000      0.000
REMARK INTER + INTRA:          -7.143
REMARK INTER:                  -6.328
REMARK INTRA:                  -0.815
REMARK UNBOUND:                -0.815
REMARK SMILES CC(=O)CCC=C(C)CCC=C(C)C
REMARK SMILES IDX 7 1 6 2 8 3 9 4 10 5 11 6 13 7 12 8 14 9 5 10 4 11 2 12 3 13
REMARK SMILES IDX 1 14
REMARK H PARENT
REMARK Flexibility Score: inf
ROOT
ATOM      1  C   UNL     1     -30.747  20.140  23.873  1.00  0.00    -0.077 C 
ATOM      2  C   UNL     1     -29.931  21.216  23.956  1.00  0.00    -0.028 C 
ATOM      3  C   UNL     1     -30.722  19.209  22.684  1.00  0.00     0.039 C 
ENDROOT
BRANCH   1   4
ATOM      4  C   UNL     1     -31.699  19.851  25.013  1.00  0.00     0.034 C 
BRANCH   4   5
ATOM      5  C   UNL     1     -33.087  19.482  24.480  1.00  0.00     0.032 C 
BRANCH   5   6
ATOM      6  C   UNL     1     -33.791  18.541  25.427  1.00  0.00    -0.028 C 
ATOM      7  C   UNL     1     -33.573  16.576  23.890  1.00  0.00     0.039 C 
ATOM      8  C   UNL     1     -33.995  17.226  25.186  1.00  0.00    -0.080 C 
ATOM      9  C   UNL     1     -34.679  16.400  26.244  1.00  0.00     0.039 C 
ENDBRANCH   5   6
ENDBRANCH   4   5
ENDBRANCH   1   4
BRANCH   2  10
ATOM     10  C   UNL     1     -28.974  21.646  22.873  1.00  0.00     0.035 C 
BRANCH  10  11
ATOM     11  C   UNL     1     -27.520  21.441  23.326  1.00  0.00     0.079 C 
BRANCH  11  12
ATOM     12  C   UNL     1     -27.121  19.994  23.507  1.00  0.00     0.130 C 
ATOM     13  O   UNL     1     -27.011  19.561  24.645  1.00  0.00    -0.300 OA
ATOM     14  C   UNL     1     -26.849  19.067  22.355  1.00  0.00     0.087 C 
ENDBRANCH  11  12
ENDBRANCH  10  11
ENDBRANCH   2  10
TORSDOF 6
ENDMDL
MODEL 2
REMARK VINA RESULT:    -4.528      5.322      7.648
REMARK INTER + INTRA:          -6.931
REMARK INTER:                  -6.436
REMARK INTRA:                  -0.495
REMARK UNBOUND:                -0.815
REMARK SMILES CC(=O)CCC=C(C)CCC=C(C)C
REMARK SMILES IDX 7 1 6 2 8 3 9 4 10 5 11 6 13 7 12 8 14 9 5 10 4 11 2 12 3 13
REMARK SMILES IDX 1 14
REMARK H PARENT
REMARK Flexibility Score: inf
ROOT
ATOM      1  C   UNL     1     -29.612  21.759  28.278  1.00  0.00    -0.077 C 
ATOM      2  C   UNL     1     -30.240  22.944  28.460  1.00  0.00    -0.028 C 
ATOM      3  C   UNL     1     -30.127  20.480  28.893  1.00  0.00     0.039 C 
ENDROOT
BRANCH   1   4
ATOM      4  C   UNL     1     -28.367  21.712  27.420  1.00  0.00     0.034 C 
BRANCH   4   5
ATOM      5  C   UNL     1     -28.576  22.489  26.116  1.00  0.00     0.032 C 
BRANCH   5   6
ATOM      6  C   UNL     1     -29.393  21.682  25.137  1.00  0.00    -0.028 C 
ATOM      7  C   UNL     1     -27.779  22.032  23.255  1.00  0.00     0.039 C 
ATOM      8  C   UNL     1     -29.036  21.447  23.855  1.00  0.00    -0.080 C 
ATOM      9  C   UNL     1     -29.935  20.588  23.005  1.00  0.00     0.039 C 
ENDBRANCH   5   6
ENDBRANCH   4   5
ENDBRANCH   1   4
BRANCH   2  10
ATOM     10  C   UNL     1     -31.457  23.140  29.328  1.00  0.00     0.035 C 
BRANCH  10  11
ATOM     11  C   UNL     1     -31.552  24.598  29.802  1.00  0.00     0.079 C 
BRANCH  11  12
ATOM     12  C   UNL     1     -32.625  24.849  30.838  1.00  0.00     0.130 C 
ATOM     13  O   UNL     1     -32.389  24.553  32.000  1.00  0.00    -0.300 OA
ATOM     14  C   UNL     1     -33.966  25.440  30.503  1.00  0.00     0.087 C 
ENDBRANCH  11  12
ENDBRANCH  10  11
ENDBRANCH   2  10
TORSDOF 6
ENDMDL
MODEL 3
REMARK VINA RESULT:    -4.516      1.579      2.456
REMARK INTER + INTRA:          -6.914
REMARK INTER:                  -5.975
REMARK INTRA:                  -0.939
REMARK UNBOUND:                -0.815
REMARK SMILES CC(=O)CCC=C(C)CCC=C(C)C
REMARK SMILES IDX 7 1 6 2 8 3 9 4 10 5 11 6 13 7 12 8 14 9 5 10 4 11 2 12 3 13
REMARK SMILES IDX 1 14
REMARK H PARENT
REMARK Flexibility Score: inf
ROOT
ATOM      1  C   UNL     1     -31.946  19.675  24.734  1.00  0.00    -0.077 C 
ATOM      2  C   UNL     1     -31.218  19.588  23.598  1.00  0.00    -0.028 C 
ATOM      3  C   UNL     1     -31.327  20.081  26.051  1.00  0.00     0.039 C 
ENDROOT
BRANCH   1   4
ATOM      4  C   UNL     1     -33.428  19.375  24.682  1.00  0.00     0.034 C 
BRANCH   4   5
ATOM      5  C   UNL     1     -33.672  17.896  24.362  1.00  0.00     0.032 C 
BRANCH   5   6
ATOM      6  C   UNL     1     -34.276  17.185  25.547  1.00  0.00    -0.028 C 
ATOM      7  C   UNL     1     -32.074  16.292  26.338  1.00  0.00     0.039 C 
ATOM      8  C   UNL     1     -33.568  16.480  26.458  1.00  0.00    -0.080 C 
ATOM      9  C   UNL     1     -34.305  15.856  27.614  1.00  0.00     0.039 C 
ENDBRANCH   5   6
ENDBRANCH   4   5
ENDBRANCH   1   4
BRANCH   2  10
ATOM     10  C   UNL     1     -29.729  19.812  23.520  1.00  0.00     0.035 C 
BRANCH  10  11
ATOM     11  C   UNL     1     -29.421  21.245  23.060  1.00  0.00     0.079 C 
BRANCH  11  12
ATOM     12  C   UNL     1     -28.327  21.932  23.846  1.00  0.00     0.130 C 
ATOM     13  O   UNL     1     -27.345  22.334  23.242  1.00  0.00    -0.300 OA
ATOM     14  C   UNL     1     -28.392  22.137  25.335  1.00  0.00     0.087 C 
ENDBRANCH  11  12
ENDBRANCH  10  11
ENDBRANCH   2  10
TORSDOF 6
ENDMDL
MODEL 4
REMARK VINA RESULT:    -4.486      2.264      6.567
REMARK INTER + INTRA:          -6.874
REMARK INTER:                  -6.344
REMARK INTRA:                  -0.530
REMARK UNBOUND:                -0.815
REMARK SMILES CC(=O)CCC=C(C)CCC=C(C)C
REMARK SMILES IDX 7 1 6 2 8 3 9 4 10 5 11 6 13 7 12 8 14 9 5 10 4 11 2 12 3 13
REMARK SMILES IDX 1 14
REMARK H PARENT
REMARK Flexibility Score: inf
ROOT
ATOM      1  C   UNL     1     -32.436  19.233  24.508  1.00  0.00    -0.077 C 
ATOM      2  C   UNL     1     -32.588  17.890  24.567  1.00  0.00    -0.028 C 
ATOM      3  C   UNL     1     -33.619  20.168  24.414  1.00  0.00     0.039 C 
ENDROOT
BRANCH   1   4
ATOM      4  C   UNL     1     -31.041  19.817  24.555  1.00  0.00     0.034 C 
BRANCH   4   5
ATOM      5  C   UNL     1     -30.539  20.138  23.144  1.00  0.00     0.032 C 
BRANCH   5   6
ATOM      6  C   UNL     1     -29.550  21.277  23.174  1.00  0.00    -0.028 C 
ATOM      7  C   UNL     1     -27.558  19.761  23.084  1.00  0.00     0.039 C 
ATOM      8  C   UNL     1     -28.207  21.125  23.122  1.00  0.00    -0.080 C 
ATOM      9  C   UNL     1     -27.344  22.359  23.120  1.00  0.00     0.039 C 
ENDBRANCH   5   6
ENDBRANCH   4   5
ENDBRANCH   1   4
BRANCH   2  10
ATOM     10  C   UNL     1     -33.914  17.178  24.480  1.00  0.00     0.035 C 
BRANCH  10  11
ATOM     11  C   UNL     1     -34.462  16.883  25.884  1.00  0.00     0.079 C 
BRANCH  11  12
ATOM     12  C   UNL     1     -33.648  15.884  26.676  1.00  0.00     0.130 C 
ATOM     13  O   UNL     1     -33.059  16.277  27.672  1.00  0.00    -0.300 OA
ATOM     14  C   UNL     1     -33.528  14.436  26.291  1.00  0.00     0.087 C 
ENDBRANCH  11  12
ENDBRANCH  10  11
ENDBRANCH   2  10
TORSDOF 6
ENDMDL
MODEL 5
REMARK VINA RESULT:    -4.484      5.509      6.635
REMARK INTER + INTRA:          -6.871
REMARK INTER:                  -6.401
REMARK INTRA:                  -0.470
REMARK UNBOUND:                -0.815
REMARK SMILES CC(=O)CCC=C(C)CCC=C(C)C
REMARK SMILES IDX 7 1 6 2 8 3 9 4 10 5 11 6 13 7 12 8 14 9 5 10 4 11 2 12 3 13
REMARK SMILES IDX 1 14
REMARK H PARENT
REMARK Flexibility Score: inf
ROOT
ATOM      1  C   UNL     1     -29.843  22.397  28.640  1.00  0.00    -0.077 C 
ATOM      2  C   UNL     1     -29.739  22.685  27.322  1.00  0.00    -0.028 C 
ATOM      3  C   UNL     1     -28.645  21.988  29.465  1.00  0.00     0.039 C 
ENDROOT
BRANCH   1   4
ATOM      4  C   UNL     1     -31.194  22.506  29.312  1.00  0.00     0.034 C 
BRANCH   4   5
ATOM      5  C   UNL     1     -31.264  23.760  30.191  1.00  0.00     0.032 C 
BRANCH   5   6
ATOM      6  C   UNL     1     -32.508  24.557  29.887  1.00  0.00    -0.028 C 
ATOM      7  C   UNL     1     -33.291  24.543  32.266  1.00  0.00     0.039 C 
ATOM      8  C   UNL     1     -33.417  24.938  30.813  1.00  0.00    -0.080 C 
ATOM      9  C   UNL     1     -34.592  25.768  30.367  1.00  0.00     0.039 C 
ENDBRANCH   5   6
ENDBRANCH   4   5
ENDBRANCH   1   4
BRANCH   2  10
ATOM     10  C   UNL     1     -28.467  22.569  26.521  1.00  0.00     0.035 C 
BRANCH  10  11
ATOM     11  C   UNL     1     -28.469  21.279  25.688  1.00  0.00     0.079 C 
BRANCH  11  12
ATOM     12  C   UNL     1     -28.787  21.483  24.223  1.00  0.00     0.130 C 
ATOM     13  O   UNL     1     -29.915  21.223  23.834  1.00  0.00    -0.300 OA
ATOM     14  C   UNL     1     -27.778  21.984  23.227  1.00  0.00     0.087 C 
ENDBRANCH  11  12
ENDBRANCH  10  11
ENDBRANCH   2  10
TORSDOF 6
ENDMDL
MODEL 6
REMARK VINA RESULT:    -4.473      6.709      8.952
REMARK INTER + INTRA:          -6.857
REMARK INTER:                  -6.267
REMARK INTRA:                  -0.589
REMARK UNBOUND:                -0.815
REMARK SMILES CC(=O)CCC=C(C)CCC=C(C)C
REMARK SMILES IDX 7 1 6 2 8 3 9 4 10 5 11 6 13 7 12 8 14 9 5 10 4 11 2 12 3 13
REMARK SMILES IDX 1 14
REMARK H PARENT
REMARK Flexibility Score: inf
ROOT
ATOM      1  C   UNL     1     -31.558  22.974  29.738  1.00  0.00    -0.077 C 
ATOM      2  C   UNL     1     -31.681  24.319  29.658  1.00  0.00    -0.028 C 
ATOM      3  C   UNL     1     -31.906  22.214  30.996  1.00  0.00     0.039 C 
ENDROOT
BRANCH   1   4
ATOM      4  C   UNL     1     -31.073  22.207  28.527  1.00  0.00     0.034 C 
BRANCH   4   5
ATOM      5  C   UNL     1     -29.567  22.406  28.326  1.00  0.00     0.032 C 
BRANCH   5   6
ATOM      6  C   UNL     1     -29.238  22.552  26.861  1.00  0.00    -0.028 C 
ATOM      7  C   UNL     1     -28.224  20.268  26.697  1.00  0.00     0.039 C 
ATOM      8  C   UNL     1     -28.656  21.591  26.109  1.00  0.00    -0.080 C 
ATOM      9  C   UNL     1     -28.424  21.865  24.646  1.00  0.00     0.039 C 
ENDBRANCH   5   6
ENDBRANCH   4   5
ENDBRANCH   1   4
BRANCH   2  10
ATOM     10  C   UNL     1     -32.105  25.207  30.800  1.00  0.00     0.035 C 
BRANCH  10  11
ATOM     11  C   UNL     1     -33.625  25.425  30.780  1.00  0.00     0.079 C 
BRANCH  11  12
ATOM     12  C   UNL     1     -34.335  24.993  32.043  1.00  0.00     0.130 C 
ATOM     13  O   UNL     1     -34.007  25.513  33.099  1.00  0.00    -0.300 OA
ATOM     14  C   UNL     1     -35.421  23.952  32.059  1.00  0.00     0.087 C 
ENDBRANCH  11  12
ENDBRANCH  10  11
ENDBRANCH   2  10
TORSDOF 6
ENDMDL
MODEL 7
REMARK VINA RESULT:    -4.440      2.471      4.620
REMARK INTER + INTRA:          -6.811
REMARK INTER:                  -6.221
REMARK INTRA:                  -0.591
REMARK UNBOUND:                -0.815
REMARK SMILES CC(=O)CCC=C(C)CCC=C(C)C
REMARK SMILES IDX 7 1 6 2 8 3 9 4 10 5 11 6 13 7 12 8 14 9 5 10 4 11 2 12 3 13
REMARK SMILES IDX 1 14
REMARK H PARENT
REMARK Flexibility Score: inf
ROOT
ATOM      1  C   UNL     1     -34.049  17.364  25.203  1.00  0.00    -0.077 C 
ATOM      2  C   UNL     1     -33.708  18.654  25.425  1.00  0.00    -0.028 C 
ATOM      3  C   UNL     1     -33.878  16.715  23.849  1.00  0.00     0.039 C 
ENDROOT
BRANCH   1   4
ATOM      4  C   UNL     1     -34.601  16.542  26.347  1.00  0.00     0.034 C 
BRANCH   4   5
ATOM      5  C   UNL     1     -33.482  16.127  27.307  1.00  0.00     0.032 C 
BRANCH   5   6
ATOM      6  C   UNL     1     -33.793  14.798  27.949  1.00  0.00    -0.028 C 
ATOM      7  C   UNL     1     -31.957  15.004  29.640  1.00  0.00     0.039 C 
ATOM      8  C   UNL     1     -33.132  14.291  29.014  1.00  0.00    -0.080 C 
ATOM      9  C   UNL     1     -33.582  12.966  29.574  1.00  0.00     0.039 C 
ENDBRANCH   5   6
ENDBRANCH   4   5
ENDBRANCH   1   4
BRANCH   2  10
ATOM     10  C   UNL     1     -33.195  19.596  24.366  1.00  0.00     0.035 C 
BRANCH  10  11
ATOM     11  C   UNL     1     -31.690  19.846  24.549  1.00  0.00     0.079 C 
BRANCH  11  12
ATOM     12  C   UNL     1     -30.862  19.614  23.306  1.00  0.00     0.130 C 
ATOM     13  O   UNL     1     -30.295  20.571  22.800  1.00  0.00    -0.300 OA
ATOM     14  C   UNL     1     -30.708  18.263  22.664  1.00  0.00     0.087 C 
ENDBRANCH  11  12
ENDBRANCH  10  11
ENDBRANCH   2  10
TORSDOF 6
ENDMDL
MODEL 8
REMARK VINA RESULT:    -4.433      4.595      6.489
REMARK INTER + INTRA:          -6.802
REMARK INTER:                  -6.204
REMARK INTRA:                  -0.598
REMARK UNBOUND:                -0.815
REMARK SMILES CC(=O)CCC=C(C)CCC=C(C)C
REMARK SMILES IDX 7 1 6 2 8 3 9 4 10 5 11 6 13 7 12 8 14 9 5 10 4 11 2 12 3 13
REMARK SMILES IDX 1 14
REMARK H PARENT
REMARK Flexibility Score: inf
ROOT
ATOM      1  C   UNL     1     -29.614  21.673  26.599  1.00  0.00    -0.077 C 
ATOM      2  C   UNL     1     -30.472  20.636  26.465  1.00  0.00    -0.028 C 
ATOM      3  C   UNL     1     -28.587  22.002  25.541  1.00  0.00     0.039 C 
ENDROOT
BRANCH   1   4
ATOM      4  C   UNL     1     -29.696  22.540  27.836  1.00  0.00     0.034 C 
BRANCH   4   5
ATOM      5  C   UNL     1     -30.941  22.195  28.659  1.00  0.00     0.032 C 
BRANCH   5   6
ATOM      6  C   UNL     1     -31.612  23.448  29.165  1.00  0.00    -0.028 C 
ATOM      7  C   UNL     1     -30.564  23.287  31.433  1.00  0.00     0.039 C 
ATOM      8  C   UNL     1     -31.434  23.965  30.401  1.00  0.00    -0.080 C 
ATOM      9  C   UNL     1     -32.141  25.248  30.752  1.00  0.00     0.039 C 
ENDBRANCH   5   6
ENDBRANCH   4   5
ENDBRANCH   1   4
BRANCH   2  10
ATOM     10  C   UNL     1     -30.466  19.667  25.310  1.00  0.00     0.035 C 
BRANCH  10  11
ATOM     11  C   UNL     1     -31.518  20.066  24.265  1.00  0.00     0.079 C 
BRANCH  11  12
ATOM     12  C   UNL     1     -32.936  19.688  24.630  1.00  0.00     0.130 C 
ATOM     13  O   UNL     1     -33.837  20.452  24.320  1.00  0.00    -0.300 OA
ATOM     14  C   UNL     1     -33.285  18.420  25.359  1.00  0.00     0.087 C 
ENDBRANCH  11  12
ENDBRANCH  10  11
ENDBRANCH   2  10
TORSDOF 6
ENDMDL
MODEL 9
REMARK VINA RESULT:    -4.416      7.174      9.212
REMARK INTER + INTRA:          -6.779
REMARK INTER:                  -5.912
REMARK INTRA:                  -0.867
REMARK UNBOUND:                -0.815
REMARK SMILES CC(=O)CCC=C(C)CCC=C(C)C
REMARK SMILES IDX 7 1 6 2 8 3 9 4 10 5 11 6 13 7 12 8 14 9 5 10 4 11 2 12 3 13
REMARK SMILES IDX 1 14
REMARK H PARENT
REMARK Flexibility Score: inf
ROOT
ATOM      1  C   UNL     1     -31.614  22.905  29.721  1.00  0.00    -0.077 C 
ATOM      2  C   UNL     1     -31.709  24.251  29.626  1.00  0.00    -0.028 C 
ATOM      3  C   UNL     1     -31.943  22.169  30.998  1.00  0.00     0.039 C 
ENDROOT
BRANCH   1   4
ATOM      4  C   UNL     1     -31.182  22.112  28.507  1.00  0.00     0.034 C 
BRANCH   4   5
ATOM      5  C   UNL     1     -29.850  22.636  27.962  1.00  0.00     0.032 C 
BRANCH   5   6
ATOM      6  C   UNL     1     -28.826  21.529  27.896  1.00  0.00    -0.028 C 
ATOM      7  C   UNL     1     -28.027  21.913  30.238  1.00  0.00     0.039 C 
ATOM      8  C   UNL     1     -28.016  21.176  28.920  1.00  0.00    -0.080 C 
ATOM      9  C   UNL     1     -27.069  20.022  28.721  1.00  0.00     0.039 C 
ENDBRANCH   5   6
ENDBRANCH   4   5
ENDBRANCH   1   4
BRANCH   2  10
ATOM     10  C   UNL     1     -32.078  25.163  30.769  1.00  0.00     0.035 C 
BRANCH  10  11
ATOM     11  C   UNL     1     -33.580  25.484  30.740  1.00  0.00     0.079 C 
BRANCH  11  12
ATOM     12  C   UNL     1     -34.358  24.945  31.919  1.00  0.00     0.130 C 
ATOM     13  O   UNL     1     -35.445  24.427  31.708  1.00  0.00    -0.300 OA
ATOM     14  C   UNL     1     -33.857  25.020  33.335  1.00  0.00     0.087 C 
ENDBRANCH  11  12
ENDBRANCH  10  11
ENDBRANCH   2  10
TORSDOF 6
ENDMDL
