MODEL 1
REMARK VINA RESULT:    -4.167      0.000      0.000
REMARK INTER + INTRA:          -7.730
REMARK INTER:                  -6.603
REMARK INTRA:                  -1.127
REMARK UNBOUND:                -1.127
REMARK SMILES CCCCCCCCCCCC(=O)[O-]
REMARK SMILES IDX 7 1 8 2 9 3 10 4 11 5 12 6 13 7 14 8 6 9 5 10 4 11 3 12 2 13
REMARK SMILES IDX 1 14
REMARK H PARENT
REMARK Flexibility Score: inf
ROOT
ATOM      1  C   UNL     1      14.724  62.566  31.370  1.00  0.00     0.000 C 
ENDROOT
BRANCH   1   2
ATOM      2  C   UNL     1      14.779  64.082  31.625  1.00  0.00     0.000 C 
BRANCH   2   3
ATOM      3  C   UNL     1      14.495  64.448  33.092  1.00  0.00     0.000 C 
BRANCH   3   4
ATOM      4  C   UNL     1      14.914  65.889  33.437  1.00  0.00     0.006 C 
BRANCH   4   5
ATOM      5  C   UNL     1      14.892  66.854  32.241  1.00  0.00     0.053 C 
BRANCH   5   6
ATOM      6  C   UNL     1      15.268  68.248  32.642  1.00  0.00     0.041 C 
ATOM      7  O   UNL     1      15.849  68.458  33.739  1.00  0.00    -0.550 OA
ATOM      8  O   UNL     1      14.947  69.318  31.817  1.00  0.00    -0.550 OA
ENDBRANCH   5   6
ENDBRANCH   4   5
ENDBRANCH   3   4
ENDBRANCH   2   3
ENDBRANCH   1   2
BRANCH   1   9
ATOM      9  C   UNL     1      13.638  62.180  30.350  1.00  0.00     0.000 C 
BRANCH   9  10
ATOM     10  C   UNL     1      12.355  63.010  30.512  1.00  0.00    -0.000 C 
BRANCH  10  11
ATOM     11  C   UNL     1      11.267  62.271  31.306  1.00  0.00    -0.000 C 
BRANCH  11  12
ATOM     12  C   UNL     1      11.149  62.835  32.730  1.00  0.00    -0.000 C 
BRANCH  12  13
ATOM     13  C   UNL     1      11.899  61.984  33.767  1.00  0.00    -0.003 C 
ATOM     14  C   UNL     1      12.051  60.526  33.338  1.00  0.00     0.004 C 
ENDBRANCH  12  13
ENDBRANCH  11  12
ENDBRANCH  10  11
ENDBRANCH   9  10
ENDBRANCH   1   9
TORSDOF 10
ENDMDL
MODEL 2
REMARK VINA RESULT:    -4.143      1.830      2.867
REMARK INTER + INTRA:          -7.692
REMARK INTER:                  -7.203
REMARK INTRA:                  -0.489
REMARK UNBOUND:                -1.127
REMARK SMILES CCCCCCCCCCCC(=O)[O-]
REMARK SMILES IDX 7 1 8 2 9 3 10 4 11 5 12 6 13 7 14 8 6 9 5 10 4 11 3 12 2 13
REMARK SMILES IDX 1 14
REMARK H PARENT
REMARK Flexibility Score: inf
ROOT
ATOM      1  C   UNL     1      15.339  65.243  32.495  1.00  0.00     0.000 C 
ENDROOT
BRANCH   1   2
ATOM      2  C   UNL     1      14.882  66.707  32.374  1.00  0.00     0.000 C 
BRANCH   2   3
ATOM      3  C   UNL     1      15.368  67.579  33.545  1.00  0.00     0.000 C 
BRANCH   3   4
ATOM      4  C   UNL     1      15.614  69.042  33.134  1.00  0.00     0.006 C 
BRANCH   4   5
ATOM      5  C   UNL     1      17.093  69.461  33.149  1.00  0.00     0.053 C 
BRANCH   5   6
ATOM      6  C   UNL     1      17.428  70.286  34.352  1.00  0.00     0.041 C 
ATOM      7  O   UNL     1      17.272  71.536  34.328  1.00  0.00    -0.550 OA
ATOM      8  O   UNL     1      17.943  69.679  35.491  1.00  0.00    -0.550 OA
ENDBRANCH   5   6
ENDBRANCH   4   5
ENDBRANCH   3   4
ENDBRANCH   2   3
ENDBRANCH   1   2
BRANCH   1   9
ATOM      9  C   UNL     1      14.184  64.294  32.861  1.00  0.00     0.000 C 
BRANCH   9  10
ATOM     10  C   UNL     1      13.600  63.575  31.636  1.00  0.00    -0.000 C 
BRANCH  10  11
ATOM     11  C   UNL     1      12.066  63.647  31.579  1.00  0.00    -0.000 C 
BRANCH  11  12
ATOM     12  C   UNL     1      11.442  63.020  32.836  1.00  0.00    -0.000 C 
BRANCH  12  13
ATOM     13  C   UNL     1      11.477  61.484  32.809  1.00  0.00    -0.003 C 
ATOM     14  C   UNL     1      12.374  60.894  33.896  1.00  0.00     0.004 C 
ENDBRANCH  12  13
ENDBRANCH  11  12
ENDBRANCH  10  11
ENDBRANCH   9  10
ENDBRANCH   1   9
TORSDOF 10
ENDMDL
MODEL 3
REMARK VINA RESULT:    -4.081      5.023      8.031
REMARK INTER + INTRA:          -7.594
REMARK INTER:                  -6.645
REMARK INTRA:                  -0.949
REMARK UNBOUND:                -1.127
REMARK SMILES CCCCCCCCCCCC(=O)[O-]
REMARK SMILES IDX 7 1 8 2 9 3 10 4 11 5 12 6 13 7 14 8 6 9 5 10 4 11 3 12 2 13
REMARK SMILES IDX 1 14
REMARK H PARENT
REMARK Flexibility Score: inf
ROOT
ATOM      1  C   UNL     1      18.303  68.902  36.019  1.00  0.00     0.000 C 
ENDROOT
BRANCH   1   2
ATOM      2  C   UNL     1      17.128  68.024  36.483  1.00  0.00     0.000 C 
BRANCH   2   3
ATOM      3  C   UNL     1      16.703  66.993  35.423  1.00  0.00     0.000 C 
BRANCH   3   4
ATOM      4  C   UNL     1      15.396  67.381  34.708  1.00  0.00     0.006 C 
BRANCH   4   5
ATOM      5  C   UNL     1      15.505  67.428  33.176  1.00  0.00     0.053 C 
BRANCH   5   6
ATOM      6  C   UNL     1      15.539  68.834  32.661  1.00  0.00     0.041 C 
ATOM      7  O   UNL     1      16.313  69.681  33.179  1.00  0.00    -0.550 OA
ATOM      8  O   UNL     1      14.692  69.217  31.628  1.00  0.00    -0.550 OA
ENDBRANCH   5   6
ENDBRANCH   4   5
ENDBRANCH   3   4
ENDBRANCH   2   3
ENDBRANCH   1   2
BRANCH   1   9
ATOM      9  C   UNL     1      19.381  69.065  37.105  1.00  0.00     0.000 C 
BRANCH   9  10
ATOM     10  C   UNL     1      18.782  69.257  38.507  1.00  0.00    -0.000 C 
BRANCH  10  11
ATOM     11  C   UNL     1      19.416  68.331  39.556  1.00  0.00    -0.000 C 
BRANCH  11  12
ATOM     12  C   UNL     1      19.579  66.907  39.002  1.00  0.00    -0.000 C 
BRANCH  12  13
ATOM     13  C   UNL     1      18.726  65.877  39.760  1.00  0.00    -0.003 C 
ATOM     14  C   UNL     1      17.249  65.935  39.375  1.00  0.00     0.004 C 
ENDBRANCH  12  13
ENDBRANCH  11  12
ENDBRANCH  10  11
ENDBRANCH   9  10
ENDBRANCH   1   9
TORSDOF 10
ENDMDL
MODEL 4
REMARK VINA RESULT:    -4.081      5.123      7.736
REMARK INTER + INTRA:          -7.594
REMARK INTER:                  -6.853
REMARK INTRA:                  -0.741
REMARK UNBOUND:                -1.127
REMARK SMILES CCCCCCCCCCCC(=O)[O-]
REMARK SMILES IDX 7 1 8 2 9 3 10 4 11 5 12 6 13 7 14 8 6 9 5 10 4 11 3 12 2 13
REMARK SMILES IDX 1 14
REMARK H PARENT
REMARK Flexibility Score: inf
ROOT
ATOM      1  C   UNL     1      16.348  66.765  35.940  1.00  0.00     0.000 C 
ENDROOT
BRANCH   1   2
ATOM      2  C   UNL     1      16.711  66.832  34.446  1.00  0.00     0.000 C 
BRANCH   2   3
ATOM      3  C   UNL     1      15.587  67.441  33.589  1.00  0.00     0.000 C 
BRANCH   3   4
ATOM      4  C   UNL     1      15.799  68.939  33.308  1.00  0.00     0.006 C 
BRANCH   4   5
ATOM      5  C   UNL     1      17.268  69.388  33.358  1.00  0.00     0.053 C 
BRANCH   5   6
ATOM      6  C   UNL     1      17.519  70.356  34.474  1.00  0.00     0.041 C 
ATOM      7  O   UNL     1      17.193  71.565  34.349  1.00  0.00    -0.550 OA
ATOM      8  O   UNL     1      18.144  69.927  35.638  1.00  0.00    -0.550 OA
ENDBRANCH   5   6
ENDBRANCH   4   5
ENDBRANCH   3   4
ENDBRANCH   2   3
ENDBRANCH   1   2
BRANCH   1   9
ATOM      9  C   UNL     1      17.590  66.684  36.844  1.00  0.00     0.000 C 
BRANCH   9  10
ATOM     10  C   UNL     1      17.395  65.727  38.030  1.00  0.00    -0.000 C 
BRANCH  10  11
ATOM     11  C   UNL     1      17.675  66.395  39.385  1.00  0.00    -0.000 C 
BRANCH  11  12
ATOM     12  C   UNL     1      17.816  67.917  39.227  1.00  0.00    -0.000 C 
BRANCH  12  13
ATOM     13  C   UNL     1      19.183  68.437  39.701  1.00  0.00    -0.003 C 
ATOM     14  C   UNL     1      19.990  67.379  40.452  1.00  0.00     0.004 C 
ENDBRANCH  12  13
ENDBRANCH  11  12
ENDBRANCH  10  11
ENDBRANCH   9  10
ENDBRANCH   1   9
TORSDOF 10
ENDMDL
MODEL 5
REMARK VINA RESULT:    -4.068      1.461      2.056
REMARK INTER + INTRA:          -7.573
REMARK INTER:                  -6.058
REMARK INTRA:                  -1.515
REMARK UNBOUND:                -1.127
REMARK SMILES CCCCCCCCCCCC(=O)[O-]
REMARK SMILES IDX 7 1 8 2 9 3 10 4 11 5 12 6 13 7 14 8 6 9 5 10 4 11 3 12 2 13
REMARK SMILES IDX 1 14
REMARK H PARENT
REMARK Flexibility Score: inf
ROOT
ATOM      1  C   UNL     1      13.824  61.785  30.398  1.00  0.00     0.000 C 
ENDROOT
BRANCH   1   2
ATOM      2  C   UNL     1      14.989  62.445  31.156  1.00  0.00     0.000 C 
BRANCH   2   3
ATOM      3  C   UNL     1      14.745  63.938  31.436  1.00  0.00     0.000 C 
BRANCH   3   4
ATOM      4  C   UNL     1      15.169  64.353  32.856  1.00  0.00     0.006 C 
BRANCH   4   5
ATOM      5  C   UNL     1      14.839  65.812  33.211  1.00  0.00     0.053 C 
BRANCH   5   6
ATOM      6  C   UNL     1      15.716  66.332  34.308  1.00  0.00     0.041 C 
ATOM      7  O   UNL     1      15.303  67.244  35.072  1.00  0.00    -0.550 OA
ATOM      8  O   UNL     1      17.002  65.832  34.466  1.00  0.00    -0.550 OA
ENDBRANCH   5   6
ENDBRANCH   4   5
ENDBRANCH   3   4
ENDBRANCH   2   3
ENDBRANCH   1   2
BRANCH   1   9
ATOM      9  C   UNL     1      12.557  62.658  30.392  1.00  0.00     0.000 C 
BRANCH   9  10
ATOM     10  C   UNL     1      11.480  62.141  31.359  1.00  0.00    -0.000 C 
BRANCH  10  11
ATOM     11  C   UNL     1      11.194  63.120  32.508  1.00  0.00    -0.000 C 
BRANCH  11  12
ATOM     12  C   UNL     1      12.027  62.767  33.750  1.00  0.00    -0.000 C 
BRANCH  12  13
ATOM     13  C   UNL     1      12.331  61.263  33.849  1.00  0.00    -0.003 C 
ATOM     14  C   UNL     1      13.755  60.978  34.322  1.00  0.00     0.004 C 
ENDBRANCH  12  13
ENDBRANCH  11  12
ENDBRANCH  10  11
ENDBRANCH   9  10
ENDBRANCH   1   9
TORSDOF 10
ENDMDL
MODEL 6
REMARK VINA RESULT:    -4.038      4.942      7.421
REMARK INTER + INTRA:          -7.526
REMARK INTER:                  -6.667
REMARK INTRA:                  -0.860
REMARK UNBOUND:                -1.127
REMARK SMILES CCCCCCCCCCCC(=O)[O-]
REMARK SMILES IDX 7 1 8 2 9 3 10 4 11 5 12 6 13 7 14 8 6 9 5 10 4 11 3 12 2 13
REMARK SMILES IDX 1 14
REMARK H PARENT
REMARK Flexibility Score: inf
ROOT
ATOM      1  C   UNL     1      17.792  69.808  34.875  1.00  0.00     0.000 C 
ENDROOT
BRANCH   1   2
ATOM      2  C   UNL     1      17.866  68.830  36.060  1.00  0.00     0.000 C 
BRANCH   2   3
ATOM      3  C   UNL     1      19.183  68.949  36.846  1.00  0.00     0.000 C 
BRANCH   3   4
ATOM      4  C   UNL     1      18.962  69.324  38.323  1.00  0.00     0.006 C 
BRANCH   4   5
ATOM      5  C   UNL     1      17.740  68.651  38.968  1.00  0.00     0.053 C 
BRANCH   5   6
ATOM      6  C   UNL     1      18.054  67.268  39.451  1.00  0.00     0.041 C 
ATOM      7  O   UNL     1      19.209  66.989  39.868  1.00  0.00    -0.550 OA
ATOM      8  O   UNL     1      17.080  66.279  39.410  1.00  0.00    -0.550 OA
ENDBRANCH   5   6
ENDBRANCH   4   5
ENDBRANCH   3   4
ENDBRANCH   2   3
ENDBRANCH   1   2
BRANCH   1   9
ATOM      9  C   UNL     1      17.495  69.097  33.543  1.00  0.00     0.000 C 
BRANCH   9  10
ATOM     10  C   UNL     1      16.079  69.388  33.022  1.00  0.00    -0.000 C 
BRANCH  10  11
ATOM     11  C   UNL     1      15.288  68.109  32.707  1.00  0.00    -0.000 C 
BRANCH  11  12
ATOM     12  C   UNL     1      15.307  67.144  33.903  1.00  0.00    -0.000 C 
BRANCH  12  13
ATOM     13  C   UNL     1      15.899  65.772  33.546  1.00  0.00    -0.003 C 
ATOM     14  C   UNL     1      16.999  65.333  34.512  1.00  0.00     0.004 C 
ENDBRANCH  12  13
ENDBRANCH  11  12
ENDBRANCH  10  11
ENDBRANCH   9  10
ENDBRANCH   1   9
TORSDOF 10
ENDMDL
MODEL 7
REMARK VINA RESULT:    -3.993      5.501      8.404
REMARK INTER + INTRA:          -7.455
REMARK INTER:                  -6.103
REMARK INTRA:                  -1.351
REMARK UNBOUND:                -1.127
REMARK SMILES CCCCCCCCCCCC(=O)[O-]
REMARK SMILES IDX 7 1 8 2 9 3 10 4 11 5 12 6 13 7 14 8 6 9 5 10 4 11 3 12 2 13
REMARK SMILES IDX 1 14
REMARK H PARENT
REMARK Flexibility Score: inf
ROOT
ATOM      1  C   UNL     1      19.372  65.059  37.547  1.00  0.00     0.000 C 
ENDROOT
BRANCH   1   2
ATOM      2  C   UNL     1      17.837  65.096  37.458  1.00  0.00     0.000 C 
BRANCH   2   3
ATOM      3  C   UNL     1      17.333  65.702  36.137  1.00  0.00     0.000 C 
BRANCH   3   4
ATOM      4  C   UNL     1      16.601  67.041  36.339  1.00  0.00     0.006 C 
BRANCH   4   5
ATOM      5  C   UNL     1      15.649  67.418  35.192  1.00  0.00     0.053 C 
BRANCH   5   6
ATOM      6  C   UNL     1      16.198  68.530  34.353  1.00  0.00     0.041 C 
ATOM      7  O   UNL     1      15.784  68.700  33.176  1.00  0.00    -0.550 OA
ATOM      8  O   UNL     1      17.189  69.360  34.861  1.00  0.00    -0.550 OA
ENDBRANCH   5   6
ENDBRANCH   4   5
ENDBRANCH   3   4
ENDBRANCH   2   3
ENDBRANCH   1   2
BRANCH   1   9
ATOM      9  C   UNL     1      19.894  65.538  38.913  1.00  0.00     0.000 C 
BRANCH   9  10
ATOM     10  C   UNL     1      18.796  66.188  39.769  1.00  0.00    -0.000 C 
BRANCH  10  11
ATOM     11  C   UNL     1      19.055  67.679  40.035  1.00  0.00    -0.000 C 
BRANCH  11  12
ATOM     12  C   UNL     1      17.979  68.549  39.365  1.00  0.00    -0.000 C 
BRANCH  12  13
ATOM     13  C   UNL     1      18.570  69.554  38.364  1.00  0.00    -0.003 C 
ATOM     14  C   UNL     1      19.643  68.936  37.469  1.00  0.00     0.004 C 
ENDBRANCH  12  13
ENDBRANCH  11  12
ENDBRANCH  10  11
ENDBRANCH   9  10
ENDBRANCH   1   9
TORSDOF 10
ENDMDL
MODEL 8
REMARK VINA RESULT:    -3.970      5.336      7.796
REMARK INTER + INTRA:          -7.419
REMARK INTER:                  -6.251
REMARK INTRA:                  -1.168
REMARK UNBOUND:                -1.127
REMARK SMILES CCCCCCCCCCCC(=O)[O-]
REMARK SMILES IDX 7 1 8 2 9 3 10 4 11 5 12 6 13 7 14 8 6 9 5 10 4 11 3 12 2 13
REMARK SMILES IDX 1 14
REMARK H PARENT
REMARK Flexibility Score: inf
ROOT
ATOM      1  C   UNL     1      18.121  64.743  35.952  1.00  0.00     0.000 C 
ENDROOT
BRANCH   1   2
ATOM      2  C   UNL     1      17.071  65.563  35.181  1.00  0.00     0.000 C 
BRANCH   2   3
ATOM      3  C   UNL     1      16.479  66.708  36.021  1.00  0.00     0.000 C 
BRANCH   3   4
ATOM      4  C   UNL     1      16.278  67.999  35.207  1.00  0.00     0.006 C 
BRANCH   4   5
ATOM      5  C   UNL     1      17.469  68.970  35.261  1.00  0.00     0.053 C 
BRANCH   5   6
ATOM      6  C   UNL     1      17.341  70.068  34.251  1.00  0.00     0.041 C 
ATOM      7  O   UNL     1      17.572  71.261  34.579  1.00  0.00    -0.550 OA
ATOM      8  O   UNL     1      16.936  69.776  32.955  1.00  0.00    -0.550 OA
ENDBRANCH   5   6
ENDBRANCH   4   5
ENDBRANCH   3   4
ENDBRANCH   2   3
ENDBRANCH   1   2
BRANCH   1   9
ATOM      9  C   UNL     1      18.365  65.286  37.371  1.00  0.00     0.000 C 
BRANCH   9  10
ATOM     10  C   UNL     1      19.667  66.095  37.477  1.00  0.00    -0.000 C 
BRANCH  10  11
ATOM     11  C   UNL     1      19.768  66.890  38.787  1.00  0.00    -0.000 C 
BRANCH  11  12
ATOM     12  C   UNL     1      18.371  67.200  39.349  1.00  0.00    -0.000 C 
BRANCH  12  13
ATOM     13  C   UNL     1      17.842  68.570  38.897  1.00  0.00    -0.003 C 
ATOM     14  C   UNL     1      18.962  69.555  38.562  1.00  0.00     0.004 C 
ENDBRANCH  12  13
ENDBRANCH  11  12
ENDBRANCH  10  11
ENDBRANCH   9  10
ENDBRANCH   1   9
TORSDOF 10
ENDMDL
MODEL 9
REMARK VINA RESULT:    -3.960      4.688      6.683
REMARK INTER + INTRA:          -7.402
REMARK INTER:                  -6.409
REMARK INTRA:                  -0.993
REMARK UNBOUND:                -1.127
REMARK SMILES CCCCCCCCCCCC(=O)[O-]
REMARK SMILES IDX 7 1 8 2 9 3 10 4 11 5 12 6 13 7 14 8 6 9 5 10 4 11 3 12 2 13
REMARK SMILES IDX 1 14
REMARK H PARENT
REMARK Flexibility Score: inf
ROOT
ATOM      1  C   UNL     1      10.135  58.325  33.404  1.00  0.00     0.000 C 
ENDROOT
BRANCH   1   2
ATOM      2  C   UNL     1       9.776  58.798  31.985  1.00  0.00     0.000 C 
BRANCH   2   3
ATOM      3  C   UNL     1       9.788  60.331  31.850  1.00  0.00     0.000 C 
BRANCH   3   4
ATOM      4  C   UNL     1      11.099  60.961  32.352  1.00  0.00     0.006 C 
BRANCH   4   5
ATOM      5  C   UNL     1      11.013  62.474  32.611  1.00  0.00     0.053 C 
BRANCH   5   6
ATOM      6  C   UNL     1      11.864  63.254  31.658  1.00  0.00     0.041 C 
ATOM      7  O   UNL     1      12.653  64.136  32.088  1.00  0.00    -0.550 OA
ATOM      8  O   UNL     1      11.763  63.029  30.291  1.00  0.00    -0.550 OA
ENDBRANCH   5   6
ENDBRANCH   4   5
ENDBRANCH   3   4
ENDBRANCH   2   3
ENDBRANCH   1   2
BRANCH   1   9
ATOM      9  C   UNL     1       8.928  57.730  34.149  1.00  0.00     0.000 C 
BRANCH   9  10
ATOM     10  C   UNL     1       7.667  57.666  33.273  1.00  0.00    -0.000 C 
BRANCH  10  11
ATOM     11  C   UNL     1       6.567  58.630  33.744  1.00  0.00    -0.000 C 
BRANCH  11  12
ATOM     12  C   UNL     1       5.888  59.313  32.547  1.00  0.00    -0.000 C 
BRANCH  12  13
ATOM     13  C   UNL     1       5.878  58.429  31.289  1.00  0.00    -0.003 C 
ATOM     14  C   UNL     1       6.634  59.057  30.119  1.00  0.00     0.004 C 
ENDBRANCH  12  13
ENDBRANCH  11  12
ENDBRANCH  10  11
ENDBRANCH   9  10
ENDBRANCH   1   9
TORSDOF 10
ENDMDL
