MODEL 1
REMARK VINA RESULT:    -3.319      0.000      0.000
REMARK INTER + INTRA:          -3.319
REMARK INTER:                  -3.319
REMARK INTRA:                   0.000
REMARK UNBOUND:                 0.000
REMARK SMILES CC1(C)[C@@H]2CC[C@@]1(C)C(=O)C2
REMARK SMILES IDX 1 1 2 2 4 3 5 4 6 5 7 6 9 7 10 8 11 9 8 10 3 11
REMARK H PARENT
REMARK Flexibility Score: inf
ROOT
ATOM      1  C   UNL     1     140.027 139.921 140.267  1.00  0.00     0.012 C 
ATOM      2  C   UNL     1     141.121 139.815 141.375  1.00  0.00    -0.020 C 
ATOM      3  C   UNL     1     142.545 139.566 140.819  1.00  0.00     0.003 C 
ATOM      4  C   UNL     1     143.431 139.674 142.091  1.00  0.00     0.005 C 
ATOM      5  C   UNL     1     142.728 140.784 142.911  1.00  0.00     0.015 C 
ATOM      6  C   UNL     1     141.526 141.162 142.012  1.00  0.00     0.032 C 
ATOM      7  C   UNL     1     142.139 141.859 140.824  1.00  0.00     0.139 C 
ATOM      8  O   UNL     1     142.147 143.065 140.624  1.00  0.00    -0.299 OA
ATOM      9  C   UNL     1     142.832 140.839 139.975  1.00  0.00     0.080 C 
ATOM     10  C   UNL     1     140.414 141.944 142.721  1.00  0.00     0.020 C 
ATOM     11  C   UNL     1     140.634 138.719 142.372  1.00  0.00     0.012 C 
ENDROOT
TORSDOF 0
ENDMDL
MODEL 2
REMARK VINA RESULT:    -3.294      2.134      3.746
REMARK INTER + INTRA:          -3.294
REMARK INTER:                  -3.294
REMARK INTRA:                   0.000
REMARK UNBOUND:                 0.000
REMARK SMILES CC1(C)[C@@H]2CC[C@@]1(C)C(=O)C2
REMARK SMILES IDX 1 1 2 2 4 3 5 4 6 5 7 6 9 7 10 8 11 9 8 10 3 11
REMARK H PARENT
REMARK Flexibility Score: inf
ROOT
ATOM      1  C   UNL     1     141.609 141.751 140.296  1.00  0.00     0.012 C 
ATOM      2  C   UNL     1     140.585 141.835 141.470  1.00  0.00    -0.020 C 
ATOM      3  C   UNL     1     139.140 142.151 141.011  1.00  0.00     0.003 C 
ATOM      4  C   UNL     1     138.326 142.007 142.327  1.00  0.00     0.005 C 
ATOM      5  C   UNL     1     139.039 140.838 143.051  1.00  0.00     0.015 C 
ATOM      6  C   UNL     1     140.175 140.471 142.066  1.00  0.00     0.032 C 
ATOM      7  C   UNL     1     139.473 139.850 140.884  1.00  0.00     0.139 C 
ATOM      8  O   UNL     1     139.416 138.656 140.629  1.00  0.00    -0.299 OA
ATOM      9  C   UNL     1     138.765 140.930 140.127  1.00  0.00     0.080 C 
ATOM     10  C   UNL     1     141.300 139.623 142.671  1.00  0.00     0.020 C 
ATOM     11  C   UNL     1     141.163 142.866 142.487  1.00  0.00     0.012 C 
ENDROOT
TORSDOF 0
ENDMDL
MODEL 3
REMARK VINA RESULT:    -3.268      1.797      3.180
REMARK INTER + INTRA:          -3.268
REMARK INTER:                  -3.268
REMARK INTRA:                   0.000
REMARK UNBOUND:                 0.000
REMARK SMILES CC1(C)[C@@H]2CC[C@@]1(C)C(=O)C2
REMARK SMILES IDX 1 1 2 2 4 3 5 4 6 5 7 6 9 7 10 8 11 9 8 10 3 11
REMARK H PARENT
REMARK Flexibility Score: inf
ROOT
ATOM      1  C   UNL     1     140.389 141.673 142.789  1.00  0.00     0.012 C 
ATOM      2  C   UNL     1     141.570 141.204 141.883  1.00  0.00    -0.020 C 
ATOM      3  C   UNL     1     142.649 140.392 142.641  1.00  0.00     0.003 C 
ATOM      4  C   UNL     1     143.588 139.921 141.496  1.00  0.00     0.005 C 
ATOM      5  C   UNL     1     142.607 139.660 140.326  1.00  0.00     0.015 C 
ATOM      6  C   UNL     1     141.235 140.024 140.945  1.00  0.00     0.032 C 
ATOM      7  C   UNL     1     140.967 138.935 141.953  1.00  0.00     0.139 C 
ATOM      8  O   UNL     1     140.196 137.998 141.809  1.00  0.00    -0.299 OA
ATOM      9  C   UNL     1     141.880 139.130 143.124  1.00  0.00     0.080 C 
ATOM     10  C   UNL     1     140.113 140.258 139.928  1.00  0.00     0.020 C 
ATOM     11  C   UNL     1     142.122 142.483 141.183  1.00  0.00     0.012 C 
ENDROOT
TORSDOF 0
ENDMDL
MODEL 4
REMARK VINA RESULT:    -3.268      1.728      2.672
REMARK INTER + INTRA:          -3.268
REMARK INTER:                  -3.268
REMARK INTRA:                   0.000
REMARK UNBOUND:                 0.000
REMARK SMILES CC1(C)[C@@H]2CC[C@@]1(C)C(=O)C2
REMARK SMILES IDX 1 1 2 2 4 3 5 4 6 5 7 6 9 7 10 8 11 9 8 10 3 11
REMARK H PARENT
REMARK Flexibility Score: inf
ROOT
ATOM      1  C   UNL     1     139.918 141.560 140.229  1.00  0.00     0.012 C 
ATOM      2  C   UNL     1     139.825 140.547 141.413  1.00  0.00    -0.020 C 
ATOM      3  C   UNL     1     139.550 139.092 140.964  1.00  0.00     0.003 C 
ATOM      4  C   UNL     1     139.677 138.295 142.292  1.00  0.00     0.005 C 
ATOM      5  C   UNL     1     140.811 139.041 143.038  1.00  0.00     0.015 C 
ATOM      6  C   UNL     1     141.182 140.173 142.049  1.00  0.00     0.032 C 
ATOM      7  C   UNL     1     141.847 139.470 140.892  1.00  0.00     0.139 C 
ATOM      8  O   UNL     1     143.047 139.434 140.668  1.00  0.00    -0.299 OA
ATOM      9  C   UNL     1     140.801 138.731 140.115  1.00  0.00     0.080 C 
ATOM     10  C   UNL     1     141.990 141.322 142.661  1.00  0.00     0.020 C 
ATOM     11  C   UNL     1     138.757 141.116 142.396  1.00  0.00     0.012 C 
ENDROOT
TORSDOF 0
ENDMDL
MODEL 5
REMARK VINA RESULT:    -3.254      1.632      3.420
REMARK INTER + INTRA:          -3.254
REMARK INTER:                  -3.254
REMARK INTRA:                   0.000
REMARK UNBOUND:                 0.000
REMARK SMILES CC1(C)[C@@H]2CC[C@@]1(C)C(=O)C2
REMARK SMILES IDX 1 1 2 2 4 3 5 4 6 5 7 6 9 7 10 8 11 9 8 10 3 11
REMARK H PARENT
REMARK Flexibility Score: inf
ROOT
ATOM      1  C   UNL     1     141.138 139.858 142.664  1.00  0.00     0.012 C 
ATOM      2  C   UNL     1     140.016 140.414 141.734  1.00  0.00    -0.020 C 
ATOM      3  C   UNL     1     138.900 141.172 142.493  1.00  0.00     0.003 C 
ATOM      4  C   UNL     1     138.032 141.748 141.340  1.00  0.00     0.005 C 
ATOM      5  C   UNL     1     139.082 142.094 140.255  1.00  0.00     0.015 C 
ATOM      6  C   UNL     1     140.413 141.664 140.919  1.00  0.00     0.032 C 
ATOM      7  C   UNL     1     140.628 142.662 142.029  1.00  0.00     0.139 C 
ATOM      8  O   UNL     1     141.412 143.599 142.010  1.00  0.00    -0.299 OA
ATOM      9  C   UNL     1     139.647 142.379 143.125  1.00  0.00     0.080 C 
ATOM     10  C   UNL     1     141.591 141.504 139.953  1.00  0.00     0.020 C 
ATOM     11  C   UNL     1     139.498 139.204 140.898  1.00  0.00     0.012 C 
ENDROOT
TORSDOF 0
ENDMDL
MODEL 6
REMARK VINA RESULT:    -3.244      1.994      3.639
REMARK INTER + INTRA:          -3.244
REMARK INTER:                  -3.244
REMARK INTRA:                   0.000
REMARK UNBOUND:                 0.000
REMARK SMILES CC1(C)[C@@H]2CC[C@@]1(C)C(=O)C2
REMARK SMILES IDX 1 1 2 2 4 3 5 4 6 5 7 6 9 7 10 8 11 9 8 10 3 11
REMARK H PARENT
REMARK Flexibility Score: inf
ROOT
ATOM      1  C   UNL     1     141.170 143.072 142.002  1.00  0.00     0.012 C 
ATOM      2  C   UNL     1     140.733 141.585 142.187  1.00  0.00    -0.020 C 
ATOM      3  C   UNL     1     139.514 141.409 143.125  1.00  0.00     0.003 C 
ATOM      4  C   UNL     1     139.199 139.893 142.993  1.00  0.00     0.005 C 
ATOM      5  C   UNL     1     139.520 139.598 141.507  1.00  0.00     0.015 C 
ATOM      6  C   UNL     1     139.987 140.977 140.980  1.00  0.00     0.032 C 
ATOM      7  C   UNL     1     138.740 141.826 140.968  1.00  0.00     0.139 C 
ATOM      8  O   UNL     1     138.084 142.125 139.981  1.00  0.00    -0.299 OA
ATOM      9  C   UNL     1     138.373 142.159 142.382  1.00  0.00     0.080 C 
ATOM     10  C   UNL     1     140.754 140.933 139.654  1.00  0.00     0.020 C 
ATOM     11  C   UNL     1     142.003 140.808 142.653  1.00  0.00     0.012 C 
ENDROOT
TORSDOF 0
ENDMDL
MODEL 7
REMARK VINA RESULT:    -3.236      1.672      3.124
REMARK INTER + INTRA:          -3.236
REMARK INTER:                  -3.236
REMARK INTRA:                   0.000
REMARK UNBOUND:                 0.000
REMARK SMILES CC1(C)[C@@H]2CC[C@@]1(C)C(=O)C2
REMARK SMILES IDX 1 1 2 2 4 3 5 4 6 5 7 6 9 7 10 8 11 9 8 10 3 11
REMARK H PARENT
REMARK Flexibility Score: inf
ROOT
ATOM      1  C   UNL     1     139.839 140.423 142.916  1.00  0.00     0.012 C 
ATOM      2  C   UNL     1     140.357 141.527 141.942  1.00  0.00    -0.020 C 
ATOM      3  C   UNL     1     141.254 142.587 142.626  1.00  0.00     0.003 C 
ATOM      4  C   UNL     1     141.754 143.437 141.425  1.00  0.00     0.005 C 
ATOM      5  C   UNL     1     141.923 142.385 140.300  1.00  0.00     0.015 C 
ATOM      6  C   UNL     1     141.489 141.072 140.996  1.00  0.00     0.032 C 
ATOM      7  C   UNL     1     142.585 140.784 141.991  1.00  0.00     0.139 C 
ATOM      8  O   UNL     1     143.469 139.950 141.866  1.00  0.00    -0.299 OA
ATOM      9  C   UNL     1     142.477 141.764 143.119  1.00  0.00     0.080 C 
ATOM     10  C   UNL     1     141.161 139.918 140.041  1.00  0.00     0.020 C 
ATOM     11  C   UNL     1     139.097 142.124 141.243  1.00  0.00     0.012 C 
ENDROOT
TORSDOF 0
ENDMDL
MODEL 8
REMARK VINA RESULT:    -3.232      1.704      2.610
REMARK INTER + INTRA:          -3.232
REMARK INTER:                  -3.232
REMARK INTRA:                   0.000
REMARK UNBOUND:                 0.000
REMARK SMILES CC1(C)[C@@H]2CC[C@@]1(C)C(=O)C2
REMARK SMILES IDX 1 1 2 2 4 3 5 4 6 5 7 6 9 7 10 8 11 9 8 10 3 11
REMARK H PARENT
REMARK Flexibility Score: inf
ROOT
ATOM      1  C   UNL     1     141.418 139.849 140.381  1.00  0.00     0.012 C 
ATOM      2  C   UNL     1     141.661 140.962 141.447  1.00  0.00    -0.020 C 
ATOM      3  C   UNL     1     141.954 142.354 140.835  1.00  0.00     0.003 C 
ATOM      4  C   UNL     1     141.983 143.277 142.084  1.00  0.00     0.005 C 
ATOM      5  C   UNL     1     140.891 142.662 142.996  1.00  0.00     0.015 C 
ATOM      6  C   UNL     1     140.385 141.463 142.159  1.00  0.00     0.032 C 
ATOM      7  C   UNL     1     139.646 142.086 141.001  1.00  0.00     0.139 C 
ATOM      8  O   UNL     1     138.433 142.160 140.880  1.00  0.00    -0.299 OA
ATOM      9  C   UNL     1     140.646 142.695 140.067  1.00  0.00     0.080 C 
ATOM     10  C   UNL     1     139.590 140.418 142.949  1.00  0.00     0.020 C 
ATOM     11  C   UNL     1     142.791 140.436 142.384  1.00  0.00     0.012 C 
ENDROOT
TORSDOF 0
ENDMDL
MODEL 9
REMARK VINA RESULT:    -3.227      1.767      3.364
REMARK INTER + INTRA:          -3.227
REMARK INTER:                  -3.227
REMARK INTRA:                   0.000
REMARK UNBOUND:                 0.000
REMARK SMILES CC1(C)[C@@H]2CC[C@@]1(C)C(=O)C2
REMARK SMILES IDX 1 1 2 2 4 3 5 4 6 5 7 6 9 7 10 8 11 9 8 10 3 11
REMARK H PARENT
REMARK Flexibility Score: inf
ROOT
ATOM      1  C   UNL     1     141.986 140.798 143.042  1.00  0.00     0.012 C 
ATOM      2  C   UNL     1     141.385 139.940 141.885  1.00  0.00    -0.020 C 
ATOM      3  C   UNL     1     140.516 138.757 142.377  1.00  0.00     0.003 C 
ATOM      4  C   UNL     1     139.924 138.196 141.055  1.00  0.00     0.005 C 
ATOM      5  C   UNL     1     139.700 139.471 140.205  1.00  0.00     0.015 C 
ATOM      6  C   UNL     1     140.202 140.596 141.142  1.00  0.00     0.032 C 
ATOM      7  C   UNL     1     139.179 140.659 142.249  1.00  0.00     0.139 C 
ATOM      8  O   UNL     1     138.304 141.504 142.371  1.00  0.00    -0.299 OA
ATOM      9  C   UNL     1     139.344 139.453 143.122  1.00  0.00     0.080 C 
ATOM     10  C   UNL     1     140.488 141.932 140.447  1.00  0.00     0.020 C 
ATOM     11  C   UNL     1     142.586 139.509 140.988  1.00  0.00     0.012 C 
ENDROOT
TORSDOF 0
ENDMDL
