MODEL 1
REMARK VINA RESULT:    -3.323      0.000      0.000
REMARK INTER + INTRA:          -3.323
REMARK INTER:                  -3.323
REMARK INTRA:                   0.000
REMARK UNBOUND:                 0.000
REMARK SMILES c1cc[nH]c1
REMARK SMILES IDX 1 1 5 2 4 3 3 4 2 5
REMARK H PARENT 4 6
REMARK Flexibility Score: inf
ROOT
ATOM      1  C   UNL     1      22.627  23.401  17.492  1.00  0.00     0.019 A 
ATOM      2  C   UNL     1      22.021  23.461  18.730  1.00  0.00     0.082 A 
ATOM      3  N   UNL     1      22.931  23.761  19.672  1.00  0.00    -0.368 N 
ATOM      4  C   UNL     1      24.116  23.894  19.051  1.00  0.00     0.082 A 
ATOM      5  C   UNL     1      23.965  23.677  17.697  1.00  0.00     0.019 A 
ATOM      6  H   UNL     1      22.752  23.870  20.696  1.00  0.00     0.165 HD
ENDROOT
TORSDOF 0
ENDMDL
MODEL 2
REMARK VINA RESULT:    -3.313      0.104      1.624
REMARK INTER + INTRA:          -3.313
REMARK INTER:                  -3.313
REMARK INTRA:                   0.000
REMARK UNBOUND:                 0.000
REMARK SMILES c1cc[nH]c1
REMARK SMILES IDX 1 1 5 2 4 3 3 4 2 5
REMARK H PARENT 4 6
REMARK Flexibility Score: inf
ROOT
ATOM      1  C   UNL     1      23.990  23.549  17.766  1.00  0.00     0.019 A 
ATOM      2  C   UNL     1      24.125  23.755  19.124  1.00  0.00     0.082 A 
ATOM      3  N   UNL     1      22.919  23.713  19.717  1.00  0.00    -0.368 N 
ATOM      4  C   UNL     1      22.012  23.482  18.752  1.00  0.00     0.082 A 
ATOM      5  C   UNL     1      22.641  23.375  17.529  1.00  0.00     0.019 A 
ATOM      6  H   UNL     1      22.723  23.837  20.735  1.00  0.00     0.165 HD
ENDROOT
TORSDOF 0
ENDMDL
MODEL 3
REMARK VINA RESULT:    -3.113      1.459      1.793
REMARK INTER + INTRA:          -3.113
REMARK INTER:                  -3.113
REMARK INTRA:                   0.000
REMARK UNBOUND:                 0.000
REMARK SMILES c1cc[nH]c1
REMARK SMILES IDX 1 1 5 2 4 3 3 4 2 5
REMARK H PARENT 4 6
REMARK Flexibility Score: inf
ROOT
ATOM      1  C   UNL     1      22.305  23.850  18.763  1.00  0.00     0.019 A 
ATOM      2  C   UNL     1      22.531  22.626  19.359  1.00  0.00     0.082 A 
ATOM      3  N   UNL     1      23.090  21.781  18.475  1.00  0.00    -0.368 N 
ATOM      4  C   UNL     1      23.225  22.452  17.317  1.00  0.00     0.082 A 
ATOM      5  C   UNL     1      22.747  23.738  17.459  1.00  0.00     0.019 A 
ATOM      6  H   UNL     1      23.368  20.790  18.654  1.00  0.00     0.165 HD
ENDROOT
TORSDOF 0
ENDMDL
MODEL 4
REMARK VINA RESULT:    -2.740     18.289     19.112
REMARK INTER + INTRA:          -2.740
REMARK INTER:                  -2.740
REMARK INTRA:                   0.000
REMARK UNBOUND:                 0.000
REMARK SMILES c1cc[nH]c1
REMARK SMILES IDX 1 1 5 2 4 3 3 4 2 5
REMARK H PARENT 4 6
REMARK Flexibility Score: inf
ROOT
ATOM      1  C   UNL     1       5.050  25.678  15.617  1.00  0.00     0.019 A 
ATOM      2  C   UNL     1       5.718  26.360  14.620  1.00  0.00     0.082 A 
ATOM      3  N   UNL     1       5.000  27.429  14.235  1.00  0.00    -0.368 N 
ATOM      4  C   UNL     1       3.878  27.440  14.976  1.00  0.00     0.082 A 
ATOM      5  C   UNL     1       3.875  26.368  15.844  1.00  0.00     0.019 A 
ATOM      6  H   UNL     1       5.264  28.122  13.499  1.00  0.00     0.165 HD
ENDROOT
TORSDOF 0
ENDMDL
MODEL 5
REMARK VINA RESULT:    -2.738     18.321     19.075
REMARK INTER + INTRA:          -2.738
REMARK INTER:                  -2.738
REMARK INTRA:                   0.000
REMARK UNBOUND:                 0.000
REMARK SMILES c1cc[nH]c1
REMARK SMILES IDX 1 1 5 2 4 3 3 4 2 5
REMARK H PARENT 4 6
REMARK Flexibility Score: inf
ROOT
ATOM      1  C   UNL     1       3.875  26.375  15.903  1.00  0.00     0.019 A 
ATOM      2  C   UNL     1       3.879  27.482  15.079  1.00  0.00     0.082 A 
ATOM      3  N   UNL     1       4.978  27.474  14.305  1.00  0.00    -0.368 N 
ATOM      4  C   UNL     1       5.679  26.372  14.625  1.00  0.00     0.082 A 
ATOM      5  C   UNL     1       5.025  25.666  15.613  1.00  0.00     0.019 A 
ATOM      6  H   UNL     1       5.239  28.189  13.590  1.00  0.00     0.165 HD
ENDROOT
TORSDOF 0
ENDMDL
MODEL 6
REMARK VINA RESULT:    -2.056     19.111     19.779
REMARK INTER + INTRA:          -2.056
REMARK INTER:                  -2.056
REMARK INTRA:                   0.000
REMARK UNBOUND:                 0.000
REMARK SMILES c1cc[nH]c1
REMARK SMILES IDX 1 1 5 2 4 3 3 4 2 5
REMARK H PARENT 4 6
REMARK Flexibility Score: inf
ROOT
ATOM      1  C   UNL     1       4.341  27.186  14.360  1.00  0.00     0.019 A 
ATOM      2  C   UNL     1       5.015  28.130  15.108  1.00  0.00     0.082 A 
ATOM      3  N   UNL     1       4.986  29.319  14.481  1.00  0.00    -0.368 N 
ATOM      4  C   UNL     1       4.299  29.147  13.338  1.00  0.00     0.082 A 
ATOM      5  C   UNL     1       3.884  27.835  13.230  1.00  0.00     0.019 A 
ATOM      6  H   UNL     1       5.416  30.209  14.817  1.00  0.00     0.165 HD
ENDROOT
TORSDOF 0
ENDMDL
MODEL 7
REMARK VINA RESULT:    -1.460     20.508     20.844
REMARK INTER + INTRA:          -1.460
REMARK INTER:                  -1.460
REMARK INTRA:                   0.000
REMARK UNBOUND:                 0.000
REMARK SMILES c1cc[nH]c1
REMARK SMILES IDX 1 1 5 2 4 3 3 4 2 5
REMARK H PARENT 4 6
REMARK Flexibility Score: inf
ROOT
ATOM      1  C   UNL     1       3.876  29.750  14.135  1.00  0.00     0.019 A 
ATOM      2  C   UNL     1       3.892  30.727  13.160  1.00  0.00     0.082 A 
ATOM      3  N   UNL     1       4.122  30.171  11.958  1.00  0.00    -0.368 N 
ATOM      4  C   UNL     1       4.254  28.847  12.153  1.00  0.00     0.082 A 
ATOM      5  C   UNL     1       4.107  28.551  13.492  1.00  0.00     0.019 A 
ATOM      6  H   UNL     1       4.187  30.672  11.044  1.00  0.00     0.165 HD
ENDROOT
TORSDOF 0
ENDMDL
