MODEL 1
REMARK VINA RESULT:    -6.834      0.000      0.000
REMARK INTER + INTRA:          -8.139
REMARK INTER:                  -8.033
REMARK INTRA:                  -0.106
REMARK UNBOUND:                -0.106
REMARK SMILES O=c1c(O)c(-c2ccc(O)cc2)oc2cc(O)cc(O)c12
REMARK SMILES IDX 5 1 3 2 2 3 1 4 21 5 19 6 18 7 16 8 15 9 14 10 13 11 6 12
REMARK SMILES IDX 7 13 8 14 9 15 12 16 11 17 10 18 4 20 20 22 17 24
REMARK H PARENT 10 19 4 21 20 23 17 25
REMARK Flexibility Score: inf
ROOT
ATOM      1  C   UNL     1      31.907  10.120  31.526  1.00  0.00     0.180 A 
ATOM      2  C   UNL     1      32.413  11.419  31.702  1.00  0.00     0.208 A 
ATOM      3  C   UNL     1      32.620  12.228  30.573  1.00  0.00     0.238 A 
ATOM      4  O   UNL     1      33.125  13.370  30.733  1.00  0.00    -0.285 OA
ATOM      5  C   UNL     1      32.302  11.735  29.285  1.00  0.00     0.111 A 
ATOM      6  C   UNL     1      32.434  12.483  28.076  1.00  0.00     0.134 A 
ATOM      7  C   UNL     1      32.214  11.851  26.846  1.00  0.00     0.093 A 
ATOM      8  C   UNL     1      31.805  10.520  26.783  1.00  0.00     0.123 A 
ATOM      9  C   UNL     1      31.616   9.796  27.961  1.00  0.00     0.094 A 
ATOM     10  C   UNL     1      31.862  10.389  29.202  1.00  0.00     0.146 A 
ATOM     11  O   UNL     1      31.681   9.663  30.299  1.00  0.00    -0.452 OA
ENDROOT
BRANCH   1  12
ATOM     12  C   UNL     1      31.639   9.216  32.667  1.00  0.00     0.021 A 
ATOM     13  C   UNL     1      32.255   7.954  32.711  1.00  0.00     0.016 A 
ATOM     14  C   UNL     1      31.999   7.077  33.768  1.00  0.00     0.047 A 
ATOM     15  C   UNL     1      31.111   7.444  34.788  1.00  0.00     0.115 A 
ATOM     16  C   UNL     1      30.733   9.570  33.684  1.00  0.00     0.016 A 
ATOM     17  C   UNL     1      30.478   8.690  34.740  1.00  0.00     0.047 A 
BRANCH  15  18
ATOM     18  O   UNL     1      30.847   6.578  35.847  1.00  0.00    -0.508 OA
ATOM     19  H   UNL     1      30.460   5.655  35.692  1.00  0.00     0.293 HD
ENDBRANCH  15  18
ENDBRANCH   1  12
BRANCH   2  20
ATOM     20  O   UNL     1      32.741  11.877  32.980  1.00  0.00    -0.502 OA
ATOM     21  H   UNL     1      32.938  11.249  33.750  1.00  0.00     0.293 HD
ENDBRANCH   2  20
BRANCH   6  22
ATOM     22  O   UNL     1      32.748  13.844  28.031  1.00  0.00    -0.507 OA
ATOM     23  H   UNL     1      32.306  14.556  28.593  1.00  0.00     0.293 HD
ENDBRANCH   6  22
BRANCH   8  24
ATOM     24  O   UNL     1      31.581   9.927  25.542  1.00  0.00    -0.508 OA
ATOM     25  H   UNL     1      31.226  10.459  24.756  1.00  0.00     0.293 HD
ENDBRANCH   8  24
TORSDOF 5
ENDMDL
MODEL 2
REMARK VINA RESULT:    -6.704      3.056      4.826
REMARK INTER + INTRA:          -7.986
REMARK INTER:                  -7.748
REMARK INTRA:                  -0.238
REMARK UNBOUND:                -0.106
REMARK SMILES O=c1c(O)c(-c2ccc(O)cc2)oc2cc(O)cc(O)c12
REMARK SMILES IDX 5 1 3 2 2 3 1 4 21 5 19 6 18 7 16 8 15 9 14 10 13 11 6 12
REMARK SMILES IDX 7 13 8 14 9 15 12 16 11 17 10 18 4 20 20 22 17 24
REMARK H PARENT 10 19 4 21 20 23 17 25
REMARK Flexibility Score: inf
ROOT
ATOM      1  C   UNL     1      31.407  11.152  27.922  1.00  0.00     0.180 A 
ATOM      2  C   UNL     1      31.881  11.968  26.880  1.00  0.00     0.208 A 
ATOM      3  C   UNL     1      31.697  11.552  25.552  1.00  0.00     0.238 A 
ATOM      4  O   UNL     1      32.172  12.260  24.626  1.00  0.00    -0.285 OA
ATOM      5  C   UNL     1      31.027  10.334  25.281  1.00  0.00     0.111 A 
ATOM      6  C   UNL     1      30.751   9.835  23.972  1.00  0.00     0.134 A 
ATOM      7  C   UNL     1      30.199   8.557  23.824  1.00  0.00     0.093 A 
ATOM      8  C   UNL     1      29.853   7.787  24.934  1.00  0.00     0.123 A 
ATOM      9  C   UNL     1      30.065   8.290  26.219  1.00  0.00     0.094 A 
ATOM     10  C   UNL     1      30.647   9.547  26.399  1.00  0.00     0.146 A 
ATOM     11  O   UNL     1      30.841   9.984  27.638  1.00  0.00    -0.452 OA
ENDROOT
BRANCH   1  12
ATOM     12  C   UNL     1      31.541  11.534  29.346  1.00  0.00     0.021 A 
ATOM     13  C   UNL     1      32.776  11.369  29.995  1.00  0.00     0.016 A 
ATOM     14  C   UNL     1      32.918  11.702  31.344  1.00  0.00     0.047 A 
ATOM     15  C   UNL     1      31.822  12.191  32.068  1.00  0.00     0.115 A 
ATOM     16  C   UNL     1      30.439  12.007  30.084  1.00  0.00     0.016 A 
ATOM     17  C   UNL     1      30.584  12.339  31.435  1.00  0.00     0.047 A 
BRANCH  15  18
ATOM     18  O   UNL     1      31.952  12.527  33.413  1.00  0.00    -0.508 OA
ATOM     19  H   UNL     1      32.757  12.238  33.956  1.00  0.00     0.293 HD
ENDBRANCH  15  18
ENDBRANCH   1  12
BRANCH   2  20
ATOM     20  O   UNL     1      32.559  13.155  27.170  1.00  0.00    -0.502 OA
ATOM     21  H   UNL     1      33.112  13.274  28.010  1.00  0.00     0.293 HD
ENDBRANCH   2  20
BRANCH   6  22
ATOM     22  O   UNL     1      30.971  10.560  22.798  1.00  0.00    -0.507 OA
ATOM     23  H   UNL     1      31.200  10.152  21.904  1.00  0.00     0.293 HD
ENDBRANCH   6  22
BRANCH   8  24
ATOM     24  O   UNL     1      29.292   6.526  24.749  1.00  0.00    -0.508 OA
ATOM     25  H   UNL     1      29.775   5.801  24.231  1.00  0.00     0.293 HD
ENDBRANCH   8  24
TORSDOF 5
ENDMDL
MODEL 3
REMARK VINA RESULT:    -6.614      2.103      6.862
REMARK INTER + INTRA:          -7.881
REMARK INTER:                  -7.584
REMARK INTRA:                  -0.297
REMARK UNBOUND:                -0.106
REMARK SMILES O=c1c(O)c(-c2ccc(O)cc2)oc2cc(O)cc(O)c12
REMARK SMILES IDX 5 1 3 2 2 3 1 4 21 5 19 6 18 7 16 8 15 9 14 10 13 11 6 12
REMARK SMILES IDX 7 13 8 14 9 15 12 16 11 17 10 18 4 20 20 22 17 24
REMARK H PARENT 10 19 4 21 20 23 17 25
REMARK Flexibility Score: inf
ROOT
ATOM      1  C   UNL     1      31.469  11.464  28.289  1.00  0.00     0.180 A 
ATOM      2  C   UNL     1      32.214  12.188  29.235  1.00  0.00     0.208 A 
ATOM      3  C   UNL     1      32.472  11.609  30.488  1.00  0.00     0.238 A 
ATOM      4  O   UNL     1      33.093  12.284  31.350  1.00  0.00    -0.285 OA
ATOM      5  C   UNL     1      31.996  10.306  30.773  1.00  0.00     0.111 A 
ATOM      6  C   UNL     1      32.232   9.606  31.995  1.00  0.00     0.134 A 
ATOM      7  C   UNL     1      31.603   8.376  32.218  1.00  0.00     0.093 A 
ATOM      8  C   UNL     1      30.800   7.790  31.241  1.00  0.00     0.123 A 
ATOM      9  C   UNL     1      30.609   8.437  30.020  1.00  0.00     0.094 A 
ATOM     10  C   UNL     1      31.195   9.684  29.782  1.00  0.00     0.146 A 
ATOM     11  O   UNL     1      30.980  10.272  28.610  1.00  0.00    -0.452 OA
ENDROOT
BRANCH   1  12
ATOM     12  C   UNL     1      31.177  11.997  26.939  1.00  0.00     0.021 A 
ATOM     13  C   UNL     1      29.984  12.704  26.716  1.00  0.00     0.016 A 
ATOM     14  C   UNL     1      29.679  13.196  25.444  1.00  0.00     0.047 A 
ATOM     15  C   UNL     1      30.556  12.975  24.374  1.00  0.00     0.115 A 
ATOM     16  C   UNL     1      32.044  11.761  25.856  1.00  0.00     0.016 A 
ATOM     17  C   UNL     1      31.736  12.254  24.584  1.00  0.00     0.047 A 
BRANCH  15  18
ATOM     18  O   UNL     1      30.263  13.461  23.103  1.00  0.00    -0.508 OA
ATOM     19  H   UNL     1      30.467  12.921  22.270  1.00  0.00     0.293 HD
ENDBRANCH  15  18
ENDBRANCH   1  12
BRANCH   2  20
ATOM     20  O   UNL     1      32.656  13.481  28.941  1.00  0.00    -0.502 OA
ATOM     21  H   UNL     1      33.112  13.715  28.068  1.00  0.00     0.293 HD
ENDBRANCH   2  20
BRANCH   6  22
ATOM     22  O   UNL     1      33.092  10.060  33.000  1.00  0.00    -0.507 OA
ATOM     23  H   UNL     1      34.035   9.730  33.142  1.00  0.00     0.293 HD
ENDBRANCH   6  22
BRANCH   8  24
ATOM     24  O   UNL     1      30.201   6.557  31.492  1.00  0.00    -0.508 OA
ATOM     25  H   UNL     1      29.317   6.486  31.982  1.00  0.00     0.293 HD
ENDBRANCH   8  24
TORSDOF 5
ENDMDL
MODEL 4
REMARK VINA RESULT:    -6.558      1.452      3.311
REMARK INTER + INTRA:          -7.814
REMARK INTER:                  -7.579
REMARK INTRA:                  -0.236
REMARK UNBOUND:                -0.106
REMARK SMILES O=c1c(O)c(-c2ccc(O)cc2)oc2cc(O)cc(O)c12
REMARK SMILES IDX 5 1 3 2 2 3 1 4 21 5 19 6 18 7 16 8 15 9 14 10 13 11 6 12
REMARK SMILES IDX 7 13 8 14 9 15 12 16 11 17 10 18 4 20 20 22 17 24
REMARK H PARENT 10 19 4 21 20 23 17 25
REMARK Flexibility Score: inf
ROOT
ATOM      1  C   UNL     1      31.115   8.776  30.954  1.00  0.00     0.180 A 
ATOM      2  C   UNL     1      30.970   7.846  29.910  1.00  0.00     0.208 A 
ATOM      3  C   UNL     1      31.210   8.261  28.590  1.00  0.00     0.238 A 
ATOM      4  O   UNL     1      31.025   7.438  27.655  1.00  0.00    -0.285 OA
ATOM      5  C   UNL     1      31.608   9.595  28.332  1.00  0.00     0.111 A 
ATOM      6  C   UNL     1      31.915  10.113  27.037  1.00  0.00     0.134 A 
ATOM      7  C   UNL     1      32.171  11.481  26.885  1.00  0.00     0.093 A 
ATOM      8  C   UNL     1      32.195  12.337  27.985  1.00  0.00     0.123 A 
ATOM      9  C   UNL     1      31.954  11.831  29.263  1.00  0.00     0.094 A 
ATOM     10  C   UNL     1      31.660  10.476  29.442  1.00  0.00     0.146 A 
ATOM     11  O   UNL     1      31.426  10.037  30.673  1.00  0.00    -0.452 OA
ENDROOT
BRANCH   1  12
ATOM     12  C   UNL     1      30.905   8.408  32.372  1.00  0.00     0.021 A 
ATOM     13  C   UNL     1      29.779   8.897  33.055  1.00  0.00     0.016 A 
ATOM     14  C   UNL     1      29.572   8.580  34.400  1.00  0.00     0.047 A 
ATOM     15  C   UNL     1      30.499   7.782  35.086  1.00  0.00     0.115 A 
ATOM     16  C   UNL     1      31.841   7.624  33.072  1.00  0.00     0.016 A 
ATOM     17  C   UNL     1      31.633   7.310  34.419  1.00  0.00     0.047 A 
BRANCH  15  18
ATOM     18  O   UNL     1      30.304   7.460  36.426  1.00  0.00    -0.508 OA
ATOM     19  H   UNL     1      31.043   7.050  36.985  1.00  0.00     0.293 HD
ENDBRANCH  15  18
ENDBRANCH   1  12
BRANCH   2  20
ATOM     20  O   UNL     1      30.555   6.541  30.184  1.00  0.00    -0.502 OA
ATOM     21  H   UNL     1      29.670   6.171  29.858  1.00  0.00     0.293 HD
ENDBRANCH   2  20
BRANCH   6  22
ATOM     22  O   UNL     1      32.009   9.328  25.885  1.00  0.00    -0.507 OA
ATOM     23  H   UNL     1      32.859   9.170  25.364  1.00  0.00     0.293 HD
ENDBRANCH   6  22
BRANCH   8  24
ATOM     24  O   UNL     1      32.468  13.691  27.797  1.00  0.00    -0.508 OA
ATOM     25  H   UNL     1      33.299  14.122  28.183  1.00  0.00     0.293 HD
ENDBRANCH   8  24
TORSDOF 5
ENDMDL
MODEL 5
REMARK VINA RESULT:    -6.473      3.220      4.700
REMARK INTER + INTRA:          -7.714
REMARK INTER:                  -7.426
REMARK INTRA:                  -0.288
REMARK UNBOUND:                -0.106
REMARK SMILES O=c1c(O)c(-c2ccc(O)cc2)oc2cc(O)cc(O)c12
REMARK SMILES IDX 5 1 3 2 2 3 1 4 21 5 19 6 18 7 16 8 15 9 14 10 13 11 6 12
REMARK SMILES IDX 7 13 8 14 9 15 12 16 11 17 10 18 4 20 20 22 17 24
REMARK H PARENT 10 19 4 21 20 23 17 25
REMARK Flexibility Score: inf
ROOT
ATOM      1  C   UNL     1      30.923  11.495  28.181  1.00  0.00     0.180 A 
ATOM      2  C   UNL     1      31.745  11.551  27.043  1.00  0.00     0.208 A 
ATOM      3  C   UNL     1      31.298  12.256  25.913  1.00  0.00     0.238 A 
ATOM      4  O   UNL     1      32.016  12.256  24.879  1.00  0.00    -0.285 OA
ATOM      5  C   UNL     1      30.044  12.911  25.942  1.00  0.00     0.111 A 
ATOM      6  C   UNL     1      29.510  13.687  24.869  1.00  0.00     0.134 A 
ATOM      7  C   UNL     1      28.203  14.180  24.959  1.00  0.00     0.093 A 
ATOM      8  C   UNL     1      27.434  13.982  26.105  1.00  0.00     0.123 A 
ATOM      9  C   UNL     1      27.968  13.275  27.184  1.00  0.00     0.094 A 
ATOM     10  C   UNL     1      29.256  12.740  27.110  1.00  0.00     0.146 A 
ATOM     11  O   UNL     1      29.723  12.064  28.154  1.00  0.00    -0.452 OA
ENDROOT
BRANCH   1  12
ATOM     12  C   UNL     1      31.334  10.793  29.418  1.00  0.00     0.021 A 
ATOM     13  C   UNL     1      30.840   9.504  29.680  1.00  0.00     0.016 A 
ATOM     14  C   UNL     1      31.198   8.833  30.852  1.00  0.00     0.047 A 
ATOM     15  C   UNL     1      32.043   9.447  31.785  1.00  0.00     0.115 A 
ATOM     16  C   UNL     1      32.166  11.412  30.369  1.00  0.00     0.016 A 
ATOM     17  C   UNL     1      32.523  10.738  31.541  1.00  0.00     0.047 A 
BRANCH  15  18
ATOM     18  O   UNL     1      32.407   8.788  32.956  1.00  0.00    -0.508 OA
ATOM     19  H   UNL     1      32.298   7.785  33.055  1.00  0.00     0.293 HD
ENDBRANCH  15  18
ENDBRANCH   1  12
BRANCH   2  20
ATOM     20  O   UNL     1      32.970  10.879  27.027  1.00  0.00    -0.502 OA
ATOM     21  H   UNL     1      33.220  10.186  27.723  1.00  0.00     0.293 HD
ENDBRANCH   2  20
BRANCH   6  22
ATOM     22  O   UNL     1      30.226  14.023  23.717  1.00  0.00    -0.507 OA
ATOM     23  H   UNL     1      30.736  14.884  23.587  1.00  0.00     0.293 HD
ENDBRANCH   6  22
BRANCH   8  24
ATOM     24  O   UNL     1      26.142  14.500  26.166  1.00  0.00    -0.508 OA
ATOM     25  H   UNL     1      25.663  14.827  25.335  1.00  0.00     0.293 HD
ENDBRANCH   8  24
TORSDOF 5
ENDMDL
MODEL 6
REMARK VINA RESULT:    -6.328      3.022      4.731
REMARK INTER + INTRA:          -7.544
REMARK INTER:                  -7.253
REMARK INTRA:                  -0.292
REMARK UNBOUND:                -0.106
REMARK SMILES O=c1c(O)c(-c2ccc(O)cc2)oc2cc(O)cc(O)c12
REMARK SMILES IDX 5 1 3 2 2 3 1 4 21 5 19 6 18 7 16 8 15 9 14 10 13 11 6 12
REMARK SMILES IDX 7 13 8 14 9 15 12 16 11 17 10 18 4 20 20 22 17 24
REMARK H PARENT 10 19 4 21 20 23 17 25
REMARK Flexibility Score: inf
ROOT
ATOM      1  C   UNL     1      30.783  12.195  28.016  1.00  0.00     0.180 A 
ATOM      2  C   UNL     1      29.728  13.124  28.036  1.00  0.00     0.208 A 
ATOM      3  C   UNL     1      29.279  13.670  26.823  1.00  0.00     0.238 A 
ATOM      4  O   UNL     1      28.371  14.542  26.853  1.00  0.00    -0.285 OA
ATOM      5  C   UNL     1      29.876  13.268  25.604  1.00  0.00     0.111 A 
ATOM      6  C   UNL     1      29.474  13.726  24.314  1.00  0.00     0.134 A 
ATOM      7  C   UNL     1      30.221  13.361  23.188  1.00  0.00     0.093 A 
ATOM      8  C   UNL     1      31.316  12.505  23.296  1.00  0.00     0.123 A 
ATOM      9  C   UNL     1      31.683  12.004  24.545  1.00  0.00     0.094 A 
ATOM     10  C   UNL     1      30.978  12.378  25.692  1.00  0.00     0.146 A 
ATOM     11  O   UNL     1      31.367  11.887  26.863  1.00  0.00    -0.452 OA
ENDROOT
BRANCH   1  12
ATOM     12  C   UNL     1      31.295  11.557  29.250  1.00  0.00     0.021 A 
ATOM     13  C   UNL     1      32.339  12.169  29.963  1.00  0.00     0.016 A 
ATOM     14  C   UNL     1      32.853  11.572  31.118  1.00  0.00     0.047 A 
ATOM     15  C   UNL     1      32.340  10.348  31.566  1.00  0.00     0.115 A 
ATOM     16  C   UNL     1      30.798  10.317  29.694  1.00  0.00     0.016 A 
ATOM     17  C   UNL     1      31.315   9.723  30.850  1.00  0.00     0.047 A 
BRANCH  15  18
ATOM     18  O   UNL     1      32.843   9.745  32.716  1.00  0.00    -0.508 OA
ATOM     19  H   UNL     1      33.834   9.566  32.830  1.00  0.00     0.293 HD
ENDBRANCH  15  18
ENDBRANCH   1  12
BRANCH   2  20
ATOM     20  O   UNL     1      29.167  13.524  29.251  1.00  0.00    -0.502 OA
ATOM     21  H   UNL     1      28.191  13.781  29.342  1.00  0.00     0.293 HD
ENDBRANCH   2  20
BRANCH   6  22
ATOM     22  O   UNL     1      28.340  14.511  24.083  1.00  0.00    -0.507 OA
ATOM     23  H   UNL     1      27.509  14.502  24.655  1.00  0.00     0.293 HD
ENDBRANCH   6  22
BRANCH   8  24
ATOM     24  O   UNL     1      32.029  12.151  22.152  1.00  0.00    -0.508 OA
ATOM     25  H   UNL     1      32.517  11.267  22.084  1.00  0.00     0.293 HD
ENDBRANCH   8  24
TORSDOF 5
ENDMDL
MODEL 7
REMARK VINA RESULT:    -6.285      2.171      7.640
REMARK INTER + INTRA:          -7.493
REMARK INTER:                  -7.728
REMARK INTRA:                   0.234
REMARK UNBOUND:                -0.106
REMARK SMILES O=c1c(O)c(-c2ccc(O)cc2)oc2cc(O)cc(O)c12
REMARK SMILES IDX 5 1 3 2 2 3 1 4 21 5 19 6 18 7 16 8 15 9 14 10 13 11 6 12
REMARK SMILES IDX 7 13 8 14 9 15 12 16 11 17 10 18 4 20 20 22 17 24
REMARK H PARENT 10 19 4 21 20 23 17 25
REMARK Flexibility Score: inf
ROOT
ATOM      1  C   UNL     1      31.614   9.411  33.041  1.00  0.00     0.180 A 
ATOM      2  C   UNL     1      31.298   8.054  33.224  1.00  0.00     0.208 A 
ATOM      3  C   UNL     1      30.975   7.598  34.513  1.00  0.00     0.238 A 
ATOM      4  O   UNL     1      30.747   6.371  34.680  1.00  0.00    -0.285 OA
ATOM      5  C   UNL     1      30.955   8.507  35.598  1.00  0.00     0.111 A 
ATOM      6  C   UNL     1      30.603   8.163  36.938  1.00  0.00     0.134 A 
ATOM      7  C   UNL     1      30.745   9.114  37.954  1.00  0.00     0.093 A 
ATOM      8  C   UNL     1      31.162  10.414  37.672  1.00  0.00     0.123 A 
ATOM      9  C   UNL     1      31.453  10.779  36.357  1.00  0.00     0.094 A 
ATOM     10  C   UNL     1      31.355   9.841  35.326  1.00  0.00     0.146 A 
ATOM     11  O   UNL     1      31.651  10.225  34.089  1.00  0.00    -0.452 OA
ENDROOT
BRANCH   1  12
ATOM     12  C   UNL     1      31.941   9.972  31.710  1.00  0.00     0.021 A 
ATOM     13  C   UNL     1      32.819  11.063  31.615  1.00  0.00     0.016 A 
ATOM     14  C   UNL     1      33.124  11.622  30.371  1.00  0.00     0.047 A 
ATOM     15  C   UNL     1      32.542  11.105  29.206  1.00  0.00     0.115 A 
ATOM     16  C   UNL     1      31.344   9.471  30.538  1.00  0.00     0.016 A 
ATOM     17  C   UNL     1      31.650  10.032  29.294  1.00  0.00     0.047 A 
BRANCH  15  18
ATOM     18  O   UNL     1      32.838  11.654  27.960  1.00  0.00    -0.508 OA
ATOM     19  H   UNL     1      33.792  11.726  27.627  1.00  0.00     0.293 HD
ENDBRANCH  15  18
ENDBRANCH   1  12
BRANCH   2  20
ATOM     20  O   UNL     1      31.346   7.169  32.144  1.00  0.00    -0.502 OA
ATOM     21  H   UNL     1      30.753   6.349  32.086  1.00  0.00     0.293 HD
ENDBRANCH   2  20
BRANCH   6  22
ATOM     22  O   UNL     1      30.087   6.919  37.313  1.00  0.00    -0.507 OA
ATOM     23  H   UNL     1      29.454   6.367  36.755  1.00  0.00     0.293 HD
ENDBRANCH   6  22
BRANCH   8  24
ATOM     24  O   UNL     1      31.278  11.340  38.708  1.00  0.00    -0.508 OA
ATOM     25  H   UNL     1      30.580  11.408  39.438  1.00  0.00     0.293 HD
ENDBRANCH   8  24
TORSDOF 5
ENDMDL
MODEL 8
REMARK VINA RESULT:    -6.264      2.028      3.406
REMARK INTER + INTRA:          -7.469
REMARK INTER:                  -7.427
REMARK INTRA:                  -0.042
REMARK UNBOUND:                -0.106
REMARK SMILES O=c1c(O)c(-c2ccc(O)cc2)oc2cc(O)cc(O)c12
REMARK SMILES IDX 5 1 3 2 2 3 1 4 21 5 19 6 18 7 16 8 15 9 14 10 13 11 6 12
REMARK SMILES IDX 7 13 8 14 9 15 12 16 11 17 10 18 4 20 20 22 17 24
REMARK H PARENT 10 19 4 21 20 23 17 25
REMARK Flexibility Score: inf
ROOT
ATOM      1  C   UNL     1      31.547  10.099  29.757  1.00  0.00     0.180 A 
ATOM      2  C   UNL     1      32.221  10.926  28.842  1.00  0.00     0.208 A 
ATOM      3  C   UNL     1      32.041  10.707  27.467  1.00  0.00     0.238 A 
ATOM      4  O   UNL     1      32.690  11.416  26.653  1.00  0.00    -0.285 OA
ATOM      5  C   UNL     1      31.178   9.677  27.023  1.00  0.00     0.111 A 
ATOM      6  C   UNL     1      30.892   9.392  25.654  1.00  0.00     0.134 A 
ATOM      7  C   UNL     1      30.126   8.267  25.329  1.00  0.00     0.093 A 
ATOM      8  C   UNL     1      29.582   7.453  26.322  1.00  0.00     0.123 A 
ATOM      9  C   UNL     1      29.807   7.755  27.665  1.00  0.00     0.094 A 
ATOM     10  C   UNL     1      30.597   8.852  28.021  1.00  0.00     0.146 A 
ATOM     11  O   UNL     1      30.796   9.099  29.310  1.00  0.00    -0.452 OA
ENDROOT
BRANCH   1  12
ATOM     12  C   UNL     1      31.665  10.282  31.222  1.00  0.00     0.021 A 
ATOM     13  C   UNL     1      31.997   9.184  32.032  1.00  0.00     0.016 A 
ATOM     14  C   UNL     1      32.092   9.330  33.419  1.00  0.00     0.047 A 
ATOM     15  C   UNL     1      31.842  10.573  34.015  1.00  0.00     0.115 A 
ATOM     16  C   UNL     1      31.396  11.523  31.828  1.00  0.00     0.016 A 
ATOM     17  C   UNL     1      31.491  11.666  33.216  1.00  0.00     0.047 A 
BRANCH  15  18
ATOM     18  O   UNL     1      31.934  10.731  35.395  1.00  0.00    -0.508 OA
ATOM     19  H   UNL     1      31.609  11.573  35.855  1.00  0.00     0.293 HD
ENDBRANCH  15  18
ENDBRANCH   1  12
BRANCH   2  20
ATOM     20  O   UNL     1      33.085  11.923  29.301  1.00  0.00    -0.502 OA
ATOM     21  H   UNL     1      33.924  12.189  28.799  1.00  0.00     0.293 HD
ENDBRANCH   2  20
BRANCH   6  22
ATOM     22  O   UNL     1      31.308  10.194  24.587  1.00  0.00    -0.507 OA
ATOM     23  H   UNL     1      31.167   9.974  23.613  1.00  0.00     0.293 HD
ENDBRANCH   6  22
BRANCH   8  24
ATOM     24  O   UNL     1      28.813   6.348  25.962  1.00  0.00    -0.508 OA
ATOM     25  H   UNL     1      27.865   6.452  25.618  1.00  0.00     0.293 HD
ENDBRANCH   8  24
TORSDOF 5
ENDMDL
MODEL 9
REMARK VINA RESULT:    -5.422      2.213      7.321
REMARK INTER + INTRA:          -6.479
REMARK INTER:                  -6.181
REMARK INTRA:                  -0.299
REMARK UNBOUND:                -0.106
REMARK SMILES O=c1c(O)c(-c2ccc(O)cc2)oc2cc(O)cc(O)c12
REMARK SMILES IDX 5 1 3 2 2 3 1 4 21 5 19 6 18 7 16 8 15 9 14 10 13 11 6 12
REMARK SMILES IDX 7 13 8 14 9 15 12 16 11 17 10 18 4 20 20 22 17 24
REMARK H PARENT 10 19 4 21 20 23 17 25
REMARK Flexibility Score: inf
ROOT
ATOM      1  C   UNL     1      30.855  10.408  28.119  1.00  0.00     0.180 A 
ATOM      2  C   UNL     1      30.512   9.045  28.133  1.00  0.00     0.208 A 
ATOM      3  C   UNL     1      30.717   8.304  29.308  1.00  0.00     0.238 A 
ATOM      4  O   UNL     1      30.459   7.072  29.298  1.00  0.00    -0.285 OA
ATOM      5  C   UNL     1      31.245   8.938  30.459  1.00  0.00     0.111 A 
ATOM      6  C   UNL     1      31.457   8.293  31.715  1.00  0.00     0.134 A 
ATOM      7  C   UNL     1      32.106   8.984  32.744  1.00  0.00     0.093 A 
ATOM      8  C   UNL     1      32.494  10.314  32.587  1.00  0.00     0.123 A 
ATOM      9  C   UNL     1      32.239  10.973  31.384  1.00  0.00     0.094 A 
ATOM     10  C   UNL     1      31.624  10.298  30.325  1.00  0.00     0.146 A 
ATOM     11  O   UNL     1      31.410  10.958  29.193  1.00  0.00    -0.452 OA
ENDROOT
BRANCH   1  12
ATOM     12  C   UNL     1      30.646  11.261  26.927  1.00  0.00     0.021 A 
ATOM     13  C   UNL     1      31.694  11.436  26.008  1.00  0.00     0.016 A 
ATOM     14  C   UNL     1      31.525  12.255  24.888  1.00  0.00     0.047 A 
ATOM     15  C   UNL     1      30.311  12.922  24.680  1.00  0.00     0.115 A 
ATOM     16  C   UNL     1      29.436  11.951  26.723  1.00  0.00     0.016 A 
ATOM     17  C   UNL     1      29.270  12.770  25.602  1.00  0.00     0.047 A 
BRANCH  15  18
ATOM     18  O   UNL     1      30.131  13.740  23.568  1.00  0.00    -0.508 OA
ATOM     19  H   UNL     1      30.811  13.771  22.818  1.00  0.00     0.293 HD
ENDBRANCH  15  18
ENDBRANCH   1  12
BRANCH   2  20
ATOM     20  O   UNL     1      30.013   8.434  26.981  1.00  0.00    -0.502 OA
ATOM     21  H   UNL     1      30.396   7.572  26.612  1.00  0.00     0.293 HD
ENDBRANCH   2  20
BRANCH   6  22
ATOM     22  O   UNL     1      31.025   6.996  32.008  1.00  0.00    -0.507 OA
ATOM     23  H   UNL     1      30.079   6.665  31.894  1.00  0.00     0.293 HD
ENDBRANCH   6  22
BRANCH   8  24
ATOM     24  O   UNL     1      33.125  10.975  33.639  1.00  0.00    -0.508 OA
ATOM     25  H   UNL     1      33.259  11.979  33.630  1.00  0.00     0.293 HD
ENDBRANCH   8  24
TORSDOF 5
ENDMDL
