MODEL 1
REMARK VINA RESULT:    21.532      0.000      0.000
REMARK INTER + INTRA:          25.726
REMARK INTER:                  25.938
REMARK INTRA:                  -0.212
REMARK UNBOUND:                -0.212
REMARK SMILES Oc1cc(O)c2cc(O)c(-c3ccc(O)c(O)c3)[o+]c2c1
REMARK SMILES IDX 10 1 19 2 20 3 21 4 2 5 3 6 4 7 6 8 7 9 8 10 11 11 12 12
REMARK SMILES IDX 13 13 14 14 18 15 16 16 15 17 17 19 9 21 1 23 5 25
REMARK H PARENT 15 18 17 20 9 22 1 24 5 26
REMARK Flexibility Score: inf
ROOT
ATOM      1  C   UNL     1       7.195   3.479  18.624  1.00  0.00     0.402 A 
ATOM      2  O   UNL     1       6.714   4.714  18.506  1.00  0.00    -0.202 OA
ATOM      3  C   UNL     1       7.483   5.780  18.301  1.00  0.00     0.368 A 
ATOM      4  C   UNL     1       6.885   7.038  18.193  1.00  0.00     0.162 A 
ATOM      5  C   UNL     1       7.666   8.174  17.982  1.00  0.00     0.128 A 
ATOM      6  C   UNL     1       9.057   8.054  17.879  1.00  0.00     0.093 A 
ATOM      7  C   UNL     1       9.681   6.804  17.985  1.00  0.00     0.136 A 
ATOM      8  C   UNL     1       8.888   5.646  18.198  1.00  0.00     0.125 A 
ATOM      9  C   UNL     1       9.424   4.352  18.302  1.00  0.00     0.078 A 
ATOM     10  C   UNL     1       8.579   3.258  18.507  1.00  0.00     0.223 A 
ENDROOT
BRANCH   1  11
ATOM     11  C   UNL     1       6.236   2.375  18.861  1.00  0.00     0.087 A 
ATOM     12  C   UNL     1       5.310   1.986  17.878  1.00  0.00     0.022 A 
ATOM     13  C   UNL     1       4.430   0.927  18.116  1.00  0.00     0.051 A 
ATOM     14  C   UNL     1       4.472   0.232  19.331  1.00  0.00     0.157 A 
ATOM     15  C   UNL     1       6.288   1.663  20.070  1.00  0.00     0.068 A 
ATOM     16  C   UNL     1       5.408   0.601  20.312  1.00  0.00     0.158 A 
BRANCH  14  17
ATOM     17  O   UNL     1       3.593  -0.823  19.567  1.00  0.00    -0.504 OA
ATOM     18  H   UNL     1       3.015  -1.207  18.828  1.00  0.00     0.293 HD
ENDBRANCH  14  17
BRANCH  16  19
ATOM     19  O   UNL     1       5.480  -0.074  21.530  1.00  0.00    -0.504 OA
ATOM     20  H   UNL     1       5.881  -1.001  21.608  1.00  0.00     0.293 HD
ENDBRANCH  16  19
ENDBRANCH   1  11
BRANCH  10  21
ATOM     21  O   UNL     1       9.106   1.967  18.561  1.00  0.00    -0.500 OA
ATOM     22  H   UNL     1      10.057   1.793  18.865  1.00  0.00     0.294 HD
ENDBRANCH  10  21
BRANCH   5  23
ATOM     23  O   UNL     1       7.051   9.420  17.876  1.00  0.00    -0.507 OA
ATOM     24  H   UNL     1       6.273   9.679  18.471  1.00  0.00     0.293 HD
ENDBRANCH   5  23
BRANCH   7  25
ATOM     25  O   UNL     1      11.073   6.769  17.875  1.00  0.00    -0.507 OA
ATOM     26  H   UNL     1      11.709   6.843  18.656  1.00  0.00     0.293 HD
ENDBRANCH   7  25
TORSDOF 6
ENDMDL
