MODEL 1
REMARK VINA RESULT:    -2.750      0.000      0.000
REMARK INTER + INTRA:          -6.597
REMARK INTER:                  -4.680
REMARK INTRA:                  -1.917
REMARK UNBOUND:                -1.917
REMARK SMILES CCCCCCCCCCCCCC(=O)[O-]
REMARK SMILES IDX 8 1 9 2 10 3 11 4 12 5 13 6 14 7 15 8 16 9 7 10 6 11 5 12
REMARK SMILES IDX 4 13 3 14 2 15 1 16
REMARK H PARENT
REMARK Flexibility Score: inf
ROOT
ATOM      1  C   UNL     1     147.579 165.589 153.878  1.00  0.00     0.000 C 
ENDROOT
BRANCH   1   2
ATOM      2  C   UNL     1     146.541 165.863 154.979  1.00  0.00     0.000 C 
BRANCH   2   3
ATOM      3  C   UNL     1     146.332 164.653 155.906  1.00  0.00     0.000 C 
BRANCH   3   4
ATOM      4  C   UNL     1     146.095 163.348 155.130  1.00  0.00     0.000 C 
BRANCH   4   5
ATOM      5  C   UNL     1     146.929 162.176 155.670  1.00  0.00     0.006 C 
BRANCH   5   6
ATOM      6  C   UNL     1     148.424 162.422 155.449  1.00  0.00     0.053 C 
BRANCH   6   7
ATOM      7  C   UNL     1     149.173 161.126 155.444  1.00  0.00     0.041 C 
ATOM      8  O   UNL     1     150.432 161.121 155.428  1.00  0.00    -0.550 OA
ATOM      9  O   UNL     1     148.481 159.924 155.508  1.00  0.00    -0.550 OA
ENDBRANCH   6   7
ENDBRANCH   5   6
ENDBRANCH   4   5
ENDBRANCH   3   4
ENDBRANCH   2   3
ENDBRANCH   1   2
BRANCH   1  10
ATOM     10  C   UNL     1     147.101 166.047 152.490  1.00  0.00     0.000 C 
BRANCH  10  11
ATOM     11  C   UNL     1     145.904 165.230 151.968  1.00  0.00    -0.000 C 
BRANCH  11  12
ATOM     12  C   UNL     1     146.249 164.178 150.899  1.00  0.00    -0.000 C 
BRANCH  12  13
ATOM     13  C   UNL     1     146.234 162.718 151.391  1.00  0.00    -0.000 C 
BRANCH  13  14
ATOM     14  C   UNL     1     147.594 162.229 151.931  1.00  0.00    -0.000 C 
BRANCH  14  15
ATOM     15  C   UNL     1     148.781 162.947 151.272  1.00  0.00    -0.003 C 
ATOM     16  C   UNL     1     150.086 162.639 152.001  1.00  0.00     0.004 C 
ENDBRANCH  14  15
ENDBRANCH  13  14
ENDBRANCH  12  13
ENDBRANCH  11  12
ENDBRANCH  10  11
ENDBRANCH   1  10
TORSDOF 12
ENDMDL
MODEL 2
REMARK VINA RESULT:    -2.744      2.340      4.333
REMARK INTER + INTRA:          -6.586
REMARK INTER:                  -4.655
REMARK INTRA:                  -1.930
REMARK UNBOUND:                -1.917
REMARK SMILES CCCCCCCCCCCCCC(=O)[O-]
REMARK SMILES IDX 8 1 9 2 10 3 11 4 12 5 13 6 14 7 15 8 16 9 7 10 6 11 5 12
REMARK SMILES IDX 4 13 3 14 2 15 1 16
REMARK H PARENT
REMARK Flexibility Score: inf
ROOT
ATOM      1  C   UNL     1     146.336 164.830 151.218  1.00  0.00     0.000 C 
ENDROOT
BRANCH   1   2
ATOM      2  C   UNL     1     146.238 163.314 150.981  1.00  0.00     0.000 C 
BRANCH   2   3
ATOM      3  C   UNL     1     146.802 162.496 152.156  1.00  0.00     0.000 C 
BRANCH   3   4
ATOM      4  C   UNL     1     147.363 161.136 151.713  1.00  0.00     0.000 C 
BRANCH   4   5
ATOM      5  C   UNL     1     148.841 160.952 152.089  1.00  0.00     0.006 C 
BRANCH   5   6
ATOM      6  C   UNL     1     149.631 162.242 151.850  1.00  0.00     0.053 C 
BRANCH   6   7
ATOM      7  C   UNL     1     149.992 162.375 150.404  1.00  0.00     0.041 C 
ATOM      8  O   UNL     1     150.589 161.439 149.810  1.00  0.00    -0.550 OA
ATOM      9  O   UNL     1     149.626 163.514 149.698  1.00  0.00    -0.550 OA
ENDBRANCH   6   7
ENDBRANCH   5   6
ENDBRANCH   4   5
ENDBRANCH   3   4
ENDBRANCH   2   3
ENDBRANCH   1   2
BRANCH   1  10
ATOM     10  C   UNL     1     147.510 165.207 152.138  1.00  0.00     0.000 C 
BRANCH  10  11
ATOM     11  C   UNL     1     147.084 166.107 153.314  1.00  0.00    -0.000 C 
BRANCH  11  12
ATOM     12  C   UNL     1     146.136 165.446 154.331  1.00  0.00    -0.000 C 
BRANCH  12  13
ATOM     13  C   UNL     1     146.798 165.011 155.653  1.00  0.00    -0.000 C 
BRANCH  13  14
ATOM     14  C   UNL     1     146.864 163.481 155.842  1.00  0.00    -0.000 C 
BRANCH  14  15
ATOM     15  C   UNL     1     148.239 162.902 155.474  1.00  0.00    -0.003 C 
ATOM     16  C   UNL     1     149.308 163.991 155.458  1.00  0.00     0.004 C 
ENDBRANCH  14  15
ENDBRANCH  13  14
ENDBRANCH  12  13
ENDBRANCH  11  12
ENDBRANCH  10  11
ENDBRANCH   1  10
TORSDOF 12
ENDMDL
MODEL 3
REMARK VINA RESULT:    -2.721      1.840      3.270
REMARK INTER + INTRA:          -6.548
REMARK INTER:                  -4.312
REMARK INTRA:                  -2.235
REMARK UNBOUND:                -1.917
REMARK SMILES CCCCCCCCCCCCCC(=O)[O-]
REMARK SMILES IDX 8 1 9 2 10 3 11 4 12 5 13 6 14 7 15 8 16 9 7 10 6 11 5 12
REMARK SMILES IDX 4 13 3 14 2 15 1 16
REMARK H PARENT
REMARK Flexibility Score: inf
ROOT
ATOM      1  C   UNL     1     147.007 165.972 153.762  1.00  0.00     0.000 C 
ENDROOT
BRANCH   1   2
ATOM      2  C   UNL     1     145.876 165.105 153.184  1.00  0.00     0.000 C 
BRANCH   2   3
ATOM      3  C   UNL     1     145.876 165.086 151.646  1.00  0.00     0.000 C 
BRANCH   3   4
ATOM      4  C   UNL     1     146.324 163.733 151.072  1.00  0.00     0.000 C 
BRANCH   4   5
ATOM      5  C   UNL     1     146.018 162.558 152.012  1.00  0.00     0.006 C 
BRANCH   5   6
ATOM      6  C   UNL     1     147.138 161.514 151.966  1.00  0.00     0.053 C 
BRANCH   6   7
ATOM      7  C   UNL     1     147.829 161.428 153.290  1.00  0.00     0.041 C 
ATOM      8  O   UNL     1     149.028 161.051 153.357  1.00  0.00    -0.550 OA
ATOM      9  O   UNL     1     147.163 161.813 154.447  1.00  0.00    -0.550 OA
ENDBRANCH   6   7
ENDBRANCH   5   6
ENDBRANCH   4   5
ENDBRANCH   3   4
ENDBRANCH   2   3
ENDBRANCH   1   2
BRANCH   1  10
ATOM     10  C   UNL     1     148.097 165.135 154.453  1.00  0.00     0.000 C 
BRANCH  10  11
ATOM     11  C   UNL     1     149.299 164.843 153.534  1.00  0.00    -0.000 C 
BRANCH  11  12
ATOM     12  C   UNL     1     149.523 165.868 152.407  1.00  0.00    -0.000 C 
BRANCH  12  13
ATOM     13  C   UNL     1     150.002 165.273 151.069  1.00  0.00    -0.000 C 
BRANCH  13  14
ATOM     14  C   UNL     1     150.068 163.730 151.062  1.00  0.00    -0.000 C 
BRANCH  14  15
ATOM     15  C   UNL     1     149.766 163.135 149.679  1.00  0.00    -0.003 C 
ATOM     16  C   UNL     1     149.163 164.184 148.748  1.00  0.00     0.004 C 
ENDBRANCH  14  15
ENDBRANCH  13  14
ENDBRANCH  12  13
ENDBRANCH  11  12
ENDBRANCH  10  11
ENDBRANCH   1  10
TORSDOF 12
ENDMDL
MODEL 4
REMARK VINA RESULT:    -2.717      2.923      5.346
REMARK INTER + INTRA:          -6.540
REMARK INTER:                  -4.558
REMARK INTRA:                  -1.982
REMARK UNBOUND:                -1.917
REMARK SMILES CCCCCCCCCCCCCC(=O)[O-]
REMARK SMILES IDX 8 1 9 2 10 3 11 4 12 5 13 6 14 7 15 8 16 9 7 10 6 11 5 12
REMARK SMILES IDX 4 13 3 14 2 15 1 16
REMARK H PARENT
REMARK Flexibility Score: inf
ROOT
ATOM      1  C   UNL     1     147.769 161.349 151.564  1.00  0.00     0.000 C 
ENDROOT
BRANCH   1   2
ATOM      2  C   UNL     1     146.646 161.502 152.603  1.00  0.00     0.000 C 
BRANCH   2   3
ATOM      3  C   UNL     1     145.876 162.825 152.447  1.00  0.00     0.000 C 
BRANCH   3   4
ATOM      4  C   UNL     1     146.372 163.661 151.256  1.00  0.00     0.000 C 
BRANCH   4   5
ATOM      5  C   UNL     1     145.992 165.145 151.372  1.00  0.00     0.006 C 
BRANCH   5   6
ATOM      6  C   UNL     1     146.900 165.865 152.374  1.00  0.00     0.053 C 
BRANCH   6   7
ATOM      7  C   UNL     1     147.889 166.730 151.657  1.00  0.00     0.041 C 
ATOM      8  O   UNL     1     149.033 166.925 152.145  1.00  0.00    -0.550 OA
ATOM      9  O   UNL     1     147.563 167.283 150.425  1.00  0.00    -0.550 OA
ENDBRANCH   6   7
ENDBRANCH   5   6
ENDBRANCH   4   5
ENDBRANCH   3   4
ENDBRANCH   2   3
ENDBRANCH   1   2
BRANCH   1  10
ATOM     10  C   UNL     1     149.170 161.444 152.194  1.00  0.00     0.000 C 
BRANCH  10  11
ATOM     11  C   UNL     1     149.844 162.808 151.951  1.00  0.00    -0.000 C 
BRANCH  11  12
ATOM     12  C   UNL     1     149.821 163.770 153.153  1.00  0.00    -0.000 C 
BRANCH  12  13
ATOM     13  C   UNL     1     149.370 163.139 154.485  1.00  0.00    -0.000 C 
BRANCH  13  14
ATOM     14  C   UNL     1     148.761 164.152 155.479  1.00  0.00    -0.000 C 
BRANCH  14  15
ATOM     15  C   UNL     1     147.228 164.077 155.528  1.00  0.00    -0.003 C 
ATOM     16  C   UNL     1     146.760 162.755 156.128  1.00  0.00     0.004 C 
ENDBRANCH  14  15
ENDBRANCH  13  14
ENDBRANCH  12  13
ENDBRANCH  11  12
ENDBRANCH  10  11
ENDBRANCH   1  10
TORSDOF 12
ENDMDL
MODEL 5
REMARK VINA RESULT:    -2.703      3.242      5.692
REMARK INTER + INTRA:          -6.517
REMARK INTER:                  -4.462
REMARK INTRA:                  -2.055
REMARK UNBOUND:                -1.917
REMARK SMILES CCCCCCCCCCCCCC(=O)[O-]
REMARK SMILES IDX 8 1 9 2 10 3 11 4 12 5 13 6 14 7 15 8 16 9 7 10 6 11 5 12
REMARK SMILES IDX 4 13 3 14 2 15 1 16
REMARK H PARENT
REMARK Flexibility Score: inf
ROOT
ATOM      1  C   UNL     1     148.526 161.657 152.298  1.00  0.00     0.000 C 
ENDROOT
BRANCH   1   2
ATOM      2  C   UNL     1     147.065 161.267 152.024  1.00  0.00     0.000 C 
BRANCH   2   3
ATOM      3  C   UNL     1     146.240 162.433 151.453  1.00  0.00     0.000 C 
BRANCH   3   4
ATOM      4  C   UNL     1     147.121 163.559 150.888  1.00  0.00     0.000 C 
BRANCH   4   5
ATOM      5  C   UNL     1     146.301 164.736 150.339  1.00  0.00     0.006 C 
BRANCH   5   6
ATOM      6  C   UNL     1     146.564 166.010 151.148  1.00  0.00     0.053 C 
BRANCH   6   7
ATOM      7  C   UNL     1     147.591 166.860 150.469  1.00  0.00     0.041 C 
ATOM      8  O   UNL     1     148.254 167.703 151.128  1.00  0.00    -0.550 OA
ATOM      9  O   UNL     1     147.851 166.687 149.115  1.00  0.00    -0.550 OA
ENDBRANCH   6   7
ENDBRANCH   5   6
ENDBRANCH   4   5
ENDBRANCH   3   4
ENDBRANCH   2   3
ENDBRANCH   1   2
BRANCH   1  10
ATOM     10  C   UNL     1     148.912 161.491 153.778  1.00  0.00     0.000 C 
BRANCH  10  11
ATOM     11  C   UNL     1     147.695 161.248 154.691  1.00  0.00    -0.000 C 
BRANCH  11  12
ATOM     12  C   UNL     1     147.431 162.351 155.733  1.00  0.00    -0.000 C 
BRANCH  12  13
ATOM     13  C   UNL     1     146.235 163.271 155.422  1.00  0.00    -0.000 C 
BRANCH  13  14
ATOM     14  C   UNL     1     146.593 164.475 154.525  1.00  0.00    -0.000 C 
BRANCH  14  15
ATOM     15  C   UNL     1     147.838 165.226 155.019  1.00  0.00    -0.003 C 
ATOM     16  C   UNL     1     148.930 165.242 153.953  1.00  0.00     0.004 C 
ENDBRANCH  14  15
ENDBRANCH  13  14
ENDBRANCH  12  13
ENDBRANCH  11  12
ENDBRANCH  10  11
ENDBRANCH   1  10
TORSDOF 12
ENDMDL
MODEL 6
REMARK VINA RESULT:    -2.685      1.198      1.773
REMARK INTER + INTRA:          -6.485
REMARK INTER:                  -4.981
REMARK INTRA:                  -1.504
REMARK UNBOUND:                -1.917
REMARK SMILES CCCCCCCCCCCCCC(=O)[O-]
REMARK SMILES IDX 8 1 9 2 10 3 11 4 12 5 13 6 14 7 15 8 16 9 7 10 6 11 5 12
REMARK SMILES IDX 4 13 3 14 2 15 1 16
REMARK H PARENT
REMARK Flexibility Score: inf
ROOT
ATOM      1  C   UNL     1     146.974 166.297 152.938  1.00  0.00     0.000 C 
ENDROOT
BRANCH   1   2
ATOM      2  C   UNL     1     147.547 165.856 154.295  1.00  0.00     0.000 C 
BRANCH   2   3
ATOM      3  C   UNL     1     146.469 165.761 155.387  1.00  0.00     0.000 C 
BRANCH   3   4
ATOM      4  C   UNL     1     146.330 164.340 155.958  1.00  0.00     0.000 C 
BRANCH   4   5
ATOM      5  C   UNL     1     147.550 163.457 155.657  1.00  0.00     0.006 C 
BRANCH   5   6
ATOM      6  C   UNL     1     147.127 162.005 155.411  1.00  0.00     0.053 C 
BRANCH   6   7
ATOM      7  C   UNL     1     148.327 161.115 155.336  1.00  0.00     0.041 C 
ATOM      8  O   UNL     1     148.218 159.882 155.566  1.00  0.00    -0.550 OA
ATOM      9  O   UNL     1     149.558 161.639 154.963  1.00  0.00    -0.550 OA
ENDBRANCH   6   7
ENDBRANCH   5   6
ENDBRANCH   4   5
ENDBRANCH   3   4
ENDBRANCH   2   3
ENDBRANCH   1   2
BRANCH   1  10
ATOM     10  C   UNL     1     146.231 165.160 152.216  1.00  0.00     0.000 C 
BRANCH  10  11
ATOM     11  C   UNL     1     147.127 163.937 151.941  1.00  0.00    -0.000 C 
BRANCH  11  12
ATOM     12  C   UNL     1     146.378 162.602 151.781  1.00  0.00    -0.000 C 
BRANCH  12  13
ATOM     13  C   UNL     1     147.273 161.348 151.774  1.00  0.00    -0.000 C 
BRANCH  13  14
ATOM     14  C   UNL     1     148.753 161.642 151.447  1.00  0.00    -0.000 C 
BRANCH  14  15
ATOM     15  C   UNL     1     149.656 160.419 151.662  1.00  0.00    -0.003 C 
ATOM     16  C   UNL     1     150.696 160.301 150.552  1.00  0.00     0.004 C 
ENDBRANCH  14  15
ENDBRANCH  13  14
ENDBRANCH  12  13
ENDBRANCH  11  12
ENDBRANCH  10  11
ENDBRANCH   1  10
TORSDOF 12
ENDMDL
MODEL 7
REMARK VINA RESULT:    -2.636      2.143      4.035
REMARK INTER + INTRA:          -6.402
REMARK INTER:                  -4.111
REMARK INTRA:                  -2.291
REMARK UNBOUND:                -1.917
REMARK SMILES CCCCCCCCCCCCCC(=O)[O-]
REMARK SMILES IDX 8 1 9 2 10 3 11 4 12 5 13 6 14 7 15 8 16 9 7 10 6 11 5 12
REMARK SMILES IDX 4 13 3 14 2 15 1 16
REMARK H PARENT
REMARK Flexibility Score: inf
ROOT
ATOM      1  C   UNL     1     146.737 165.533 153.713  1.00  0.00     0.000 C 
ENDROOT
BRANCH   1   2
ATOM      2  C   UNL     1     145.875 164.311 153.354  1.00  0.00     0.000 C 
BRANCH   2   3
ATOM      3  C   UNL     1     146.303 163.658 152.028  1.00  0.00     0.000 C 
BRANCH   3   4
ATOM      4  C   UNL     1     146.178 162.126 152.057  1.00  0.00     0.000 C 
BRANCH   4   5
ATOM      5  C   UNL     1     147.510 161.416 151.771  1.00  0.00     0.006 C 
BRANCH   5   6
ATOM      6  C   UNL     1     148.574 162.416 151.309  1.00  0.00     0.053 C 
BRANCH   6   7
ATOM      7  C   UNL     1     149.826 161.700 150.908  1.00  0.00     0.041 C 
ATOM      8  O   UNL     1     149.856 160.442 150.879  1.00  0.00    -0.550 OA
ATOM      9  O   UNL     1     150.946 162.424 150.518  1.00  0.00    -0.550 OA
ENDBRANCH   6   7
ENDBRANCH   5   6
ENDBRANCH   4   5
ENDBRANCH   3   4
ENDBRANCH   2   3
ENDBRANCH   1   2
BRANCH   1  10
ATOM     10  C   UNL     1     147.702 165.926 152.581  1.00  0.00     0.000 C 
BRANCH  10  11
ATOM     11  C   UNL     1     149.182 165.841 153.000  1.00  0.00    -0.000 C 
BRANCH  11  12
ATOM     12  C   UNL     1     149.443 165.110 154.330  1.00  0.00    -0.000 C 
BRANCH  12  13
ATOM     13  C   UNL     1     150.351 163.870 154.227  1.00  0.00    -0.000 C 
BRANCH  13  14
ATOM     14  C   UNL     1     149.749 162.601 154.867  1.00  0.00    -0.000 C 
BRANCH  14  15
ATOM     15  C   UNL     1     148.433 162.885 155.608  1.00  0.00    -0.003 C 
ATOM     16  C   UNL     1     147.475 161.702 155.501  1.00  0.00     0.004 C 
ENDBRANCH  14  15
ENDBRANCH  13  14
ENDBRANCH  12  13
ENDBRANCH  11  12
ENDBRANCH  10  11
ENDBRANCH   1  10
TORSDOF 12
ENDMDL
MODEL 8
REMARK VINA RESULT:    -2.630      1.644      3.272
REMARK INTER + INTRA:          -6.392
REMARK INTER:                  -4.555
REMARK INTRA:                  -1.838
REMARK UNBOUND:                -1.917
REMARK SMILES CCCCCCCCCCCCCC(=O)[O-]
REMARK SMILES IDX 8 1 9 2 10 3 11 4 12 5 13 6 14 7 15 8 16 9 7 10 6 11 5 12
REMARK SMILES IDX 4 13 3 14 2 15 1 16
REMARK H PARENT
REMARK Flexibility Score: inf
ROOT
ATOM      1  C   UNL     1     146.184 165.347 151.892  1.00  0.00     0.000 C 
ENDROOT
BRANCH   1   2
ATOM      2  C   UNL     1     146.330 164.007 151.151  1.00  0.00     0.000 C 
BRANCH   2   3
ATOM      3  C   UNL     1     145.995 162.800 152.044  1.00  0.00     0.000 C 
BRANCH   3   4
ATOM      4  C   UNL     1     146.972 161.630 151.847  1.00  0.00     0.000 C 
BRANCH   4   5
ATOM      5  C   UNL     1     147.865 161.390 153.074  1.00  0.00     0.006 C 
BRANCH   5   6
ATOM      6  C   UNL     1     149.250 160.888 152.652  1.00  0.00     0.053 C 
BRANCH   6   7
ATOM      7  C   UNL     1     149.861 160.060 153.738  1.00  0.00     0.041 C 
ATOM      8  O   UNL     1     151.027 159.604 153.608  1.00  0.00    -0.550 OA
ATOM      9  O   UNL     1     149.161 159.834 154.916  1.00  0.00    -0.550 OA
ENDBRANCH   6   7
ENDBRANCH   5   6
ENDBRANCH   4   5
ENDBRANCH   3   4
ENDBRANCH   2   3
ENDBRANCH   1   2
BRANCH   1  10
ATOM     10  C   UNL     1     145.893 165.162 153.391  1.00  0.00     0.000 C 
BRANCH  10  11
ATOM     11  C   UNL     1     146.846 165.971 154.291  1.00  0.00    -0.000 C 
BRANCH  11  12
ATOM     12  C   UNL     1     147.637 165.139 155.318  1.00  0.00    -0.000 C 
BRANCH  12  13
ATOM     13  C   UNL     1     148.954 164.535 154.793  1.00  0.00    -0.000 C 
BRANCH  13  14
ATOM     14  C   UNL     1     149.601 165.348 153.652  1.00  0.00    -0.000 C 
BRANCH  14  15
ATOM     15  C   UNL     1     149.785 164.521 152.372  1.00  0.00    -0.003 C 
ATOM     16  C   UNL     1     150.520 165.322 151.300  1.00  0.00     0.004 C 
ENDBRANCH  14  15
ENDBRANCH  13  14
ENDBRANCH  12  13
ENDBRANCH  11  12
ENDBRANCH  10  11
ENDBRANCH   1  10
TORSDOF 12
ENDMDL
MODEL 9
REMARK VINA RESULT:    -2.583      1.337      2.086
REMARK INTER + INTRA:          -6.312
REMARK INTER:                  -4.298
REMARK INTRA:                  -2.014
REMARK UNBOUND:                -1.917
REMARK SMILES CCCCCCCCCCCCCC(=O)[O-]
REMARK SMILES IDX 8 1 9 2 10 3 11 4 12 5 13 6 14 7 15 8 16 9 7 10 6 11 5 12
REMARK SMILES IDX 4 13 3 14 2 15 1 16
REMARK H PARENT
REMARK Flexibility Score: inf
ROOT
ATOM      1  C   UNL     1     146.946 165.585 154.248  1.00  0.00     0.000 C 
ENDROOT
BRANCH   1   2
ATOM      2  C   UNL     1     146.621 164.431 155.210  1.00  0.00     0.000 C 
BRANCH   2   3
ATOM      3  C   UNL     1     147.867 163.615 155.594  1.00  0.00     0.000 C 
BRANCH   3   4
ATOM      4  C   UNL     1     149.009 163.767 154.577  1.00  0.00     0.000 C 
BRANCH   4   5
ATOM      5  C   UNL     1     149.881 162.507 154.470  1.00  0.00     0.006 C 
BRANCH   5   6
ATOM      6  C   UNL     1     149.437 161.447 155.483  1.00  0.00     0.053 C 
BRANCH   6   7
ATOM      7  C   UNL     1     149.710 160.072 154.957  1.00  0.00     0.041 C 
ATOM      8  O   UNL     1     149.685 159.081 155.733  1.00  0.00    -0.550 OA
ATOM      9  O   UNL     1     149.943 159.881 153.602  1.00  0.00    -0.550 OA
ENDBRANCH   6   7
ENDBRANCH   5   6
ENDBRANCH   4   5
ENDBRANCH   3   4
ENDBRANCH   2   3
ENDBRANCH   1   2
BRANCH   1  10
ATOM     10  C   UNL     1     146.192 165.469 152.912  1.00  0.00     0.000 C 
BRANCH  10  11
ATOM     11  C   UNL     1     147.002 166.008 151.717  1.00  0.00    -0.000 C 
BRANCH  11  12
ATOM     12  C   UNL     1     148.056 165.038 151.153  1.00  0.00    -0.000 C 
BRANCH  12  13
ATOM     13  C   UNL     1     147.511 163.664 150.717  1.00  0.00    -0.000 C 
BRANCH  13  14
ATOM     14  C   UNL     1     148.400 162.478 151.146  1.00  0.00    -0.000 C 
BRANCH  14  15
ATOM     15  C   UNL     1     147.580 161.278 151.641  1.00  0.00    -0.003 C 
ATOM     16  C   UNL     1     146.511 161.716 152.639  1.00  0.00     0.004 C 
ENDBRANCH  14  15
ENDBRANCH  13  14
ENDBRANCH  12  13
ENDBRANCH  11  12
ENDBRANCH  10  11
ENDBRANCH   1  10
TORSDOF 12
ENDMDL
