MODEL 1
REMARK VINA RESULT:    -5.765      0.000      0.000
REMARK INTER + INTRA:          -6.058
REMARK INTER:                  -6.270
REMARK INTRA:                   0.212
REMARK UNBOUND:                 0.212
REMARK SMILES Cc1ccc(C(C)C)c(O)c1
REMARK SMILES IDX 1 1 2 2 11 3 9 4 5 5 4 6 3 7 10 8 6 10 7 11 8 12
REMARK H PARENT 10 9
REMARK Flexibility Score: inf
ROOT
ATOM      1  C   UNL     1      11.009  19.322  -3.092  1.00  0.00     0.044 C 
ATOM      2  C   UNL     1      12.100  20.235  -2.613  1.00  0.00    -0.047 A 
ATOM      3  C   UNL     1      11.930  20.985  -1.442  1.00  0.00     0.049 A 
ATOM      4  C   UNL     1      12.928  21.868  -1.006  1.00  0.00     0.119 A 
ATOM      5  C   UNL     1      14.118  22.017  -1.758  1.00  0.00    -0.004 A 
ATOM      6  C   UNL     1      14.267  21.272  -2.943  1.00  0.00     0.008 A 
ATOM      7  C   UNL     1      13.267  20.396  -3.369  1.00  0.00     0.004 A 
ENDROOT
BRANCH   4   8
ATOM      8  O   UNL     1      12.732  22.592   0.169  1.00  0.00    -0.508 OA
ATOM      9  H   UNL     1      12.810  22.160   1.082  1.00  0.00     0.293 HD
ENDBRANCH   4   8
BRANCH   5  10
ATOM     10  C   UNL     1      15.238  22.960  -1.337  1.00  0.00     0.017 C 
ATOM     11  C   UNL     1      15.883  22.524  -0.016  1.00  0.00     0.012 C 
ATOM     12  C   UNL     1      14.764  24.417  -1.278  1.00  0.00     0.012 C 
ENDBRANCH   5  10
TORSDOF 2
ENDMDL
MODEL 2
REMARK VINA RESULT:    -5.476      1.636      2.239
REMARK INTER + INTRA:          -5.744
REMARK INTER:                  -5.673
REMARK INTRA:                  -0.071
REMARK UNBOUND:                 0.212
REMARK SMILES Cc1ccc(C(C)C)c(O)c1
REMARK SMILES IDX 1 1 2 2 11 3 9 4 5 5 4 6 3 7 10 8 6 10 7 11 8 12
REMARK H PARENT 10 9
REMARK Flexibility Score: inf
ROOT
ATOM      1  C   UNL     1      10.887  18.875  -4.110  1.00  0.00     0.044 C 
ATOM      2  C   UNL     1      11.702  19.788  -3.242  1.00  0.00    -0.047 A 
ATOM      3  C   UNL     1      12.484  20.798  -3.817  1.00  0.00     0.049 A 
ATOM      4  C   UNL     1      13.279  21.632  -3.017  1.00  0.00     0.119 A 
ATOM      5  C   UNL     1      13.304  21.451  -1.613  1.00  0.00    -0.004 A 
ATOM      6  C   UNL     1      12.528  20.420  -1.051  1.00  0.00     0.008 A 
ATOM      7  C   UNL     1      11.741  19.594  -1.856  1.00  0.00     0.004 A 
ENDROOT
BRANCH   4   8
ATOM      8  O   UNL     1      14.038  22.634  -3.619  1.00  0.00    -0.508 OA
ATOM      9  H   UNL     1      14.845  22.420  -4.194  1.00  0.00     0.293 HD
ENDBRANCH   4   8
BRANCH   5  10
ATOM     10  C   UNL     1      14.145  22.324  -0.691  1.00  0.00     0.017 C 
ATOM     11  C   UNL     1      15.645  22.058  -0.868  1.00  0.00     0.012 C 
ATOM     12  C   UNL     1      13.716  22.184   0.774  1.00  0.00     0.012 C 
ENDBRANCH   5  10
TORSDOF 2
ENDMDL
MODEL 3
REMARK VINA RESULT:    -5.457      1.693      4.465
REMARK INTER + INTRA:          -5.724
REMARK INTER:                  -5.561
REMARK INTRA:                  -0.163
REMARK UNBOUND:                 0.212
REMARK SMILES Cc1ccc(C(C)C)c(O)c1
REMARK SMILES IDX 1 1 2 2 11 3 9 4 5 5 4 6 3 7 10 8 6 10 7 11 8 12
REMARK H PARENT 10 9
REMARK Flexibility Score: inf
ROOT
ATOM      1  C   UNL     1      15.498  23.316   0.370  1.00  0.00     0.044 C 
ATOM      2  C   UNL     1      14.636  22.489  -0.539  1.00  0.00    -0.047 A 
ATOM      3  C   UNL     1      14.583  22.769  -1.910  1.00  0.00     0.049 A 
ATOM      4  C   UNL     1      13.753  22.025  -2.762  1.00  0.00     0.119 A 
ATOM      5  C   UNL     1      12.947  20.988  -2.234  1.00  0.00    -0.004 A 
ATOM      6  C   UNL     1      12.995  20.731  -0.851  1.00  0.00     0.008 A 
ATOM      7  C   UNL     1      13.825  21.477  -0.012  1.00  0.00     0.004 A 
ENDROOT
BRANCH   4   8
ATOM      8  O   UNL     1      13.731  22.321  -4.123  1.00  0.00    -0.508 OA
ATOM      9  H   UNL     1      14.573  22.305  -4.687  1.00  0.00     0.293 HD
ENDBRANCH   4   8
BRANCH   5  10
ATOM     10  C   UNL     1      12.025  20.145  -3.106  1.00  0.00     0.017 C 
ATOM     11  C   UNL     1      10.855  19.565  -2.303  1.00  0.00     0.012 C 
ATOM     12  C   UNL     1      12.793  19.049  -3.855  1.00  0.00     0.012 C 
ENDBRANCH   5  10
TORSDOF 2
ENDMDL
MODEL 4
REMARK VINA RESULT:    -5.152      1.498      1.906
REMARK INTER + INTRA:          -5.391
REMARK INTER:                  -5.293
REMARK INTRA:                  -0.098
REMARK UNBOUND:                 0.212
REMARK SMILES Cc1ccc(C(C)C)c(O)c1
REMARK SMILES IDX 1 1 2 2 11 3 9 4 5 5 4 6 3 7 10 8 6 10 7 11 8 12
REMARK H PARENT 10 9
REMARK Flexibility Score: inf
ROOT
ATOM      1  C   UNL     1      11.272  19.328  -2.201  1.00  0.00     0.044 C 
ATOM      2  C   UNL     1      12.271  20.400  -1.872  1.00  0.00    -0.047 A 
ATOM      3  C   UNL     1      12.688  21.303  -2.858  1.00  0.00     0.049 A 
ATOM      4  C   UNL     1      13.648  22.284  -2.570  1.00  0.00     0.119 A 
ATOM      5  C   UNL     1      14.214  22.361  -1.275  1.00  0.00    -0.004 A 
ATOM      6  C   UNL     1      13.800  21.434  -0.300  1.00  0.00     0.008 A 
ATOM      7  C   UNL     1      12.844  20.460  -0.597  1.00  0.00     0.004 A 
ENDROOT
BRANCH   4   8
ATOM      8  O   UNL     1      14.034  23.175  -3.570  1.00  0.00    -0.508 OA
ATOM      9  H   UNL     1      14.735  23.889  -3.408  1.00  0.00     0.293 HD
ENDBRANCH   4   8
BRANCH   5  10
ATOM     10  C   UNL     1      15.260  23.403  -0.901  1.00  0.00     0.017 C 
ATOM     11  C   UNL     1      16.021  23.014   0.373  1.00  0.00     0.012 C 
ATOM     12  C   UNL     1      14.652  24.805  -0.788  1.00  0.00     0.012 C 
ENDBRANCH   5  10
TORSDOF 2
ENDMDL
MODEL 5
REMARK VINA RESULT:    -4.993      1.160      4.063
REMARK INTER + INTRA:          -5.218
REMARK INTER:                  -5.026
REMARK INTRA:                  -0.192
REMARK UNBOUND:                 0.212
REMARK SMILES Cc1ccc(C(C)C)c(O)c1
REMARK SMILES IDX 1 1 2 2 11 3 9 4 5 5 4 6 3 7 10 8 6 10 7 11 8 12
REMARK H PARENT 10 9
REMARK Flexibility Score: inf
ROOT
ATOM      1  C   UNL     1      15.377  25.221  -0.781  1.00  0.00     0.044 C 
ATOM      2  C   UNL     1      14.522  24.032  -1.111  1.00  0.00    -0.047 A 
ATOM      3  C   UNL     1      13.163  24.023  -0.770  1.00  0.00     0.049 A 
ATOM      4  C   UNL     1      12.364  22.902  -1.041  1.00  0.00     0.119 A 
ATOM      5  C   UNL     1      12.933  21.760  -1.654  1.00  0.00    -0.004 A 
ATOM      6  C   UNL     1      14.304  21.776  -1.973  1.00  0.00     0.008 A 
ATOM      7  C   UNL     1      15.091  22.896  -1.699  1.00  0.00     0.004 A 
ENDROOT
BRANCH   4   8
ATOM      8  O   UNL     1      11.014  22.929  -0.698  1.00  0.00    -0.508 OA
ATOM      9  H   UNL     1      10.382  23.628  -1.072  1.00  0.00     0.293 HD
ENDBRANCH   4   8
BRANCH   5  10
ATOM     10  C   UNL     1      12.118  20.514  -1.973  1.00  0.00     0.017 C 
ATOM     11  C   UNL     1      12.497  19.338  -1.064  1.00  0.00     0.012 C 
ATOM     12  C   UNL     1      12.216  20.134  -3.456  1.00  0.00     0.012 C 
ENDBRANCH   5  10
TORSDOF 2
ENDMDL
MODEL 6
REMARK VINA RESULT:    -4.891      1.311      4.095
REMARK INTER + INTRA:          -5.107
REMARK INTER:                  -4.920
REMARK INTRA:                  -0.187
REMARK UNBOUND:                 0.212
REMARK SMILES Cc1ccc(C(C)C)c(O)c1
REMARK SMILES IDX 1 1 2 2 11 3 9 4 5 5 4 6 3 7 10 8 6 10 7 11 8 12
REMARK H PARENT 10 9
REMARK Flexibility Score: inf
ROOT
ATOM      1  C   UNL     1      14.773  25.077  -0.763  1.00  0.00     0.044 C 
ATOM      2  C   UNL     1      14.193  23.759  -1.185  1.00  0.00    -0.047 A 
ATOM      3  C   UNL     1      14.006  22.736  -0.246  1.00  0.00     0.049 A 
ATOM      4  C   UNL     1      13.498  21.488  -0.638  1.00  0.00     0.119 A 
ATOM      5  C   UNL     1      13.181  21.249  -1.996  1.00  0.00    -0.004 A 
ATOM      6  C   UNL     1      13.392  22.280  -2.932  1.00  0.00     0.008 A 
ATOM      7  C   UNL     1      13.898  23.518  -2.532  1.00  0.00     0.004 A 
ENDROOT
BRANCH   4   8
ATOM      8  O   UNL     1      13.314  20.495   0.322  1.00  0.00    -0.508 OA
ATOM      9  H   UNL     1      13.957  20.375   1.097  1.00  0.00     0.293 HD
ENDBRANCH   4   8
BRANCH   5  10
ATOM     10  C   UNL     1      12.627  19.917  -2.484  1.00  0.00     0.017 C 
ATOM     11  C   UNL     1      13.055  19.615  -3.925  1.00  0.00     0.012 C 
ATOM     12  C   UNL     1      11.104  19.839  -2.320  1.00  0.00     0.012 C 
ENDBRANCH   5  10
TORSDOF 2
ENDMDL
MODEL 7
REMARK VINA RESULT:    -4.387      2.311      3.718
REMARK INTER + INTRA:          -4.560
REMARK INTER:                  -4.364
REMARK INTRA:                  -0.196
REMARK UNBOUND:                 0.212
REMARK SMILES Cc1ccc(C(C)C)c(O)c1
REMARK SMILES IDX 1 1 2 2 11 3 9 4 5 5 4 6 3 7 10 8 6 10 7 11 8 12
REMARK H PARENT 10 9
REMARK Flexibility Score: inf
ROOT
ATOM      1  C   UNL     1      13.251  25.569  -4.125  1.00  0.00     0.044 C 
ATOM      2  C   UNL     1      13.751  24.545  -3.148  1.00  0.00    -0.047 A 
ATOM      3  C   UNL     1      13.667  23.181  -3.449  1.00  0.00     0.049 A 
ATOM      4  C   UNL     1      14.098  22.215  -2.527  1.00  0.00     0.119 A 
ATOM      5  C   UNL     1      14.615  22.618  -1.272  1.00  0.00    -0.004 A 
ATOM      6  C   UNL     1      14.675  23.992  -0.975  1.00  0.00     0.008 A 
ATOM      7  C   UNL     1      14.243  24.945  -1.899  1.00  0.00     0.004 A 
ENDROOT
BRANCH   4   8
ATOM      8  O   UNL     1      14.011  20.865  -2.861  1.00  0.00    -0.508 OA
ATOM      9  H   UNL     1      14.836  20.291  -2.988  1.00  0.00     0.293 HD
ENDBRANCH   4   8
BRANCH   5  10
ATOM     10  C   UNL     1      15.099  21.618  -0.229  1.00  0.00     0.017 C 
ATOM     11  C   UNL     1      14.037  21.360   0.847  1.00  0.00     0.012 C 
ATOM     12  C   UNL     1      16.436  22.043   0.389  1.00  0.00     0.012 C 
ENDBRANCH   5  10
TORSDOF 2
ENDMDL
MODEL 8
REMARK VINA RESULT:    -3.654      1.762      2.569
REMARK INTER + INTRA:          -3.762
REMARK INTER:                  -4.027
REMARK INTRA:                   0.266
REMARK UNBOUND:                 0.212
REMARK SMILES Cc1ccc(C(C)C)c(O)c1
REMARK SMILES IDX 1 1 2 2 11 3 9 4 5 5 4 6 3 7 10 8 6 10 7 11 8 12
REMARK H PARENT 10 9
REMARK Flexibility Score: inf
ROOT
ATOM      1  C   UNL     1      12.034  19.025  -1.513  1.00  0.00     0.044 C 
ATOM      2  C   UNL     1      12.457  20.464  -1.533  1.00  0.00    -0.047 A 
ATOM      3  C   UNL     1      13.763  20.812  -1.898  1.00  0.00     0.049 A 
ATOM      4  C   UNL     1      14.179  22.151  -1.885  1.00  0.00     0.119 A 
ATOM      5  C   UNL     1      13.277  23.167  -1.489  1.00  0.00    -0.004 A 
ATOM      6  C   UNL     1      11.973  22.802  -1.105  1.00  0.00     0.008 A 
ATOM      7  C   UNL     1      11.569  21.465  -1.121  1.00  0.00     0.004 A 
ENDROOT
BRANCH   4   8
ATOM      8  O   UNL     1      15.483  22.465  -2.264  1.00  0.00    -0.508 OA
ATOM      9  H   UNL     1      16.148  21.749  -2.533  1.00  0.00     0.293 HD
ENDBRANCH   4   8
BRANCH   5  10
ATOM     10  C   UNL     1      13.668  24.639  -1.454  1.00  0.00     0.017 C 
ATOM     11  C   UNL     1      13.754  25.239  -2.863  1.00  0.00     0.012 C 
ATOM     12  C   UNL     1      14.963  24.866  -0.665  1.00  0.00     0.012 C 
ENDBRANCH   5  10
TORSDOF 2
ENDMDL
MODEL 9
REMARK VINA RESULT:    -3.253      2.334      3.611
REMARK INTER + INTRA:          -3.326
REMARK INTER:                  -3.161
REMARK INTRA:                  -0.164
REMARK UNBOUND:                 0.212
REMARK SMILES Cc1ccc(C(C)C)c(O)c1
REMARK SMILES IDX 1 1 2 2 11 3 9 4 5 5 4 6 3 7 10 8 6 10 7 11 8 12
REMARK H PARENT 10 9
REMARK Flexibility Score: inf
ROOT
ATOM      1  C   UNL     1      13.263  25.305  -4.125  1.00  0.00     0.044 C 
ATOM      2  C   UNL     1      13.678  24.500  -2.928  1.00  0.00    -0.047 A 
ATOM      3  C   UNL     1      14.380  25.105  -1.878  1.00  0.00     0.049 A 
ATOM      4  C   UNL     1      14.803  24.354  -0.772  1.00  0.00     0.119 A 
ATOM      5  C   UNL     1      14.531  22.966  -0.715  1.00  0.00    -0.004 A 
ATOM      6  C   UNL     1      13.842  22.367  -1.786  1.00  0.00     0.008 A 
ATOM      7  C   UNL     1      13.425  23.124  -2.882  1.00  0.00     0.004 A 
ENDROOT
BRANCH   4   8
ATOM      8  O   UNL     1      15.491  24.988   0.261  1.00  0.00    -0.508 OA
ATOM      9  H   UNL     1      15.020  25.588   0.927  1.00  0.00     0.293 HD
ENDBRANCH   4   8
BRANCH   5  10
ATOM     10  C   UNL     1      14.964  22.096   0.459  1.00  0.00     0.017 C 
ATOM     11  C   UNL     1      16.444  21.705   0.362  1.00  0.00     0.012 C 
ATOM     12  C   UNL     1      14.066  20.864   0.616  1.00  0.00     0.012 C 
ENDBRANCH   5  10
TORSDOF 2
ENDMDL
