MODEL 1
REMARK VINA RESULT:    -3.957      0.000      0.000
REMARK INTER + INTRA:          -7.486
REMARK INTER:                  -6.733
REMARK INTRA:                  -0.753
REMARK UNBOUND:                -0.753
REMARK SMILES CCCCCCCCCCCCCC(=O)[O-]
REMARK SMILES IDX 8 1 9 2 10 3 11 4 12 5 13 6 14 7 15 8 16 9 7 10 6 11 5 12
REMARK SMILES IDX 4 13 3 14 2 15 1 16
REMARK H PARENT
REMARK Flexibility Score: inf
ROOT
ATOM      1  C   UNL     1     -17.659 -15.614   1.961  1.00  0.00     0.000 C 
ENDROOT
BRANCH   1   2
ATOM      2  C   UNL     1     -18.221 -16.989   1.556  1.00  0.00     0.000 C 
BRANCH   2   3
ATOM      3  C   UNL     1     -17.774 -18.122   2.490  1.00  0.00     0.000 C 
BRANCH   3   4
ATOM      4  C   UNL     1     -17.235 -19.316   1.687  1.00  0.00     0.000 C 
BRANCH   4   5
ATOM      5  C   UNL     1     -16.228 -20.165   2.482  1.00  0.00     0.006 C 
BRANCH   5   6
ATOM      6  C   UNL     1     -16.646 -20.456   3.933  1.00  0.00     0.053 C 
BRANCH   6   7
ATOM      7  C   UNL     1     -15.594 -20.046   4.917  1.00  0.00     0.041 C 
ATOM      8  O   UNL     1     -15.108 -18.885   4.877  1.00  0.00    -0.550 OA
ATOM      9  O   UNL     1     -15.123 -20.957   5.854  1.00  0.00    -0.550 OA
ENDBRANCH   6   7
ENDBRANCH   5   6
ENDBRANCH   4   5
ENDBRANCH   3   4
ENDBRANCH   2   3
ENDBRANCH   1   2
BRANCH   1  10
ATOM     10  C   UNL     1     -17.001 -14.813   0.822  1.00  0.00     0.000 C 
BRANCH  10  11
ATOM     11  C   UNL     1     -17.888 -14.701  -0.427  1.00  0.00    -0.000 C 
BRANCH  11  12
ATOM     12  C   UNL     1     -17.050 -14.830  -1.707  1.00  0.00    -0.000 C 
BRANCH  12  13
ATOM     13  C   UNL     1     -17.618 -14.012  -2.879  1.00  0.00    -0.000 C 
BRANCH  13  14
ATOM     14  C   UNL     1     -17.760 -12.498  -2.617  1.00  0.00    -0.000 C 
BRANCH  14  15
ATOM     15  C   UNL     1     -16.433 -11.743  -2.425  1.00  0.00    -0.003 C 
ATOM     16  C   UNL     1     -16.120 -11.455  -0.957  1.00  0.00     0.004 C 
ENDBRANCH  14  15
ENDBRANCH  13  14
ENDBRANCH  12  13
ENDBRANCH  11  12
ENDBRANCH  10  11
ENDBRANCH   1  10
TORSDOF 12
ENDMDL
MODEL 2
REMARK VINA RESULT:    -3.868      3.838      5.080
REMARK INTER + INTRA:          -7.335
REMARK INTER:                  -6.177
REMARK INTRA:                  -1.158
REMARK UNBOUND:                -0.753
REMARK SMILES CCCCCCCCCCCCCC(=O)[O-]
REMARK SMILES IDX 8 1 9 2 10 3 11 4 12 5 13 6 14 7 15 8 16 9 7 10 6 11 5 12
REMARK SMILES IDX 4 13 3 14 2 15 1 16
REMARK H PARENT
REMARK Flexibility Score: inf
ROOT
ATOM      1  C   UNL     1     -16.288 -13.396   1.087  1.00  0.00     0.000 C 
ENDROOT
BRANCH   1   2
ATOM      2  C   UNL     1     -14.754 -13.490   0.995  1.00  0.00     0.000 C 
BRANCH   2   3
ATOM      3  C   UNL     1     -14.088 -12.153   0.642  1.00  0.00     0.000 C 
BRANCH   3   4
ATOM      4  C   UNL     1     -12.562 -12.244   0.789  1.00  0.00     0.000 C 
BRANCH   4   5
ATOM      5  C   UNL     1     -12.100 -13.576   1.409  1.00  0.00     0.006 C 
BRANCH   5   6
ATOM      6  C   UNL     1     -11.625 -13.467   2.867  1.00  0.00     0.053 C 
BRANCH   6   7
ATOM      7  C   UNL     1     -12.128 -14.598   3.710  1.00  0.00     0.041 C 
ATOM      8  O   UNL     1     -11.508 -15.693   3.739  1.00  0.00    -0.550 OA
ATOM      9  O   UNL     1     -13.306 -14.455   4.436  1.00  0.00    -0.550 OA
ENDBRANCH   6   7
ENDBRANCH   5   6
ENDBRANCH   4   5
ENDBRANCH   3   4
ENDBRANCH   2   3
ENDBRANCH   1   2
BRANCH   1  10
ATOM     10  C   UNL     1     -17.042 -14.714   0.833  1.00  0.00     0.000 C 
BRANCH  10  11
ATOM     11  C   UNL     1     -17.910 -14.679  -0.434  1.00  0.00    -0.000 C 
BRANCH  11  12
ATOM     12  C   UNL     1     -17.042 -14.797  -1.695  1.00  0.00    -0.000 C 
BRANCH  12  13
ATOM     13  C   UNL     1     -17.627 -14.034  -2.897  1.00  0.00    -0.000 C 
BRANCH  13  14
ATOM     14  C   UNL     1     -17.712 -12.503  -2.725  1.00  0.00    -0.000 C 
BRANCH  14  15
ATOM     15  C   UNL     1     -16.401 -11.823  -2.293  1.00  0.00    -0.003 C 
ATOM     16  C   UNL     1     -16.475 -10.298  -2.354  1.00  0.00     0.004 C 
ENDBRANCH  14  15
ENDBRANCH  13  14
ENDBRANCH  12  13
ENDBRANCH  11  12
ENDBRANCH  10  11
ENDBRANCH   1  10
TORSDOF 12
ENDMDL
MODEL 3
REMARK VINA RESULT:    -3.868      6.044      7.813
REMARK INTER + INTRA:          -7.334
REMARK INTER:                  -5.890
REMARK INTRA:                  -1.445
REMARK UNBOUND:                -0.753
REMARK SMILES CCCCCCCCCCCCCC(=O)[O-]
REMARK SMILES IDX 8 1 9 2 10 3 11 4 12 5 13 6 14 7 15 8 16 9 7 10 6 11 5 12
REMARK SMILES IDX 4 13 3 14 2 15 1 16
REMARK H PARENT
REMARK Flexibility Score: inf
ROOT
ATOM      1  C   UNL     1     -16.271 -12.992   1.142  1.00  0.00     0.000 C 
ENDROOT
BRANCH   1   2
ATOM      2  C   UNL     1     -16.025 -14.151   0.158  1.00  0.00     0.000 C 
BRANCH   2   3
ATOM      3  C   UNL     1     -17.274 -14.530  -0.650  1.00  0.00     0.000 C 
BRANCH   3   4
ATOM      4  C   UNL     1     -16.912 -14.827  -2.113  1.00  0.00     0.000 C 
BRANCH   4   5
ATOM      5  C   UNL     1     -17.838 -14.115  -3.115  1.00  0.00     0.006 C 
BRANCH   5   6
ATOM      6  C   UNL     1     -18.517 -12.849  -2.566  1.00  0.00     0.053 C 
BRANCH   6   7
ATOM      7  C   UNL     1     -19.176 -12.049  -3.646  1.00  0.00     0.041 C 
ATOM      8  O   UNL     1     -19.815 -12.628  -4.564  1.00  0.00    -0.550 OA
ATOM      9  O   UNL     1     -19.054 -10.664  -3.661  1.00  0.00    -0.550 OA
ENDBRANCH   6   7
ENDBRANCH   5   6
ENDBRANCH   4   5
ENDBRANCH   3   4
ENDBRANCH   2   3
ENDBRANCH   1   2
BRANCH   1  10
ATOM     10  C   UNL     1     -16.194 -11.582   0.527  1.00  0.00     0.000 C 
BRANCH  10  11
ATOM     11  C   UNL     1     -15.162 -11.473  -0.606  1.00  0.00    -0.000 C 
BRANCH  11  12
ATOM     12  C   UNL     1     -14.230 -10.274  -0.384  1.00  0.00    -0.000 C 
BRANCH  12  13
ATOM     13  C   UNL     1     -13.322 -10.442   0.847  1.00  0.00    -0.000 C 
BRANCH  13  14
ATOM     14  C   UNL     1     -12.172 -11.457   0.682  1.00  0.00    -0.000 C 
BRANCH  14  15
ATOM     15  C   UNL     1     -12.176 -12.615   1.696  1.00  0.00    -0.003 C 
ATOM     16  C   UNL     1     -12.375 -13.979   1.038  1.00  0.00     0.004 C 
ENDBRANCH  14  15
ENDBRANCH  13  14
ENDBRANCH  12  13
ENDBRANCH  11  12
ENDBRANCH  10  11
ENDBRANCH   1  10
TORSDOF 12
ENDMDL
MODEL 4
REMARK VINA RESULT:    -3.831      5.744      7.952
REMARK INTER + INTRA:          -7.272
REMARK INTER:                  -5.874
REMARK INTRA:                  -1.398
REMARK UNBOUND:                -0.753
REMARK SMILES CCCCCCCCCCCCCC(=O)[O-]
REMARK SMILES IDX 8 1 9 2 10 3 11 4 12 5 13 6 14 7 15 8 16 9 7 10 6 11 5 12
REMARK SMILES IDX 4 13 3 14 2 15 1 16
REMARK H PARENT
REMARK Flexibility Score: inf
ROOT
ATOM      1  C   UNL     1     -17.878 -22.246   5.855  1.00  0.00     0.000 C 
ENDROOT
BRANCH   1   2
ATOM      2  C   UNL     1     -18.914 -21.330   5.177  1.00  0.00     0.000 C 
BRANCH   2   3
ATOM      3  C   UNL     1     -19.304 -21.801   3.769  1.00  0.00     0.000 C 
BRANCH   3   4
ATOM      4  C   UNL     1     -20.342 -20.856   3.143  1.00  0.00     0.000 C 
BRANCH   4   5
ATOM      5  C   UNL     1     -21.151 -21.521   2.015  1.00  0.00     0.006 C 
BRANCH   5   6
ATOM      6  C   UNL     1     -21.469 -20.594   0.829  1.00  0.00     0.053 C 
BRANCH   6   7
ATOM      7  C   UNL     1     -21.875 -21.359  -0.392  1.00  0.00     0.041 C 
ATOM      8  O   UNL     1     -21.544 -20.951  -1.536  1.00  0.00    -0.550 OA
ATOM      9  O   UNL     1     -22.653 -22.505  -0.269  1.00  0.00    -0.550 OA
ENDBRANCH   6   7
ENDBRANCH   5   6
ENDBRANCH   4   5
ENDBRANCH   3   4
ENDBRANCH   2   3
ENDBRANCH   1   2
BRANCH   1  10
ATOM     10  C   UNL     1     -16.848 -21.525   6.744  1.00  0.00     0.000 C 
BRANCH  10  11
ATOM     11  C   UNL     1     -15.676 -20.930   5.950  1.00  0.00    -0.000 C 
BRANCH  11  12
ATOM     12  C   UNL     1     -15.854 -19.417   5.762  1.00  0.00    -0.000 C 
BRANCH  12  13
ATOM     13  C   UNL     1     -16.020 -19.013   4.286  1.00  0.00    -0.000 C 
BRANCH  13  14
ATOM     14  C   UNL     1     -15.553 -20.066   3.260  1.00  0.00    -0.000 C 
BRANCH  14  15
ATOM     15  C   UNL     1     -16.436 -20.190   2.006  1.00  0.00    -0.003 C 
ATOM     16  C   UNL     1     -17.423 -19.032   1.859  1.00  0.00     0.004 C 
ENDBRANCH  14  15
ENDBRANCH  13  14
ENDBRANCH  12  13
ENDBRANCH  11  12
ENDBRANCH  10  11
ENDBRANCH   1  10
TORSDOF 12
ENDMDL
MODEL 5
REMARK VINA RESULT:    -3.830      5.124      8.949
REMARK INTER + INTRA:          -7.270
REMARK INTER:                  -6.698
REMARK INTRA:                  -0.572
REMARK UNBOUND:                -0.753
REMARK SMILES CCCCCCCCCCCCCC(=O)[O-]
REMARK SMILES IDX 8 1 9 2 10 3 11 4 12 5 13 6 14 7 15 8 16 9 7 10 6 11 5 12
REMARK SMILES IDX 4 13 3 14 2 15 1 16
REMARK H PARENT
REMARK Flexibility Score: inf
ROOT
ATOM      1  C   UNL     1     -18.247 -14.908   0.256  1.00  0.00     0.000 C 
ENDROOT
BRANCH   1   2
ATOM      2  C   UNL     1     -17.190 -14.230  -0.633  1.00  0.00     0.000 C 
BRANCH   2   3
ATOM      3  C   UNL     1     -16.943 -14.977  -1.952  1.00  0.00     0.000 C 
BRANCH   3   4
ATOM      4  C   UNL     1     -17.597 -14.240  -3.130  1.00  0.00     0.000 C 
BRANCH   4   5
ATOM      5  C   UNL     1     -18.133 -12.849  -2.743  1.00  0.00     0.006 C 
BRANCH   5   6
ATOM      6  C   UNL     1     -19.596 -12.598  -3.142  1.00  0.00     0.053 C 
BRANCH   6   7
ATOM      7  C   UNL     1     -19.708 -11.743  -4.366  1.00  0.00     0.041 C 
ATOM      8  O   UNL     1     -19.916 -12.270  -5.491  1.00  0.00    -0.550 OA
ATOM      9  O   UNL     1     -19.545 -10.366  -4.271  1.00  0.00    -0.550 OA
ENDBRANCH   6   7
ENDBRANCH   5   6
ENDBRANCH   4   5
ENDBRANCH   3   4
ENDBRANCH   2   3
ENDBRANCH   1   2
BRANCH   1  10
ATOM     10  C   UNL     1     -17.685 -15.774   1.399  1.00  0.00     0.000 C 
BRANCH  10  11
ATOM     11  C   UNL     1     -18.387 -17.134   1.527  1.00  0.00    -0.000 C 
BRANCH  11  12
ATOM     12  C   UNL     1     -17.605 -18.069   2.461  1.00  0.00    -0.000 C 
BRANCH  12  13
ATOM     13  C   UNL     1     -17.243 -19.410   1.798  1.00  0.00    -0.000 C 
BRANCH  13  14
ATOM     14  C   UNL     1     -16.109 -20.198   2.486  1.00  0.00    -0.000 C 
BRANCH  14  15
ATOM     15  C   UNL     1     -15.701 -19.675   3.874  1.00  0.00    -0.003 C 
ATOM     16  C   UNL     1     -16.330 -20.470   5.017  1.00  0.00     0.004 C 
ENDBRANCH  14  15
ENDBRANCH  13  14
ENDBRANCH  12  13
ENDBRANCH  11  12
ENDBRANCH  10  11
ENDBRANCH   1  10
TORSDOF 12
ENDMDL
MODEL 6
REMARK VINA RESULT:    -3.764      1.538      2.271
REMARK INTER + INTRA:          -7.158
REMARK INTER:                  -6.068
REMARK INTRA:                  -1.090
REMARK UNBOUND:                -0.753
REMARK SMILES CCCCCCCCCCCCCC(=O)[O-]
REMARK SMILES IDX 8 1 9 2 10 3 11 4 12 5 13 6 14 7 15 8 16 9 7 10 6 11 5 12
REMARK SMILES IDX 4 13 3 14 2 15 1 16
REMARK H PARENT
REMARK Flexibility Score: inf
ROOT
ATOM      1  C   UNL     1     -19.982 -15.871   1.029  1.00  0.00     0.000 C 
ENDROOT
BRANCH   1   2
ATOM      2  C   UNL     1     -19.433 -16.414   2.361  1.00  0.00     0.000 C 
BRANCH   2   3
ATOM      3  C   UNL     1     -19.836 -17.871   2.631  1.00  0.00     0.000 C 
BRANCH   3   4
ATOM      4  C   UNL     1     -19.039 -18.835   1.740  1.00  0.00     0.000 C 
BRANCH   4   5
ATOM      5  C   UNL     1     -17.519 -18.599   1.815  1.00  0.00     0.006 C 
BRANCH   5   6
ATOM      6  C   UNL     1     -16.676 -19.884   1.838  1.00  0.00     0.053 C 
BRANCH   6   7
ATOM      7  C   UNL     1     -16.143 -20.184   3.205  1.00  0.00     0.041 C 
ATOM      8  O   UNL     1     -14.913 -20.064   3.447  1.00  0.00    -0.550 OA
ATOM      9  O   UNL     1     -17.000 -20.634   4.203  1.00  0.00    -0.550 OA
ENDBRANCH   6   7
ENDBRANCH   5   6
ENDBRANCH   4   5
ENDBRANCH   3   4
ENDBRANCH   2   3
ENDBRANCH   1   2
BRANCH   1  10
ATOM     10  C   UNL     1     -19.066 -14.869   0.302  1.00  0.00     0.000 C 
BRANCH  10  11
ATOM     11  C   UNL     1     -17.586 -15.016   0.685  1.00  0.00    -0.000 C 
BRANCH  11  12
ATOM     12  C   UNL     1     -16.682 -14.323  -0.344  1.00  0.00    -0.000 C 
BRANCH  12  13
ATOM     13  C   UNL     1     -16.916 -14.824  -1.779  1.00  0.00    -0.000 C 
BRANCH  13  14
ATOM     14  C   UNL     1     -17.297 -13.734  -2.802  1.00  0.00    -0.000 C 
BRANCH  14  15
ATOM     15  C   UNL     1     -18.621 -13.976  -3.549  1.00  0.00    -0.003 C 
ATOM     16  C   UNL     1     -19.733 -13.025  -3.110  1.00  0.00     0.004 C 
ENDBRANCH  14  15
ENDBRANCH  13  14
ENDBRANCH  12  13
ENDBRANCH  11  12
ENDBRANCH  10  11
ENDBRANCH   1  10
TORSDOF 12
ENDMDL
MODEL 7
REMARK VINA RESULT:    -3.762      5.354      7.806
REMARK INTER + INTRA:          -7.155
REMARK INTER:                  -5.321
REMARK INTRA:                  -1.835
REMARK UNBOUND:                -0.753
REMARK SMILES CCCCCCCCCCCCCC(=O)[O-]
REMARK SMILES IDX 8 1 9 2 10 3 11 4 12 5 13 6 14 7 15 8 16 9 7 10 6 11 5 12
REMARK SMILES IDX 4 13 3 14 2 15 1 16
REMARK H PARENT
REMARK Flexibility Score: inf
ROOT
ATOM      1  C   UNL     1     -18.909 -17.216   2.152  1.00  0.00     0.000 C 
ENDROOT
BRANCH   1   2
ATOM      2  C   UNL     1     -20.279 -17.541   2.775  1.00  0.00     0.000 C 
BRANCH   2   3
ATOM      3  C   UNL     1     -20.943 -18.781   2.158  1.00  0.00     0.000 C 
BRANCH   3   4
ATOM      4  C   UNL     1     -21.041 -18.648   0.631  1.00  0.00     0.000 C 
BRANCH   4   5
ATOM      5  C   UNL     1     -20.935 -20.001  -0.095  1.00  0.00     0.006 C 
BRANCH   5   6
ATOM      6  C   UNL     1     -21.643 -21.164   0.619  1.00  0.00     0.053 C 
BRANCH   6   7
ATOM      7  C   UNL     1     -22.740 -21.753  -0.213  1.00  0.00     0.041 C 
ATOM      8  O   UNL     1     -22.594 -22.884  -0.746  1.00  0.00    -0.550 OA
ATOM      9  O   UNL     1     -23.911 -21.036  -0.432  1.00  0.00    -0.550 OA
ENDBRANCH   6   7
ENDBRANCH   5   6
ENDBRANCH   4   5
ENDBRANCH   3   4
ENDBRANCH   2   3
ENDBRANCH   1   2
BRANCH   1  10
ATOM     10  C   UNL     1     -17.737 -18.076   2.660  1.00  0.00     0.000 C 
BRANCH  10  11
ATOM     11  C   UNL     1     -17.263 -19.117   1.635  1.00  0.00    -0.000 C 
BRANCH  11  12
ATOM     12  C   UNL     1     -16.635 -20.329   2.336  1.00  0.00    -0.000 C 
BRANCH  12  13
ATOM     13  C   UNL     1     -17.379 -20.729   3.623  1.00  0.00    -0.000 C 
BRANCH  13  14
ATOM     14  C   UNL     1     -18.625 -21.614   3.414  1.00  0.00    -0.000 C 
BRANCH  14  15
ATOM     15  C   UNL     1     -19.749 -21.409   4.444  1.00  0.00    -0.003 C 
ATOM     16  C   UNL     1     -19.522 -20.189   5.336  1.00  0.00     0.004 C 
ENDBRANCH  14  15
ENDBRANCH  13  14
ENDBRANCH  12  13
ENDBRANCH  11  12
ENDBRANCH  10  11
ENDBRANCH   1  10
TORSDOF 12
ENDMDL
MODEL 8
REMARK VINA RESULT:    -3.757      5.089      7.638
REMARK INTER + INTRA:          -7.146
REMARK INTER:                  -5.636
REMARK INTRA:                  -1.509
REMARK UNBOUND:                -0.753
REMARK SMILES CCCCCCCCCCCCCC(=O)[O-]
REMARK SMILES IDX 8 1 9 2 10 3 11 4 12 5 13 6 14 7 15 8 16 9 7 10 6 11 5 12
REMARK SMILES IDX 4 13 3 14 2 15 1 16
REMARK H PARENT
REMARK Flexibility Score: inf
ROOT
ATOM      1  C   UNL     1     -20.908 -19.840   3.417  1.00  0.00     0.000 C 
ENDROOT
BRANCH   1   2
ATOM      2  C   UNL     1     -20.644 -20.562   2.083  1.00  0.00     0.000 C 
BRANCH   2   3
ATOM      3  C   UNL     1     -20.417 -19.598   0.910  1.00  0.00     0.000 C 
BRANCH   3   4
ATOM      4  C   UNL     1     -21.645 -19.555  -0.011  1.00  0.00     0.000 C 
BRANCH   4   5
ATOM      5  C   UNL     1     -21.599 -20.623  -1.118  1.00  0.00     0.006 C 
BRANCH   5   6
ATOM      6  C   UNL     1     -22.379 -21.909  -0.796  1.00  0.00     0.053 C 
BRANCH   6   7
ATOM      7  C   UNL     1     -23.606 -21.635   0.018  1.00  0.00     0.041 C 
ATOM      8  O   UNL     1     -23.674 -22.024   1.214  1.00  0.00    -0.550 OA
ATOM      9  O   UNL     1     -24.690 -20.981  -0.555  1.00  0.00    -0.550 OA
ENDBRANCH   6   7
ENDBRANCH   5   6
ENDBRANCH   4   5
ENDBRANCH   3   4
ENDBRANCH   2   3
ENDBRANCH   1   2
BRANCH   1  10
ATOM     10  C   UNL     1     -19.854 -20.081   4.514  1.00  0.00     0.000 C 
BRANCH  10  11
ATOM     11  C   UNL     1     -18.835 -21.169   4.142  1.00  0.00    -0.000 C 
BRANCH  11  12
ATOM     12  C   UNL     1     -17.415 -20.588   4.071  1.00  0.00    -0.000 C 
BRANCH  12  13
ATOM     13  C   UNL     1     -16.823 -20.628   2.651  1.00  0.00    -0.000 C 
BRANCH  13  14
ATOM     14  C   UNL     1     -17.002 -19.336   1.828  1.00  0.00    -0.000 C 
BRANCH  14  15
ATOM     15  C   UNL     1     -17.446 -18.105   2.637  1.00  0.00    -0.003 C 
ATOM     16  C   UNL     1     -18.010 -16.989   1.758  1.00  0.00     0.004 C 
ENDBRANCH  14  15
ENDBRANCH  13  14
ENDBRANCH  12  13
ENDBRANCH  11  12
ENDBRANCH  10  11
ENDBRANCH   1  10
TORSDOF 12
ENDMDL
MODEL 9
REMARK VINA RESULT:    -3.715      4.030      6.266
REMARK INTER + INTRA:          -7.074
REMARK INTER:                  -5.091
REMARK INTRA:                  -1.984
REMARK UNBOUND:                -0.753
REMARK SMILES CCCCCCCCCCCCCC(=O)[O-]
REMARK SMILES IDX 8 1 9 2 10 3 11 4 12 5 13 6 14 7 15 8 16 9 7 10 6 11 5 12
REMARK SMILES IDX 4 13 3 14 2 15 1 16
REMARK H PARENT
REMARK Flexibility Score: inf
ROOT
ATOM      1  C   UNL     1     -19.852 -17.380   1.435  1.00  0.00     0.000 C 
ENDROOT
BRANCH   1   2
ATOM      2  C   UNL     1     -19.020 -17.727   2.684  1.00  0.00     0.000 C 
BRANCH   2   3
ATOM      3  C   UNL     1     -17.561 -18.077   2.358  1.00  0.00     0.000 C 
BRANCH   3   4
ATOM      4  C   UNL     1     -17.462 -19.461   1.700  1.00  0.00     0.000 C 
BRANCH   4   5
ATOM      5  C   UNL     1     -16.821 -20.516   2.620  1.00  0.00     0.006 C 
BRANCH   5   6
ATOM      6  C   UNL     1     -15.677 -19.983   3.499  1.00  0.00     0.053 C 
BRANCH   6   7
ATOM      7  C   UNL     1     -15.947 -20.182   4.958  1.00  0.00     0.041 C 
ATOM      8  O   UNL     1     -16.972 -19.677   5.488  1.00  0.00    -0.550 OA
ATOM      9  O   UNL     1     -15.047 -20.894   5.742  1.00  0.00    -0.550 OA
ENDBRANCH   6   7
ENDBRANCH   5   6
ENDBRANCH   4   5
ENDBRANCH   3   4
ENDBRANCH   2   3
ENDBRANCH   1   2
BRANCH   1  10
ATOM     10  C   UNL     1     -21.126 -18.223   1.242  1.00  0.00     0.000 C 
BRANCH  10  11
ATOM     11  C   UNL     1     -20.952 -19.353   0.216  1.00  0.00    -0.000 C 
BRANCH  11  12
ATOM     12  C   UNL     1     -21.322 -20.711   0.829  1.00  0.00    -0.000 C 
BRANCH  12  13
ATOM     13  C   UNL     1     -21.289 -20.702   2.367  1.00  0.00    -0.000 C 
BRANCH  13  14
ATOM     14  C   UNL     1     -20.366 -21.757   3.011  1.00  0.00    -0.000 C 
BRANCH  14  15
ATOM     15  C   UNL     1     -19.865 -21.409   4.423  1.00  0.00    -0.003 C 
ATOM     16  C   UNL     1     -20.482 -20.123   4.972  1.00  0.00     0.004 C 
ENDBRANCH  14  15
ENDBRANCH  13  14
ENDBRANCH  12  13
ENDBRANCH  11  12
ENDBRANCH  10  11
ENDBRANCH   1  10
TORSDOF 12
ENDMDL
