MODEL 1
REMARK VINA RESULT:    -3.850      0.000      0.000
REMARK INTER + INTRA:          -6.611
REMARK INTER:                  -5.875
REMARK INTRA:                  -0.735
REMARK UNBOUND:                -0.735
REMARK SMILES O=C([O-])CCCCCCCCC(=O)[O-]
REMARK SMILES IDX 7 1 6 2 5 3 4 4 2 5 1 6 3 7 8 8 9 9 10 10 11 11 12 12 13 13
REMARK SMILES IDX 14 14
REMARK H PARENT
REMARK Flexibility Score: inf
ROOT
ATOM      1  C   UNL     1      -6.430  -9.147  -4.862  1.00  0.00     0.000 C 
ENDROOT
BRANCH   1   2
ATOM      2  C   UNL     1      -5.908  -7.802  -5.399  1.00  0.00     0.000 C 
BRANCH   2   3
ATOM      3  C   UNL     1      -4.847  -7.969  -6.499  1.00  0.00     0.006 C 
BRANCH   3   4
ATOM      4  C   UNL     1      -5.323  -7.424  -7.851  1.00  0.00     0.053 C 
BRANCH   4   5
ATOM      5  C   UNL     1      -4.176  -7.153  -8.776  1.00  0.00     0.041 C 
ATOM      6  O   UNL     1      -3.799  -5.970  -8.987  1.00  0.00    -0.550 OA
ATOM      7  O   UNL     1      -3.500  -8.209  -9.374  1.00  0.00    -0.550 OA
ENDBRANCH   4   5
ENDBRANCH   3   4
ENDBRANCH   2   3
ENDBRANCH   1   2
BRANCH   1   8
ATOM      8  C   UNL     1      -7.678  -9.694  -5.583  1.00  0.00     0.000 C 
BRANCH   8   9
ATOM      9  C   UNL     1      -8.456  -8.660  -6.422  1.00  0.00     0.000 C 
BRANCH   9  10
ATOM     10  C   UNL     1      -9.850  -8.300  -5.876  1.00  0.00     0.006 C 
BRANCH  10  11
ATOM     11  C   UNL     1      -9.998  -6.806  -5.563  1.00  0.00     0.053 C 
BRANCH  11  12
ATOM     12  C   UNL     1      -9.188  -6.442  -4.359  1.00  0.00     0.041 C 
ATOM     13  O   UNL     1      -9.367  -7.046  -3.269  1.00  0.00    -0.550 OA
ATOM     14  O   UNL     1      -8.200  -5.470  -4.453  1.00  0.00    -0.550 OA
ENDBRANCH  11  12
ENDBRANCH  10  11
ENDBRANCH   9  10
ENDBRANCH   8   9
ENDBRANCH   1   8
TORSDOF 9
ENDMDL
MODEL 2
REMARK VINA RESULT:    -3.717      0.620      5.538
REMARK INTER + INTRA:          -6.408
REMARK INTER:                  -5.609
REMARK INTRA:                  -0.799
REMARK UNBOUND:                -0.735
REMARK SMILES O=C([O-])CCCCCCCCC(=O)[O-]
REMARK SMILES IDX 7 1 6 2 5 3 4 4 2 5 1 6 3 7 8 8 9 9 10 10 11 11 12 12 13 13
REMARK SMILES IDX 14 14
REMARK H PARENT
REMARK Flexibility Score: inf
ROOT
ATOM      1  C   UNL     1      -7.750  -9.884  -5.816  1.00  0.00     0.000 C 
ENDROOT
BRANCH   1   2
ATOM      2  C   UNL     1      -9.091  -9.156  -6.030  1.00  0.00     0.000 C 
BRANCH   2   3
ATOM      3  C   UNL     1      -8.913  -7.713  -6.531  1.00  0.00     0.006 C 
BRANCH   3   4
ATOM      4  C   UNL     1      -9.761  -6.715  -5.732  1.00  0.00     0.053 C 
BRANCH   4   5
ATOM      5  C   UNL     1      -9.115  -6.355  -4.430  1.00  0.00     0.041 C 
ATOM      6  O   UNL     1      -8.216  -5.473  -4.392  1.00  0.00    -0.550 OA
ATOM      7  O   UNL     1      -9.531  -6.965  -3.253  1.00  0.00    -0.550 OA
ENDBRANCH   4   5
ENDBRANCH   3   4
ENDBRANCH   2   3
ENDBRANCH   1   2
BRANCH   1   8
ATOM      8  C   UNL     1      -6.749  -9.144  -4.906  1.00  0.00     0.000 C 
BRANCH   8   9
ATOM      9  C   UNL     1      -5.380  -8.841  -5.548  1.00  0.00     0.000 C 
BRANCH   9  10
ATOM     10  C   UNL     1      -5.381  -8.797  -7.087  1.00  0.00     0.006 C 
BRANCH  10  11
ATOM     11  C   UNL     1      -5.338  -7.369  -7.642  1.00  0.00     0.053 C 
BRANCH  11  12
ATOM     12  C   UNL     1      -4.266  -7.243  -8.678  1.00  0.00     0.041 C 
ATOM     13  O   UNL     1      -3.835  -8.267  -9.271  1.00  0.00    -0.550 OA
ATOM     14  O   UNL     1      -3.775  -5.990  -9.024  1.00  0.00    -0.550 OA
ENDBRANCH  11  12
ENDBRANCH  10  11
ENDBRANCH   9  10
ENDBRANCH   8   9
ENDBRANCH   1   8
TORSDOF 9
ENDMDL
MODEL 3
REMARK VINA RESULT:    -3.533      2.783      3.817
REMARK INTER + INTRA:          -6.127
REMARK INTER:                  -5.300
REMARK INTRA:                  -0.828
REMARK UNBOUND:                -0.735
REMARK SMILES O=C([O-])CCCCCCCCC(=O)[O-]
REMARK SMILES IDX 7 1 6 2 5 3 4 4 2 5 1 6 3 7 8 8 9 9 10 10 11 11 12 12 13 13
REMARK SMILES IDX 14 14
REMARK H PARENT
REMARK Flexibility Score: inf
ROOT
ATOM      1  C   UNL     1      -5.897  -8.032  -7.705  1.00  0.00     0.000 C 
ENDROOT
BRANCH   1   2
ATOM      2  C   UNL     1      -6.082  -9.490  -8.163  1.00  0.00     0.000 C 
BRANCH   2   3
ATOM      3  C   UNL     1      -7.554  -9.934  -8.165  1.00  0.00     0.006 C 
BRANCH   3   4
ATOM      4  C   UNL     1      -8.467  -8.906  -8.844  1.00  0.00     0.053 C 
BRANCH   4   5
ATOM      5  C   UNL     1      -9.531  -8.409  -7.915  1.00  0.00     0.041 C 
ATOM      6  O   UNL     1      -9.969  -7.233  -8.025  1.00  0.00    -0.550 OA
ATOM      7  O   UNL     1     -10.067  -9.255  -6.953  1.00  0.00    -0.550 OA
ENDBRANCH   4   5
ENDBRANCH   3   4
ENDBRANCH   2   3
ENDBRANCH   1   2
BRANCH   1   8
ATOM      8  C   UNL     1      -5.200  -7.863  -6.341  1.00  0.00     0.000 C 
BRANCH   8   9
ATOM      9  C   UNL     1      -5.858  -8.621  -5.169  1.00  0.00     0.000 C 
BRANCH   9  10
ATOM     10  C   UNL     1      -7.335  -8.269  -4.919  1.00  0.00     0.006 C 
BRANCH  10  11
ATOM     11  C   UNL     1      -7.583  -6.758  -4.838  1.00  0.00     0.053 C 
BRANCH  11  12
ATOM     12  C   UNL     1      -8.978  -6.482  -4.374  1.00  0.00     0.041 C 
ATOM     13  O   UNL     1      -9.383  -6.944  -3.275  1.00  0.00    -0.550 OA
ATOM     14  O   UNL     1      -9.816  -5.673  -5.130  1.00  0.00    -0.550 OA
ENDBRANCH  11  12
ENDBRANCH  10  11
ENDBRANCH   9  10
ENDBRANCH   8   9
ENDBRANCH   1   8
TORSDOF 9
ENDMDL
MODEL 4
REMARK VINA RESULT:    -3.530      2.562      4.942
REMARK INTER + INTRA:          -6.123
REMARK INTER:                  -5.222
REMARK INTRA:                  -0.901
REMARK UNBOUND:                -0.735
REMARK SMILES O=C([O-])CCCCCCCCC(=O)[O-]
REMARK SMILES IDX 7 1 6 2 5 3 4 4 2 5 1 6 3 7 8 8 9 9 10 10 11 11 12 12 13 13
REMARK SMILES IDX 14 14
REMARK H PARENT
REMARK Flexibility Score: inf
ROOT
ATOM      1  C   UNL     1      -5.248  -7.844  -6.327  1.00  0.00     0.000 C 
ENDROOT
BRANCH   1   2
ATOM      2  C   UNL     1      -5.918  -8.836  -5.358  1.00  0.00     0.000 C 
BRANCH   2   3
ATOM      3  C   UNL     1      -7.348  -8.421  -4.973  1.00  0.00     0.006 C 
BRANCH   3   4
ATOM      4  C   UNL     1      -7.510  -6.898  -4.907  1.00  0.00     0.053 C 
BRANCH   4   5
ATOM      5  C   UNL     1      -8.874  -6.505  -4.430  1.00  0.00     0.041 C 
ATOM      6  O   UNL     1      -9.333  -6.984  -3.359  1.00  0.00    -0.550 OA
ATOM      7  O   UNL     1      -9.624  -5.581  -5.147  1.00  0.00    -0.550 OA
ENDBRANCH   4   5
ENDBRANCH   3   4
ENDBRANCH   2   3
ENDBRANCH   1   2
BRANCH   1   8
ATOM      8  C   UNL     1      -5.388  -8.201  -7.820  1.00  0.00     0.000 C 
BRANCH   8   9
ATOM      9  C   UNL     1      -5.880  -9.634  -8.110  1.00  0.00     0.000 C 
BRANCH   9  10
ATOM     10  C   UNL     1      -7.097  -9.724  -9.048  1.00  0.00     0.006 C 
BRANCH  10  11
ATOM     11  C   UNL     1      -8.432  -9.727  -8.292  1.00  0.00     0.053 C 
BRANCH  11  12
ATOM     12  C   UNL     1      -9.231  -8.511  -8.640  1.00  0.00     0.041 C 
ATOM     13  O   UNL     1      -9.206  -7.501  -7.888  1.00  0.00    -0.550 OA
ATOM     14  O   UNL     1      -9.965  -8.473  -9.818  1.00  0.00    -0.550 OA
ENDBRANCH  11  12
ENDBRANCH  10  11
ENDBRANCH   9  10
ENDBRANCH   8   9
ENDBRANCH   1   8
TORSDOF 9
ENDMDL
MODEL 5
REMARK VINA RESULT:    -3.168      1.775      2.400
REMARK INTER + INTRA:          -5.570
REMARK INTER:                  -5.039
REMARK INTRA:                  -0.532
REMARK UNBOUND:                -0.735
REMARK SMILES O=C([O-])CCCCCCCCC(=O)[O-]
REMARK SMILES IDX 7 1 6 2 5 3 4 4 2 5 1 6 3 7 8 8 9 9 10 10 11 11 12 12 13 13
REMARK SMILES IDX 14 14
REMARK H PARENT
REMARK Flexibility Score: inf
ROOT
ATOM      1  C   UNL     1      -7.992  -8.836  -7.861  1.00  0.00     0.000 C 
ENDROOT
BRANCH   1   2
ATOM      2  C   UNL     1      -7.150  -9.615  -8.888  1.00  0.00     0.000 C 
BRANCH   2   3
ATOM      3  C   UNL     1      -5.694  -9.817  -8.435  1.00  0.00     0.006 C 
BRANCH   3   4
ATOM      4  C   UNL     1      -4.744  -8.793  -9.067  1.00  0.00     0.053 C 
BRANCH   4   5
ATOM      5  C   UNL     1      -4.534  -7.607  -8.177  1.00  0.00     0.041 C 
ATOM      6  O   UNL     1      -4.130  -6.516  -8.660  1.00  0.00    -0.550 OA
ATOM      7  O   UNL     1      -4.821  -7.694  -6.821  1.00  0.00    -0.550 OA
ENDBRANCH   4   5
ENDBRANCH   3   4
ENDBRANCH   2   3
ENDBRANCH   1   2
BRANCH   1   8
ATOM      8  C   UNL     1      -9.293  -8.226  -8.419  1.00  0.00     0.000 C 
BRANCH   8   9
ATOM      9  C   UNL     1     -10.125  -7.414  -7.404  1.00  0.00     0.000 C 
BRANCH   9  10
ATOM     10  C   UNL     1     -10.125  -7.974  -5.971  1.00  0.00     0.006 C 
BRANCH  10  11
ATOM     11  C   UNL     1      -9.931  -6.887  -4.907  1.00  0.00     0.053 C 
BRANCH  11  12
ATOM     12  C   UNL     1      -8.480  -6.731  -4.579  1.00  0.00     0.041 C 
ATOM     13  O   UNL     1      -7.979  -5.582  -4.455  1.00  0.00    -0.550 OA
ATOM     14  O   UNL     1      -7.690  -7.853  -4.361  1.00  0.00    -0.550 OA
ENDBRANCH  11  12
ENDBRANCH  10  11
ENDBRANCH   9  10
ENDBRANCH   8   9
ENDBRANCH   1   8
TORSDOF 9
ENDMDL
MODEL 6
REMARK VINA RESULT:    -3.013      1.971      2.528
REMARK INTER + INTRA:          -5.334
REMARK INTER:                  -4.588
REMARK INTRA:                  -0.745
REMARK UNBOUND:                -0.735
REMARK SMILES O=C([O-])CCCCCCCCC(=O)[O-]
REMARK SMILES IDX 7 1 6 2 5 3 4 4 2 5 1 6 3 7 8 8 9 9 10 10 11 11 12 12 13 13
REMARK SMILES IDX 14 14
REMARK H PARENT
REMARK Flexibility Score: inf
ROOT
ATOM      1  C   UNL     1      -5.941  -8.493  -5.238  1.00  0.00     0.000 C 
ENDROOT
BRANCH   1   2
ATOM      2  C   UNL     1      -5.868  -9.258  -6.572  1.00  0.00     0.000 C 
BRANCH   2   3
ATOM      3  C   UNL     1      -5.978  -8.335  -7.797  1.00  0.00     0.006 C 
BRANCH   3   4
ATOM      4  C   UNL     1      -4.641  -7.666  -8.139  1.00  0.00     0.053 C 
BRANCH   4   5
ATOM      5  C   UNL     1      -4.020  -8.260  -9.366  1.00  0.00     0.041 C 
ATOM      6  O   UNL     1      -3.017  -7.713  -9.896  1.00  0.00    -0.550 OA
ATOM      7  O   UNL     1      -4.526  -9.437  -9.902  1.00  0.00    -0.550 OA
ENDBRANCH   4   5
ENDBRANCH   3   4
ENDBRANCH   2   3
ENDBRANCH   1   2
BRANCH   1   8
ATOM      8  C   UNL     1      -6.603  -7.103  -5.323  1.00  0.00     0.000 C 
BRANCH   8   9
ATOM      9  C   UNL     1      -7.868  -6.925  -4.458  1.00  0.00     0.000 C 
BRANCH   9  10
ATOM     10  C   UNL     1      -9.160  -6.652  -5.249  1.00  0.00     0.006 C 
BRANCH  10  11
ATOM     11  C   UNL     1     -10.125  -7.844  -5.240  1.00  0.00     0.053 C 
BRANCH  11  12
ATOM     12  C   UNL     1      -9.581  -8.962  -6.072  1.00  0.00     0.041 C 
ATOM     13  O   UNL     1      -9.495  -8.838  -7.322  1.00  0.00    -0.550 OA
ATOM     14  O   UNL     1      -9.122 -10.123  -5.462  1.00  0.00    -0.550 OA
ENDBRANCH  11  12
ENDBRANCH  10  11
ENDBRANCH   9  10
ENDBRANCH   8   9
ENDBRANCH   1   8
TORSDOF 9
ENDMDL
MODEL 7
REMARK VINA RESULT:    -2.820     13.030     14.561
REMARK INTER + INTRA:          -5.039
REMARK INTER:                  -4.252
REMARK INTRA:                  -0.788
REMARK UNBOUND:                -0.735
REMARK SMILES O=C([O-])CCCCCCCCC(=O)[O-]
REMARK SMILES IDX 7 1 6 2 5 3 4 4 2 5 1 6 3 7 8 8 9 9 10 10 11 11 12 12 13 13
REMARK SMILES IDX 14 14
REMARK H PARENT
REMARK Flexibility Score: inf
ROOT
ATOM      1  C   UNL     1       6.327  -7.911  -5.693  1.00  0.00     0.000 C 
ENDROOT
BRANCH   1   2
ATOM      2  C   UNL     1       7.102  -6.830  -6.469  1.00  0.00     0.000 C 
BRANCH   2   3
ATOM      3  C   UNL     1       7.474  -7.269  -7.894  1.00  0.00     0.006 C 
BRANCH   3   4
ATOM      4  C   UNL     1       6.440  -6.810  -8.930  1.00  0.00     0.053 C 
BRANCH   4   5
ATOM      5  C   UNL     1       5.616  -7.954  -9.436  1.00  0.00     0.041 C 
ATOM      6  O   UNL     1       6.002  -9.140  -9.259  1.00  0.00    -0.550 OA
ATOM      7  O   UNL     1       4.403  -7.712 -10.068  1.00  0.00    -0.550 OA
ENDBRANCH   4   5
ENDBRANCH   3   4
ENDBRANCH   2   3
ENDBRANCH   1   2
BRANCH   1   8
ATOM      8  C   UNL     1       6.929  -9.327  -5.779  1.00  0.00     0.000 C 
BRANCH   8   9
ATOM      9  C   UNL     1       7.066 -10.065  -4.431  1.00  0.00     0.000 C 
BRANCH   9  10
ATOM     10  C   UNL     1       6.846  -9.186  -3.186  1.00  0.00     0.006 C 
BRANCH  10  11
ATOM     11  C   UNL     1       8.141  -8.920  -2.409  1.00  0.00     0.053 C 
BRANCH  11  12
ATOM     12  C   UNL     1       8.875  -7.758  -3.001  1.00  0.00     0.041 C 
ATOM     13  O   UNL     1      10.035  -7.912  -3.465  1.00  0.00    -0.550 OA
ATOM     14  O   UNL     1       8.260  -6.516  -3.086  1.00  0.00    -0.550 OA
ENDBRANCH  11  12
ENDBRANCH  10  11
ENDBRANCH   9  10
ENDBRANCH   8   9
ENDBRANCH   1   8
TORSDOF 9
ENDMDL
