MODEL 1
REMARK VINA RESULT:    -4.542      0.000      0.000
REMARK INTER + INTRA:         -10.211
REMARK INTER:                  -8.259
REMARK INTRA:                  -1.952
REMARK UNBOUND:                -1.952
REMARK SMILES CCCCCCCCCCCCCCCC(=O)[O-]
REMARK SMILES IDX 9 1 10 2 11 3 12 4 13 5 14 6 15 7 16 8 17 9 18 10 8 11 7 12
REMARK SMILES IDX 6 13 5 14 4 15 3 16 2 17 1 18
REMARK H PARENT
REMARK Flexibility Score: inf
ROOT
ATOM      1  C   UNL     1      85.625 125.598 128.654  1.00  0.00     0.000 C 
ENDROOT
BRANCH   1   2
ATOM      2  C   UNL     1      86.720 124.822 129.406  1.00  0.00     0.000 C 
BRANCH   2   3
ATOM      3  C   UNL     1      86.486 124.795 130.926  1.00  0.00     0.000 C 
BRANCH   3   4
ATOM      4  C   UNL     1      87.261 123.665 131.622  1.00  0.00     0.000 C 
BRANCH   4   5
ATOM      5  C   UNL     1      88.247 122.999 130.650  1.00  0.00     0.000 C 
BRANCH   5   6
ATOM      6  C   UNL     1      88.512 121.521 130.989  1.00  0.00     0.006 C 
BRANCH   6   7
ATOM      7  C   UNL     1      87.245 120.701 131.283  1.00  0.00     0.053 C 
BRANCH   7   8
ATOM      8  C   UNL     1      86.839 119.859 130.114  1.00  0.00     0.041 C 
ATOM      9  O   UNL     1      87.613 119.724 129.130  1.00  0.00    -0.550 OA
ATOM     10  O   UNL     1      85.618 119.196 130.125  1.00  0.00    -0.550 OA
ENDBRANCH   7   8
ENDBRANCH   6   7
ENDBRANCH   5   6
ENDBRANCH   4   5
ENDBRANCH   3   4
ENDBRANCH   2   3
ENDBRANCH   1   2
BRANCH   1  11
ATOM     11  C   UNL     1      84.255 125.514 129.346  1.00  0.00     0.000 C 
BRANCH  11  12
ATOM     12  C   UNL     1      83.367 124.404 128.758  1.00  0.00    -0.000 C 
BRANCH  12  13
ATOM     13  C   UNL     1      83.622 123.030 129.405  1.00  0.00    -0.000 C 
BRANCH  13  14
ATOM     14  C   UNL     1      83.824 121.867 128.411  1.00  0.00    -0.000 C 
BRANCH  14  15
ATOM     15  C   UNL     1      85.050 121.998 127.486  1.00  0.00    -0.000 C 
BRANCH  15  16
ATOM     16  C   UNL     1      84.824 121.527 126.038  1.00  0.00    -0.000 C 
BRANCH  16  17
ATOM     17  C   UNL     1      85.078 122.636 125.007  1.00  0.00    -0.003 C 
ATOM     18  C   UNL     1      84.089 123.786 125.183  1.00  0.00     0.004 C 
ENDBRANCH  16  17
ENDBRANCH  15  16
ENDBRANCH  14  15
ENDBRANCH  13  14
ENDBRANCH  12  13
ENDBRANCH  11  12
ENDBRANCH   1  11
TORSDOF 14
ENDMDL
MODEL 2
REMARK VINA RESULT:    -4.492      1.229      1.961
REMARK INTER + INTRA:         -10.121
REMARK INTER:                  -8.495
REMARK INTRA:                  -1.626
REMARK UNBOUND:                -1.952
REMARK SMILES CCCCCCCCCCCCCCCC(=O)[O-]
REMARK SMILES IDX 9 1 10 2 11 3 12 4 13 5 14 6 15 7 16 8 17 9 18 10 8 11 7 12
REMARK SMILES IDX 6 13 5 14 4 15 3 16 2 17 1 18
REMARK H PARENT
REMARK Flexibility Score: inf
ROOT
ATOM      1  C   UNL     1      84.435 125.513 129.718  1.00  0.00     0.000 C 
ENDROOT
BRANCH   1   2
ATOM      2  C   UNL     1      85.299 126.060 128.568  1.00  0.00     0.000 C 
BRANCH   2   3
ATOM      3  C   UNL     1      86.654 125.342 128.453  1.00  0.00     0.000 C 
BRANCH   3   4
ATOM      4  C   UNL     1      86.666 123.986 129.176  1.00  0.00     0.000 C 
BRANCH   4   5
ATOM      5  C   UNL     1      87.745 123.959 130.269  1.00  0.00     0.000 C 
BRANCH   5   6
ATOM      6  C   UNL     1      87.369 123.055 131.457  1.00  0.00     0.006 C 
BRANCH   6   7
ATOM      7  C   UNL     1      88.142 121.727 131.511  1.00  0.00     0.053 C 
BRANCH   7   8
ATOM      8  C   UNL     1      87.554 120.700 130.594  1.00  0.00     0.041 C 
ATOM      9  O   UNL     1      88.127 120.414 129.510  1.00  0.00    -0.550 OA
ATOM     10  O   UNL     1      86.388 120.034 130.952  1.00  0.00    -0.550 OA
ENDBRANCH   7   8
ENDBRANCH   6   7
ENDBRANCH   5   6
ENDBRANCH   4   5
ENDBRANCH   3   4
ENDBRANCH   2   3
ENDBRANCH   1   2
BRANCH   1  11
ATOM     11  C   UNL     1      83.082 124.966 129.236  1.00  0.00     0.000 C 
BRANCH  11  12
ATOM     12  C   UNL     1      83.033 123.428 129.246  1.00  0.00    -0.000 C 
BRANCH  12  13
ATOM     13  C   UNL     1      83.397 122.810 127.883  1.00  0.00    -0.000 C 
BRANCH  13  14
ATOM     14  C   UNL     1      82.983 123.646 126.655  1.00  0.00    -0.000 C 
BRANCH  14  15
ATOM     15  C   UNL     1      84.138 124.059 125.721  1.00  0.00    -0.000 C 
BRANCH  15  16
ATOM     16  C   UNL     1      84.529 123.007 124.668  1.00  0.00    -0.000 C 
BRANCH  16  17
ATOM     17  C   UNL     1      83.417 121.979 124.413  1.00  0.00    -0.003 C 
ATOM     18  C   UNL     1      83.139 121.830 122.920  1.00  0.00     0.004 C 
ENDBRANCH  16  17
ENDBRANCH  15  16
ENDBRANCH  14  15
ENDBRANCH  13  14
ENDBRANCH  12  13
ENDBRANCH  11  12
ENDBRANCH   1  11
TORSDOF 14
ENDMDL
MODEL 3
REMARK VINA RESULT:    -4.463      2.462      5.513
REMARK INTER + INTRA:         -10.068
REMARK INTER:                  -7.876
REMARK INTRA:                  -2.192
REMARK UNBOUND:                -1.952
REMARK SMILES CCCCCCCCCCCCCCCC(=O)[O-]
REMARK SMILES IDX 9 1 10 2 11 3 12 4 13 5 14 6 15 7 16 8 17 9 18 10 8 11 7 12
REMARK SMILES IDX 6 13 5 14 4 15 3 16 2 17 1 18
REMARK H PARENT
REMARK Flexibility Score: inf
ROOT
ATOM      1  C   UNL     1      86.378 124.877 130.829  1.00  0.00     0.000 C 
ENDROOT
BRANCH   1   2
ATOM      2  C   UNL     1      84.894 125.281 130.792  1.00  0.00     0.000 C 
BRANCH   2   3
ATOM      3  C   UNL     1      84.317 125.280 129.367  1.00  0.00     0.000 C 
BRANCH   3   4
ATOM      4  C   UNL     1      83.107 124.344 129.221  1.00  0.00     0.000 C 
BRANCH   4   5
ATOM      5  C   UNL     1      82.733 124.161 127.742  1.00  0.00     0.000 C 
BRANCH   5   6
ATOM      6  C   UNL     1      83.861 123.519 126.915  1.00  0.00     0.006 C 
BRANCH   6   7
ATOM      7  C   UNL     1      83.888 123.950 125.440  1.00  0.00     0.053 C 
BRANCH   7   8
ATOM      8  C   UNL     1      84.357 122.847 124.542  1.00  0.00     0.041 C 
ATOM      9  O   UNL     1      83.560 122.309 123.730  1.00  0.00    -0.550 OA
ATOM     10  O   UNL     1      85.683 122.435 124.581  1.00  0.00    -0.550 OA
ENDBRANCH   7   8
ENDBRANCH   6   7
ENDBRANCH   5   6
ENDBRANCH   4   5
ENDBRANCH   3   4
ENDBRANCH   2   3
ENDBRANCH   1   2
BRANCH   1  11
ATOM     11  C   UNL     1      86.923 124.489 129.446  1.00  0.00     0.000 C 
BRANCH  11  12
ATOM     12  C   UNL     1      87.844 123.257 129.500  1.00  0.00    -0.000 C 
BRANCH  12  13
ATOM     13  C   UNL     1      88.425 123.009 130.904  1.00  0.00    -0.000 C 
BRANCH  13  14
ATOM     14  C   UNL     1      88.530 121.526 131.317  1.00  0.00    -0.000 C 
BRANCH  14  15
ATOM     15  C   UNL     1      87.186 120.781 131.436  1.00  0.00    -0.000 C 
BRANCH  15  16
ATOM     16  C   UNL     1      86.149 121.455 132.353  1.00  0.00    -0.000 C 
BRANCH  16  17
ATOM     17  C   UNL     1      84.805 121.700 131.651  1.00  0.00    -0.003 C 
ATOM     18  C   UNL     1      84.846 121.217 130.203  1.00  0.00     0.004 C 
ENDBRANCH  16  17
ENDBRANCH  15  16
ENDBRANCH  14  15
ENDBRANCH  13  14
ENDBRANCH  12  13
ENDBRANCH  11  12
ENDBRANCH   1  11
TORSDOF 14
ENDMDL
MODEL 4
REMARK VINA RESULT:    -4.423      1.435      3.253
REMARK INTER + INTRA:          -9.995
REMARK INTER:                  -7.915
REMARK INTRA:                  -2.080
REMARK UNBOUND:                -1.952
REMARK SMILES CCCCCCCCCCCCCCCC(=O)[O-]
REMARK SMILES IDX 9 1 10 2 11 3 12 4 13 5 14 6 15 7 16 8 17 9 18 10 8 11 7 12
REMARK SMILES IDX 6 13 5 14 4 15 3 16 2 17 1 18
REMARK H PARENT
REMARK Flexibility Score: inf
ROOT
ATOM      1  C   UNL     1      83.930 124.219 127.123  1.00  0.00     0.000 C 
ENDROOT
BRANCH   1   2
ATOM      2  C   UNL     1      85.397 124.466 127.515  1.00  0.00     0.000 C 
BRANCH   2   3
ATOM      3  C   UNL     1      85.533 125.334 128.777  1.00  0.00     0.000 C 
BRANCH   3   4
ATOM      4  C   UNL     1      86.730 124.924 129.649  1.00  0.00     0.000 C 
BRANCH   4   5
ATOM      5  C   UNL     1      86.310 124.775 131.119  1.00  0.00     0.000 C 
BRANCH   5   6
ATOM      6  C   UNL     1      87.063 123.644 131.843  1.00  0.00     0.006 C 
BRANCH   6   7
ATOM      7  C   UNL     1      88.326 123.157 131.114  1.00  0.00     0.053 C 
BRANCH   7   8
ATOM      8  C   UNL     1      88.289 121.684 130.853  1.00  0.00     0.041 C 
ATOM      9  O   UNL     1      88.978 121.186 129.925  1.00  0.00    -0.550 OA
ATOM     10  O   UNL     1      87.516 120.854 131.656  1.00  0.00    -0.550 OA
ENDBRANCH   7   8
ENDBRANCH   6   7
ENDBRANCH   5   6
ENDBRANCH   4   5
ENDBRANCH   3   4
ENDBRANCH   2   3
ENDBRANCH   1   2
BRANCH   1  11
ATOM     11  C   UNL     1      83.718 124.190 125.601  1.00  0.00     0.000 C 
BRANCH  11  12
ATOM     12  C   UNL     1      84.591 123.130 124.906  1.00  0.00    -0.000 C 
BRANCH  12  13
ATOM     13  C   UNL     1      83.785 121.900 124.450  1.00  0.00    -0.000 C 
BRANCH  13  14
ATOM     14  C   UNL     1      83.471 120.875 125.560  1.00  0.00    -0.000 C 
BRANCH  14  15
ATOM     15  C   UNL     1      84.606 120.639 126.575  1.00  0.00    -0.000 C 
BRANCH  15  16
ATOM     16  C   UNL     1      84.148 120.490 128.038  1.00  0.00    -0.000 C 
BRANCH  16  17
ATOM     17  C   UNL     1      85.088 121.191 129.029  1.00  0.00    -0.003 C 
ATOM     18  C   UNL     1      84.313 121.754 130.217  1.00  0.00     0.004 C 
ENDBRANCH  16  17
ENDBRANCH  15  16
ENDBRANCH  14  15
ENDBRANCH  13  14
ENDBRANCH  12  13
ENDBRANCH  11  12
ENDBRANCH   1  11
TORSDOF 14
ENDMDL
MODEL 5
REMARK VINA RESULT:    -4.384      1.227      2.463
REMARK INTER + INTRA:          -9.925
REMARK INTER:                  -7.639
REMARK INTRA:                  -2.285
REMARK UNBOUND:                -1.952
REMARK SMILES CCCCCCCCCCCCCCCC(=O)[O-]
REMARK SMILES IDX 9 1 10 2 11 3 12 4 13 5 14 6 15 7 16 8 17 9 18 10 8 11 7 12
REMARK SMILES IDX 6 13 5 14 4 15 3 16 2 17 1 18
REMARK H PARENT
REMARK Flexibility Score: inf
ROOT
ATOM      1  C   UNL     1      82.809 124.138 128.300  1.00  0.00     0.000 C 
ENDROOT
BRANCH   1   2
ATOM      2  C   UNL     1      84.004 124.847 128.960  1.00  0.00     0.000 C 
BRANCH   2   3
ATOM      3  C   UNL     1      85.132 125.156 127.962  1.00  0.00     0.000 C 
BRANCH   3   4
ATOM      4  C   UNL     1      86.486 125.384 128.653  1.00  0.00     0.000 C 
BRANCH   4   5
ATOM      5  C   UNL     1      86.492 124.769 130.060  1.00  0.00     0.000 C 
BRANCH   5   6
ATOM      6  C   UNL     1      87.679 123.815 130.290  1.00  0.00     0.006 C 
BRANCH   6   7
ATOM      7  C   UNL     1      87.284 122.436 130.843  1.00  0.00     0.053 C 
BRANCH   7   8
ATOM      8  C   UNL     1      88.306 121.390 130.521  1.00  0.00     0.041 C 
ATOM      9  O   UNL     1      89.404 121.366 131.135  1.00  0.00    -0.550 OA
ATOM     10  O   UNL     1      88.031 120.422 129.563  1.00  0.00    -0.550 OA
ENDBRANCH   7   8
ENDBRANCH   6   7
ENDBRANCH   5   6
ENDBRANCH   4   5
ENDBRANCH   3   4
ENDBRANCH   2   3
ENDBRANCH   1   2
BRANCH   1  11
ATOM     11  C   UNL     1      82.511 122.767 128.927  1.00  0.00     0.000 C 
BRANCH  11  12
ATOM     12  C   UNL     1      83.690 122.231 129.758  1.00  0.00    -0.000 C 
BRANCH  12  13
ATOM     13  C   UNL     1      84.428 121.070 129.066  1.00  0.00    -0.000 C 
BRANCH  13  14
ATOM     14  C   UNL     1      85.053 121.415 127.698  1.00  0.00    -0.000 C 
BRANCH  14  15
ATOM     15  C   UNL     1      84.503 120.613 126.503  1.00  0.00    -0.000 C 
BRANCH  15  16
ATOM     16  C   UNL     1      83.519 121.381 125.603  1.00  0.00    -0.000 C 
BRANCH  16  17
ATOM     17  C   UNL     1      84.225 122.172 124.491  1.00  0.00    -0.003 C 
ATOM     18  C   UNL     1      84.230 123.667 124.800  1.00  0.00     0.004 C 
ENDBRANCH  16  17
ENDBRANCH  15  16
ENDBRANCH  14  15
ENDBRANCH  13  14
ENDBRANCH  12  13
ENDBRANCH  11  12
ENDBRANCH   1  11
TORSDOF 14
ENDMDL
MODEL 6
REMARK VINA RESULT:    -4.298      2.416      4.972
REMARK INTER + INTRA:          -9.767
REMARK INTER:                  -7.691
REMARK INTRA:                  -2.076
REMARK UNBOUND:                -1.952
REMARK SMILES CCCCCCCCCCCCCCCC(=O)[O-]
REMARK SMILES IDX 9 1 10 2 11 3 12 4 13 5 14 6 15 7 16 8 17 9 18 10 8 11 7 12
REMARK SMILES IDX 6 13 5 14 4 15 3 16 2 17 1 18
REMARK H PARENT
REMARK Flexibility Score: inf
ROOT
ATOM      1  C   UNL     1      86.241 124.621 130.477  1.00  0.00     0.000 C 
ENDROOT
BRANCH   1   2
ATOM      2  C   UNL     1      87.062 124.651 129.176  1.00  0.00     0.000 C 
BRANCH   2   3
ATOM      3  C   UNL     1      86.246 124.202 127.952  1.00  0.00     0.000 C 
BRANCH   3   4
ATOM      4  C   UNL     1      84.948 125.006 127.782  1.00  0.00     0.000 C 
BRANCH   4   5
ATOM      5  C   UNL     1      83.719 124.096 127.923  1.00  0.00     0.000 C 
BRANCH   5   6
ATOM      6  C   UNL     1      83.105 123.707 126.565  1.00  0.00     0.006 C 
BRANCH   6   7
ATOM      7  C   UNL     1      83.975 124.070 125.350  1.00  0.00     0.053 C 
BRANCH   7   8
ATOM      8  C   UNL     1      84.406 122.857 124.587  1.00  0.00     0.041 C 
ATOM      9  O   UNL     1      85.602 122.465 124.641  1.00  0.00    -0.550 OA
ATOM     10  O   UNL     1      83.480 122.139 123.840  1.00  0.00    -0.550 OA
ENDBRANCH   7   8
ENDBRANCH   6   7
ENDBRANCH   5   6
ENDBRANCH   4   5
ENDBRANCH   3   4
ENDBRANCH   2   3
ENDBRANCH   1   2
BRANCH   1  11
ATOM     11  C   UNL     1      87.080 124.215 131.700  1.00  0.00     0.000 C 
BRANCH  11  12
ATOM     12  C   UNL     1      87.053 122.698 131.954  1.00  0.00    -0.000 C 
BRANCH  12  13
ATOM     13  C   UNL     1      88.192 121.952 131.236  1.00  0.00    -0.000 C 
BRANCH  13  14
ATOM     14  C   UNL     1      87.746 121.029 130.084  1.00  0.00    -0.000 C 
BRANCH  14  15
ATOM     15  C   UNL     1      86.358 120.382 130.260  1.00  0.00    -0.000 C 
BRANCH  15  16
ATOM     16  C   UNL     1      85.245 120.983 129.383  1.00  0.00    -0.000 C 
BRANCH  16  17
ATOM     17  C   UNL     1      85.495 120.776 127.882  1.00  0.00    -0.003 C 
ATOM     18  C   UNL     1      84.275 120.161 127.201  1.00  0.00     0.004 C 
ENDBRANCH  16  17
ENDBRANCH  15  16
ENDBRANCH  14  15
ENDBRANCH  13  14
ENDBRANCH  12  13
ENDBRANCH  11  12
ENDBRANCH   1  11
TORSDOF 14
ENDMDL
MODEL 7
REMARK VINA RESULT:    -4.284      2.165      3.797
REMARK INTER + INTRA:          -9.742
REMARK INTER:                  -7.851
REMARK INTRA:                  -1.891
REMARK UNBOUND:                -1.952
REMARK SMILES CCCCCCCCCCCCCCCC(=O)[O-]
REMARK SMILES IDX 9 1 10 2 11 3 12 4 13 5 14 6 15 7 16 8 17 9 18 10 8 11 7 12
REMARK SMILES IDX 6 13 5 14 4 15 3 16 2 17 1 18
REMARK H PARENT
REMARK Flexibility Score: inf
ROOT
ATOM      1  C   UNL     1      87.017 120.346 129.285  1.00  0.00     0.000 C 
ENDROOT
BRANCH   1   2
ATOM      2  C   UNL     1      87.338 121.002 130.639  1.00  0.00     0.000 C 
BRANCH   2   3
ATOM      3  C   UNL     1      88.642 121.815 130.607  1.00  0.00     0.000 C 
BRANCH   3   4
ATOM      4  C   UNL     1      88.511 123.170 131.321  1.00  0.00     0.000 C 
BRANCH   4   5
ATOM      5  C   UNL     1      87.053 123.436 131.724  1.00  0.00     0.000 C 
BRANCH   5   6
ATOM      6  C   UNL     1      86.537 124.802 131.234  1.00  0.00     0.006 C 
BRANCH   6   7
ATOM      7  C   UNL     1      85.725 124.740 129.930  1.00  0.00     0.053 C 
BRANCH   7   8
ATOM      8  C   UNL     1      86.571 125.035 128.730  1.00  0.00     0.041 C 
ATOM      9  O   UNL     1      87.335 124.152 128.260  1.00  0.00    -0.550 OA
ATOM     10  O   UNL     1      86.491 126.276 128.110  1.00  0.00    -0.550 OA
ENDBRANCH   7   8
ENDBRANCH   6   7
ENDBRANCH   5   6
ENDBRANCH   4   5
ENDBRANCH   3   4
ENDBRANCH   2   3
ENDBRANCH   1   2
BRANCH   1  11
ATOM     11  C   UNL     1      85.796 120.974 128.595  1.00  0.00     0.000 C 
BRANCH  11  12
ATOM     12  C   UNL     1      84.645 121.256 129.576  1.00  0.00    -0.000 C 
BRANCH  12  13
ATOM     13  C   UNL     1      83.511 122.082 128.944  1.00  0.00    -0.000 C 
BRANCH  13  14
ATOM     14  C   UNL     1      83.640 122.315 127.424  1.00  0.00    -0.000 C 
BRANCH  14  15
ATOM     15  C   UNL     1      83.727 123.792 126.991  1.00  0.00    -0.000 C 
BRANCH  15  16
ATOM     16  C   UNL     1      84.021 124.014 125.496  1.00  0.00    -0.000 C 
BRANCH  16  17
ATOM     17  C   UNL     1      84.609 122.769 124.816  1.00  0.00    -0.003 C 
ATOM     18  C   UNL     1      83.655 122.219 123.759  1.00  0.00     0.004 C 
ENDBRANCH  16  17
ENDBRANCH  15  16
ENDBRANCH  14  15
ENDBRANCH  13  14
ENDBRANCH  12  13
ENDBRANCH  11  12
ENDBRANCH   1  11
TORSDOF 14
ENDMDL
MODEL 8
REMARK VINA RESULT:    -4.274      1.689      4.017
REMARK INTER + INTRA:          -9.725
REMARK INTER:                  -7.528
REMARK INTRA:                  -2.197
REMARK UNBOUND:                -1.952
REMARK SMILES CCCCCCCCCCCCCCCC(=O)[O-]
REMARK SMILES IDX 9 1 10 2 11 3 12 4 13 5 14 6 15 7 16 8 17 9 18 10 8 11 7 12
REMARK SMILES IDX 6 13 5 14 4 15 3 16 2 17 1 18
REMARK H PARENT
REMARK Flexibility Score: inf
ROOT
ATOM      1  C   UNL     1      84.879 122.833 125.700  1.00  0.00     0.000 C 
ENDROOT
BRANCH   1   2
ATOM      2  C   UNL     1      84.043 121.549 125.559  1.00  0.00     0.000 C 
BRANCH   2   3
ATOM      3  C   UNL     1      84.422 120.481 126.598  1.00  0.00     0.000 C 
BRANCH   3   4
ATOM      4  C   UNL     1      85.329 121.034 127.708  1.00  0.00     0.000 C 
BRANCH   4   5
ATOM      5  C   UNL     1      85.659 119.943 128.738  1.00  0.00     0.000 C 
BRANCH   5   6
ATOM      6  C   UNL     1      87.072 120.089 129.332  1.00  0.00     0.006 C 
BRANCH   6   7
ATOM      7  C   UNL     1      87.100 120.314 130.852  1.00  0.00     0.053 C 
BRANCH   7   8
ATOM      8  C   UNL     1      88.022 121.429 131.237  1.00  0.00     0.041 C 
ATOM      9  O   UNL     1      87.563 122.483 131.751  1.00  0.00    -0.550 OA
ATOM     10  O   UNL     1      89.393 121.292 131.056  1.00  0.00    -0.550 OA
ENDBRANCH   7   8
ENDBRANCH   6   7
ENDBRANCH   5   6
ENDBRANCH   4   5
ENDBRANCH   3   4
ENDBRANCH   2   3
ENDBRANCH   1   2
BRANCH   1  11
ATOM     11  C   UNL     1      84.011 124.097 125.814  1.00  0.00     0.000 C 
BRANCH  11  12
ATOM     12  C   UNL     1      82.662 123.824 126.502  1.00  0.00    -0.000 C 
BRANCH  12  13
ATOM     13  C   UNL     1      82.604 124.373 127.939  1.00  0.00    -0.000 C 
BRANCH  13  14
ATOM     14  C   UNL     1      83.256 123.474 129.010  1.00  0.00    -0.000 C 
BRANCH  14  15
ATOM     15  C   UNL     1      84.447 124.103 129.760  1.00  0.00    -0.000 C 
BRANCH  15  16
ATOM     16  C   UNL     1      84.808 125.533 129.321  1.00  0.00    -0.000 C 
BRANCH  16  17
ATOM     17  C   UNL     1      86.090 125.590 128.477  1.00  0.00    -0.003 C 
ATOM     18  C   UNL     1      86.900 124.305 128.623  1.00  0.00     0.004 C 
ENDBRANCH  16  17
ENDBRANCH  15  16
ENDBRANCH  14  15
ENDBRANCH  13  14
ENDBRANCH  12  13
ENDBRANCH  11  12
ENDBRANCH   1  11
TORSDOF 14
ENDMDL
MODEL 9
REMARK VINA RESULT:    -4.205      2.409      5.698
REMARK INTER + INTRA:          -9.598
REMARK INTER:                  -7.555
REMARK INTRA:                  -2.043
REMARK UNBOUND:                -1.952
REMARK SMILES CCCCCCCCCCCCCCCC(=O)[O-]
REMARK SMILES IDX 9 1 10 2 11 3 12 4 13 5 14 6 15 7 16 8 17 9 18 10 8 11 7 12
REMARK SMILES IDX 6 13 5 14 4 15 3 16 2 17 1 18
REMARK H PARENT
REMARK Flexibility Score: inf
ROOT
ATOM      1  C   UNL     1      85.753 120.786 130.197  1.00  0.00     0.000 C 
ENDROOT
BRANCH   1   2
ATOM      2  C   UNL     1      86.157 120.779 128.712  1.00  0.00     0.000 C 
BRANCH   2   3
ATOM      3  C   UNL     1      85.087 121.410 127.806  1.00  0.00     0.000 C 
BRANCH   3   4
ATOM      4  C   UNL     1      83.869 121.916 128.594  1.00  0.00     0.000 C 
BRANCH   4   5
ATOM      5  C   UNL     1      83.137 123.022 127.820  1.00  0.00     0.000 C 
BRANCH   5   6
ATOM      6  C   UNL     1      83.956 123.563 126.634  1.00  0.00     0.006 C 
BRANCH   6   7
ATOM      7  C   UNL     1      83.282 123.380 125.264  1.00  0.00     0.053 C 
BRANCH   7   8
ATOM      8  C   UNL     1      84.125 122.569 124.329  1.00  0.00     0.041 C 
ATOM      9  O   UNL     1      83.593 121.954 123.368  1.00  0.00    -0.550 OA
ATOM     10  O   UNL     1      85.503 122.519 124.501  1.00  0.00    -0.550 OA
ENDBRANCH   7   8
ENDBRANCH   6   7
ENDBRANCH   5   6
ENDBRANCH   4   5
ENDBRANCH   3   4
ENDBRANCH   2   3
ENDBRANCH   1   2
BRANCH   1  11
ATOM     11  C   UNL     1      86.888 120.323 131.124  1.00  0.00     0.000 C 
BRANCH  11  12
ATOM     12  C   UNL     1      88.163 121.167 130.958  1.00  0.00    -0.000 C 
BRANCH  12  13
ATOM     13  C   UNL     1      88.077 122.526 131.678  1.00  0.00    -0.000 C 
BRANCH  13  14
ATOM     14  C   UNL     1      88.189 123.761 130.761  1.00  0.00    -0.000 C 
BRANCH  14  15
ATOM     15  C   UNL     1      86.847 124.388 130.336  1.00  0.00    -0.000 C 
BRANCH  15  16
ATOM     16  C   UNL     1      86.691 124.628 128.824  1.00  0.00    -0.000 C 
BRANCH  16  17
ATOM     17  C   UNL     1      85.936 125.926 128.502  1.00  0.00    -0.003 C 
ATOM     18  C   UNL     1      84.624 126.004 129.278  1.00  0.00     0.004 C 
ENDBRANCH  16  17
ENDBRANCH  15  16
ENDBRANCH  14  15
ENDBRANCH  13  14
ENDBRANCH  12  13
ENDBRANCH  11  12
ENDBRANCH   1  11
TORSDOF 14
ENDMDL
