MODEL 1
REMARK VINA RESULT:     5.054      0.000      0.000
REMARK INTER + INTRA:          10.534
REMARK INTER:                  11.553
REMARK INTRA:                  -1.019
REMARK UNBOUND:                -1.019
REMARK SMILES CCCCCCCCCCCCCCCCCCCCCCCC(=O)[O-]
REMARK SMILES IDX 13 1 14 2 15 3 16 4 17 5 18 6 19 7 20 8 21 9 22 10 23 11
REMARK SMILES IDX 24 12 25 13 26 14 12 15 11 16 10 17 9 18 8 19 7 20 6 21 5 22
REMARK SMILES IDX 4 23 3 24 2 25 1 26
REMARK H PARENT
REMARK Flexibility Score: inf
ROOT
ATOM      1  C   UNL     1      -4.840  38.796  21.587  1.00  0.00     0.000 C 
ENDROOT
BRANCH   1   2
ATOM      2  C   UNL     1      -5.648  38.796  20.272  1.00  0.00     0.000 C 
BRANCH   2   3
ATOM      3  C   UNL     1      -5.501  37.500  19.452  1.00  0.00     0.000 C 
BRANCH   3   4
ATOM      4  C   UNL     1      -5.712  36.203  20.250  1.00  0.00     0.000 C 
BRANCH   4   5
ATOM      5  C   UNL     1      -4.432  35.364  20.373  1.00  0.00     0.000 C 
BRANCH   5   6
ATOM      6  C   UNL     1      -4.557  34.051  19.584  1.00  0.00     0.000 C 
BRANCH   6   7
ATOM      7  C   UNL     1      -4.994  34.271  18.127  1.00  0.00     0.000 C 
BRANCH   7   8
ATOM      8  C   UNL     1      -3.805  34.518  17.182  1.00  0.00     0.000 C 
BRANCH   8   9
ATOM      9  C   UNL     1      -3.981  35.790  16.336  1.00  0.00     0.000 C 
BRANCH   9  10
ATOM     10  C   UNL     1      -2.738  36.112  15.486  1.00  0.00     0.006 C 
BRANCH  10  11
ATOM     11  C   UNL     1      -3.107  36.535  14.058  1.00  0.00     0.053 C 
BRANCH  11  12
ATOM     12  C   UNL     1      -4.275  37.473  14.036  1.00  0.00     0.041 C 
ATOM     13  O   UNL     1      -5.443  37.028  13.875  1.00  0.00    -0.550 OA
ATOM     14  O   UNL     1      -4.078  38.834  14.233  1.00  0.00    -0.550 OA
ENDBRANCH  11  12
ENDBRANCH  10  11
ENDBRANCH   9  10
ENDBRANCH   8   9
ENDBRANCH   7   8
ENDBRANCH   6   7
ENDBRANCH   5   6
ENDBRANCH   4   5
ENDBRANCH   3   4
ENDBRANCH   2   3
ENDBRANCH   1   2
BRANCH   1  15
ATOM     15  C   UNL     1      -5.593  39.488  22.738  1.00  0.00     0.000 C 
BRANCH  15  16
ATOM     16  C   UNL     1      -6.093  38.487  23.801  1.00  0.00     0.000 C 
BRANCH  16  17
ATOM     17  C   UNL     1      -5.972  37.013  23.369  1.00  0.00     0.000 C 
BRANCH  17  18
ATOM     18  C   UNL     1      -5.877  36.005  24.530  1.00  0.00    -0.000 C 
BRANCH  18  19
ATOM     19  C   UNL     1      -5.999  36.617  25.941  1.00  0.00    -0.000 C 
BRANCH  19  20
ATOM     20  C   UNL     1      -4.854  37.566  26.339  1.00  0.00    -0.000 C 
BRANCH  20  21
ATOM     21  C   UNL     1      -3.464  36.997  26.005  1.00  0.00    -0.000 C 
BRANCH  21  22
ATOM     22  C   UNL     1      -2.340  37.682  26.799  1.00  0.00    -0.000 C 
BRANCH  22  23
ATOM     23  C   UNL     1      -1.961  36.903  28.072  1.00  0.00    -0.000 C 
BRANCH  23  24
ATOM     24  C   UNL     1      -2.115  35.384  27.901  1.00  0.00    -0.000 C 
BRANCH  24  25
ATOM     25  C   UNL     1      -1.792  34.610  29.188  1.00  0.00    -0.003 C 
ATOM     26  C   UNL     1      -0.345  34.125  29.189  1.00  0.00     0.004 C 
ENDBRANCH  24  25
ENDBRANCH  23  24
ENDBRANCH  22  23
ENDBRANCH  21  22
ENDBRANCH  20  21
ENDBRANCH  19  20
ENDBRANCH  18  19
ENDBRANCH  17  18
ENDBRANCH  16  17
ENDBRANCH  15  16
ENDBRANCH   1  15
TORSDOF 22
ENDMDL
MODEL 2
REMARK VINA RESULT:     5.209      4.841     11.270
REMARK INTER + INTRA:          10.888
REMARK INTER:                  12.051
REMARK INTRA:                  -1.162
REMARK UNBOUND:                -1.019
REMARK SMILES CCCCCCCCCCCCCCCCCCCCCCCC(=O)[O-]
REMARK SMILES IDX 13 1 14 2 15 3 16 4 17 5 18 6 19 7 20 8 21 9 22 10 23 11
REMARK SMILES IDX 24 12 25 13 26 14 12 15 11 16 10 17 9 18 8 19 7 20 6 21 5 22
REMARK SMILES IDX 4 23 3 24 2 25 1 26
REMARK H PARENT
REMARK Flexibility Score: inf
ROOT
ATOM      1  C   UNL     1      -4.558  34.849  21.820  1.00  0.00     0.000 C 
ENDROOT
BRANCH   1   2
ATOM      2  C   UNL     1      -5.938  34.435  22.374  1.00  0.00     0.000 C 
BRANCH   2   3
ATOM      3  C   UNL     1      -6.113  34.717  23.879  1.00  0.00     0.000 C 
BRANCH   3   4
ATOM      4  C   UNL     1      -6.121  36.206  24.260  1.00  0.00     0.000 C 
BRANCH   4   5
ATOM      5  C   UNL     1      -5.990  36.434  25.774  1.00  0.00     0.000 C 
BRANCH   5   6
ATOM      6  C   UNL     1      -4.520  36.628  26.175  1.00  0.00     0.000 C 
BRANCH   6   7
ATOM      7  C   UNL     1      -4.185  38.088  26.522  1.00  0.00     0.000 C 
BRANCH   7   8
ATOM      8  C   UNL     1      -2.675  38.323  26.701  1.00  0.00     0.000 C 
BRANCH   8   9
ATOM      9  C   UNL     1      -1.881  37.008  26.790  1.00  0.00     0.000 C 
BRANCH   9  10
ATOM     10  C   UNL     1      -1.739  36.500  28.236  1.00  0.00     0.006 C 
BRANCH  10  11
ATOM     11  C   UNL     1      -2.265  35.068  28.400  1.00  0.00     0.053 C 
BRANCH  11  12
ATOM     12  C   UNL     1      -1.451  34.282  29.381  1.00  0.00     0.041 C 
ATOM     13  O   UNL     1      -0.265  33.957  29.105  1.00  0.00    -0.550 OA
ATOM     14  O   UNL     1      -1.987  33.941  30.616  1.00  0.00    -0.550 OA
ENDBRANCH  11  12
ENDBRANCH  10  11
ENDBRANCH   9  10
ENDBRANCH   8   9
ENDBRANCH   7   8
ENDBRANCH   6   7
ENDBRANCH   5   6
ENDBRANCH   4   5
ENDBRANCH   3   4
ENDBRANCH   2   3
ENDBRANCH   1   2
BRANCH   1  15
ATOM     15  C   UNL     1      -4.668  35.639  20.503  1.00  0.00     0.000 C 
BRANCH  15  16
ATOM     16  C   UNL     1      -5.744  35.063  19.558  1.00  0.00     0.000 C 
BRANCH  16  17
ATOM     17  C   UNL     1      -5.175  34.141  18.463  1.00  0.00     0.000 C 
BRANCH  17  18
ATOM     18  C   UNL     1      -3.859  34.627  17.828  1.00  0.00    -0.000 C 
BRANCH  18  19
ATOM     19  C   UNL     1      -4.024  35.552  16.604  1.00  0.00    -0.000 C 
BRANCH  19  20
ATOM     20  C   UNL     1      -2.757  35.729  15.747  1.00  0.00    -0.000 C 
BRANCH  20  21
ATOM     21  C   UNL     1      -2.886  36.868  14.720  1.00  0.00    -0.000 C 
BRANCH  21  22
ATOM     22  C   UNL     1      -4.165  36.759  13.875  1.00  0.00    -0.000 C 
BRANCH  22  23
ATOM     23  C   UNL     1      -5.148  37.913  14.145  1.00  0.00    -0.000 C 
BRANCH  23  24
ATOM     24  C   UNL     1      -4.510  39.294  13.924  1.00  0.00    -0.000 C 
BRANCH  24  25
ATOM     25  C   UNL     1      -5.521  40.440  14.070  1.00  0.00    -0.003 C 
ATOM     26  C   UNL     1      -4.824  41.741  14.459  1.00  0.00     0.004 C 
ENDBRANCH  24  25
ENDBRANCH  23  24
ENDBRANCH  22  23
ENDBRANCH  21  22
ENDBRANCH  20  21
ENDBRANCH  19  20
ENDBRANCH  18  19
ENDBRANCH  17  18
ENDBRANCH  16  17
ENDBRANCH  15  16
ENDBRANCH   1  15
TORSDOF 22
ENDMDL
MODEL 3
REMARK VINA RESULT:     5.276      2.291      4.740
REMARK INTER + INTRA:          11.042
REMARK INTER:                  11.677
REMARK INTRA:                  -0.635
REMARK UNBOUND:                -1.019
REMARK SMILES CCCCCCCCCCCCCCCCCCCCCCCC(=O)[O-]
REMARK SMILES IDX 13 1 14 2 15 3 16 4 17 5 18 6 19 7 20 8 21 9 22 10 23 11
REMARK SMILES IDX 24 12 25 13 26 14 12 15 11 16 10 17 9 18 8 19 7 20 6 21 5 22
REMARK SMILES IDX 4 23 3 24 2 25 1 26
REMARK H PARENT
REMARK Flexibility Score: inf
ROOT
ATOM      1  C   UNL     1      -5.073  35.392  21.287  1.00  0.00     0.000 C 
ENDROOT
BRANCH   1   2
ATOM      2  C   UNL     1      -5.829  34.572  20.220  1.00  0.00     0.000 C 
BRANCH   2   3
ATOM      3  C   UNL     1      -4.910  33.916  19.172  1.00  0.00     0.000 C 
BRANCH   3   4
ATOM      4  C   UNL     1      -5.247  34.257  17.712  1.00  0.00     0.000 C 
BRANCH   4   5
ATOM      5  C   UNL     1      -4.387  35.401  17.154  1.00  0.00     0.000 C 
BRANCH   5   6
ATOM      6  C   UNL     1      -3.370  34.875  16.129  1.00  0.00     0.000 C 
BRANCH   6   7
ATOM      7  C   UNL     1      -2.556  35.997  15.466  1.00  0.00     0.000 C 
BRANCH   7   8
ATOM      8  C   UNL     1      -3.387  37.270  15.228  1.00  0.00     0.000 C 
BRANCH   8   9
ATOM      9  C   UNL     1      -4.496  37.062  14.183  1.00  0.00     0.000 C 
BRANCH   9  10
ATOM     10  C   UNL     1      -5.271  38.356  13.877  1.00  0.00     0.006 C 
BRANCH  10  11
ATOM     11  C   UNL     1      -4.387  39.604  13.999  1.00  0.00     0.053 C 
BRANCH  11  12
ATOM     12  C   UNL     1      -5.132  40.763  14.586  1.00  0.00     0.041 C 
ATOM     13  O   UNL     1      -5.708  40.647  15.701  1.00  0.00    -0.550 OA
ATOM     14  O   UNL     1      -5.159  41.982  13.921  1.00  0.00    -0.550 OA
ENDBRANCH  11  12
ENDBRANCH  10  11
ENDBRANCH   9  10
ENDBRANCH   8   9
ENDBRANCH   7   8
ENDBRANCH   6   7
ENDBRANCH   5   6
ENDBRANCH   4   5
ENDBRANCH   3   4
ENDBRANCH   2   3
ENDBRANCH   1   2
BRANCH   1  15
ATOM     15  C   UNL     1      -4.150  34.517  22.154  1.00  0.00     0.000 C 
BRANCH  15  16
ATOM     16  C   UNL     1      -4.809  34.109  23.489  1.00  0.00     0.000 C 
BRANCH  16  17
ATOM     17  C   UNL     1      -6.124  34.856  23.784  1.00  0.00     0.000 C 
BRANCH  17  18
ATOM     18  C   UNL     1      -5.945  36.275  24.358  1.00  0.00    -0.000 C 
BRANCH  18  19
ATOM     19  C   UNL     1      -5.122  36.356  25.660  1.00  0.00    -0.000 C 
BRANCH  19  20
ATOM     20  C   UNL     1      -4.259  37.623  25.806  1.00  0.00    -0.000 C 
BRANCH  20  21
ATOM     21  C   UNL     1      -5.072  38.921  25.653  1.00  0.00    -0.000 C 
BRANCH  21  22
ATOM     22  C   UNL     1      -5.682  39.073  24.251  1.00  0.00    -0.000 C 
BRANCH  22  23
ATOM     23  C   UNL     1      -4.963  40.143  23.410  1.00  0.00    -0.000 C 
BRANCH  23  24
ATOM     24  C   UNL     1      -5.327  40.064  21.919  1.00  0.00    -0.000 C 
BRANCH  24  25
ATOM     25  C   UNL     1      -5.787  38.661  21.497  1.00  0.00    -0.003 C 
ATOM     26  C   UNL     1      -5.362  38.351  20.065  1.00  0.00     0.004 C 
ENDBRANCH  24  25
ENDBRANCH  23  24
ENDBRANCH  22  23
ENDBRANCH  21  22
ENDBRANCH  20  21
ENDBRANCH  19  20
ENDBRANCH  18  19
ENDBRANCH  17  18
ENDBRANCH  16  17
ENDBRANCH  15  16
ENDBRANCH   1  15
TORSDOF 22
ENDMDL
MODEL 4
REMARK VINA RESULT:     5.640      2.031      4.635
REMARK INTER + INTRA:          11.874
REMARK INTER:                  12.985
REMARK INTRA:                  -1.111
REMARK UNBOUND:                -1.019
REMARK SMILES CCCCCCCCCCCCCCCCCCCCCCCC(=O)[O-]
REMARK SMILES IDX 13 1 14 2 15 3 16 4 17 5 18 6 19 7 20 8 21 9 22 10 23 11
REMARK SMILES IDX 24 12 25 13 26 14 12 15 11 16 10 17 9 18 8 19 7 20 6 21 5 22
REMARK SMILES IDX 4 23 3 24 2 25 1 26
REMARK H PARENT
REMARK Flexibility Score: inf
ROOT
ATOM      1  C   UNL     1      -4.738  33.584  22.878  1.00  0.00     0.000 C 
ENDROOT
BRANCH   1   2
ATOM      2  C   UNL     1      -3.964  34.877  22.542  1.00  0.00     0.000 C 
BRANCH   2   3
ATOM      3  C   UNL     1      -4.049  35.285  21.060  1.00  0.00     0.000 C 
BRANCH   3   4
ATOM      4  C   UNL     1      -4.526  34.175  20.110  1.00  0.00     0.000 C 
BRANCH   4   5
ATOM      5  C   UNL     1      -5.546  34.674  19.075  1.00  0.00     0.000 C 
BRANCH   5   6
ATOM      6  C   UNL     1      -5.252  34.085  17.686  1.00  0.00     0.000 C 
BRANCH   6   7
ATOM      7  C   UNL     1      -4.459  35.046  16.787  1.00  0.00     0.000 C 
BRANCH   7   8
ATOM      8  C   UNL     1      -2.945  34.767  16.811  1.00  0.00     0.000 C 
BRANCH   8   9
ATOM      9  C   UNL     1      -2.163  35.681  15.852  1.00  0.00     0.000 C 
BRANCH   9  10
ATOM     10  C   UNL     1      -2.779  35.725  14.442  1.00  0.00     0.006 C 
BRANCH  10  11
ATOM     11  C   UNL     1      -2.868  37.155  13.893  1.00  0.00     0.053 C 
BRANCH  11  12
ATOM     12  C   UNL     1      -4.247  37.723  14.035  1.00  0.00     0.041 C 
ATOM     13  O   UNL     1      -4.406  38.955  14.248  1.00  0.00    -0.550 OA
ATOM     14  O   UNL     1      -5.357  36.901  13.892  1.00  0.00    -0.550 OA
ENDBRANCH  11  12
ENDBRANCH  10  11
ENDBRANCH   9  10
ENDBRANCH   8   9
ENDBRANCH   7   8
ENDBRANCH   6   7
ENDBRANCH   5   6
ENDBRANCH   4   5
ENDBRANCH   3   4
ENDBRANCH   2   3
ENDBRANCH   1   2
BRANCH   1  15
ATOM     15  C   UNL     1      -5.992  33.856  23.728  1.00  0.00     0.000 C 
BRANCH  15  16
ATOM     16  C   UNL     1      -6.125  35.341  24.127  1.00  0.00     0.000 C 
BRANCH  16  17
ATOM     17  C   UNL     1      -5.974  35.591  25.639  1.00  0.00     0.000 C 
BRANCH  17  18
ATOM     18  C   UNL     1      -5.789  37.069  26.034  1.00  0.00    -0.000 C 
BRANCH  18  19
ATOM     19  C   UNL     1      -4.336  37.586  25.978  1.00  0.00    -0.000 C 
BRANCH  19  20
ATOM     20  C   UNL     1      -4.192  39.089  25.678  1.00  0.00    -0.000 C 
BRANCH  20  21
ATOM     21  C   UNL     1      -5.262  39.608  24.702  1.00  0.00    -0.000 C 
BRANCH  21  22
ATOM     22  C   UNL     1      -5.585  38.600  23.589  1.00  0.00    -0.000 C 
BRANCH  22  23
ATOM     23  C   UNL     1      -5.858  39.285  22.237  1.00  0.00    -0.000 C 
BRANCH  23  24
ATOM     24  C   UNL     1      -4.860  38.859  21.149  1.00  0.00    -0.000 C 
BRANCH  24  25
ATOM     25  C   UNL     1      -5.427  37.774  20.221  1.00  0.00    -0.003 C 
ATOM     26  C   UNL     1      -5.100  38.075  18.761  1.00  0.00     0.004 C 
ENDBRANCH  24  25
ENDBRANCH  23  24
ENDBRANCH  22  23
ENDBRANCH  21  22
ENDBRANCH  20  21
ENDBRANCH  19  20
ENDBRANCH  18  19
ENDBRANCH  17  18
ENDBRANCH  16  17
ENDBRANCH  15  16
ENDBRANCH   1  15
TORSDOF 22
ENDMDL
MODEL 5
REMARK VINA RESULT:     6.089      4.668     10.309
REMARK INTER + INTRA:          12.902
REMARK INTER:                  10.455
REMARK INTRA:                   2.447
REMARK UNBOUND:                -1.019
REMARK SMILES CCCCCCCCCCCCCCCCCCCCCCCC(=O)[O-]
REMARK SMILES IDX 13 1 14 2 15 3 16 4 17 5 18 6 19 7 20 8 21 9 22 10 23 11
REMARK SMILES IDX 24 12 25 13 26 14 12 15 11 16 10 17 9 18 8 19 7 20 6 21 5 22
REMARK SMILES IDX 4 23 3 24 2 25 1 26
REMARK H PARENT
REMARK Flexibility Score: inf
ROOT
ATOM      1  C   UNL     1      -6.100  37.566  23.253  1.00  0.00     0.000 C 
ENDROOT
BRANCH   1   2
ATOM      2  C   UNL     1      -6.100  36.435  22.203  1.00  0.00     0.000 C 
BRANCH   2   3
ATOM      3  C   UNL     1      -5.240  35.219  22.599  1.00  0.00     0.000 C 
BRANCH   3   4
ATOM      4  C   UNL     1      -5.179  34.934  24.108  1.00  0.00     0.000 C 
BRANCH   4   5
ATOM      5  C   UNL     1      -6.113  35.841  24.924  1.00  0.00     0.000 C 
BRANCH   5   6
ATOM      6  C   UNL     1      -5.379  36.440  26.133  1.00  0.00     0.000 C 
BRANCH   6   7
ATOM      7  C   UNL     1      -4.366  37.526  25.738  1.00  0.00     0.000 C 
BRANCH   7   8
ATOM      8  C   UNL     1      -3.504  37.993  26.924  1.00  0.00     0.000 C 
BRANCH   8   9
ATOM      9  C   UNL     1      -2.088  37.395  26.894  1.00  0.00     0.000 C 
BRANCH   9  10
ATOM     10  C   UNL     1      -1.743  36.626  28.182  1.00  0.00     0.006 C 
BRANCH  10  11
ATOM     11  C   UNL     1      -1.781  35.106  27.977  1.00  0.00     0.053 C 
BRANCH  11  12
ATOM     12  C   UNL     1      -1.396  34.363  29.220  1.00  0.00     0.041 C 
ATOM     13  O   UNL     1      -0.180  34.172  29.493  1.00  0.00    -0.550 OA
ATOM     14  O   UNL     1      -2.376  33.917  30.096  1.00  0.00    -0.550 OA
ENDBRANCH  11  12
ENDBRANCH  10  11
ENDBRANCH   9  10
ENDBRANCH   8   9
ENDBRANCH   7   8
ENDBRANCH   6   7
ENDBRANCH   5   6
ENDBRANCH   4   5
ENDBRANCH   3   4
ENDBRANCH   2   3
ENDBRANCH   1   2
BRANCH   1  15
ATOM     15  C   UNL     1      -5.954  38.959  22.614  1.00  0.00     0.000 C 
BRANCH  15  16
ATOM     16  C   UNL     1      -5.025  38.948  21.381  1.00  0.00     0.000 C 
BRANCH  16  17
ATOM     17  C   UNL     1      -5.687  38.375  20.113  1.00  0.00     0.000 C 
BRANCH  17  18
ATOM     18  C   UNL     1      -4.814  37.384  19.320  1.00  0.00    -0.000 C 
BRANCH  18  19
ATOM     19  C   UNL     1      -5.164  35.895  19.523  1.00  0.00    -0.000 C 
BRANCH  19  20
ATOM     20  C   UNL     1      -5.267  35.069  18.227  1.00  0.00    -0.000 C 
BRANCH  20  21
ATOM     21  C   UNL     1      -3.891  34.693  17.649  1.00  0.00    -0.000 C 
BRANCH  21  22
ATOM     22  C   UNL     1      -3.774  35.010  16.150  1.00  0.00    -0.000 C 
BRANCH  22  23
ATOM     23  C   UNL     1      -2.323  35.290  15.719  1.00  0.00    -0.000 C 
BRANCH  23  24
ATOM     24  C   UNL     1      -2.235  36.307  14.570  1.00  0.00    -0.000 C 
BRANCH  24  25
ATOM     25  C   UNL     1      -3.593  36.556  13.898  1.00  0.00    -0.003 C 
ATOM     26  C   UNL     1      -4.295  37.765  14.508  1.00  0.00     0.004 C 
ENDBRANCH  24  25
ENDBRANCH  23  24
ENDBRANCH  22  23
ENDBRANCH  21  22
ENDBRANCH  20  21
ENDBRANCH  19  20
ENDBRANCH  18  19
ENDBRANCH  17  18
ENDBRANCH  16  17
ENDBRANCH  15  16
ENDBRANCH   1  15
TORSDOF 22
ENDMDL
MODEL 6
REMARK VINA RESULT:     6.414      2.963      9.076
REMARK INTER + INTRA:          13.645
REMARK INTER:                   9.783
REMARK INTRA:                   3.862
REMARK UNBOUND:                -1.019
REMARK SMILES CCCCCCCCCCCCCCCCCCCCCCCC(=O)[O-]
REMARK SMILES IDX 13 1 14 2 15 3 16 4 17 5 18 6 19 7 20 8 21 9 22 10 23 11
REMARK SMILES IDX 24 12 25 13 26 14 12 15 11 16 10 17 9 18 8 19 7 20 6 21 5 22
REMARK SMILES IDX 4 23 3 24 2 25 1 26
REMARK H PARENT
REMARK Flexibility Score: inf
ROOT
ATOM      1  C   UNL     1      -6.121  35.037  21.166  1.00  0.00     0.000 C 
ENDROOT
BRANCH   1   2
ATOM      2  C   UNL     1      -4.826  34.237  21.425  1.00  0.00     0.000 C 
BRANCH   2   3
ATOM      3  C   UNL     1      -4.589  33.901  22.909  1.00  0.00     0.000 C 
BRANCH   3   4
ATOM      4  C   UNL     1      -5.821  33.365  23.656  1.00  0.00     0.000 C 
BRANCH   4   5
ATOM      5  C   UNL     1      -6.056  34.069  25.001  1.00  0.00     0.000 C 
BRANCH   5   6
ATOM      6  C   UNL     1      -6.030  35.596  24.833  1.00  0.00     0.000 C 
BRANCH   6   7
ATOM      7  C   UNL     1      -4.608  36.177  24.880  1.00  0.00     0.000 C 
BRANCH   7   8
ATOM      8  C   UNL     1      -4.465  37.312  25.910  1.00  0.00     0.000 C 
BRANCH   8   9
ATOM      9  C   UNL     1      -5.530  38.407  25.729  1.00  0.00     0.000 C 
BRANCH   9  10
ATOM     10  C   UNL     1      -5.080  39.516  24.762  1.00  0.00     0.006 C 
BRANCH  10  11
ATOM     11  C   UNL     1      -6.051  39.689  23.587  1.00  0.00     0.053 C 
BRANCH  11  12
ATOM     12  C   UNL     1      -5.346  40.125  22.338  1.00  0.00     0.041 C 
ATOM     13  O   UNL     1      -4.164  40.556  22.395  1.00  0.00    -0.550 OA
ATOM     14  O   UNL     1      -5.980  40.017  21.108  1.00  0.00    -0.550 OA
ENDBRANCH  11  12
ENDBRANCH  10  11
ENDBRANCH   9  10
ENDBRANCH   8   9
ENDBRANCH   7   8
ENDBRANCH   6   7
ENDBRANCH   5   6
ENDBRANCH   4   5
ENDBRANCH   3   4
ENDBRANCH   2   3
ENDBRANCH   1   2
BRANCH   1  15
ATOM     15  C   UNL     1      -6.040  36.475  21.711  1.00  0.00     0.000 C 
BRANCH  15  16
ATOM     16  C   UNL     1      -5.293  37.428  20.753  1.00  0.00     0.000 C 
BRANCH  16  17
ATOM     17  C   UNL     1      -5.015  36.817  19.366  1.00  0.00     0.000 C 
BRANCH  17  18
ATOM     18  C   UNL     1      -4.515  35.360  19.390  1.00  0.00    -0.000 C 
BRANCH  18  19
ATOM     19  C   UNL     1      -5.129  34.439  18.315  1.00  0.00    -0.000 C 
BRANCH  19  20
ATOM     20  C   UNL     1      -4.292  34.291  17.032  1.00  0.00    -0.000 C 
BRANCH  20  21
ATOM     21  C   UNL     1      -3.462  35.547  16.711  1.00  0.00    -0.000 C 
BRANCH  21  22
ATOM     22  C   UNL     1      -2.274  35.248  15.783  1.00  0.00    -0.000 C 
BRANCH  22  23
ATOM     23  C   UNL     1      -2.510  35.750  14.347  1.00  0.00    -0.000 C 
BRANCH  23  24
ATOM     24  C   UNL     1      -2.855  37.247  14.296  1.00  0.00    -0.000 C 
BRANCH  24  25
ATOM     25  C   UNL     1      -4.351  37.499  14.055  1.00  0.00    -0.003 C 
ATOM     26  C   UNL     1      -4.656  38.994  14.010  1.00  0.00     0.004 C 
ENDBRANCH  24  25
ENDBRANCH  23  24
ENDBRANCH  22  23
ENDBRANCH  21  22
ENDBRANCH  20  21
ENDBRANCH  19  20
ENDBRANCH  18  19
ENDBRANCH  17  18
ENDBRANCH  16  17
ENDBRANCH  15  16
ENDBRANCH   1  15
TORSDOF 22
ENDMDL
MODEL 7
REMARK VINA RESULT:     7.047      4.952     10.761
REMARK INTER + INTRA:          15.090
REMARK INTER:                  14.909
REMARK INTRA:                   0.181
REMARK UNBOUND:                -1.019
REMARK SMILES CCCCCCCCCCCCCCCCCCCCCCCC(=O)[O-]
REMARK SMILES IDX 13 1 14 2 15 3 16 4 17 5 18 6 19 7 20 8 21 9 22 10 23 11
REMARK SMILES IDX 24 12 25 13 26 14 12 15 11 16 10 17 9 18 8 19 7 20 6 21 5 22
REMARK SMILES IDX 4 23 3 24 2 25 1 26
REMARK H PARENT
REMARK Flexibility Score: inf
ROOT
ATOM      1  C   UNL     1      -4.604  33.765  23.044  1.00  0.00     0.000 C 
ENDROOT
BRANCH   1   2
ATOM      2  C   UNL     1      -5.860  34.118  23.869  1.00  0.00     0.000 C 
BRANCH   2   3
ATOM      3  C   UNL     1      -5.595  35.117  25.010  1.00  0.00     0.000 C 
BRANCH   3   4
ATOM      4  C   UNL     1      -6.124  36.539  24.761  1.00  0.00     0.000 C 
BRANCH   4   5
ATOM      5  C   UNL     1      -5.000  37.563  24.540  1.00  0.00     0.000 C 
BRANCH   5   6
ATOM      6  C   UNL     1      -4.812  38.449  25.781  1.00  0.00     0.000 C 
BRANCH   6   7
ATOM      7  C   UNL     1      -3.423  38.292  26.420  1.00  0.00     0.000 C 
BRANCH   7   8
ATOM      8  C   UNL     1      -3.050  36.820  26.672  1.00  0.00     0.000 C 
BRANCH   8   9
ATOM      9  C   UNL     1      -1.938  36.667  27.724  1.00  0.00     0.000 C 
BRANCH   9  10
ATOM     10  C   UNL     1      -1.490  35.206  27.904  1.00  0.00     0.006 C 
BRANCH  10  11
ATOM     11  C   UNL     1      -2.235  34.509  29.050  1.00  0.00     0.053 C 
BRANCH  11  12
ATOM     12  C   UNL     1      -1.292  33.858  30.015  1.00  0.00     0.041 C 
ATOM     13  O   UNL     1      -1.726  33.368  31.093  1.00  0.00    -0.550 OA
ATOM     14  O   UNL     1       0.058  33.755  29.708  1.00  0.00    -0.550 OA
ENDBRANCH  11  12
ENDBRANCH  10  11
ENDBRANCH   9  10
ENDBRANCH   8   9
ENDBRANCH   7   8
ENDBRANCH   6   7
ENDBRANCH   5   6
ENDBRANCH   4   5
ENDBRANCH   3   4
ENDBRANCH   2   3
ENDBRANCH   1   2
BRANCH   1  15
ATOM     15  C   UNL     1      -4.509  34.581  21.742  1.00  0.00     0.000 C 
BRANCH  15  16
ATOM     16  C   UNL     1      -5.680  35.573  21.581  1.00  0.00     0.000 C 
BRANCH  16  17
ATOM     17  C   UNL     1      -5.231  37.035  21.394  1.00  0.00     0.000 C 
BRANCH  17  18
ATOM     18  C   UNL     1      -5.597  37.654  20.031  1.00  0.00    -0.000 C 
BRANCH  18  19
ATOM     19  C   UNL     1      -4.900  37.014  18.813  1.00  0.00    -0.000 C 
BRANCH  19  20
ATOM     20  C   UNL     1      -4.729  35.486  18.890  1.00  0.00    -0.000 C 
BRANCH  20  21
ATOM     21  C   UNL     1      -4.300  34.865  17.549  1.00  0.00    -0.000 C 
BRANCH  21  22
ATOM     22  C   UNL     1      -4.009  35.924  16.474  1.00  0.00    -0.000 C 
BRANCH  22  23
ATOM     23  C   UNL     1      -2.936  35.464  15.470  1.00  0.00    -0.000 C 
BRANCH  23  24
ATOM     24  C   UNL     1      -2.928  36.309  14.187  1.00  0.00    -0.000 C 
BRANCH  24  25
ATOM     25  C   UNL     1      -4.301  36.922  13.876  1.00  0.00    -0.003 C 
ATOM     26  C   UNL     1      -4.343  38.398  14.259  1.00  0.00     0.004 C 
ENDBRANCH  24  25
ENDBRANCH  23  24
ENDBRANCH  22  23
ENDBRANCH  21  22
ENDBRANCH  20  21
ENDBRANCH  19  20
ENDBRANCH  18  19
ENDBRANCH  17  18
ENDBRANCH  16  17
ENDBRANCH  15  16
ENDBRANCH   1  15
TORSDOF 22
ENDMDL
