MODEL 1
REMARK VINA RESULT:    -4.941      0.000      0.000
REMARK INTER + INTRA:          -6.039
REMARK INTER:                  -5.808
REMARK INTRA:                  -0.231
REMARK UNBOUND:                -0.231
REMARK SMILES C=C(C)[C@H]1CC[C@@]2(CO)CC[C@@]3(C)[C@@H](CC[C@H]4[C@@]5(C)CC[C@H](O)C(C)(C)[C@H]5CC[C@@]43C)[C@@H]12
REMARK SMILES IDX 4 1 5 2 6 3 7 4 32 5 14 6 15 7 16 8 17 9 18 10 20 11 21 12
REMARK SMILES IDX 22 13 24 14 27 15 28 16 29 17 30 18 12 19 11 20 10 21 13 22
REMARK SMILES IDX 31 23 25 24 26 25 19 26 2 27 3 28 1 29 8 30 9 31 23 33
REMARK H PARENT 9 32 23 34
REMARK Flexibility Score: inf
ROOT
ATOM      1  C   UNL     1     -17.042  -1.629 -16.061  1.00  0.00     0.018 C 
ATOM      2  C   UNL     1     -18.357  -1.466 -15.287  1.00  0.00     0.009 C 
ATOM      3  C   UNL     1     -19.124  -2.785 -15.423  1.00  0.00     0.010 C 
ATOM      4  C   UNL     1     -18.090  -3.899 -15.751  1.00  0.00    -0.003 C 
ATOM      5  C   UNL     1     -16.741  -3.149 -15.925  1.00  0.00     0.008 C 
ATOM      6  C   UNL     1     -15.644  -3.918 -16.744  1.00  0.00    -0.000 C 
ATOM      7  C   UNL     1     -14.336  -3.137 -16.939  1.00  0.00     0.005 C 
ATOM      8  C   UNL     1     -13.195  -4.085 -17.334  1.00  0.00     0.005 C 
ATOM      9  C   UNL     1     -13.527  -4.844 -18.651  1.00  0.00     0.002 C 
ATOM     10  C   UNL     1     -12.251  -5.487 -19.378  1.00  0.00    -0.026 C 
ATOM     11  C   UNL     1     -11.344  -6.232 -18.344  1.00  0.00     0.010 C 
ATOM     12  C   UNL     1     -10.222  -7.073 -18.959  1.00  0.00     0.033 C 
ATOM     13  C   UNL     1     -10.751  -8.062 -20.003  1.00  0.00     0.120 C 
ATOM     14  C   UNL     1     -11.498  -7.352 -21.171  1.00  0.00    -0.006 C 
ATOM     15  C   UNL     1     -12.672  -6.433 -20.600  1.00  0.00     0.003 C 
ATOM     16  C   UNL     1     -13.969  -7.246 -20.336  1.00  0.00     0.005 C 
ATOM     17  C   UNL     1     -15.129  -6.381 -19.840  1.00  0.00     0.008 C 
ATOM     18  C   UNL     1     -14.847  -5.710 -18.472  1.00  0.00    -0.024 C 
ATOM     19  C   UNL     1     -16.077  -4.733 -18.022  1.00  0.00    -0.024 C 
ATOM     20  C   UNL     1     -17.372  -5.530 -17.642  1.00  0.00     0.008 C 
ATOM     21  C   UNL     1     -18.501  -4.655 -17.050  1.00  0.00     0.010 C 
ATOM     22  C   UNL     1     -16.471  -3.774 -19.189  1.00  0.00     0.012 C 
ATOM     23  C   UNL     1     -14.664  -6.873 -17.429  1.00  0.00     0.012 C 
ATOM     24  C   UNL     1     -12.044  -8.457 -22.123  1.00  0.00     0.014 C 
ATOM     25  C   UNL     1     -10.512  -6.525 -22.045  1.00  0.00     0.014 C 
ATOM     26  C   UNL     1     -11.412  -4.283 -19.958  1.00  0.00     0.012 C 
ENDROOT
BRANCH   1  27
ATOM     27  C   UNL     1     -17.088  -0.979 -17.450  1.00  0.00    -0.077 C 
ATOM     28  C   UNL     1     -18.264  -1.249 -18.357  1.00  0.00     0.039 C 
ATOM     29  C   UNL     1     -16.036  -0.331 -17.989  1.00  0.00     0.008 C 
ENDBRANCH   1  27
BRANCH   4  30
ATOM     30  C   UNL     1     -18.021  -4.917 -14.568  1.00  0.00     0.163 C 
BRANCH  30  31
ATOM     31  O   UNL     1     -18.795  -6.058 -14.833  1.00  0.00    -0.396 OA
ATOM     32  H   UNL     1     -19.616  -5.970 -14.282  1.00  0.00     0.210 HD
ENDBRANCH  30  31
ENDBRANCH   4  30
BRANCH  13  33
ATOM     33  O   UNL     1      -9.680  -8.823 -20.502  1.00  0.00    -0.393 OA
ATOM     34  H   UNL     1      -9.345  -8.358 -21.313  1.00  0.00     0.210 HD
ENDBRANCH  13  33
TORSDOF 4
ENDMDL
MODEL 2
REMARK VINA RESULT:    -3.976      3.319      6.451
REMARK INTER + INTRA:          -4.904
REMARK INTER:                  -4.426
REMARK INTRA:                  -0.478
REMARK UNBOUND:                -0.231
REMARK SMILES C=C(C)[C@H]1CC[C@@]2(CO)CC[C@@]3(C)[C@@H](CC[C@H]4[C@@]5(C)CC[C@H](O)C(C)(C)[C@H]5CC[C@@]43C)[C@@H]12
REMARK SMILES IDX 4 1 5 2 6 3 7 4 32 5 14 6 15 7 16 8 17 9 18 10 20 11 21 12
REMARK SMILES IDX 22 13 24 14 27 15 28 16 29 17 30 18 12 19 11 20 10 21 13 22
REMARK SMILES IDX 31 23 25 24 26 25 19 26 2 27 3 28 1 29 8 30 9 31 23 33
REMARK H PARENT 9 32 23 34
REMARK Flexibility Score: inf
ROOT
ATOM      1  C   UNL     1     -14.312  -8.224 -19.505  1.00  0.00     0.018 C 
ATOM      2  C   UNL     1     -15.262  -9.076 -18.651  1.00  0.00     0.009 C 
ATOM      3  C   UNL     1     -15.527  -8.294 -17.360  1.00  0.00     0.010 C 
ATOM      4  C   UNL     1     -15.246  -6.793 -17.653  1.00  0.00    -0.003 C 
ATOM      5  C   UNL     1     -14.689  -6.771 -19.104  1.00  0.00     0.008 C 
ATOM      6  C   UNL     1     -13.856  -5.495 -19.485  1.00  0.00    -0.000 C 
ATOM      7  C   UNL     1     -13.281  -5.517 -20.908  1.00  0.00     0.005 C 
ATOM      8  C   UNL     1     -12.883  -4.102 -21.352  1.00  0.00     0.005 C 
ATOM      9  C   UNL     1     -11.822  -3.490 -20.391  1.00  0.00     0.002 C 
ATOM     10  C   UNL     1     -11.020  -2.246 -21.006  1.00  0.00    -0.026 C 
ATOM     11  C   UNL     1     -12.002  -1.246 -21.701  1.00  0.00     0.010 C 
ATOM     12  C   UNL     1     -11.375   0.086 -22.121  1.00  0.00     0.033 C 
ATOM     13  C   UNL     1     -10.658   0.777 -20.956  1.00  0.00     0.120 C 
ATOM     14  C   UNL     1      -9.525  -0.103 -20.349  1.00  0.00    -0.006 C 
ATOM     15  C   UNL     1     -10.103  -1.524 -19.908  1.00  0.00     0.003 C 
ATOM     16  C   UNL     1     -10.750  -1.475 -18.496  1.00  0.00     0.005 C 
ATOM     17  C   UNL     1     -11.264  -2.836 -18.025  1.00  0.00     0.008 C 
ATOM     18  C   UNL     1     -12.401  -3.399 -18.915  1.00  0.00    -0.024 C 
ATOM     19  C   UNL     1     -12.862  -4.888 -18.423  1.00  0.00    -0.024 C 
ATOM     20  C   UNL     1     -13.616  -4.862 -17.049  1.00  0.00     0.008 C 
ATOM     21  C   UNL     1     -14.216  -6.225 -16.632  1.00  0.00     0.010 C 
ATOM     22  C   UNL     1     -11.618  -5.811 -18.229  1.00  0.00     0.012 C 
ATOM     23  C   UNL     1     -13.603  -2.392 -18.804  1.00  0.00     0.012 C 
ATOM     24  C   UNL     1      -8.922   0.672 -19.140  1.00  0.00     0.014 C 
ATOM     25  C   UNL     1      -8.343  -0.263 -21.348  1.00  0.00     0.014 C 
ATOM     26  C   UNL     1     -10.074  -2.831 -22.125  1.00  0.00     0.012 C 
ENDROOT
BRANCH   1  27
ATOM     27  C   UNL     1     -12.853  -8.691 -19.414  1.00  0.00    -0.077 C 
ATOM     28  C   UNL     1     -12.063  -8.907 -20.681  1.00  0.00     0.039 C 
ATOM     29  C   UNL     1     -12.292  -9.112 -18.264  1.00  0.00     0.008 C 
ENDBRANCH   1  27
BRANCH   4  30
ATOM     30  C   UNL     1     -16.574  -5.979 -17.546  1.00  0.00     0.163 C 
BRANCH  30  31
ATOM     31  O   UNL     1     -16.718  -5.407 -16.272  1.00  0.00    -0.396 OA
ATOM     32  H   UNL     1     -17.694  -5.294 -16.127  1.00  0.00     0.210 HD
ENDBRANCH  30  31
ENDBRANCH   4  30
BRANCH  13  33
ATOM     33  O   UNL     1     -10.135   2.005 -21.399  1.00  0.00    -0.393 OA
ATOM     34  H   UNL     1      -9.186   2.039 -21.109  1.00  0.00     0.210 HD
ENDBRANCH  13  33
TORSDOF 4
ENDMDL
MODEL 3
REMARK VINA RESULT:    -3.796      1.981      8.149
REMARK INTER + INTRA:          -4.693
REMARK INTER:                  -4.085
REMARK INTRA:                  -0.608
REMARK UNBOUND:                -0.231
REMARK SMILES C=C(C)[C@H]1CC[C@@]2(CO)CC[C@@]3(C)[C@@H](CC[C@H]4[C@@]5(C)CC[C@H](O)C(C)(C)[C@H]5CC[C@@]43C)[C@@H]12
REMARK SMILES IDX 4 1 5 2 6 3 7 4 32 5 14 6 15 7 16 8 17 9 18 10 20 11 21 12
REMARK SMILES IDX 22 13 24 14 27 15 28 16 29 17 30 18 12 19 11 20 10 21 13 22
REMARK SMILES IDX 31 23 25 24 26 25 19 26 2 27 3 28 1 29 8 30 9 31 23 33
REMARK H PARENT 9 32 23 34
REMARK Flexibility Score: inf
ROOT
ATOM      1  C   UNL     1     -10.123  -6.778 -20.071  1.00  0.00     0.018 C 
ATOM      2  C   UNL     1      -8.944  -6.693 -21.050  1.00  0.00     0.009 C 
ATOM      3  C   UNL     1      -9.174  -5.457 -21.925  1.00  0.00     0.010 C 
ATOM      4  C   UNL     1     -10.118  -4.498 -21.145  1.00  0.00    -0.003 C 
ATOM      5  C   UNL     1     -10.516  -5.287 -19.867  1.00  0.00     0.008 C 
ATOM      6  C   UNL     1     -11.830  -4.800 -19.157  1.00  0.00    -0.000 C 
ATOM      7  C   UNL     1     -12.225  -5.624 -17.923  1.00  0.00     0.005 C 
ATOM      8  C   UNL     1     -13.219  -4.845 -17.050  1.00  0.00     0.005 C 
ATOM      9  C   UNL     1     -14.507  -4.488 -17.848  1.00  0.00     0.002 C 
ATOM     10  C   UNL     1     -15.761  -4.099 -16.930  1.00  0.00    -0.026 C 
ATOM     11  C   UNL     1     -15.332  -3.104 -15.802  1.00  0.00     0.010 C 
ATOM     12  C   UNL     1     -16.490  -2.490 -15.009  1.00  0.00     0.033 C 
ATOM     13  C   UNL     1     -17.528  -1.833 -15.924  1.00  0.00     0.120 C 
ATOM     14  C   UNL     1     -18.141  -2.834 -16.947  1.00  0.00    -0.006 C 
ATOM     15  C   UNL     1     -16.985  -3.535 -17.797  1.00  0.00     0.003 C 
ATOM     16  C   UNL     1     -16.540  -2.661 -19.001  1.00  0.00     0.005 C 
ATOM     17  C   UNL     1     -15.471  -3.332 -19.866  1.00  0.00     0.008 C 
ATOM     18  C   UNL     1     -14.145  -3.588 -19.106  1.00  0.00    -0.024 C 
ATOM     19  C   UNL     1     -13.064  -4.377 -20.042  1.00  0.00    -0.024 C 
ATOM     20  C   UNL     1     -12.510  -3.485 -21.207  1.00  0.00     0.008 C 
ATOM     21  C   UNL     1     -11.362  -4.138 -22.011  1.00  0.00     0.010 C 
ATOM     22  C   UNL     1     -13.724  -5.623 -20.712  1.00  0.00     0.012 C 
ATOM     23  C   UNL     1     -13.582  -2.179 -18.692  1.00  0.00     0.012 C 
ATOM     24  C   UNL     1     -19.123  -2.040 -17.858  1.00  0.00     0.014 C 
ATOM     25  C   UNL     1     -19.030  -3.892 -16.231  1.00  0.00     0.014 C 
ATOM     26  C   UNL     1     -16.233  -5.431 -16.228  1.00  0.00     0.012 C 
ENDROOT
BRANCH   1  27
ATOM     27  C   UNL     1     -11.184  -7.797 -20.509  1.00  0.00    -0.077 C 
ATOM     28  C   UNL     1     -11.734  -8.774 -19.498  1.00  0.00     0.039 C 
ATOM     29  C   UNL     1     -11.512  -8.002 -21.799  1.00  0.00     0.008 C 
ENDBRANCH   1  27
BRANCH   4  30
ATOM     30  C   UNL     1      -9.352  -3.186 -20.782  1.00  0.00     0.163 C 
BRANCH  30  31
ATOM     31  O   UNL     1      -8.712  -2.644 -21.907  1.00  0.00    -0.396 OA
ATOM     32  H   UNL     1      -9.216  -2.972 -22.697  1.00  0.00     0.210 HD
ENDBRANCH  30  31
ENDBRANCH   4  30
BRANCH  13  33
ATOM     33  O   UNL     1     -18.543  -1.262 -15.135  1.00  0.00    -0.393 OA
ATOM     34  H   UNL     1     -18.317  -1.452 -14.187  1.00  0.00     0.210 HD
ENDBRANCH  13  33
TORSDOF 4
ENDMDL
MODEL 4
REMARK VINA RESULT:    -3.219      3.572      6.932
REMARK INTER + INTRA:          -4.014
REMARK INTER:                  -3.562
REMARK INTRA:                  -0.452
REMARK UNBOUND:                -0.231
REMARK SMILES C=C(C)[C@H]1CC[C@@]2(CO)CC[C@@]3(C)[C@@H](CC[C@H]4[C@@]5(C)CC[C@H](O)C(C)(C)[C@H]5CC[C@@]43C)[C@@H]12
REMARK SMILES IDX 4 1 5 2 6 3 7 4 32 5 14 6 15 7 16 8 17 9 18 10 20 11 21 12
REMARK SMILES IDX 22 13 24 14 27 15 28 16 29 17 30 18 12 19 11 20 10 21 13 22
REMARK SMILES IDX 31 23 25 24 26 25 19 26 2 27 3 28 1 29 8 30 9 31 23 33
REMARK H PARENT 9 32 23 34
REMARK Flexibility Score: inf
ROOT
ATOM      1  C   UNL     1     -13.637  -7.569 -18.495  1.00  0.00     0.018 C 
ATOM      2  C   UNL     1     -14.260  -8.893 -18.959  1.00  0.00     0.009 C 
ATOM      3  C   UNL     1     -14.506  -8.769 -20.466  1.00  0.00     0.010 C 
ATOM      4  C   UNL     1     -13.547  -7.673 -21.010  1.00  0.00    -0.003 C 
ATOM      5  C   UNL     1     -12.850  -7.094 -19.748  1.00  0.00     0.008 C 
ATOM      6  C   UNL     1     -12.226  -5.663 -19.921  1.00  0.00    -0.000 C 
ATOM      7  C   UNL     1     -11.583  -5.095 -18.647  1.00  0.00     0.005 C 
ATOM      8  C   UNL     1     -10.632  -3.941 -18.992  1.00  0.00     0.005 C 
ATOM      9  C   UNL     1     -11.385  -2.794 -19.727  1.00  0.00     0.002 C 
ATOM     10  C   UNL     1     -10.614  -1.389 -19.715  1.00  0.00    -0.026 C 
ATOM     11  C   UNL     1      -9.103  -1.585 -20.075  1.00  0.00     0.010 C 
ATOM     12  C   UNL     1      -8.325  -0.289 -20.316  1.00  0.00     0.033 C 
ATOM     13  C   UNL     1      -9.002   0.603 -21.361  1.00  0.00     0.120 C 
ATOM     14  C   UNL     1     -10.453   0.998 -20.956  1.00  0.00    -0.006 C 
ATOM     15  C   UNL     1     -11.322  -0.309 -20.663  1.00  0.00     0.003 C 
ATOM     16  C   UNL     1     -11.909  -0.919 -21.966  1.00  0.00     0.005 C 
ATOM     17  C   UNL     1     -12.791  -2.142 -21.711  1.00  0.00     0.008 C 
ATOM     18  C   UNL     1     -12.020  -3.329 -21.081  1.00  0.00    -0.024 C 
ATOM     19  C   UNL     1     -13.017  -4.581 -20.752  1.00  0.00    -0.024 C 
ATOM     20  C   UNL     1     -13.542  -5.290 -22.048  1.00  0.00     0.008 C 
ATOM     21  C   UNL     1     -14.351  -6.581 -21.777  1.00  0.00     0.010 C 
ATOM     22  C   UNL     1     -14.277  -4.089 -19.973  1.00  0.00     0.012 C 
ATOM     23  C   UNL     1     -10.926  -3.763 -22.125  1.00  0.00     0.012 C 
ATOM     24  C   UNL     1     -11.056   1.840 -22.119  1.00  0.00     0.014 C 
ATOM     25  C   UNL     1     -10.452   1.956 -19.730  1.00  0.00     0.014 C 
ATOM     26  C   UNL     1     -10.678  -0.854 -18.232  1.00  0.00     0.012 C 
ENDROOT
BRANCH   1  27
ATOM     27  C   UNL     1     -14.657  -6.635 -17.830  1.00  0.00    -0.077 C 
ATOM     28  C   UNL     1     -16.056  -6.547 -18.391  1.00  0.00     0.039 C 
ATOM     29  C   UNL     1     -14.318  -5.734 -16.888  1.00  0.00     0.008 C 
ENDBRANCH   1  27
BRANCH   4  30
ATOM     30  C   UNL     1     -12.508  -8.319 -21.982  1.00  0.00     0.163 C 
BRANCH  30  31
ATOM     31  O   UNL     1     -11.373  -8.765 -21.289  1.00  0.00    -0.396 OA
ATOM     32  H   UNL     1     -11.475  -8.445 -20.354  1.00  0.00     0.210 HD
ENDBRANCH  30  31
ENDBRANCH   4  30
BRANCH  13  33
ATOM     33  O   UNL     1      -8.222   1.756 -21.559  1.00  0.00    -0.393 OA
ATOM     34  H   UNL     1      -7.966   1.773 -22.518  1.00  0.00     0.210 HD
ENDBRANCH  13  33
TORSDOF 4
ENDMDL
MODEL 5
REMARK VINA RESULT:    -2.987      1.645      3.526
REMARK INTER + INTRA:          -3.742
REMARK INTER:                  -3.054
REMARK INTRA:                  -0.688
REMARK UNBOUND:                -0.231
REMARK SMILES C=C(C)[C@H]1CC[C@@]2(CO)CC[C@@]3(C)[C@@H](CC[C@H]4[C@@]5(C)CC[C@H](O)C(C)(C)[C@H]5CC[C@@]43C)[C@@H]12
REMARK SMILES IDX 4 1 5 2 6 3 7 4 32 5 14 6 15 7 16 8 17 9 18 10 20 11 21 12
REMARK SMILES IDX 22 13 24 14 27 15 28 16 29 17 30 18 12 19 11 20 10 21 13 22
REMARK SMILES IDX 31 23 25 24 26 25 19 26 2 27 3 28 1 29 8 30 9 31 23 33
REMARK H PARENT 9 32 23 34
REMARK Flexibility Score: inf
ROOT
ATOM      1  C   UNL     1     -18.374  -3.572 -16.375  1.00  0.00     0.018 C 
ATOM      2  C   UNL     1     -19.123  -2.260 -16.104  1.00  0.00     0.009 C 
ATOM      3  C   UNL     1     -18.215  -1.120 -16.578  1.00  0.00     0.010 C 
ATOM      4  C   UNL     1     -17.228  -1.709 -17.625  1.00  0.00    -0.003 C 
ATOM      5  C   UNL     1     -17.519  -3.235 -17.628  1.00  0.00     0.008 C 
ATOM      6  C   UNL     1     -16.363  -4.139 -18.189  1.00  0.00    -0.000 C 
ATOM      7  C   UNL     1     -16.658  -5.646 -18.141  1.00  0.00     0.005 C 
ATOM      8  C   UNL     1     -15.719  -6.409 -19.085  1.00  0.00     0.005 C 
ATOM      9  C   UNL     1     -14.229  -6.178 -18.703  1.00  0.00     0.002 C 
ATOM     10  C   UNL     1     -13.218  -7.264 -19.310  1.00  0.00    -0.026 C 
ATOM     11  C   UNL     1     -13.527  -7.519 -20.823  1.00  0.00     0.010 C 
ATOM     12  C   UNL     1     -12.485  -8.364 -21.559  1.00  0.00     0.033 C 
ATOM     13  C   UNL     1     -11.070  -7.799 -21.400  1.00  0.00     0.120 C 
ATOM     14  C   UNL     1     -10.629  -7.708 -19.909  1.00  0.00    -0.006 C 
ATOM     15  C   UNL     1     -11.688  -6.858 -19.069  1.00  0.00     0.003 C 
ATOM     16  C   UNL     1     -11.426  -5.331 -19.183  1.00  0.00     0.005 C 
ATOM     17  C   UNL     1     -12.392  -4.493 -18.345  1.00  0.00     0.008 C 
ATOM     18  C   UNL     1     -13.869  -4.633 -18.794  1.00  0.00    -0.024 C 
ATOM     19  C   UNL     1     -14.872  -3.786 -17.821  1.00  0.00    -0.024 C 
ATOM     20  C   UNL     1     -14.710  -2.236 -17.991  1.00  0.00     0.008 C 
ATOM     21  C   UNL     1     -15.756  -1.404 -17.214  1.00  0.00     0.010 C 
ATOM     22  C   UNL     1     -14.577  -4.102 -16.321  1.00  0.00     0.012 C 
ATOM     23  C   UNL     1     -13.947  -4.086 -20.267  1.00  0.00     0.012 C 
ATOM     24  C   UNL     1      -9.213  -7.061 -19.872  1.00  0.00     0.014 C 
ATOM     25  C   UNL     1     -10.434  -9.125 -19.295  1.00  0.00     0.014 C 
ATOM     26  C   UNL     1     -13.494  -8.613 -18.540  1.00  0.00     0.012 C 
ENDROOT
BRANCH   1  27
ATOM     27  C   UNL     1     -17.702  -4.141 -15.118  1.00  0.00    -0.077 C 
ATOM     28  C   UNL     1     -17.759  -5.626 -14.854  1.00  0.00     0.039 C 
ATOM     29  C   UNL     1     -17.229  -3.362 -14.126  1.00  0.00     0.008 C 
ENDBRANCH   1  27
BRANCH   4  30
ATOM     30  C   UNL     1     -17.509  -1.078 -19.026  1.00  0.00     0.163 C 
BRANCH  30  31
ATOM     31  O   UNL     1     -18.704  -1.569 -19.574  1.00  0.00    -0.396 OA
ATOM     32  H   UNL     1     -18.831  -1.090 -20.435  1.00  0.00     0.210 HD
ENDBRANCH  30  31
ENDBRANCH   4  30
BRANCH  13  33
ATOM     33  O   UNL     1     -10.168  -8.599 -22.125  1.00  0.00    -0.393 OA
ATOM     34  H   UNL     1     -10.010  -9.419 -21.588  1.00  0.00     0.210 HD
ENDBRANCH  13  33
TORSDOF 4
ENDMDL
MODEL 6
REMARK VINA RESULT:    -2.512      2.839      5.150
REMARK INTER + INTRA:          -3.184
REMARK INTER:                  -2.608
REMARK INTRA:                  -0.576
REMARK UNBOUND:                -0.231
REMARK SMILES C=C(C)[C@H]1CC[C@@]2(CO)CC[C@@]3(C)[C@@H](CC[C@H]4[C@@]5(C)CC[C@H](O)C(C)(C)[C@H]5CC[C@@]43C)[C@@H]12
REMARK SMILES IDX 4 1 5 2 6 3 7 4 32 5 14 6 15 7 16 8 17 9 18 10 20 11 21 12
REMARK SMILES IDX 22 13 24 14 27 15 28 16 29 17 30 18 12 19 11 20 10 21 13 22
REMARK SMILES IDX 31 23 25 24 26 25 19 26 2 27 3 28 1 29 8 30 9 31 23 33
REMARK H PARENT 9 32 23 34
REMARK Flexibility Score: inf
ROOT
ATOM      1  C   UNL     1     -17.035  -6.460 -17.634  1.00  0.00     0.018 C 
ATOM      2  C   UNL     1     -18.238  -6.601 -16.691  1.00  0.00     0.009 C 
ATOM      3  C   UNL     1     -18.182  -5.423 -15.713  1.00  0.00     0.010 C 
ATOM      4  C   UNL     1     -17.346  -4.295 -16.382  1.00  0.00    -0.003 C 
ATOM      5  C   UNL     1     -16.824  -4.921 -17.705  1.00  0.00     0.008 C 
ATOM      6  C   UNL     1     -15.565  -4.221 -18.331  1.00  0.00    -0.000 C 
ATOM      7  C   UNL     1     -15.043  -4.885 -19.613  1.00  0.00     0.005 C 
ATOM      8  C   UNL     1     -14.133  -3.921 -20.388  1.00  0.00     0.005 C 
ATOM      9  C   UNL     1     -12.918  -3.480 -19.522  1.00  0.00     0.002 C 
ATOM     10  C   UNL     1     -11.700  -2.866 -20.364  1.00  0.00    -0.026 C 
ATOM     11  C   UNL     1     -12.223  -1.839 -21.422  1.00  0.00     0.010 C 
ATOM     12  C   UNL     1     -11.132  -1.026 -22.124  1.00  0.00     0.033 C 
ATOM     13  C   UNL     1     -10.204  -0.327 -21.126  1.00  0.00     0.120 C 
ATOM     14  C   UNL     1      -9.495  -1.329 -20.168  1.00  0.00    -0.006 C 
ATOM     15  C   UNL     1     -10.575  -2.233 -19.415  1.00  0.00     0.003 C 
ATOM     16  C   UNL     1     -11.152  -1.523 -18.160  1.00  0.00     0.005 C 
ATOM     17  C   UNL     1     -12.149  -2.387 -17.387  1.00  0.00     0.008 C 
ATOM     18  C   UNL     1     -13.416  -2.738 -18.209  1.00  0.00    -0.024 C 
ATOM     19  C   UNL     1     -14.413  -3.728 -17.374  1.00  0.00    -0.024 C 
ATOM     20  C   UNL     1     -15.098  -3.010 -16.161  1.00  0.00     0.008 C 
ATOM     21  C   UNL     1     -16.175  -3.862 -15.449  1.00  0.00     0.010 C 
ATOM     22  C   UNL     1     -13.620  -4.936 -16.785  1.00  0.00     0.012 C 
ATOM     23  C   UNL     1     -14.138  -1.378 -18.527  1.00  0.00     0.012 C 
ATOM     24  C   UNL     1      -8.640  -0.500 -19.164  1.00  0.00     0.014 C 
ATOM     25  C   UNL     1      -8.467  -2.208 -20.937  1.00  0.00     0.014 C 
ATOM     26  C   UNL     1     -11.052  -4.068 -21.155  1.00  0.00     0.012 C 
ENDROOT
BRANCH   1  27
ATOM     27  C   UNL     1     -15.867  -7.377 -17.246  1.00  0.00    -0.077 C 
ATOM     28  C   UNL     1     -14.936  -7.886 -18.318  1.00  0.00     0.039 C 
ATOM     29  C   UNL     1     -15.739  -7.917 -16.018  1.00  0.00     0.008 C 
ENDBRANCH   1  27
BRANCH   4  30
ATOM     30  C   UNL     1     -18.259  -3.060 -16.664  1.00  0.00     0.163 C 
BRANCH  30  31
ATOM     31  O   UNL     1     -19.046  -3.260 -17.809  1.00  0.00    -0.396 OA
ATOM     32  H   UNL     1     -19.332  -4.211 -17.785  1.00  0.00     0.210 HD
ENDBRANCH  30  31
ENDBRANCH   4  30
BRANCH  13  33
ATOM     33  O   UNL     1      -9.249   0.427 -21.833  1.00  0.00    -0.393 OA
ATOM     34  H   UNL     1      -9.670   0.699 -22.691  1.00  0.00     0.210 HD
ENDBRANCH  13  33
TORSDOF 4
ENDMDL
MODEL 7
REMARK VINA RESULT:    -2.068      1.757      7.974
REMARK INTER + INTRA:          -2.661
REMARK INTER:                  -2.363
REMARK INTRA:                  -0.298
REMARK UNBOUND:                -0.231
REMARK SMILES C=C(C)[C@H]1CC[C@@]2(CO)CC[C@@]3(C)[C@@H](CC[C@H]4[C@@]5(C)CC[C@H](O)C(C)(C)[C@H]5CC[C@@]43C)[C@@H]12
REMARK SMILES IDX 4 1 5 2 6 3 7 4 32 5 14 6 15 7 16 8 17 9 18 10 20 11 21 12
REMARK SMILES IDX 22 13 24 14 27 15 28 16 29 17 30 18 12 19 11 20 10 21 13 22
REMARK SMILES IDX 31 23 25 24 26 25 19 26 2 27 3 28 1 29 8 30 9 31 23 33
REMARK H PARENT 9 32 23 34
REMARK Flexibility Score: inf
ROOT
ATOM      1  C   UNL     1     -12.686  -8.601 -19.686  1.00  0.00     0.018 C 
ATOM      2  C   UNL     1     -11.375  -9.124 -20.290  1.00  0.00     0.009 C 
ATOM      3  C   UNL     1     -10.486  -7.904 -20.554  1.00  0.00     0.010 C 
ATOM      4  C   UNL     1     -10.968  -6.759 -19.619  1.00  0.00    -0.003 C 
ATOM      5  C   UNL     1     -12.234  -7.326 -18.920  1.00  0.00     0.008 C 
ATOM      6  C   UNL     1     -13.211  -6.251 -18.323  1.00  0.00    -0.000 C 
ATOM      7  C   UNL     1     -14.476  -6.834 -17.676  1.00  0.00     0.005 C 
ATOM      8  C   UNL     1     -15.133  -5.803 -16.748  1.00  0.00     0.005 C 
ATOM      9  C   UNL     1     -15.519  -4.512 -17.528  1.00  0.00     0.002 C 
ATOM     10  C   UNL     1     -16.597  -3.591 -16.781  1.00  0.00    -0.026 C 
ATOM     11  C   UNL     1     -16.223  -3.418 -15.272  1.00  0.00     0.010 C 
ATOM     12  C   UNL     1     -17.054  -2.376 -14.518  1.00  0.00     0.033 C 
ATOM     13  C   UNL     1     -17.045  -1.015 -15.222  1.00  0.00     0.120 C 
ATOM     14  C   UNL     1     -17.599  -1.092 -16.675  1.00  0.00    -0.006 C 
ATOM     15  C   UNL     1     -16.793  -2.182 -17.518  1.00  0.00     0.003 C 
ATOM     16  C   UNL     1     -15.477  -1.603 -18.108  1.00  0.00     0.005 C 
ATOM     17  C   UNL     1     -14.711  -2.610 -18.966  1.00  0.00     0.008 C 
ATOM     18  C   UNL     1     -14.226  -3.846 -18.168  1.00  0.00    -0.024 C 
ATOM     19  C   UNL     1     -13.485  -4.931 -19.140  1.00  0.00    -0.024 C 
ATOM     20  C   UNL     1     -12.099  -4.420 -19.667  1.00  0.00     0.008 C 
ATOM     21  C   UNL     1     -11.292  -5.481 -20.450  1.00  0.00     0.010 C 
ATOM     22  C   UNL     1     -14.358  -5.225 -20.400  1.00  0.00     0.012 C 
ATOM     23  C   UNL     1     -13.224  -3.316 -17.078  1.00  0.00     0.012 C 
ATOM     24  C   UNL     1     -17.476   0.327 -17.304  1.00  0.00     0.014 C 
ATOM     25  C   UNL     1     -19.125  -1.398 -16.677  1.00  0.00     0.014 C 
ATOM     26  C   UNL     1     -17.968  -4.369 -16.840  1.00  0.00     0.012 C 
ENDROOT
BRANCH   1  27
ATOM     27  C   UNL     1     -13.821  -8.516 -20.715  1.00  0.00    -0.077 C 
ATOM     28  C   UNL     1     -13.596  -7.767 -22.006  1.00  0.00     0.039 C 
ATOM     29  C   UNL     1     -15.082  -8.906 -20.446  1.00  0.00     0.008 C 
ENDBRANCH   1  27
BRANCH   4  30
ATOM     30  C   UNL     1      -9.851  -6.423 -18.580  1.00  0.00     0.163 C 
BRANCH  30  31
ATOM     31  O   UNL     1      -8.578  -6.469 -19.170  1.00  0.00    -0.396 OA
ATOM     32  H   UNL     1      -7.926  -6.349 -18.430  1.00  0.00     0.210 HD
ENDBRANCH  30  31
ENDBRANCH   4  30
BRANCH  13  33
ATOM     33  O   UNL     1     -17.795  -0.098 -14.463  1.00  0.00    -0.393 OA
ATOM     34  H   UNL     1     -17.251   0.135 -13.666  1.00  0.00     0.210 HD
ENDBRANCH  13  33
TORSDOF 4
ENDMDL
