MODEL 1
REMARK VINA RESULT:    -3.514      0.000      0.000
REMARK INTER + INTRA:          -8.074
REMARK INTER:                  -6.390
REMARK INTRA:                  -1.684
REMARK UNBOUND:                -1.684
REMARK SMILES CCCCCCCCCCCCCCCC(=O)[O-]
REMARK SMILES IDX 9 1 10 2 11 3 12 4 13 5 14 6 15 7 16 8 17 9 18 10 8 11 7 12
REMARK SMILES IDX 6 13 5 14 4 15 3 16 2 17 1 18
REMARK H PARENT
REMARK Flexibility Score: inf
ROOT
ATOM      1  C   UNL     1      53.381  52.517  47.308  1.00  0.00     0.000 C 
ENDROOT
BRANCH   1   2
ATOM      2  C   UNL     1      54.706  51.821  47.664  1.00  0.00     0.000 C 
BRANCH   2   3
ATOM      3  C   UNL     1      54.601  50.974  48.944  1.00  0.00     0.000 C 
BRANCH   3   4
ATOM      4  C   UNL     1      54.188  51.804  50.170  1.00  0.00     0.000 C 
BRANCH   4   5
ATOM      5  C   UNL     1      52.898  51.290  50.827  1.00  0.00     0.000 C 
BRANCH   5   6
ATOM      6  C   UNL     1      51.887  52.432  51.017  1.00  0.00     0.006 C 
BRANCH   6   7
ATOM      7  C   UNL     1      52.419  53.773  50.496  1.00  0.00     0.053 C 
BRANCH   7   8
ATOM      8  C   UNL     1      52.573  54.777  51.597  1.00  0.00     0.041 C 
ATOM      9  O   UNL     1      51.933  55.862  51.560  1.00  0.00    -0.550 OA
ATOM     10  O   UNL     1      53.396  54.500  52.681  1.00  0.00    -0.550 OA
ENDBRANCH   7   8
ENDBRANCH   6   7
ENDBRANCH   5   6
ENDBRANCH   4   5
ENDBRANCH   3   4
ENDBRANCH   2   3
ENDBRANCH   1   2
BRANCH   1  11
ATOM     11  C   UNL     1      53.561  54.009  46.987  1.00  0.00     0.000 C 
BRANCH  11  12
ATOM     12  C   UNL     1      55.022  54.324  46.645  1.00  0.00    -0.000 C 
BRANCH  12  13
ATOM     13  C   UNL     1      55.118  55.158  45.359  1.00  0.00    -0.000 C 
BRANCH  13  14
ATOM     14  C   UNL     1      55.048  56.669  45.627  1.00  0.00    -0.000 C 
BRANCH  14  15
ATOM     15  C   UNL     1      53.830  57.335  44.962  1.00  0.00    -0.000 C 
BRANCH  15  16
ATOM     16  C   UNL     1      53.057  56.358  44.052  1.00  0.00    -0.000 C 
BRANCH  16  17
ATOM     17  C   UNL     1      51.534  56.398  44.261  1.00  0.00    -0.003 C 
ATOM     18  C   UNL     1      51.134  56.632  45.716  1.00  0.00     0.004 C 
ENDBRANCH  16  17
ENDBRANCH  15  16
ENDBRANCH  14  15
ENDBRANCH  13  14
ENDBRANCH  12  13
ENDBRANCH  11  12
ENDBRANCH   1  11
TORSDOF 14
ENDMDL
MODEL 2
REMARK VINA RESULT:    -3.465      2.445      6.138
REMARK INTER + INTRA:          -7.985
REMARK INTER:                  -5.780
REMARK INTRA:                  -2.205
REMARK UNBOUND:                -1.684
REMARK SMILES CCCCCCCCCCCCCCCC(=O)[O-]
REMARK SMILES IDX 9 1 10 2 11 3 12 4 13 5 14 6 15 7 16 8 17 9 18 10 8 11 7 12
REMARK SMILES IDX 6 13 5 14 4 15 3 16 2 17 1 18
REMARK H PARENT
REMARK Flexibility Score: inf
ROOT
ATOM      1  C   UNL     1      55.410  51.856  48.881  1.00  0.00     0.000 C 
ENDROOT
BRANCH   1   2
ATOM      2  C   UNL     1      54.797  52.181  47.508  1.00  0.00     0.000 C 
BRANCH   2   3
ATOM      3  C   UNL     1      53.290  52.486  47.592  1.00  0.00     0.000 C 
BRANCH   3   4
ATOM      4  C   UNL     1      52.964  53.948  47.251  1.00  0.00     0.000 C 
BRANCH   4   5
ATOM      5  C   UNL     1      54.218  54.778  46.935  1.00  0.00     0.000 C 
BRANCH   5   6
ATOM      6  C   UNL     1      54.224  55.225  45.465  1.00  0.00     0.006 C 
BRANCH   6   7
ATOM      7  C   UNL     1      53.607  56.617  45.277  1.00  0.00     0.053 C 
BRANCH   7   8
ATOM      8  C   UNL     1      52.113  56.555  45.186  1.00  0.00     0.041 C 
ATOM      9  O   UNL     1      51.403  56.914  46.164  1.00  0.00    -0.550 OA
ATOM     10  O   UNL     1      51.504  56.133  44.012  1.00  0.00    -0.550 OA
ENDBRANCH   7   8
ENDBRANCH   6   7
ENDBRANCH   5   6
ENDBRANCH   4   5
ENDBRANCH   3   4
ENDBRANCH   2   3
ENDBRANCH   1   2
BRANCH   1  11
ATOM     11  C   UNL     1      54.814  50.589  49.513  1.00  0.00     0.000 C 
BRANCH  11  12
ATOM     12  C   UNL     1      54.190  50.899  50.879  1.00  0.00    -0.000 C 
BRANCH  12  13
ATOM     13  C   UNL     1      52.666  50.701  50.845  1.00  0.00    -0.000 C 
BRANCH  13  14
ATOM     14  C   UNL     1      51.895  52.025  50.958  1.00  0.00    -0.000 C 
BRANCH  14  15
ATOM     15  C   UNL     1      52.695  53.121  51.684  1.00  0.00    -0.000 C 
BRANCH  15  16
ATOM     16  C   UNL     1      52.626  54.475  50.948  1.00  0.00    -0.000 C 
BRANCH  16  17
ATOM     17  C   UNL     1      54.007  55.089  50.661  1.00  0.00    -0.003 C 
ATOM     18  C   UNL     1      55.123  54.475  51.504  1.00  0.00     0.004 C 
ENDBRANCH  16  17
ENDBRANCH  15  16
ENDBRANCH  14  15
ENDBRANCH  13  14
ENDBRANCH  12  13
ENDBRANCH  11  12
ENDBRANCH   1  11
TORSDOF 14
ENDMDL
MODEL 3
REMARK VINA RESULT:    -3.444      1.685      3.044
REMARK INTER + INTRA:          -7.946
REMARK INTER:                  -5.528
REMARK INTRA:                  -2.418
REMARK UNBOUND:                -1.684
REMARK SMILES CCCCCCCCCCCCCCCC(=O)[O-]
REMARK SMILES IDX 9 1 10 2 11 3 12 4 13 5 14 6 15 7 16 8 17 9 18 10 8 11 7 12
REMARK SMILES IDX 6 13 5 14 4 15 3 16 2 17 1 18
REMARK H PARENT
REMARK Flexibility Score: inf
ROOT
ATOM      1  C   UNL     1      55.096  54.154  45.764  1.00  0.00     0.000 C 
ENDROOT
BRANCH   1   2
ATOM      2  C   UNL     1      55.776  53.774  47.090  1.00  0.00     0.000 C 
BRANCH   2   3
ATOM      3  C   UNL     1      54.813  53.082  48.071  1.00  0.00     0.000 C 
BRANCH   3   4
ATOM      4  C   UNL     1      53.441  52.789  47.443  1.00  0.00     0.000 C 
BRANCH   4   5
ATOM      5  C   UNL     1      52.308  52.764  48.479  1.00  0.00     0.000 C 
BRANCH   5   6
ATOM      6  C   UNL     1      52.762  52.071  49.773  1.00  0.00     0.006 C 
BRANCH   6   7
ATOM      7  C   UNL     1      51.875  52.434  50.971  1.00  0.00     0.053 C 
BRANCH   7   8
ATOM      8  C   UNL     1      52.422  53.601  51.734  1.00  0.00     0.041 C 
ATOM      9  O   UNL     1      53.086  53.414  52.788  1.00  0.00    -0.550 OA
ATOM     10  O   UNL     1      52.227  54.893  51.264  1.00  0.00    -0.550 OA
ENDBRANCH   7   8
ENDBRANCH   6   7
ENDBRANCH   5   6
ENDBRANCH   4   5
ENDBRANCH   3   4
ENDBRANCH   2   3
ENDBRANCH   1   2
BRANCH   1  11
ATOM     11  C   UNL     1      55.498  55.552  45.268  1.00  0.00     0.000 C 
BRANCH  11  12
ATOM     12  C   UNL     1      54.268  56.351  44.825  1.00  0.00    -0.000 C 
BRANCH  12  13
ATOM     13  C   UNL     1      52.972  55.677  45.301  1.00  0.00    -0.000 C 
BRANCH  13  14
ATOM     14  C   UNL     1      52.073  56.625  46.108  1.00  0.00    -0.000 C 
BRANCH  14  15
ATOM     15  C   UNL     1      52.867  57.519  47.077  1.00  0.00    -0.000 C 
BRANCH  15  16
ATOM     16  C   UNL     1      53.098  56.837  48.441  1.00  0.00    -0.000 C 
BRANCH  16  17
ATOM     17  C   UNL     1      54.582  56.712  48.823  1.00  0.00    -0.003 C 
ATOM     18  C   UNL     1      55.443  57.840  48.259  1.00  0.00     0.004 C 
ENDBRANCH  16  17
ENDBRANCH  15  16
ENDBRANCH  14  15
ENDBRANCH  13  14
ENDBRANCH  12  13
ENDBRANCH  11  12
ENDBRANCH   1  11
TORSDOF 14
ENDMDL
MODEL 4
REMARK VINA RESULT:    -3.433      3.024      5.738
REMARK INTER + INTRA:          -7.928
REMARK INTER:                  -5.387
REMARK INTRA:                  -2.540
REMARK UNBOUND:                -1.684
REMARK SMILES CCCCCCCCCCCCCCCC(=O)[O-]
REMARK SMILES IDX 9 1 10 2 11 3 12 4 13 5 14 6 15 7 16 8 17 9 18 10 8 11 7 12
REMARK SMILES IDX 6 13 5 14 4 15 3 16 2 17 1 18
REMARK H PARENT
REMARK Flexibility Score: inf
ROOT
ATOM      1  C   UNL     1      52.056  52.752  51.127  1.00  0.00     0.000 C 
ENDROOT
BRANCH   1   2
ATOM      2  C   UNL     1      52.528  51.489  50.386  1.00  0.00     0.000 C 
BRANCH   2   3
ATOM      3  C   UNL     1      53.415  51.814  49.172  1.00  0.00     0.000 C 
BRANCH   3   4
ATOM      4  C   UNL     1      52.634  52.487  48.032  1.00  0.00     0.000 C 
BRANCH   4   5
ATOM      5  C   UNL     1      53.486  53.488  47.238  1.00  0.00     0.000 C 
BRANCH   5   6
ATOM      6  C   UNL     1      52.733  54.812  47.037  1.00  0.00     0.006 C 
BRANCH   6   7
ATOM      7  C   UNL     1      53.598  55.876  46.349  1.00  0.00     0.053 C 
BRANCH   7   8
ATOM      8  C   UNL     1      53.098  56.196  44.974  1.00  0.00     0.041 C 
ATOM      9  O   UNL     1      53.909  56.312  44.016  1.00  0.00    -0.550 OA
ATOM     10  O   UNL     1      51.736  56.333  44.743  1.00  0.00    -0.550 OA
ENDBRANCH   7   8
ENDBRANCH   6   7
ENDBRANCH   5   6
ENDBRANCH   4   5
ENDBRANCH   3   4
ENDBRANCH   2   3
ENDBRANCH   1   2
BRANCH   1  11
ATOM     11  C   UNL     1      53.053  53.218  52.199  1.00  0.00     0.000 C 
BRANCH  11  12
ATOM     12  C   UNL     1      53.224  54.741  52.162  1.00  0.00    -0.000 C 
BRANCH  12  13
ATOM     13  C   UNL     1      52.504  55.347  50.948  1.00  0.00    -0.000 C 
BRANCH  13  14
ATOM     14  C   UNL     1      53.410  56.271  50.121  1.00  0.00    -0.000 C 
BRANCH  14  15
ATOM     15  C   UNL     1      54.893  56.164  50.520  1.00  0.00    -0.000 C 
BRANCH  15  16
ATOM     16  C   UNL     1      55.757  55.563  49.392  1.00  0.00    -0.000 C 
BRANCH  16  17
ATOM     17  C   UNL     1      56.139  54.091  49.627  1.00  0.00    -0.003 C 
ATOM     18  C   UNL     1      56.627  53.819  51.049  1.00  0.00     0.004 C 
ENDBRANCH  16  17
ENDBRANCH  15  16
ENDBRANCH  14  15
ENDBRANCH  13  14
ENDBRANCH  12  13
ENDBRANCH  11  12
ENDBRANCH   1  11
TORSDOF 14
ENDMDL
MODEL 5
REMARK VINA RESULT:    -3.413      2.515      5.622
REMARK INTER + INTRA:          -7.891
REMARK INTER:                  -5.025
REMARK INTRA:                  -2.865
REMARK UNBOUND:                -1.684
REMARK SMILES CCCCCCCCCCCCCCCC(=O)[O-]
REMARK SMILES IDX 9 1 10 2 11 3 12 4 13 5 14 6 15 7 16 8 17 9 18 10 8 11 7 12
REMARK SMILES IDX 6 13 5 14 4 15 3 16 2 17 1 18
REMARK H PARENT
REMARK Flexibility Score: inf
ROOT
ATOM      1  C   UNL     1      56.475  52.547  48.720  1.00  0.00     0.000 C 
ENDROOT
BRANCH   1   2
ATOM      2  C   UNL     1      55.343  51.556  48.401  1.00  0.00     0.000 C 
BRANCH   2   3
ATOM      3  C   UNL     1      54.474  52.014  47.216  1.00  0.00     0.000 C 
BRANCH   3   4
ATOM      4  C   UNL     1      53.097  52.533  47.659  1.00  0.00     0.000 C 
BRANCH   4   5
ATOM      5  C   UNL     1      52.894  54.022  47.339  1.00  0.00     0.000 C 
BRANCH   5   6
ATOM      6  C   UNL     1      54.008  54.543  46.419  1.00  0.00     0.006 C 
BRANCH   6   7
ATOM      7  C   UNL     1      54.228  56.054  46.569  1.00  0.00     0.053 C 
BRANCH   7   8
ATOM      8  C   UNL     1      53.098  56.842  45.982  1.00  0.00     0.041 C 
ATOM      9  O   UNL     1      53.012  56.993  44.734  1.00  0.00    -0.550 OA
ATOM     10  O   UNL     1      52.122  57.382  46.810  1.00  0.00    -0.550 OA
ENDBRANCH   7   8
ENDBRANCH   6   7
ENDBRANCH   5   6
ENDBRANCH   4   5
ENDBRANCH   3   4
ENDBRANCH   2   3
ENDBRANCH   1   2
BRANCH   1  11
ATOM     11  C   UNL     1      56.231  53.329  50.021  1.00  0.00     0.000 C 
BRANCH  11  12
ATOM     12  C   UNL     1      56.051  54.824  49.736  1.00  0.00    -0.000 C 
BRANCH  12  13
ATOM     13  C   UNL     1      54.666  55.308  50.194  1.00  0.00    -0.000 C 
BRANCH  13  14
ATOM     14  C   UNL     1      54.022  54.370  51.225  1.00  0.00    -0.000 C 
BRANCH  14  15
ATOM     15  C   UNL     1      52.486  54.341  51.126  1.00  0.00    -0.000 C 
BRANCH  15  16
ATOM     16  C   UNL     1      51.929  52.902  51.140  1.00  0.00    -0.000 C 
BRANCH  16  17
ATOM     17  C   UNL     1      53.000  51.832  51.409  1.00  0.00    -0.003 C 
ATOM     18  C   UNL     1      52.663  50.478  50.787  1.00  0.00     0.004 C 
ENDBRANCH  16  17
ENDBRANCH  15  16
ENDBRANCH  14  15
ENDBRANCH  13  14
ENDBRANCH  12  13
ENDBRANCH  11  12
ENDBRANCH   1  11
TORSDOF 14
ENDMDL
MODEL 6
REMARK VINA RESULT:    -3.397     11.470     13.907
REMARK INTER + INTRA:          -7.862
REMARK INTER:                  -5.758
REMARK INTRA:                  -2.104
REMARK UNBOUND:                -1.684
REMARK SMILES CCCCCCCCCCCCCCCC(=O)[O-]
REMARK SMILES IDX 9 1 10 2 11 3 12 4 13 5 14 6 15 7 16 8 17 9 18 10 8 11 7 12
REMARK SMILES IDX 6 13 5 14 4 15 3 16 2 17 1 18
REMARK H PARENT
REMARK Flexibility Score: inf
ROOT
ATOM      1  C   UNL     1      53.112  55.883  60.201  1.00  0.00     0.000 C 
ENDROOT
BRANCH   1   2
ATOM      2  C   UNL     1      52.826  54.540  60.894  1.00  0.00     0.000 C 
BRANCH   2   3
ATOM      3  C   UNL     1      51.573  53.842  60.335  1.00  0.00     0.000 C 
BRANCH   3   4
ATOM      4  C   UNL     1      50.585  53.430  61.438  1.00  0.00     0.000 C 
BRANCH   4   5
ATOM      5  C   UNL     1      51.289  52.990  62.731  1.00  0.00     0.000 C 
BRANCH   5   6
ATOM      6  C   UNL     1      51.005  51.510  63.033  1.00  0.00     0.006 C 
BRANCH   6   7
ATOM      7  C   UNL     1      50.258  50.814  61.888  1.00  0.00     0.053 C 
BRANCH   7   8
ATOM      8  C   UNL     1      50.118  49.343  62.128  1.00  0.00     0.041 C 
ATOM      9  O   UNL     1      49.755  48.917  63.257  1.00  0.00    -0.550 OA
ATOM     10  O   UNL     1      50.357  48.443  61.097  1.00  0.00    -0.550 OA
ENDBRANCH   7   8
ENDBRANCH   6   7
ENDBRANCH   5   6
ENDBRANCH   4   5
ENDBRANCH   3   4
ENDBRANCH   2   3
ENDBRANCH   1   2
BRANCH   1  11
ATOM     11  C   UNL     1      52.793  57.092  61.093  1.00  0.00     0.000 C 
BRANCH  11  12
ATOM     12  C   UNL     1      52.339  56.641  62.486  1.00  0.00    -0.000 C 
BRANCH  12  13
ATOM     13  C   UNL     1      50.862  56.992  62.724  1.00  0.00    -0.000 C 
BRANCH  13  14
ATOM     14  C   UNL     1      50.223  57.707  61.524  1.00  0.00    -0.000 C 
BRANCH  14  15
ATOM     15  C   UNL     1      49.166  56.844  60.811  1.00  0.00    -0.000 C 
BRANCH  15  16
ATOM     16  C   UNL     1      49.439  56.721  59.298  1.00  0.00    -0.000 C 
BRANCH  16  17
ATOM     17  C   UNL     1      50.049  57.991  58.679  1.00  0.00    -0.003 C 
ATOM     18  C   UNL     1      49.884  58.056  57.162  1.00  0.00     0.004 C 
ENDBRANCH  16  17
ENDBRANCH  15  16
ENDBRANCH  14  15
ENDBRANCH  13  14
ENDBRANCH  12  13
ENDBRANCH  11  12
ENDBRANCH   1  11
TORSDOF 14
ENDMDL
MODEL 7
REMARK VINA RESULT:    -3.386      1.988      3.232
REMARK INTER + INTRA:          -7.841
REMARK INTER:                  -5.531
REMARK INTRA:                  -2.310
REMARK UNBOUND:                -1.684
REMARK SMILES CCCCCCCCCCCCCCCC(=O)[O-]
REMARK SMILES IDX 9 1 10 2 11 3 12 4 13 5 14 6 15 7 16 8 17 9 18 10 8 11 7 12
REMARK SMILES IDX 6 13 5 14 4 15 3 16 2 17 1 18
REMARK H PARENT
REMARK Flexibility Score: inf
ROOT
ATOM      1  C   UNL     1      54.488  57.107  48.984  1.00  0.00     0.000 C 
ENDROOT
BRANCH   1   2
ATOM      2  C   UNL     1      54.545  55.586  48.756  1.00  0.00     0.000 C 
BRANCH   2   3
ATOM      3  C   UNL     1      53.205  55.013  48.264  1.00  0.00     0.000 C 
BRANCH   3   4
ATOM      4  C   UNL     1      53.384  53.763  47.388  1.00  0.00     0.000 C 
BRANCH   4   5
ATOM      5  C   UNL     1      52.694  52.522  47.975  1.00  0.00     0.000 C 
BRANCH   5   6
ATOM      6  C   UNL     1      53.707  51.624  48.702  1.00  0.00     0.006 C 
BRANCH   6   7
ATOM      7  C   UNL     1      53.232  51.228  50.106  1.00  0.00     0.053 C 
BRANCH   7   8
ATOM      8  C   UNL     1      52.938  52.428  50.953  1.00  0.00     0.041 C 
ATOM      9  O   UNL     1      53.873  53.190  51.318  1.00  0.00    -0.550 OA
ATOM     10  O   UNL     1      51.630  52.724  51.312  1.00  0.00    -0.550 OA
ENDBRANCH   7   8
ENDBRANCH   6   7
ENDBRANCH   5   6
ENDBRANCH   4   5
ENDBRANCH   3   4
ENDBRANCH   2   3
ENDBRANCH   1   2
BRANCH   1  11
ATOM     11  C   UNL     1      53.110  57.704  48.660  1.00  0.00     0.000 C 
BRANCH  11  12
ATOM     12  C   UNL     1      53.238  58.877  47.681  1.00  0.00    -0.000 C 
BRANCH  12  13
ATOM     13  C   UNL     1      54.584  58.832  46.941  1.00  0.00    -0.000 C 
BRANCH  13  14
ATOM     14  C   UNL     1      54.447  58.336  45.493  1.00  0.00    -0.000 C 
BRANCH  14  15
ATOM     15  C   UNL     1      54.935  56.888  45.311  1.00  0.00    -0.000 C 
BRANCH  15  16
ATOM     16  C   UNL     1      53.893  56.011  44.586  1.00  0.00    -0.000 C 
BRANCH  16  17
ATOM     17  C   UNL     1      52.539  56.710  44.377  1.00  0.00    -0.003 C 
ATOM     18  C   UNL     1      51.503  56.339  45.436  1.00  0.00     0.004 C 
ENDBRANCH  16  17
ENDBRANCH  15  16
ENDBRANCH  14  15
ENDBRANCH  13  14
ENDBRANCH  12  13
ENDBRANCH  11  12
ENDBRANCH   1  11
TORSDOF 14
ENDMDL
MODEL 8
REMARK VINA RESULT:    -3.383      2.662      6.092
REMARK INTER + INTRA:          -7.836
REMARK INTER:                  -5.320
REMARK INTRA:                  -2.516
REMARK UNBOUND:                -1.684
REMARK SMILES CCCCCCCCCCCCCCCC(=O)[O-]
REMARK SMILES IDX 9 1 10 2 11 3 12 4 13 5 14 6 15 7 16 8 17 9 18 10 8 11 7 12
REMARK SMILES IDX 6 13 5 14 4 15 3 16 2 17 1 18
REMARK H PARENT
REMARK Flexibility Score: inf
ROOT
ATOM      1  C   UNL     1      55.241  50.994  50.268  1.00  0.00     0.000 C 
ENDROOT
BRANCH   1   2
ATOM      2  C   UNL     1      55.891  52.385  50.185  1.00  0.00     0.000 C 
BRANCH   2   3
ATOM      3  C   UNL     1      55.757  53.017  48.788  1.00  0.00     0.000 C 
BRANCH   3   4
ATOM      4  C   UNL     1      55.115  52.063  47.768  1.00  0.00     0.000 C 
BRANCH   4   5
ATOM      5  C   UNL     1      54.003  52.734  46.947  1.00  0.00     0.000 C 
BRANCH   5   6
ATOM      6  C   UNL     1      54.228  54.251  46.856  1.00  0.00     0.006 C 
BRANCH   6   7
ATOM      7  C   UNL     1      52.916  55.041  46.946  1.00  0.00     0.053 C 
BRANCH   7   8
ATOM      8  C   UNL     1      52.636  55.800  45.686  1.00  0.00     0.041 C 
ATOM      9  O   UNL     1      51.512  56.342  45.509  1.00  0.00    -0.550 OA
ATOM     10  O   UNL     1      53.626  55.938  44.721  1.00  0.00    -0.550 OA
ENDBRANCH   7   8
ENDBRANCH   6   7
ENDBRANCH   5   6
ENDBRANCH   4   5
ENDBRANCH   3   4
ENDBRANCH   2   3
ENDBRANCH   1   2
BRANCH   1  11
ATOM     11  C   UNL     1      54.160  50.906  51.356  1.00  0.00     0.000 C 
BRANCH  11  12
ATOM     12  C   UNL     1      52.764  50.786  50.733  1.00  0.00    -0.000 C 
BRANCH  12  13
ATOM     13  C   UNL     1      51.933  52.050  50.997  1.00  0.00    -0.000 C 
BRANCH  13  14
ATOM     14  C   UNL     1      52.241  53.180  50.002  1.00  0.00    -0.000 C 
BRANCH  14  15
ATOM     15  C   UNL     1      52.622  54.499  50.698  1.00  0.00    -0.000 C 
BRANCH  15  16
ATOM     16  C   UNL     1      52.911  54.301  52.201  1.00  0.00    -0.000 C 
BRANCH  16  17
ATOM     17  C   UNL     1      54.396  54.458  52.567  1.00  0.00    -0.003 C 
ATOM     18  C   UNL     1      54.802  53.636  53.789  1.00  0.00     0.004 C 
ENDBRANCH  16  17
ENDBRANCH  15  16
ENDBRANCH  14  15
ENDBRANCH  13  14
ENDBRANCH  12  13
ENDBRANCH  11  12
ENDBRANCH   1  11
TORSDOF 14
ENDMDL
MODEL 9
REMARK VINA RESULT:    -3.374      1.901      2.851
REMARK INTER + INTRA:          -7.820
REMARK INTER:                  -5.658
REMARK INTRA:                  -2.161
REMARK UNBOUND:                -1.684
REMARK SMILES CCCCCCCCCCCCCCCC(=O)[O-]
REMARK SMILES IDX 9 1 10 2 11 3 12 4 13 5 14 6 15 7 16 8 17 9 18 10 8 11 7 12
REMARK SMILES IDX 6 13 5 14 4 15 3 16 2 17 1 18
REMARK H PARENT
REMARK Flexibility Score: inf
ROOT
ATOM      1  C   UNL     1      52.320  52.609  48.376  1.00  0.00     0.000 C 
ENDROOT
BRANCH   1   2
ATOM      2  C   UNL     1      52.918  52.384  49.776  1.00  0.00     0.000 C 
BRANCH   2   3
ATOM      3  C   UNL     1      52.043  52.980  50.893  1.00  0.00     0.000 C 
BRANCH   3   4
ATOM      4  C   UNL     1      52.681  54.217  51.545  1.00  0.00     0.000 C 
BRANCH   4   5
ATOM      5  C   UNL     1      54.145  54.420  51.128  1.00  0.00     0.000 C 
BRANCH   5   6
ATOM      6  C   UNL     1      54.351  55.807  50.501  1.00  0.00     0.006 C 
BRANCH   6   7
ATOM      7  C   UNL     1      53.314  56.112  49.411  1.00  0.00     0.053 C 
BRANCH   7   8
ATOM      8  C   UNL     1      53.001  57.575  49.336  1.00  0.00     0.041 C 
ATOM      9  O   UNL     1      52.526  58.174  50.337  1.00  0.00    -0.550 OA
ATOM     10  O   UNL     1      53.265  58.284  48.171  1.00  0.00    -0.550 OA
ENDBRANCH   7   8
ENDBRANCH   6   7
ENDBRANCH   5   6
ENDBRANCH   4   5
ENDBRANCH   3   4
ENDBRANCH   2   3
ENDBRANCH   1   2
BRANCH   1  11
ATOM     11  C   UNL     1      53.390  52.661  47.275  1.00  0.00     0.000 C 
BRANCH  11  12
ATOM     12  C   UNL     1      54.784  52.881  47.875  1.00  0.00    -0.000 C 
BRANCH  12  13
ATOM     13  C   UNL     1      55.522  54.017  47.150  1.00  0.00    -0.000 C 
BRANCH  13  14
ATOM     14  C   UNL     1      54.830  54.435  45.844  1.00  0.00    -0.000 C 
BRANCH  14  15
ATOM     15  C   UNL     1      54.351  55.897  45.866  1.00  0.00    -0.000 C 
BRANCH  15  16
ATOM     16  C   UNL     1      53.790  56.345  44.500  1.00  0.00    -0.000 C 
BRANCH  16  17
ATOM     17  C   UNL     1      52.258  56.242  44.401  1.00  0.00    -0.003 C 
ATOM     18  C   UNL     1      51.560  56.379  45.752  1.00  0.00     0.004 C 
ENDBRANCH  16  17
ENDBRANCH  15  16
ENDBRANCH  14  15
ENDBRANCH  13  14
ENDBRANCH  12  13
ENDBRANCH  11  12
ENDBRANCH   1  11
TORSDOF 14
ENDMDL
