MODEL 1
REMARK VINA RESULT:    -7.167      0.000      0.000
REMARK INTER + INTRA:         -11.356
REMARK INTER:                 -10.100
REMARK INTRA:                  -1.256
REMARK UNBOUND:                -1.256
REMARK SMILES C=CC(=C)CCC=C(C)CCC=C(C)C
REMARK SMILES IDX 8 1 7 2 9 3 10 4 11 5 12 6 14 7 13 8 15 9 6 10 5 11 3 12
REMARK SMILES IDX 4 13 2 14 1 15
REMARK H PARENT
REMARK Flexibility Score: inf
ROOT
ATOM      1  C   UNL     1      -2.243 -14.731  10.432  1.00  0.00    -0.077 C 
ATOM      2  C   UNL     1      -2.080 -15.981   9.942  1.00  0.00    -0.028 C 
ATOM      3  C   UNL     1      -2.327 -13.522   9.529  1.00  0.00     0.039 C 
ENDROOT
BRANCH   1   4
ATOM      4  C   UNL     1      -2.344 -14.535  11.931  1.00  0.00     0.034 C 
BRANCH   4   5
ATOM      5  C   UNL     1      -2.822 -15.807  12.644  1.00  0.00     0.032 C 
BRANCH   5   6
ATOM      6  C   UNL     1      -2.117 -16.007  13.965  1.00  0.00    -0.028 C 
ATOM      7  C   UNL     1      -0.844 -17.199  15.695  1.00  0.00     0.039 C 
ATOM      8  C   UNL     1      -1.454 -17.130  14.319  1.00  0.00    -0.080 C 
ATOM      9  C   UNL     1      -1.293 -18.298  13.375  1.00  0.00     0.039 C 
ENDBRANCH   5   6
ENDBRANCH   4   5
ENDBRANCH   1   4
BRANCH   2  10
ATOM     10  C   UNL     1      -2.020 -16.332   8.475  1.00  0.00     0.032 C 
BRANCH  10  11
ATOM     11  C   UNL     1      -3.206 -17.215   8.064  1.00  0.00     0.039 C 
BRANCH  11  12
ATOM     12  C   UNL     1      -4.467 -16.403   7.842  1.00  0.00    -0.055 C 
ATOM     13  C   UNL     1      -5.460 -16.484   8.736  1.00  0.00     0.012 C 
BRANCH  12  14
ATOM     14  C   UNL     1      -4.627 -15.486   6.684  1.00  0.00    -0.005 C 
ATOM     15  C   UNL     1      -4.816 -14.170   6.795  1.00  0.00     0.009 C 
ENDBRANCH  12  14
ENDBRANCH  11  12
ENDBRANCH  10  11
ENDBRANCH   2  10
TORSDOF 7
ENDMDL
MODEL 2
REMARK VINA RESULT:    -6.952      1.353      2.879
REMARK INTER + INTRA:         -11.053
REMARK INTER:                  -9.251
REMARK INTRA:                  -1.801
REMARK UNBOUND:                -1.256
REMARK SMILES C=CC(=C)CCC=C(C)CCC=C(C)C
REMARK SMILES IDX 8 1 7 2 9 3 10 4 11 5 12 6 14 7 13 8 15 9 6 10 5 11 3 12
REMARK SMILES IDX 4 13 2 14 1 15
REMARK H PARENT
REMARK Flexibility Score: inf
ROOT
ATOM      1  C   UNL     1      -2.224 -14.532   8.535  1.00  0.00    -0.077 C 
ATOM      2  C   UNL     1      -3.514 -14.587   8.133  1.00  0.00    -0.028 C 
ATOM      3  C   UNL     1      -1.175 -15.474   7.991  1.00  0.00     0.039 C 
ENDROOT
BRANCH   1   4
ATOM      4  C   UNL     1      -1.817 -13.496   9.563  1.00  0.00     0.034 C 
BRANCH   4   5
ATOM      5  C   UNL     1      -2.343 -13.842  10.964  1.00  0.00     0.032 C 
BRANCH   5   6
ATOM      6  C   UNL     1      -1.971 -15.249  11.369  1.00  0.00    -0.028 C 
ATOM      7  C   UNL     1      -1.727 -17.186  12.860  1.00  0.00     0.039 C 
ATOM      8  C   UNL     1      -2.203 -15.783  12.589  1.00  0.00    -0.080 C 
ATOM      9  C   UNL     1      -2.938 -15.025  13.669  1.00  0.00     0.039 C 
ENDBRANCH   5   6
ENDBRANCH   4   5
ENDBRANCH   1   4
BRANCH   2  10
ATOM     10  C   UNL     1      -4.051 -15.527   7.078  1.00  0.00     0.032 C 
BRANCH  10  11
ATOM     11  C   UNL     1      -5.024 -16.546   7.685  1.00  0.00     0.039 C 
BRANCH  11  12
ATOM     12  C   UNL     1      -4.335 -17.479   8.660  1.00  0.00    -0.055 C 
ATOM     13  C   UNL     1      -3.452 -18.371   8.197  1.00  0.00     0.012 C 
BRANCH  12  14
ATOM     14  C   UNL     1      -4.575 -17.412  10.125  1.00  0.00    -0.005 C 
ATOM     15  C   UNL     1      -5.365 -16.511  10.712  1.00  0.00     0.009 C 
ENDBRANCH  12  14
ENDBRANCH  11  12
ENDBRANCH  10  11
ENDBRANCH   2  10
TORSDOF 7
ENDMDL
MODEL 3
REMARK VINA RESULT:    -6.763      1.313      6.849
REMARK INTER + INTRA:         -10.786
REMARK INTER:                  -9.847
REMARK INTRA:                  -0.939
REMARK UNBOUND:                -1.256
REMARK SMILES C=CC(=C)CCC=C(C)CCC=C(C)C
REMARK SMILES IDX 8 1 7 2 9 3 10 4 11 5 12 6 14 7 13 8 15 9 6 10 5 11 3 12
REMARK SMILES IDX 4 13 2 14 1 15
REMARK H PARENT
REMARK Flexibility Score: inf
ROOT
ATOM      1  C   UNL     1      -3.602 -16.822  10.345  1.00  0.00    -0.077 C 
ATOM      2  C   UNL     1      -3.479 -16.087  11.473  1.00  0.00    -0.028 C 
ATOM      3  C   UNL     1      -2.403 -17.407   9.636  1.00  0.00     0.039 C 
ENDROOT
BRANCH   1   4
ATOM      4  C   UNL     1      -4.984 -17.065   9.772  1.00  0.00     0.034 C 
BRANCH   4   5
ATOM      5  C   UNL     1      -4.979 -17.045   8.237  1.00  0.00     0.032 C 
BRANCH   5   6
ATOM      6  C   UNL     1      -5.416 -15.705   7.693  1.00  0.00    -0.028 C 
ATOM      7  C   UNL     1      -5.160 -13.432   6.797  1.00  0.00     0.039 C 
ATOM      8  C   UNL     1      -4.573 -14.739   7.265  1.00  0.00    -0.080 C 
ATOM      9  C   UNL     1      -3.077 -14.939   7.226  1.00  0.00     0.039 C 
ENDBRANCH   5   6
ENDBRANCH   4   5
ENDBRANCH   1   4
BRANCH   2  10
ATOM     10  C   UNL     1      -2.176 -15.810  12.186  1.00  0.00     0.032 C 
BRANCH  10  11
ATOM     11  C   UNL     1      -2.315 -16.013  13.700  1.00  0.00     0.039 C 
BRANCH  11  12
ATOM     12  C   UNL     1      -1.551 -17.229  14.183  1.00  0.00    -0.055 C 
ATOM     13  C   UNL     1      -1.268 -18.208  13.316  1.00  0.00     0.012 C 
BRANCH  12  14
ATOM     14  C   UNL     1      -1.066 -17.357  15.582  1.00  0.00    -0.005 C 
ATOM     15  C   UNL     1       0.201 -17.612  15.913  1.00  0.00     0.009 C 
ENDBRANCH  12  14
ENDBRANCH  11  12
ENDBRANCH  10  11
ENDBRANCH   2  10
TORSDOF 7
ENDMDL
MODEL 4
REMARK VINA RESULT:    -6.747      1.312      1.972
REMARK INTER + INTRA:         -10.763
REMARK INTER:                  -9.444
REMARK INTRA:                  -1.320
REMARK UNBOUND:                -1.256
REMARK SMILES C=CC(=C)CCC=C(C)CCC=C(C)C
REMARK SMILES IDX 8 1 7 2 9 3 10 4 11 5 12 6 14 7 13 8 15 9 6 10 5 11 3 12
REMARK SMILES IDX 4 13 2 14 1 15
REMARK H PARENT
REMARK Flexibility Score: inf
ROOT
ATOM      1  C   UNL     1      -4.292 -16.543  10.948  1.00  0.00    -0.077 C 
ATOM      2  C   UNL     1      -3.425 -17.269  10.205  1.00  0.00    -0.028 C 
ATOM      3  C   UNL     1      -5.771 -16.504  10.641  1.00  0.00     0.039 C 
ENDROOT
BRANCH   1   4
ATOM      4  C   UNL     1      -3.765 -15.744  12.123  1.00  0.00     0.034 C 
BRANCH   4   5
ATOM      5  C   UNL     1      -2.271 -16.001  12.366  1.00  0.00     0.032 C 
BRANCH   5   6
ATOM      6  C   UNL     1      -1.967 -16.187  13.834  1.00  0.00    -0.028 C 
ATOM      7  C   UNL     1      -1.170 -17.335  15.854  1.00  0.00     0.039 C 
ATOM      8  C   UNL     1      -1.358 -17.272  14.360  1.00  0.00    -0.080 C 
ATOM      9  C   UNL     1      -0.848 -18.402  13.497  1.00  0.00     0.039 C 
ENDBRANCH   5   6
ENDBRANCH   4   5
ENDBRANCH   1   4
BRANCH   2  10
ATOM     10  C   UNL     1      -3.814 -18.153   9.044  1.00  0.00     0.032 C 
BRANCH  10  11
ATOM     11  C   UNL     1      -3.261 -17.609   7.720  1.00  0.00     0.039 C 
BRANCH  11  12
ATOM     12  C   UNL     1      -3.748 -16.203   7.436  1.00  0.00    -0.055 C 
ATOM     13  C   UNL     1      -5.021 -16.016   7.068  1.00  0.00     0.012 C 
BRANCH  12  14
ATOM     14  C   UNL     1      -2.871 -15.013   7.592  1.00  0.00    -0.005 C 
ATOM     15  C   UNL     1      -3.135 -13.993   8.410  1.00  0.00     0.009 C 
ENDBRANCH  12  14
ENDBRANCH  11  12
ENDBRANCH  10  11
ENDBRANCH   2  10
TORSDOF 7
ENDMDL
MODEL 5
REMARK VINA RESULT:    -6.726      3.189      8.529
REMARK INTER + INTRA:         -10.734
REMARK INTER:                 -10.248
REMARK INTRA:                  -0.486
REMARK UNBOUND:                -1.256
REMARK SMILES C=CC(=C)CCC=C(C)CCC=C(C)C
REMARK SMILES IDX 8 1 7 2 9 3 10 4 11 5 12 6 14 7 13 8 15 9 6 10 5 11 3 12
REMARK SMILES IDX 4 13 2 14 1 15
REMARK H PARENT
REMARK Flexibility Score: inf
ROOT
ATOM      1  C   UNL     1      -0.751 -17.706  14.716  1.00  0.00    -0.077 C 
ATOM      2  C   UNL     1       0.544 -18.052  14.895  1.00  0.00    -0.028 C 
ATOM      3  C   UNL     1      -1.629 -17.271  15.866  1.00  0.00     0.039 C 
ENDROOT
BRANCH   1   4
ATOM      4  C   UNL     1      -1.341 -17.757  13.321  1.00  0.00     0.034 C 
BRANCH   4   5
ATOM      5  C   UNL     1      -2.018 -16.434  12.936  1.00  0.00     0.032 C 
BRANCH   5   6
ATOM      6  C   UNL     1      -2.407 -16.408  11.477  1.00  0.00    -0.028 C 
ATOM      7  C   UNL     1      -2.948 -15.417   9.295  1.00  0.00     0.039 C 
ATOM      8  C   UNL     1      -2.495 -15.287  10.726  1.00  0.00    -0.080 C 
ATOM      9  C   UNL     1      -2.137 -13.926  11.273  1.00  0.00     0.039 C 
ENDBRANCH   5   6
ENDBRANCH   4   5
ENDBRANCH   1   4
BRANCH   2  10
ATOM     10  C   UNL     1       1.278 -17.997  16.213  1.00  0.00     0.032 C 
BRANCH  10  11
ATOM     11  C   UNL     1       2.492 -18.935  16.215  1.00  0.00     0.039 C 
BRANCH  11  12
ATOM     12  C   UNL     1       3.798 -18.174  16.109  1.00  0.00    -0.055 C 
ATOM     13  C   UNL     1       4.681 -18.522  15.166  1.00  0.00     0.012 C 
BRANCH  12  14
ATOM     14  C   UNL     1       4.120 -17.025  16.995  1.00  0.00    -0.005 C 
ATOM     15  C   UNL     1       5.298 -16.400  17.008  1.00  0.00     0.009 C 
ENDBRANCH  12  14
ENDBRANCH  11  12
ENDBRANCH  10  11
ENDBRANCH   2  10
TORSDOF 7
ENDMDL
MODEL 6
REMARK VINA RESULT:    -6.692      1.450      6.862
REMARK INTER + INTRA:         -10.687
REMARK INTER:                  -9.631
REMARK INTRA:                  -1.056
REMARK UNBOUND:                -1.256
REMARK SMILES C=CC(=C)CCC=C(C)CCC=C(C)C
REMARK SMILES IDX 8 1 7 2 9 3 10 4 11 5 12 6 14 7 13 8 15 9 6 10 5 11 3 12
REMARK SMILES IDX 4 13 2 14 1 15
REMARK H PARENT
REMARK Flexibility Score: inf
ROOT
ATOM      1  C   UNL     1      -2.330 -15.780  12.241  1.00  0.00    -0.077 C 
ATOM      2  C   UNL     1      -1.670 -16.960  12.218  1.00  0.00    -0.028 C 
ATOM      3  C   UNL     1      -3.189 -15.367  13.414  1.00  0.00     0.039 C 
ENDROOT
BRANCH   1   4
ATOM      4  C   UNL     1      -2.207 -14.843  11.056  1.00  0.00     0.034 C 
BRANCH   4   5
ATOM      5  C   UNL     1      -2.006 -15.608   9.740  1.00  0.00     0.032 C 
BRANCH   5   6
ATOM      6  C   UNL     1      -3.245 -15.575   8.878  1.00  0.00    -0.028 C 
ATOM      7  C   UNL     1      -5.186 -16.470   7.667  1.00  0.00     0.039 C 
ATOM      8  C   UNL     1      -4.006 -16.653   8.585  1.00  0.00    -0.080 C 
ATOM      9  C   UNL     1      -3.718 -18.018   9.165  1.00  0.00     0.039 C 
ENDBRANCH   5   6
ENDBRANCH   4   5
ENDBRANCH   1   4
BRANCH   2  10
ATOM     10  C   UNL     1      -1.655 -17.964  13.346  1.00  0.00     0.032 C 
BRANCH  10  11
ATOM     11  C   UNL     1      -0.222 -18.265  13.804  1.00  0.00     0.039 C 
BRANCH  11  12
ATOM     12  C   UNL     1       0.012 -17.853  15.244  1.00  0.00    -0.055 C 
ATOM     13  C   UNL     1      -0.997 -17.321  15.942  1.00  0.00     0.012 C 
BRANCH  12  14
ATOM     14  C   UNL     1       1.318 -18.055  15.924  1.00  0.00    -0.005 C 
ATOM     15  C   UNL     1       2.349 -18.705  15.381  1.00  0.00     0.009 C 
ENDBRANCH  12  14
ENDBRANCH  11  12
ENDBRANCH  10  11
ENDBRANCH   2  10
TORSDOF 7
ENDMDL
MODEL 7
REMARK VINA RESULT:    -6.677      1.331      3.299
REMARK INTER + INTRA:         -10.665
REMARK INTER:                  -9.377
REMARK INTRA:                  -1.288
REMARK UNBOUND:                -1.256
REMARK SMILES C=CC(=C)CCC=C(C)CCC=C(C)C
REMARK SMILES IDX 8 1 7 2 9 3 10 4 11 5 12 6 14 7 13 8 15 9 6 10 5 11 3 12
REMARK SMILES IDX 4 13 2 14 1 15
REMARK H PARENT
REMARK Flexibility Score: inf
ROOT
ATOM      1  C   UNL     1      -4.272 -17.591   9.026  1.00  0.00    -0.077 C 
ATOM      2  C   UNL     1      -5.152 -16.732   8.461  1.00  0.00    -0.028 C 
ATOM      3  C   UNL     1      -3.429 -18.532   8.197  1.00  0.00     0.039 C 
ENDROOT
BRANCH   1   4
ATOM      4  C   UNL     1      -4.129 -17.612  10.534  1.00  0.00     0.034 C 
BRANCH   4   5
ATOM      5  C   UNL     1      -2.744 -17.126  10.984  1.00  0.00     0.032 C 
BRANCH   5   6
ATOM      6  C   UNL     1      -2.805 -15.742  11.587  1.00  0.00    -0.028 C 
ATOM      7  C   UNL     1      -2.634 -14.023  13.333  1.00  0.00     0.039 C 
ATOM      8  C   UNL     1      -2.471 -15.445  12.862  1.00  0.00    -0.080 C 
ATOM      9  C   UNL     1      -1.925 -16.485  13.811  1.00  0.00     0.039 C 
ENDBRANCH   5   6
ENDBRANCH   4   5
ENDBRANCH   1   4
BRANCH   2  10
ATOM     10  C   UNL     1      -5.360 -16.563   6.975  1.00  0.00     0.032 C 
BRANCH  10  11
ATOM     11  C   UNL     1      -4.279 -15.665   6.360  1.00  0.00     0.039 C 
BRANCH  11  12
ATOM     12  C   UNL     1      -4.031 -14.422   7.192  1.00  0.00    -0.055 C 
ATOM     13  C   UNL     1      -4.932 -13.434   7.171  1.00  0.00     0.012 C 
BRANCH  12  14
ATOM     14  C   UNL     1      -2.838 -14.278   8.066  1.00  0.00    -0.005 C 
ATOM     15  C   UNL     1      -1.774 -15.081   8.014  1.00  0.00     0.009 C 
ENDBRANCH  12  14
ENDBRANCH  11  12
ENDBRANCH  10  11
ENDBRANCH   2  10
TORSDOF 7
ENDMDL
MODEL 8
REMARK VINA RESULT:    -6.660      1.208      5.833
REMARK INTER + INTRA:         -10.642
REMARK INTER:                  -9.535
REMARK INTRA:                  -1.107
REMARK UNBOUND:                -1.256
REMARK SMILES C=CC(=C)CCC=C(C)CCC=C(C)C
REMARK SMILES IDX 8 1 7 2 9 3 10 4 11 5 12 6 14 7 13 8 15 9 6 10 5 11 3 12
REMARK SMILES IDX 4 13 2 14 1 15
REMARK H PARENT
REMARK Flexibility Score: inf
ROOT
ATOM      1  C   UNL     1      -4.380 -17.133   8.534  1.00  0.00    -0.077 C 
ATOM      2  C   UNL     1      -4.467 -16.740   9.826  1.00  0.00    -0.028 C 
ATOM      3  C   UNL     1      -3.543 -18.318   8.113  1.00  0.00     0.039 C 
ENDROOT
BRANCH   1   4
ATOM      4  C   UNL     1      -5.143 -16.360   7.478  1.00  0.00     0.034 C 
BRANCH   4   5
ATOM      5  C   UNL     1      -4.284 -15.260   6.839  1.00  0.00     0.032 C 
BRANCH   5   6
ATOM      6  C   UNL     1      -3.818 -14.250   7.861  1.00  0.00    -0.028 C 
ATOM      7  C   UNL     1      -2.283 -13.184   9.455  1.00  0.00     0.039 C 
ATOM      8  C   UNL     1      -2.582 -14.225   8.408  1.00  0.00    -0.080 C 
ATOM      9  C   UNL     1      -1.500 -15.190   7.987  1.00  0.00     0.039 C 
ENDBRANCH   5   6
ENDBRANCH   4   5
ENDBRANCH   1   4
BRANCH   2  10
ATOM     10  C   UNL     1      -3.808 -17.445  10.988  1.00  0.00     0.032 C 
BRANCH  10  11
ATOM     11  C   UNL     1      -2.383 -16.924  11.220  1.00  0.00     0.039 C 
BRANCH  11  12
ATOM     12  C   UNL     1      -2.236 -16.252  12.570  1.00  0.00    -0.055 C 
ATOM     13  C   UNL     1      -2.686 -15.002  12.729  1.00  0.00     0.012 C 
BRANCH  12  14
ATOM     14  C   UNL     1      -1.644 -16.948  13.742  1.00  0.00    -0.005 C 
ATOM     15  C   UNL     1      -1.076 -18.153  13.685  1.00  0.00     0.009 C 
ENDBRANCH  12  14
ENDBRANCH  11  12
ENDBRANCH  10  11
ENDBRANCH   2  10
TORSDOF 7
ENDMDL
MODEL 9
REMARK VINA RESULT:    -6.648      2.460      7.664
REMARK INTER + INTRA:         -10.625
REMARK INTER:                  -9.843
REMARK INTRA:                  -0.782
REMARK UNBOUND:                -1.256
REMARK SMILES C=CC(=C)CCC=C(C)CCC=C(C)C
REMARK SMILES IDX 8 1 7 2 9 3 10 4 11 5 12 6 14 7 13 8 15 9 6 10 5 11 3 12
REMARK SMILES IDX 4 13 2 14 1 15
REMARK H PARENT
REMARK Flexibility Score: inf
ROOT
ATOM      1  C   UNL     1      -1.535 -16.906  14.192  1.00  0.00    -0.077 C 
ATOM      2  C   UNL     1      -0.893 -16.853  15.381  1.00  0.00    -0.028 C 
ATOM      3  C   UNL     1      -1.486 -18.131  13.310  1.00  0.00     0.039 C 
ENDROOT
BRANCH   1   4
ATOM      4  C   UNL     1      -2.326 -15.699  13.729  1.00  0.00     0.034 C 
BRANCH   4   5
ATOM      5  C   UNL     1      -2.944 -15.918  12.341  1.00  0.00     0.032 C 
BRANCH   5   6
ATOM      6  C   UNL     1      -2.175 -15.190  11.264  1.00  0.00    -0.028 C 
ATOM      7  C   UNL     1      -1.186 -14.816   9.047  1.00  0.00     0.039 C 
ATOM      8  C   UNL     1      -2.029 -15.630   9.995  1.00  0.00    -0.080 C 
ATOM      9  C   UNL     1      -2.698 -16.890   9.501  1.00  0.00     0.039 C 
ENDBRANCH   5   6
ENDBRANCH   4   5
ENDBRANCH   1   4
BRANCH   2  10
ATOM     10  C   UNL     1      -0.115 -17.994  15.993  1.00  0.00     0.032 C 
BRANCH  10  11
ATOM     11  C   UNL     1       1.360 -17.619  16.191  1.00  0.00     0.039 C 
BRANCH  11  12
ATOM     12  C   UNL     1       2.280 -18.454  15.323  1.00  0.00    -0.055 C 
ATOM     13  C   UNL     1       1.909 -18.744  14.071  1.00  0.00     0.012 C 
BRANCH  12  14
ATOM     14  C   UNL     1       3.603 -18.933  15.801  1.00  0.00    -0.005 C 
ATOM     15  C   UNL     1       4.767 -18.388  15.445  1.00  0.00     0.009 C 
ENDBRANCH  12  14
ENDBRANCH  11  12
ENDBRANCH  10  11
ENDBRANCH   2  10
TORSDOF 7
ENDMDL
