MODEL 1
REMARK VINA RESULT:    -5.530      0.000      0.000
REMARK INTER + INTRA:          -7.049
REMARK INTER:                  -6.662
REMARK INTRA:                  -0.387
REMARK UNBOUND:                -0.387
REMARK SMILES COc1ccc([C@H]2CC(=O)c3c(O)cc(O)cc3O2)cc1O
REMARK SMILES IDX 7 1 8 2 9 3 10 4 11 5 12 6 14 7 15 8 17 9 18 10 19 11 6 12
REMARK SMILES IDX 3 13 21 14 4 15 20 16 5 17 2 18 1 19 22 20 13 22 16 24
REMARK H PARENT 22 21 13 23 16 25
REMARK Flexibility Score: inf
ROOT
ATOM      1  C   UNL     1     114.995 115.374 142.687  1.00  0.00     0.211 C 
ATOM      2  C   UNL     1     114.815 116.653 141.856  1.00  0.00     0.131 C 
ATOM      3  C   UNL     1     113.602 116.508 140.988  1.00  0.00     0.174 C 
ATOM      4  O   UNL     1     112.768 117.450 140.928  1.00  0.00    -0.294 OA
ATOM      5  C   UNL     1     113.386 115.227 140.271  1.00  0.00     0.102 A 
ATOM      6  C   UNL     1     112.531 115.077 139.146  1.00  0.00     0.133 A 
ATOM      7  C   UNL     1     112.347 113.807 138.585  1.00  0.00     0.093 A 
ATOM      8  C   UNL     1     113.038 112.698 139.082  1.00  0.00     0.123 A 
ATOM      9  C   UNL     1     113.913 112.850 140.157  1.00  0.00     0.093 A 
ATOM     10  C   UNL     1     114.083 114.099 140.758  1.00  0.00     0.138 A 
ATOM     11  O   UNL     1     114.960 114.217 141.846  1.00  0.00    -0.484 OA
ENDROOT
BRANCH   1  12
ATOM     12  C   UNL     1     116.293 115.415 143.455  1.00  0.00    -0.003 A 
ATOM     13  C   UNL     1     118.685 115.467 144.952  1.00  0.00     0.160 A 
ATOM     14  C   UNL     1     118.249 114.274 144.349  1.00  0.00     0.158 A 
ATOM     15  C   UNL     1     117.907 116.632 144.808  1.00  0.00     0.051 A 
ATOM     16  C   UNL     1     117.060 114.251 143.612  1.00  0.00     0.057 A 
ATOM     17  C   UNL     1     116.720 116.603 144.071  1.00  0.00     0.011 A 
BRANCH  13  18
ATOM     18  O   UNL     1     119.884 115.461 145.683  1.00  0.00    -0.493 OA
ATOM     19  C   UNL     1     119.966 115.314 147.097  1.00  0.00     0.278 C 
ENDBRANCH  13  18
BRANCH  14  20
ATOM     20  O   UNL     1     118.985 113.094 144.474  1.00  0.00    -0.504 OA
ATOM     21  H   UNL     1     119.868 112.955 143.997  1.00  0.00     0.293 HD
ENDBRANCH  14  20
ENDBRANCH   1  12
BRANCH   6  22
ATOM     22  O   UNL     1     111.880 116.151 138.536  1.00  0.00    -0.507 OA
ATOM     23  H   UNL     1     110.896 116.160 138.309  1.00  0.00     0.293 HD
ENDBRANCH   6  22
BRANCH   8  24
ATOM     24  O   UNL     1     112.867 111.439 138.509  1.00  0.00    -0.508 OA
ATOM     25  H   UNL     1     112.735 111.326 137.510  1.00  0.00     0.293 HD
ENDBRANCH   8  24
TORSDOF 5
ENDMDL
MODEL 2
REMARK VINA RESULT:    -5.514      1.921      7.162
REMARK INTER + INTRA:          -7.030
REMARK INTER:                  -6.681
REMARK INTRA:                  -0.349
REMARK UNBOUND:                -0.387
REMARK SMILES COc1ccc([C@H]2CC(=O)c3c(O)cc(O)cc3O2)cc1O
REMARK SMILES IDX 7 1 8 2 9 3 10 4 11 5 12 6 14 7 15 8 17 9 18 10 19 11 6 12
REMARK SMILES IDX 3 13 21 14 4 15 20 16 5 17 2 18 1 19 22 20 13 22 16 24
REMARK H PARENT 22 21 13 23 16 25
REMARK Flexibility Score: inf
ROOT
ATOM      1  C   UNL     1     115.919 115.732 142.064  1.00  0.00     0.211 C 
ATOM      2  C   UNL     1     114.997 116.723 142.789  1.00  0.00     0.131 C 
ATOM      3  C   UNL     1     115.807 117.525 143.764  1.00  0.00     0.174 C 
ATOM      4  O   UNL     1     115.662 118.775 143.808  1.00  0.00    -0.294 OA
ATOM      5  C   UNL     1     116.806 116.824 144.608  1.00  0.00     0.102 A 
ATOM      6  C   UNL     1     117.349 117.357 145.808  1.00  0.00     0.133 A 
ATOM      7  C   UNL     1     118.338 116.640 146.494  1.00  0.00     0.093 A 
ATOM      8  C   UNL     1     118.754 115.383 146.043  1.00  0.00     0.123 A 
ATOM      9  C   UNL     1     118.190 114.838 144.890  1.00  0.00     0.093 A 
ATOM     10  C   UNL     1     117.231 115.552 144.168  1.00  0.00     0.138 A 
ATOM     11  O   UNL     1     116.692 114.981 143.006  1.00  0.00    -0.484 OA
ENDROOT
BRANCH   1  12
ATOM     12  C   UNL     1     115.118 114.798 141.192  1.00  0.00    -0.003 A 
ATOM     13  C   UNL     1     113.584 113.110 139.530  1.00  0.00     0.160 A 
ATOM     14  C   UNL     1     114.745 113.731 139.035  1.00  0.00     0.158 A 
ATOM     15  C   UNL     1     113.192 113.352 140.861  1.00  0.00     0.051 A 
ATOM     16  C   UNL     1     115.500 114.571 139.861  1.00  0.00     0.057 A 
ATOM     17  C   UNL     1     113.949 114.192 141.680  1.00  0.00     0.011 A 
BRANCH  13  18
ATOM     18  O   UNL     1     112.848 112.270 138.680  1.00  0.00    -0.493 OA
ATOM     19  C   UNL     1     112.646 110.877 138.897  1.00  0.00     0.278 C 
ENDBRANCH  13  18
BRANCH  14  20
ATOM     20  O   UNL     1     115.165 113.526 137.720  1.00  0.00    -0.504 OA
ATOM     21  H   UNL     1     116.144 113.477 137.467  1.00  0.00     0.293 HD
ENDBRANCH  14  20
ENDBRANCH   1  12
BRANCH   6  22
ATOM     22  O   UNL     1     116.919 118.560 146.371  1.00  0.00    -0.507 OA
ATOM     23  H   UNL     1     115.950 118.829 146.457  1.00  0.00     0.293 HD
ENDBRANCH   6  22
BRANCH   8  24
ATOM     24  O   UNL     1     119.724 114.665 146.739  1.00  0.00    -0.508 OA
ATOM     25  H   UNL     1     120.686 114.981 146.785  1.00  0.00     0.293 HD
ENDBRANCH   8  24
TORSDOF 5
ENDMDL
MODEL 3
REMARK VINA RESULT:    -5.205      1.787      3.011
REMARK INTER + INTRA:          -6.657
REMARK INTER:                  -6.299
REMARK INTRA:                  -0.358
REMARK UNBOUND:                -0.387
REMARK SMILES COc1ccc([C@H]2CC(=O)c3c(O)cc(O)cc3O2)cc1O
REMARK SMILES IDX 7 1 8 2 9 3 10 4 11 5 12 6 14 7 15 8 17 9 18 10 19 11 6 12
REMARK SMILES IDX 3 13 21 14 4 15 20 16 5 17 2 18 1 19 22 20 13 22 16 24
REMARK H PARENT 22 21 13 23 16 25
REMARK Flexibility Score: inf
ROOT
ATOM      1  C   UNL     1     115.778 114.131 141.927  1.00  0.00     0.211 C 
ATOM      2  C   UNL     1     114.951 112.923 142.389  1.00  0.00     0.131 C 
ATOM      3  C   UNL     1     114.203 112.361 141.217  1.00  0.00     0.174 C 
ATOM      4  O   UNL     1     114.210 111.118 141.018  1.00  0.00    -0.294 OA
ATOM      5  C   UNL     1     113.528 113.298 140.286  1.00  0.00     0.102 A 
ATOM      6  C   UNL     1     112.492 112.922 139.390  1.00  0.00     0.133 A 
ATOM      7  C   UNL     1     111.968 113.873 138.505  1.00  0.00     0.093 A 
ATOM      8  C   UNL     1     112.413 115.198 138.532  1.00  0.00     0.123 A 
ATOM      9  C   UNL     1     113.398 115.581 139.442  1.00  0.00     0.093 A 
ATOM     10  C   UNL     1     113.963 114.641 140.308  1.00  0.00     0.138 A 
ATOM     11  O   UNL     1     114.960 115.054 141.202  1.00  0.00    -0.484 OA
ENDROOT
BRANCH   1  12
ATOM     12  C   UNL     1     116.419 114.821 143.105  1.00  0.00    -0.003 A 
ATOM     13  C   UNL     1     117.673 116.063 145.307  1.00  0.00     0.160 A 
ATOM     14  C   UNL     1     118.076 116.368 143.994  1.00  0.00     0.158 A 
ATOM     15  C   UNL     1     116.645 115.123 145.507  1.00  0.00     0.051 A 
ATOM     16  C   UNL     1     117.455 115.747 142.906  1.00  0.00     0.057 A 
ATOM     17  C   UNL     1     116.029 114.504 144.416  1.00  0.00     0.011 A 
BRANCH  13  18
ATOM     18  O   UNL     1     118.312 116.705 146.380  1.00  0.00    -0.493 OA
ATOM     19  C   UNL     1     117.753 117.782 147.125  1.00  0.00     0.278 C 
ENDBRANCH  13  18
BRANCH  14  20
ATOM     20  O   UNL     1     119.097 117.288 143.750  1.00  0.00    -0.504 OA
ATOM     21  H   UNL     1     119.121 118.199 144.192  1.00  0.00     0.293 HD
ENDBRANCH  14  20
ENDBRANCH   1  12
BRANCH   6  22
ATOM     22  O   UNL     1     111.931 111.643 139.366  1.00  0.00    -0.507 OA
ATOM     23  H   UNL     1     111.797 111.070 140.186  1.00  0.00     0.293 HD
ENDBRANCH   6  22
BRANCH   8  24
ATOM     24  O   UNL     1     111.876 116.146 137.663  1.00  0.00    -0.508 OA
ATOM     25  H   UNL     1     112.024 116.091 136.662  1.00  0.00     0.293 HD
ENDBRANCH   8  24
TORSDOF 5
ENDMDL
MODEL 4
REMARK VINA RESULT:    -5.074      3.800      5.920
REMARK INTER + INTRA:          -6.499
REMARK INTER:                  -6.146
REMARK INTRA:                  -0.353
REMARK UNBOUND:                -0.387
REMARK SMILES COc1ccc([C@H]2CC(=O)c3c(O)cc(O)cc3O2)cc1O
REMARK SMILES IDX 7 1 8 2 9 3 10 4 11 5 12 6 14 7 15 8 17 9 18 10 19 11 6 12
REMARK SMILES IDX 3 13 21 14 4 15 20 16 5 17 2 18 1 19 22 20 13 22 16 24
REMARK H PARENT 22 21 13 23 16 25
REMARK Flexibility Score: inf
ROOT
ATOM      1  C   UNL     1     117.315 116.171 142.974  1.00  0.00     0.211 C 
ATOM      2  C   UNL     1     116.478 117.060 143.907  1.00  0.00     0.131 C 
ATOM      3  C   UNL     1     116.100 116.273 145.126  1.00  0.00     0.174 C 
ATOM      4  O   UNL     1     116.241 116.792 146.265  1.00  0.00    -0.294 OA
ATOM      5  C   UNL     1     115.628 114.877 144.957  1.00  0.00     0.102 A 
ATOM      6  C   UNL     1     114.888 114.162 145.935  1.00  0.00     0.133 A 
ATOM      7  C   UNL     1     114.550 112.823 145.701  1.00  0.00     0.093 A 
ATOM      8  C   UNL     1     114.882 112.201 144.493  1.00  0.00     0.123 A 
ATOM      9  C   UNL     1     115.569 112.915 143.512  1.00  0.00     0.093 A 
ATOM     10  C   UNL     1     115.952 114.239 143.739  1.00  0.00     0.138 A 
ATOM     11  O   UNL     1     116.653 114.925 142.738  1.00  0.00    -0.484 OA
ENDROOT
BRANCH   1  12
ATOM     12  C   UNL     1     117.581 116.873 141.666  1.00  0.00    -0.003 A 
ATOM     13  C   UNL     1     118.100 118.245 139.255  1.00  0.00     0.160 A 
ATOM     14  C   UNL     1     119.140 117.589 139.938  1.00  0.00     0.158 A 
ATOM     15  C   UNL     1     116.800 118.217 139.796  1.00  0.00     0.051 A 
ATOM     16  C   UNL     1     118.879 116.915 141.135  1.00  0.00     0.057 A 
ATOM     17  C   UNL     1     116.546 117.542 140.992  1.00  0.00     0.011 A 
BRANCH  13  18
ATOM     18  O   UNL     1     118.391 118.912 138.054  1.00  0.00    -0.493 OA
ATOM     19  C   UNL     1     117.964 118.478 136.767  1.00  0.00     0.278 C 
ENDBRANCH  13  18
BRANCH  14  20
ATOM     20  O   UNL     1     120.444 117.600 139.443  1.00  0.00    -0.504 OA
ATOM     21  H   UNL     1     120.649 117.485 138.457  1.00  0.00     0.293 HD
ENDBRANCH  14  20
ENDBRANCH   1  12
BRANCH   6  22
ATOM     22  O   UNL     1     114.439 114.740 147.125  1.00  0.00    -0.507 OA
ATOM     23  H   UNL     1     114.519 114.302 148.031  1.00  0.00     0.293 HD
ENDBRANCH   6  22
BRANCH   8  24
ATOM     24  O   UNL     1     114.527 110.875 144.256  1.00  0.00    -0.508 OA
ATOM     25  H   UNL     1     114.259 110.555 143.332  1.00  0.00     0.293 HD
ENDBRANCH   8  24
TORSDOF 5
ENDMDL
MODEL 5
REMARK VINA RESULT:    -5.045     15.561     17.299
REMARK INTER + INTRA:          -6.465
REMARK INTER:                  -6.106
REMARK INTRA:                  -0.359
REMARK UNBOUND:                -0.387
REMARK SMILES COc1ccc([C@H]2CC(=O)c3c(O)cc(O)cc3O2)cc1O
REMARK SMILES IDX 7 1 8 2 9 3 10 4 11 5 12 6 14 7 15 8 17 9 18 10 19 11 6 12
REMARK SMILES IDX 3 13 21 14 4 15 20 16 5 17 2 18 1 19 22 20 13 22 16 24
REMARK H PARENT 22 21 13 23 16 25
REMARK Flexibility Score: inf
ROOT
ATOM      1  C   UNL     1     131.709 116.009 138.701  1.00  0.00     0.211 C 
ATOM      2  C   UNL     1     131.250 117.357 139.274  1.00  0.00     0.131 C 
ATOM      3  C   UNL     1     131.557 117.399 140.741  1.00  0.00     0.174 C 
ATOM      4  O   UNL     1     132.108 118.420 141.229  1.00  0.00    -0.294 OA
ATOM      5  C   UNL     1     131.258 116.202 141.566  1.00  0.00     0.102 A 
ATOM      6  C   UNL     1     131.128 116.222 142.980  1.00  0.00     0.133 A 
ATOM      7  C   UNL     1     130.911 115.022 143.669  1.00  0.00     0.093 A 
ATOM      8  C   UNL     1     130.764 113.816 142.977  1.00  0.00     0.123 A 
ATOM      9  C   UNL     1     130.846 113.800 141.585  1.00  0.00     0.093 A 
ATOM     10  C   UNL     1     131.101 114.978 140.880  1.00  0.00     0.138 A 
ATOM     11  O   UNL     1     131.191 114.927 139.482  1.00  0.00    -0.484 OA
ENDROOT
BRANCH   1  12
ATOM     12  C   UNL     1     131.275 115.864 137.264  1.00  0.00    -0.003 A 
ATOM     13  C   UNL     1     130.399 115.625 134.592  1.00  0.00     0.160 A 
ATOM     14  C   UNL     1     130.962 116.830 135.051  1.00  0.00     0.158 A 
ATOM     15  C   UNL     1     130.268 114.545 135.486  1.00  0.00     0.051 A 
ATOM     16  C   UNL     1     131.390 116.945 136.377  1.00  0.00     0.057 A 
ATOM     17  C   UNL     1     130.697 114.667 136.810  1.00  0.00     0.011 A 
BRANCH  13  18
ATOM     18  O   UNL     1     129.980 115.537 133.255  1.00  0.00    -0.493 OA
ATOM     19  C   UNL     1     128.756 114.947 132.829  1.00  0.00     0.278 C 
ENDBRANCH  13  18
BRANCH  14  20
ATOM     20  O   UNL     1     131.101 117.928 134.201  1.00  0.00    -0.504 OA
ATOM     21  H   UNL     1     130.827 117.895 133.226  1.00  0.00     0.293 HD
ENDBRANCH  14  20
ENDBRANCH   1  12
BRANCH   6  22
ATOM     22  O   UNL     1     131.169 117.398 143.733  1.00  0.00    -0.507 OA
ATOM     23  H   UNL     1     130.589 118.204 143.555  1.00  0.00     0.293 HD
ENDBRANCH   6  22
BRANCH   8  24
ATOM     24  O   UNL     1     130.529 112.627 143.665  1.00  0.00    -0.508 OA
ATOM     25  H   UNL     1     130.662 112.559 144.668  1.00  0.00     0.293 HD
ENDBRANCH   8  24
TORSDOF 5
ENDMDL
MODEL 6
REMARK VINA RESULT:    -4.938      1.944      2.410
REMARK INTER + INTRA:          -6.335
REMARK INTER:                  -5.988
REMARK INTRA:                  -0.347
REMARK UNBOUND:                -0.387
REMARK SMILES COc1ccc([C@H]2CC(=O)c3c(O)cc(O)cc3O2)cc1O
REMARK SMILES IDX 7 1 8 2 9 3 10 4 11 5 12 6 14 7 15 8 17 9 18 10 19 11 6 12
REMARK SMILES IDX 3 13 21 14 4 15 20 16 5 17 2 18 1 19 22 20 13 22 16 24
REMARK H PARENT 22 21 13 23 16 25
REMARK Flexibility Score: inf
ROOT
ATOM      1  C   UNL     1     116.066 115.482 142.291  1.00  0.00     0.211 C 
ATOM      2  C   UNL     1     116.961 115.476 141.043  1.00  0.00     0.131 C 
ATOM      3  C   UNL     1     116.109 115.260 139.828  1.00  0.00     0.174 C 
ATOM      4  O   UNL     1     116.274 115.994 138.818  1.00  0.00    -0.294 OA
ATOM      5  C   UNL     1     115.047 114.225 139.876  1.00  0.00     0.102 A 
ATOM      6  C   UNL     1     114.442 113.650 138.726  1.00  0.00     0.133 A 
ATOM      7  C   UNL     1     113.401 112.727 138.885  1.00  0.00     0.093 A 
ATOM      8  C   UNL     1     112.989 112.324 140.159  1.00  0.00     0.123 A 
ATOM      9  C   UNL     1     113.611 112.853 141.289  1.00  0.00     0.093 A 
ATOM     10  C   UNL     1     114.626 113.804 141.156  1.00  0.00     0.138 A 
ATOM     11  O   UNL     1     115.224 114.325 142.312  1.00  0.00    -0.484 OA
ENDROOT
BRANCH   1  12
ATOM     12  C   UNL     1     116.901 115.537 143.546  1.00  0.00    -0.003 A 
ATOM     13  C   UNL     1     118.519 115.669 145.854  1.00  0.00     0.160 A 
ATOM     14  C   UNL     1     117.799 116.798 145.425  1.00  0.00     0.158 A 
ATOM     15  C   UNL     1     118.431 114.476 145.110  1.00  0.00     0.051 A 
ATOM     16  C   UNL     1     117.002 116.730 144.278  1.00  0.00     0.057 A 
ATOM     17  C   UNL     1     117.634 114.414 143.965  1.00  0.00     0.011 A 
BRANCH  13  18
ATOM     18  O   UNL     1     119.309 115.766 147.011  1.00  0.00    -0.493 OA
ATOM     19  C   UNL     1     120.655 115.313 147.110  1.00  0.00     0.278 C 
ENDBRANCH  13  18
BRANCH  14  20
ATOM     20  O   UNL     1     117.865 118.002 146.127  1.00  0.00    -0.504 OA
ATOM     21  H   UNL     1     118.571 118.703 145.934  1.00  0.00     0.293 HD
ENDBRANCH  14  20
ENDBRANCH   1  12
BRANCH   6  22
ATOM     22  O   UNL     1     114.860 113.931 137.424  1.00  0.00    -0.507 OA
ATOM     23  H   UNL     1     115.291 113.255 136.811  1.00  0.00     0.293 HD
ENDBRANCH   6  22
BRANCH   8  24
ATOM     24  O   UNL     1     111.965 111.391 140.312  1.00  0.00    -0.508 OA
ATOM     25  H   UNL     1     112.142 110.466 140.686  1.00  0.00     0.293 HD
ENDBRANCH   8  24
TORSDOF 5
ENDMDL
MODEL 7
REMARK VINA RESULT:    -4.797      2.471      7.287
REMARK INTER + INTRA:          -6.165
REMARK INTER:                  -5.828
REMARK INTRA:                  -0.337
REMARK UNBOUND:                -0.387
REMARK SMILES COc1ccc([C@H]2CC(=O)c3c(O)cc(O)cc3O2)cc1O
REMARK SMILES IDX 7 1 8 2 9 3 10 4 11 5 12 6 14 7 15 8 17 9 18 10 19 11 6 12
REMARK SMILES IDX 3 13 21 14 4 15 20 16 5 17 2 18 1 19 22 20 13 22 16 24
REMARK H PARENT 22 21 13 23 16 25
REMARK Flexibility Score: inf
ROOT
ATOM      1  C   UNL     1     115.691 113.758 143.902  1.00  0.00     0.211 C 
ATOM      2  C   UNL     1     117.108 114.279 143.624  1.00  0.00     0.131 C 
ATOM      3  C   UNL     1     117.532 115.176 144.749  1.00  0.00     0.174 C 
ATOM      4  O   UNL     1     118.675 115.032 145.257  1.00  0.00    -0.294 OA
ATOM      5  C   UNL     1     116.562 116.168 145.275  1.00  0.00     0.102 A 
ATOM      6  C   UNL     1     116.924 117.309 146.039  1.00  0.00     0.133 A 
ATOM      7  C   UNL     1     115.922 118.146 146.545  1.00  0.00     0.093 A 
ATOM      8  C   UNL     1     114.575 117.903 146.259  1.00  0.00     0.123 A 
ATOM      9  C   UNL     1     114.218 116.809 145.471  1.00  0.00     0.093 A 
ATOM     10  C   UNL     1     115.198 115.938 144.989  1.00  0.00     0.138 A 
ATOM     11  O   UNL     1     114.807 114.840 144.210  1.00  0.00    -0.484 OA
ENDROOT
BRANCH   1  12
ATOM     12  C   UNL     1     115.167 112.981 142.720  1.00  0.00    -0.003 A 
ATOM     13  C   UNL     1     114.125 111.570 140.510  1.00  0.00     0.160 A 
ATOM     14  C   UNL     1     114.778 112.802 140.323  1.00  0.00     0.158 A 
ATOM     15  C   UNL     1     113.989 111.057 141.814  1.00  0.00     0.051 A 
ATOM     16  C   UNL     1     115.288 113.500 141.422  1.00  0.00     0.057 A 
ATOM     17  C   UNL     1     114.500 111.760 142.907  1.00  0.00     0.011 A 
BRANCH  13  18
ATOM     18  O   UNL     1     113.625 110.889 139.388  1.00  0.00    -0.493 OA
ATOM     19  C   UNL     1     112.290 111.000 138.905  1.00  0.00     0.278 C 
ENDBRANCH  13  18
BRANCH  14  20
ATOM     20  O   UNL     1     114.927 113.351 139.049  1.00  0.00    -0.504 OA
ATOM     21  H   UNL     1     115.682 113.986 138.819  1.00  0.00     0.293 HD
ENDBRANCH  14  20
ENDBRANCH   1  12
BRANCH   6  22
ATOM     22  O   UNL     1     118.250 117.669 146.289  1.00  0.00    -0.507 OA
ATOM     23  H   UNL     1     118.800 117.305 147.053  1.00  0.00     0.293 HD
ENDBRANCH   6  22
BRANCH   8  24
ATOM     24  O   UNL     1     113.581 118.750 146.748  1.00  0.00    -0.508 OA
ATOM     25  H   UNL     1     112.678 118.394 147.040  1.00  0.00     0.293 HD
ENDBRANCH   8  24
TORSDOF 5
ENDMDL
MODEL 8
REMARK VINA RESULT:    -4.771      2.484      7.548
REMARK INTER + INTRA:          -6.134
REMARK INTER:                  -5.787
REMARK INTRA:                  -0.347
REMARK UNBOUND:                -0.387
REMARK SMILES COc1ccc([C@H]2CC(=O)c3c(O)cc(O)cc3O2)cc1O
REMARK SMILES IDX 7 1 8 2 9 3 10 4 11 5 12 6 14 7 15 8 17 9 18 10 19 11 6 12
REMARK SMILES IDX 3 13 21 14 4 15 20 16 5 17 2 18 1 19 22 20 13 22 16 24
REMARK H PARENT 22 21 13 23 16 25
REMARK Flexibility Score: inf
ROOT
ATOM      1  C   UNL     1     116.314 115.181 142.496  1.00  0.00     0.211 C 
ATOM      2  C   UNL     1     117.830 114.986 142.641  1.00  0.00     0.131 C 
ATOM      3  C   UNL     1     118.200 115.069 144.092  1.00  0.00     0.174 C 
ATOM      4  O   UNL     1     118.967 114.202 144.586  1.00  0.00    -0.294 OA
ATOM      5  C   UNL     1     117.597 116.142 144.921  1.00  0.00     0.102 A 
ATOM      6  C   UNL     1     118.126 116.580 146.164  1.00  0.00     0.133 A 
ATOM      7  C   UNL     1     117.439 117.554 146.900  1.00  0.00     0.093 A 
ATOM      8  C   UNL     1     116.272 118.140 146.399  1.00  0.00     0.123 A 
ATOM      9  C   UNL     1     115.775 117.744 145.158  1.00  0.00     0.093 A 
ATOM     10  C   UNL     1     116.421 116.746 144.424  1.00  0.00     0.138 A 
ATOM     11  O   UNL     1     115.889 116.361 143.185  1.00  0.00    -0.484 OA
ENDROOT
BRANCH   1  12
ATOM     12  C   UNL     1     115.923 115.263 141.042  1.00  0.00    -0.003 A 
ATOM     13  C   UNL     1     115.254 115.379 138.303  1.00  0.00     0.160 A 
ATOM     14  C   UNL     1     114.956 114.232 139.059  1.00  0.00     0.158 A 
ATOM     15  C   UNL     1     115.900 116.463 138.927  1.00  0.00     0.051 A 
ATOM     16  C   UNL     1     115.294 114.176 140.415  1.00  0.00     0.057 A 
ATOM     17  C   UNL     1     116.236 116.401 140.282  1.00  0.00     0.011 A 
BRANCH  13  18
ATOM     18  O   UNL     1     114.901 115.408 136.944  1.00  0.00    -0.493 OA
ATOM     19  C   UNL     1     115.765 115.827 135.893  1.00  0.00     0.278 C 
ENDBRANCH  13  18
BRANCH  14  20
ATOM     20  O   UNL     1     114.324 113.131 138.478  1.00  0.00    -0.504 OA
ATOM     21  H   UNL     1     113.981 112.352 139.028  1.00  0.00     0.293 HD
ENDBRANCH  14  20
ENDBRANCH   1  12
BRANCH   6  22
ATOM     22  O   UNL     1     119.333 116.112 146.687  1.00  0.00    -0.507 OA
ATOM     23  H   UNL     1     120.212 116.599 146.602  1.00  0.00     0.293 HD
ENDBRANCH   6  22
BRANCH   8  24
ATOM     24  O   UNL     1     115.602 119.123 147.125  1.00  0.00    -0.508 OA
ATOM     25  H   UNL     1     115.109 118.904 147.983  1.00  0.00     0.293 HD
ENDBRANCH   8  24
TORSDOF 5
ENDMDL
MODEL 9
REMARK VINA RESULT:    -4.759     15.563     16.396
REMARK INTER + INTRA:          -6.120
REMARK INTER:                  -5.778
REMARK INTRA:                  -0.342
REMARK UNBOUND:                -0.387
REMARK SMILES COc1ccc([C@H]2CC(=O)c3c(O)cc(O)cc3O2)cc1O
REMARK SMILES IDX 7 1 8 2 9 3 10 4 11 5 12 6 14 7 15 8 17 9 18 10 19 11 6 12
REMARK SMILES IDX 3 13 21 14 4 15 20 16 5 17 2 18 1 19 22 20 13 22 16 24
REMARK H PARENT 22 21 13 23 16 25
REMARK Flexibility Score: inf
ROOT
ATOM      1  C   UNL     1     131.672 117.472 142.056  1.00  0.00     0.211 C 
ATOM      2  C   UNL     1     130.891 116.533 142.988  1.00  0.00     0.131 C 
ATOM      3  C   UNL     1     131.078 115.118 142.528  1.00  0.00     0.174 C 
ATOM      4  O   UNL     1     131.359 114.226 143.371  1.00  0.00    -0.294 OA
ATOM      5  C   UNL     1     130.989 114.822 141.077  1.00  0.00     0.102 A 
ATOM      6  C   UNL     1     130.759 113.527 140.541  1.00  0.00     0.133 A 
ATOM      7  C   UNL     1     130.761 113.346 139.152  1.00  0.00     0.093 A 
ATOM      8  C   UNL     1     130.929 114.433 138.288  1.00  0.00     0.123 A 
ATOM      9  C   UNL     1     131.110 115.713 138.811  1.00  0.00     0.093 A 
ATOM     10  C   UNL     1     131.151 115.912 140.193  1.00  0.00     0.138 A 
ATOM     11  O   UNL     1     131.347 117.209 140.688  1.00  0.00    -0.484 OA
ENDROOT
BRANCH   1  12
ATOM     12  C   UNL     1     131.381 118.915 142.388  1.00  0.00    -0.003 A 
ATOM     13  C   UNL     1     130.785 121.614 142.958  1.00  0.00     0.160 A 
ATOM     14  C   UNL     1     130.034 120.580 143.547  1.00  0.00     0.158 A 
ATOM     15  C   UNL     1     131.829 121.284 142.074  1.00  0.00     0.051 A 
ATOM     16  C   UNL     1     130.330 119.244 143.258  1.00  0.00     0.057 A 
ATOM     17  C   UNL     1     132.120 119.948 141.788  1.00  0.00     0.011 A 
BRANCH  13  18
ATOM     18  O   UNL     1     130.467 122.945 143.269  1.00  0.00    -0.493 OA
ATOM     19  C   UNL     1     129.588 123.765 142.506  1.00  0.00     0.278 C 
ENDBRANCH  13  18
BRANCH  14  20
ATOM     20  O   UNL     1     128.984 120.862 144.422  1.00  0.00    -0.504 OA
ATOM     21  H   UNL     1     128.708 121.810 144.647  1.00  0.00     0.293 HD
ENDBRANCH  14  20
ENDBRANCH   1  12
BRANCH   6  22
ATOM     22  O   UNL     1     130.491 112.410 141.335  1.00  0.00    -0.507 OA
ATOM     23  H   UNL     1     131.187 111.734 141.613  1.00  0.00     0.293 HD
ENDBRANCH   6  22
BRANCH   8  24
ATOM     24  O   UNL     1     130.911 114.252 136.907  1.00  0.00    -0.508 OA
ATOM     25  H   UNL     1     131.034 115.030 136.269  1.00  0.00     0.293 HD
ENDBRANCH   8  24
TORSDOF 5
ENDMDL
