MODEL 1
REMARK VINA RESULT:    -6.245      0.000      0.000
REMARK INTER + INTRA:          -7.654
REMARK INTER:                  -7.705
REMARK INTRA:                   0.051
REMARK UNBOUND:                 0.051
REMARK SMILES O=c1c(O)c(-c2cc(O)c(O)c(O)c2)oc2cc(O)cc(O)c12
REMARK SMILES IDX 5 1 3 2 2 3 1 4 23 5 21 6 20 7 18 8 17 9 16 10 15 11 6 12
REMARK SMILES IDX 7 13 8 14 14 15 10 16 12 17 9 18 11 20 13 22 4 24 22 26
REMARK SMILES IDX 19 28
REMARK H PARENT 9 19 11 21 13 23 4 25 22 27 19 29
REMARK Flexibility Score: inf
ROOT
ATOM      1  C   UNL     1     -38.525  75.548 -25.919  1.00  0.00     0.180 A 
ATOM      2  C   UNL     1     -38.369  74.605 -26.950  1.00  0.00     0.208 A 
ATOM      3  C   UNL     1     -37.074  74.237 -27.346  1.00  0.00     0.238 A 
ATOM      4  O   UNL     1     -36.942  73.338 -28.218  1.00  0.00    -0.285 OA
ATOM      5  C   UNL     1     -35.950  74.856 -26.746  1.00  0.00     0.111 A 
ATOM      6  C   UNL     1     -34.592  74.592 -27.100  1.00  0.00     0.134 A 
ATOM      7  C   UNL     1     -33.559  75.187 -26.366  1.00  0.00     0.093 A 
ATOM      8  C   UNL     1     -33.834  76.083 -25.331  1.00  0.00     0.123 A 
ATOM      9  C   UNL     1     -35.155  76.390 -25.014  1.00  0.00     0.094 A 
ATOM     10  C   UNL     1     -36.208  75.783 -25.704  1.00  0.00     0.146 A 
ATOM     11  O   UNL     1     -37.452  76.087 -25.353  1.00  0.00    -0.452 OA
ENDROOT
BRANCH   1  12
ATOM     12  C   UNL     1     -39.858  75.976 -25.437  1.00  0.00     0.029 A 
ATOM     13  C   UNL     1     -40.112  76.018 -24.060  1.00  0.00     0.062 A 
ATOM     14  C   UNL     1     -41.370  76.401 -23.579  1.00  0.00     0.162 A 
ATOM     15  C   UNL     1     -40.894  76.286 -26.332  1.00  0.00     0.062 A 
ATOM     16  C   UNL     1     -42.398  76.733 -24.473  1.00  0.00     0.200 A 
ATOM     17  C   UNL     1     -42.159  76.667 -25.866  1.00  0.00     0.162 A 
BRANCH  14  18
ATOM     18  O   UNL     1     -41.608  76.455 -22.206  1.00  0.00    -0.504 OA
ATOM     19  H   UNL     1     -41.067  77.057 -21.596  1.00  0.00     0.293 HD
ENDBRANCH  14  18
BRANCH  16  20
ATOM     20  O   UNL     1     -43.632  77.117 -23.941  1.00  0.00    -0.502 OA
ATOM     21  H   UNL     1     -44.301  77.697 -24.426  1.00  0.00     0.293 HD
ENDBRANCH  16  20
BRANCH  17  22
ATOM     22  O   UNL     1     -43.140  76.962 -26.815  1.00  0.00    -0.504 OA
ATOM     23  H   UNL     1     -43.630  77.843 -26.867  1.00  0.00     0.293 HD
ENDBRANCH  17  22
ENDBRANCH   1  12
BRANCH   2  24
ATOM     24  O   UNL     1     -39.492  74.062 -27.581  1.00  0.00    -0.502 OA
ATOM     25  H   UNL     1     -39.582  73.072 -27.772  1.00  0.00     0.293 HD
ENDBRANCH   2  24
BRANCH   6  26
ATOM     26  O   UNL     1     -34.206  73.783 -28.173  1.00  0.00    -0.507 OA
ATOM     27  H   UNL     1     -34.827  73.196 -28.708  1.00  0.00     0.293 HD
ENDBRANCH   6  26
BRANCH   8  28
ATOM     28  O   UNL     1     -32.800  76.683 -24.616  1.00  0.00    -0.508 OA
ATOM     29  H   UNL     1     -32.130  77.297 -25.067  1.00  0.00     0.293 HD
ENDBRANCH   8  28
TORSDOF 7
ENDMDL
MODEL 2
REMARK VINA RESULT:    -6.123      0.156      1.765
REMARK INTER + INTRA:          -7.503
REMARK INTER:                  -7.581
REMARK INTRA:                   0.078
REMARK UNBOUND:                 0.051
REMARK SMILES O=c1c(O)c(-c2cc(O)c(O)c(O)c2)oc2cc(O)cc(O)c12
REMARK SMILES IDX 5 1 3 2 2 3 1 4 23 5 21 6 20 7 18 8 17 9 16 10 15 11 6 12
REMARK SMILES IDX 7 13 8 14 14 15 10 16 12 17 9 18 11 20 13 22 4 24 22 26
REMARK SMILES IDX 19 28
REMARK H PARENT 9 19 11 21 13 23 4 25 22 27 19 29
REMARK Flexibility Score: inf
ROOT
ATOM      1  C   UNL     1     -38.527  75.584 -25.875  1.00  0.00     0.180 A 
ATOM      2  C   UNL     1     -38.373  74.738 -26.986  1.00  0.00     0.208 A 
ATOM      3  C   UNL     1     -37.079  74.418 -27.424  1.00  0.00     0.238 A 
ATOM      4  O   UNL     1     -36.948  73.600 -28.373  1.00  0.00    -0.285 OA
ATOM      5  C   UNL     1     -35.955  74.992 -26.782  1.00  0.00     0.111 A 
ATOM      6  C   UNL     1     -34.598  74.773 -27.171  1.00  0.00     0.134 A 
ATOM      7  C   UNL     1     -33.563  75.310 -26.396  1.00  0.00     0.093 A 
ATOM      8  C   UNL     1     -33.835  76.110 -25.283  1.00  0.00     0.123 A 
ATOM      9  C   UNL     1     -35.156  76.374 -24.929  1.00  0.00     0.094 A 
ATOM     10  C   UNL     1     -36.210  75.821 -25.660  1.00  0.00     0.146 A 
ATOM     11  O   UNL     1     -37.453  76.082 -25.272  1.00  0.00    -0.452 OA
ENDROOT
BRANCH   1  12
ATOM     12  C   UNL     1     -39.859  75.956 -25.344  1.00  0.00     0.029 A 
ATOM     13  C   UNL     1     -40.866  76.357 -26.231  1.00  0.00     0.062 A 
ATOM     14  C   UNL     1     -42.128  76.732 -25.752  1.00  0.00     0.162 A 
ATOM     15  C   UNL     1     -40.117  75.972 -23.964  1.00  0.00     0.062 A 
ATOM     16  C   UNL     1     -42.392  76.727 -24.376  1.00  0.00     0.200 A 
ATOM     17  C   UNL     1     -41.372  76.350 -23.471  1.00  0.00     0.162 A 
BRANCH  14  18
ATOM     18  O   UNL     1     -43.129  77.115 -26.644  1.00  0.00    -0.504 OA
ATOM     19  H   UNL     1     -42.967  77.148 -27.644  1.00  0.00     0.293 HD
ENDBRANCH  14  18
BRANCH  16  20
ATOM     20  O   UNL     1     -43.670  77.102 -23.952  1.00  0.00    -0.502 OA
ATOM     21  H   UNL     1     -44.468  76.483 -23.942  1.00  0.00     0.293 HD
ENDBRANCH  16  20
BRANCH  17  22
ATOM     22  O   UNL     1     -41.556  76.341 -22.086  1.00  0.00    -0.504 OA
ATOM     23  H   UNL     1     -41.207  75.617 -21.475  1.00  0.00     0.293 HD
ENDBRANCH  17  22
ENDBRANCH   1  12
BRANCH   2  24
ATOM     24  O   UNL     1     -39.497  74.241 -27.653  1.00  0.00    -0.502 OA
ATOM     25  H   UNL     1     -40.002  74.782 -28.344  1.00  0.00     0.293 HD
ENDBRANCH   2  24
BRANCH   6  26
ATOM     26  O   UNL     1     -34.215  74.065 -28.314  1.00  0.00    -0.507 OA
ATOM     27  H   UNL     1     -34.024  73.076 -28.344  1.00  0.00     0.293 HD
ENDBRANCH   6  26
BRANCH   8  28
ATOM     28  O   UNL     1     -32.799  76.654 -24.528  1.00  0.00    -0.508 OA
ATOM     29  H   UNL     1     -32.967  77.387 -23.847  1.00  0.00     0.293 HD
ENDBRANCH   8  28
TORSDOF 7
ENDMDL
MODEL 3
REMARK VINA RESULT:    -5.622      1.478      6.900
REMARK INTER + INTRA:          -6.885
REMARK INTER:                  -6.571
REMARK INTRA:                  -0.314
REMARK UNBOUND:                 0.051
REMARK SMILES O=c1c(O)c(-c2cc(O)c(O)c(O)c2)oc2cc(O)cc(O)c12
REMARK SMILES IDX 5 1 3 2 2 3 1 4 23 5 21 6 20 7 18 8 17 9 16 10 15 11 6 12
REMARK SMILES IDX 7 13 8 14 14 15 10 16 12 17 9 18 11 20 13 22 4 24 22 26
REMARK SMILES IDX 19 28
REMARK H PARENT 9 19 11 21 13 23 4 25 22 27 19 29
REMARK Flexibility Score: inf
ROOT
ATOM      1  C   UNL     1     -39.125  75.855 -25.515  1.00  0.00     0.180 A 
ATOM      2  C   UNL     1     -40.322  76.058 -26.223  1.00  0.00     0.208 A 
ATOM      3  C   UNL     1     -41.484  76.396 -25.513  1.00  0.00     0.238 A 
ATOM      4  O   UNL     1     -42.534  76.649 -26.159  1.00  0.00    -0.285 OA
ATOM      5  C   UNL     1     -41.450  76.470 -24.099  1.00  0.00     0.111 A 
ATOM      6  C   UNL     1     -42.579  76.760 -23.273  1.00  0.00     0.134 A 
ATOM      7  C   UNL     1     -42.403  76.913 -21.892  1.00  0.00     0.093 A 
ATOM      8  C   UNL     1     -41.153  76.723 -21.300  1.00  0.00     0.123 A 
ATOM      9  C   UNL     1     -40.057  76.386 -22.090  1.00  0.00     0.094 A 
ATOM     10  C   UNL     1     -40.193  76.265 -23.475  1.00  0.00     0.146 A 
ATOM     11  O   UNL     1     -39.116  75.964 -24.192  1.00  0.00    -0.452 OA
ENDROOT
BRANCH   1  12
ATOM     12  C   UNL     1     -37.855  75.511 -26.195  1.00  0.00     0.029 A 
ATOM     13  C   UNL     1     -37.635  74.194 -26.618  1.00  0.00     0.062 A 
ATOM     14  C   UNL     1     -36.434  73.839 -27.246  1.00  0.00     0.162 A 
ATOM     15  C   UNL     1     -36.839  76.464 -26.372  1.00  0.00     0.062 A 
ATOM     16  C   UNL     1     -35.429  74.796 -27.443  1.00  0.00     0.200 A 
ATOM     17  C   UNL     1     -35.632  76.122 -26.994  1.00  0.00     0.162 A 
BRANCH  14  18
ATOM     18  O   UNL     1     -36.231  72.529 -27.678  1.00  0.00    -0.504 OA
ATOM     19  H   UNL     1     -35.515  72.298 -28.357  1.00  0.00     0.293 HD
ENDBRANCH  14  18
BRANCH  16  20
ATOM     20  O   UNL     1     -34.254  74.391 -28.081  1.00  0.00    -0.502 OA
ATOM     21  H   UNL     1     -34.003  73.427 -28.247  1.00  0.00     0.293 HD
ENDBRANCH  16  20
BRANCH  17  22
ATOM     22  O   UNL     1     -34.668  77.123 -27.136  1.00  0.00    -0.504 OA
ATOM     23  H   UNL     1     -34.606  77.937 -26.542  1.00  0.00     0.293 HD
ENDBRANCH  17  22
ENDBRANCH   1  12
BRANCH   2  24
ATOM     24  O   UNL     1     -40.352  75.905 -27.612  1.00  0.00    -0.502 OA
ATOM     25  H   UNL     1     -40.504  75.009 -28.058  1.00  0.00     0.293 HD
ENDBRANCH   2  24
BRANCH   6  26
ATOM     26  O   UNL     1     -43.887  76.882 -23.750  1.00  0.00    -0.507 OA
ATOM     27  H   UNL     1     -44.714  76.597 -23.249  1.00  0.00     0.293 HD
ENDBRANCH   6  26
BRANCH   8  28
ATOM     28  O   UNL     1     -40.991  76.860 -19.923  1.00  0.00    -0.508 OA
ATOM     29  H   UNL     1     -40.238  77.415 -19.530  1.00  0.00     0.293 HD
ENDBRANCH   8  28
TORSDOF 7
ENDMDL
MODEL 4
REMARK VINA RESULT:    -5.603      1.494      6.901
REMARK INTER + INTRA:          -6.863
REMARK INTER:                  -6.549
REMARK INTRA:                  -0.314
REMARK UNBOUND:                 0.051
REMARK SMILES O=c1c(O)c(-c2cc(O)c(O)c(O)c2)oc2cc(O)cc(O)c12
REMARK SMILES IDX 5 1 3 2 2 3 1 4 23 5 21 6 20 7 18 8 17 9 16 10 15 11 6 12
REMARK SMILES IDX 7 13 8 14 14 15 10 16 12 17 9 18 11 20 13 22 4 24 22 26
REMARK SMILES IDX 19 28
REMARK H PARENT 9 19 11 21 13 23 4 25 22 27 19 29
REMARK Flexibility Score: inf
ROOT
ATOM      1  C   UNL     1     -39.185  75.830 -25.495  1.00  0.00     0.180 A 
ATOM      2  C   UNL     1     -40.365  75.998 -26.239  1.00  0.00     0.208 A 
ATOM      3  C   UNL     1     -41.544  76.362 -25.571  1.00  0.00     0.238 A 
ATOM      4  O   UNL     1     -42.580  76.584 -26.252  1.00  0.00    -0.285 OA
ATOM      5  C   UNL     1     -41.543  76.499 -24.161  1.00  0.00     0.111 A 
ATOM      6  C   UNL     1     -42.691  76.822 -23.376  1.00  0.00     0.134 A 
ATOM      7  C   UNL     1     -42.548  77.035 -21.999  1.00  0.00     0.093 A 
ATOM      8  C   UNL     1     -41.311  76.876 -21.370  1.00  0.00     0.123 A 
ATOM      9  C   UNL     1     -40.196  76.508 -22.119  1.00  0.00     0.094 A 
ATOM     10  C   UNL     1     -40.300  76.326 -23.500  1.00  0.00     0.146 A 
ATOM     11  O   UNL     1     -39.206  75.997 -24.178  1.00  0.00    -0.452 OA
ENDROOT
BRANCH   1  12
ATOM     12  C   UNL     1     -37.899  75.460 -26.130  1.00  0.00     0.029 A 
ATOM     13  C   UNL     1     -36.943  76.453 -26.381  1.00  0.00     0.062 A 
ATOM     14  C   UNL     1     -35.727  76.132 -26.997  1.00  0.00     0.162 A 
ATOM     15  C   UNL     1     -37.639  74.143 -26.540  1.00  0.00     0.062 A 
ATOM     16  C   UNL     1     -35.458  74.812 -27.386  1.00  0.00     0.200 A 
ATOM     17  C   UNL     1     -36.429  73.808 -27.162  1.00  0.00     0.162 A 
BRANCH  14  18
ATOM     18  O   UNL     1     -34.776  77.125 -27.228  1.00  0.00    -0.504 OA
ATOM     19  H   UNL     1     -34.318  77.610 -26.465  1.00  0.00     0.293 HD
ENDBRANCH  14  18
BRANCH  16  20
ATOM     20  O   UNL     1     -34.226  74.544 -27.990  1.00  0.00    -0.502 OA
ATOM     21  H   UNL     1     -34.100  73.898 -28.755  1.00  0.00     0.293 HD
ENDBRANCH  16  20
BRANCH  17  22
ATOM     22  O   UNL     1     -36.240  72.477 -27.542  1.00  0.00    -0.504 OA
ATOM     23  H   UNL     1     -35.591  71.848 -27.092  1.00  0.00     0.293 HD
ENDBRANCH  17  22
ENDBRANCH   1  12
BRANCH   2  24
ATOM     24  O   UNL     1     -40.363  75.784 -27.620  1.00  0.00    -0.502 OA
ATOM     25  H   UNL     1     -39.863  75.016 -28.051  1.00  0.00     0.293 HD
ENDBRANCH   2  24
BRANCH   6  26
ATOM     26  O   UNL     1     -43.989  76.917 -23.887  1.00  0.00    -0.507 OA
ATOM     27  H   UNL     1     -44.727  77.478 -23.491  1.00  0.00     0.293 HD
ENDBRANCH   6  26
BRANCH   8  28
ATOM     28  O   UNL     1     -41.181  77.074 -19.997  1.00  0.00    -0.508 OA
ATOM     29  H   UNL     1     -40.905  77.972 -19.615  1.00  0.00     0.293 HD
ENDBRANCH   8  28
TORSDOF 7
ENDMDL
MODEL 5
REMARK VINA RESULT:    -5.572      1.494      6.770
REMARK INTER + INTRA:          -6.824
REMARK INTER:                  -7.228
REMARK INTRA:                   0.404
REMARK UNBOUND:                 0.051
REMARK SMILES O=c1c(O)c(-c2cc(O)c(O)c(O)c2)oc2cc(O)cc(O)c12
REMARK SMILES IDX 5 1 3 2 2 3 1 4 23 5 21 6 20 7 18 8 17 9 16 10 15 11 6 12
REMARK SMILES IDX 7 13 8 14 14 15 10 16 12 17 9 18 11 20 13 22 4 24 22 26
REMARK SMILES IDX 19 28
REMARK H PARENT 9 19 11 21 13 23 4 25 22 27 19 29
REMARK Flexibility Score: inf
ROOT
ATOM      1  C   UNL     1     -37.571  76.063 -25.564  1.00  0.00     0.180 A 
ATOM      2  C   UNL     1     -38.622  75.764 -26.447  1.00  0.00     0.208 A 
ATOM      3  C   UNL     1     -39.941  75.789 -25.968  1.00  0.00     0.238 A 
ATOM      4  O   UNL     1     -40.882  75.593 -26.781  1.00  0.00    -0.285 OA
ATOM      5  C   UNL     1     -40.190  76.057 -24.599  1.00  0.00     0.111 A 
ATOM      6  C   UNL     1     -41.484  76.064 -23.996  1.00  0.00     0.134 A 
ATOM      7  C   UNL     1     -41.618  76.447 -22.655  1.00  0.00     0.093 A 
ATOM      8  C   UNL     1     -40.500  76.761 -21.880  1.00  0.00     0.123 A 
ATOM      9  C   UNL     1     -39.228  76.704 -22.445  1.00  0.00     0.094 A 
ATOM     10  C   UNL     1     -39.066  76.363 -23.790  1.00  0.00     0.146 A 
ATOM     11  O   UNL     1     -37.837  76.343 -24.293  1.00  0.00    -0.452 OA
ENDROOT
BRANCH   1  12
ATOM     12  C   UNL     1     -36.154  76.071 -25.997  1.00  0.00     0.029 A 
ATOM     13  C   UNL     1     -35.141  76.214 -25.040  1.00  0.00     0.062 A 
ATOM     14  C   UNL     1     -33.796  76.245 -25.427  1.00  0.00     0.162 A 
ATOM     15  C   UNL     1     -35.806  75.997 -27.355  1.00  0.00     0.062 A 
ATOM     16  C   UNL     1     -33.447  76.148 -26.781  1.00  0.00     0.200 A 
ATOM     17  C   UNL     1     -34.464  76.031 -27.757  1.00  0.00     0.162 A 
BRANCH  14  18
ATOM     18  O   UNL     1     -32.794  76.371 -24.465  1.00  0.00    -0.504 OA
ATOM     19  H   UNL     1     -32.898  75.984 -23.535  1.00  0.00     0.293 HD
ENDBRANCH  14  18
BRANCH  16  20
ATOM     20  O   UNL     1     -32.089  76.175 -27.112  1.00  0.00    -0.502 OA
ATOM     21  H   UNL     1     -31.735  76.388 -28.034  1.00  0.00     0.293 HD
ENDBRANCH  16  20
BRANCH  17  22
ATOM     22  O   UNL     1     -34.193  75.952 -29.125  1.00  0.00    -0.504 OA
ATOM     23  H   UNL     1     -34.656  76.511 -29.826  1.00  0.00     0.293 HD
ENDBRANCH  17  22
ENDBRANCH   1  12
BRANCH   2  24
ATOM     24  O   UNL     1     -38.350  75.428 -27.776  1.00  0.00    -0.502 OA
ATOM     25  H   UNL     1     -38.602  74.531 -28.173  1.00  0.00     0.293 HD
ENDBRANCH   2  24
BRANCH   6  26
ATOM     26  O   UNL     1     -42.657  75.682 -24.653  1.00  0.00    -0.507 OA
ATOM     27  H   UNL     1     -42.738  75.521 -25.645  1.00  0.00     0.293 HD
ENDBRANCH   6  26
BRANCH   8  28
ATOM     28  O   UNL     1     -40.641  77.125 -20.543  1.00  0.00    -0.508 OA
ATOM     29  H   UNL     1     -39.985  76.811 -19.836  1.00  0.00     0.293 HD
ENDBRANCH   8  28
TORSDOF 7
ENDMDL
MODEL 6
REMARK VINA RESULT:    -5.193      1.444      1.794
REMARK INTER + INTRA:          -6.357
REMARK INTER:                  -6.788
REMARK INTRA:                   0.432
REMARK UNBOUND:                 0.051
REMARK SMILES O=c1c(O)c(-c2cc(O)c(O)c(O)c2)oc2cc(O)cc(O)c12
REMARK SMILES IDX 5 1 3 2 2 3 1 4 23 5 21 6 20 7 18 8 17 9 16 10 15 11 6 12
REMARK SMILES IDX 7 13 8 14 14 15 10 16 12 17 9 18 11 20 13 22 4 24 22 26
REMARK SMILES IDX 19 28
REMARK H PARENT 9 19 11 21 13 23 4 25 22 27 19 29
REMARK Flexibility Score: inf
ROOT
ATOM      1  C   UNL     1     -38.030  76.172 -25.227  1.00  0.00     0.180 A 
ATOM      2  C   UNL     1     -38.230  75.809 -26.569  1.00  0.00     0.208 A 
ATOM      3  C   UNL     1     -37.121  75.734 -27.426  1.00  0.00     0.238 A 
ATOM      4  O   UNL     1     -37.298  75.337 -28.608  1.00  0.00    -0.285 OA
ATOM      5  C   UNL     1     -35.834  76.078 -26.946  1.00  0.00     0.111 A 
ATOM      6  C   UNL     1     -34.646  76.081 -27.738  1.00  0.00     0.134 A 
ATOM      7  C   UNL     1     -33.411  76.336 -27.130  1.00  0.00     0.093 A 
ATOM      8  C   UNL     1     -33.328  76.650 -25.771  1.00  0.00     0.123 A 
ATOM      9  C   UNL     1     -34.488  76.703 -25.002  1.00  0.00     0.094 A 
ATOM     10  C   UNL     1     -35.730  76.416 -25.572  1.00  0.00     0.146 A 
ATOM     11  O   UNL     1     -36.807  76.457 -24.796  1.00  0.00    -0.452 OA
ENDROOT
BRANCH   1  12
ATOM     12  C   UNL     1     -39.147  76.259 -24.258  1.00  0.00     0.029 A 
ATOM     13  C   UNL     1     -38.868  76.437 -22.897  1.00  0.00     0.062 A 
ATOM     14  C   UNL     1     -39.906  76.502 -21.959  1.00  0.00     0.162 A 
ATOM     15  C   UNL     1     -40.482  76.107 -24.667  1.00  0.00     0.062 A 
ATOM     16  C   UNL     1     -41.240  76.374 -22.371  1.00  0.00     0.200 A 
ATOM     17  C   UNL     1     -41.530  76.166 -23.739  1.00  0.00     0.162 A 
BRANCH  14  18
ATOM     18  O   UNL     1     -39.618  76.696 -20.609  1.00  0.00    -0.504 OA
ATOM     19  H   UNL     1     -39.901  77.537 -20.120  1.00  0.00     0.293 HD
ENDBRANCH  14  18
BRANCH  16  20
ATOM     20  O   UNL     1     -42.238  76.455 -21.395  1.00  0.00    -0.502 OA
ATOM     21  H   UNL     1     -43.083  76.998 -21.495  1.00  0.00     0.293 HD
ENDBRANCH  16  20
BRANCH  17  22
ATOM     22  O   UNL     1     -42.832  76.007 -24.219  1.00  0.00    -0.504 OA
ATOM     23  H   UNL     1     -43.644  75.909 -23.628  1.00  0.00     0.293 HD
ENDBRANCH  17  22
ENDBRANCH   1  12
BRANCH   2  24
ATOM     24  O   UNL     1     -39.519  75.547 -27.043  1.00  0.00    -0.502 OA
ATOM     25  H   UNL     1     -39.894  74.609 -27.108  1.00  0.00     0.293 HD
ENDBRANCH   2  24
BRANCH   6  26
ATOM     26  O   UNL     1     -34.625  75.869 -29.120  1.00  0.00    -0.507 OA
ATOM     27  H   UNL     1     -33.845  76.073 -29.725  1.00  0.00     0.293 HD
ENDBRANCH   6  26
BRANCH   8  28
ATOM     28  O   UNL     1     -32.097  76.919 -25.177  1.00  0.00    -0.508 OA
ATOM     29  H   UNL     1     -31.885  77.830 -24.786  1.00  0.00     0.293 HD
ENDBRANCH   8  28
TORSDOF 7
ENDMDL
MODEL 7
REMARK VINA RESULT:    -5.013      1.674      2.418
REMARK INTER + INTRA:          -6.135
REMARK INTER:                  -6.521
REMARK INTRA:                   0.386
REMARK UNBOUND:                 0.051
REMARK SMILES O=c1c(O)c(-c2cc(O)c(O)c(O)c2)oc2cc(O)cc(O)c12
REMARK SMILES IDX 5 1 3 2 2 3 1 4 23 5 21 6 20 7 18 8 17 9 16 10 15 11 6 12
REMARK SMILES IDX 7 13 8 14 14 15 10 16 12 17 9 18 11 20 13 22 4 24 22 26
REMARK SMILES IDX 19 28
REMARK H PARENT 9 19 11 21 13 23 4 25 22 27 19 29
REMARK Flexibility Score: inf
ROOT
ATOM      1  C   UNL     1     -38.991  76.064 -24.652  1.00  0.00     0.180 A 
ATOM      2  C   UNL     1     -39.438  75.901 -25.974  1.00  0.00     0.208 A 
ATOM      3  C   UNL     1     -38.492  75.764 -27.001  1.00  0.00     0.238 A 
ATOM      4  O   UNL     1     -38.899  75.545 -28.172  1.00  0.00    -0.285 OA
ATOM      5  C   UNL     1     -37.109  75.848 -26.702  1.00  0.00     0.111 A 
ATOM      6  C   UNL     1     -36.063  75.768 -27.670  1.00  0.00     0.134 A 
ATOM      7  C   UNL     1     -34.729  75.757 -27.246  1.00  0.00     0.093 A 
ATOM      8  C   UNL     1     -34.402  75.887 -25.894  1.00  0.00     0.123 A 
ATOM      9  C   UNL     1     -35.414  76.021 -24.948  1.00  0.00     0.094 A 
ATOM     10  C   UNL     1     -36.756  75.997 -25.337  1.00  0.00     0.146 A 
ATOM     11  O   UNL     1     -37.688  76.106 -24.397  1.00  0.00    -0.452 OA
ENDROOT
BRANCH   1  12
ATOM     12  C   UNL     1     -39.928  76.200 -23.513  1.00  0.00     0.029 A 
ATOM     13  C   UNL     1     -39.438  76.594 -22.261  1.00  0.00     0.062 A 
ATOM     14  C   UNL     1     -40.301  76.711 -21.164  1.00  0.00     0.162 A 
ATOM     15  C   UNL     1     -41.290  75.887 -23.646  1.00  0.00     0.062 A 
ATOM     16  C   UNL     1     -41.665  76.420 -21.303  1.00  0.00     0.200 A 
ATOM     17  C   UNL     1     -42.164  75.996 -22.557  1.00  0.00     0.162 A 
BRANCH  14  18
ATOM     18  O   UNL     1     -39.807  77.119 -19.925  1.00  0.00    -0.504 OA
ATOM     19  H   UNL     1     -39.131  76.563 -19.413  1.00  0.00     0.293 HD
ENDBRANCH  14  18
BRANCH  16  20
ATOM     20  O   UNL     1     -42.484  76.562 -20.178  1.00  0.00    -0.502 OA
ATOM     21  H   UNL     1     -43.466  76.793 -20.219  1.00  0.00     0.293 HD
ENDBRANCH  16  20
BRANCH  17  22
ATOM     22  O   UNL     1     -43.506  75.668 -22.764  1.00  0.00    -0.504 OA
ATOM     23  H   UNL     1     -43.823  74.768 -23.093  1.00  0.00     0.293 HD
ENDBRANCH  17  22
ENDBRANCH   1  12
BRANCH   2  24
ATOM     24  O   UNL     1     -40.807  75.897 -26.258  1.00  0.00    -0.502 OA
ATOM     25  H   UNL     1     -41.498  76.257 -25.611  1.00  0.00     0.293 HD
ENDBRANCH   2  24
BRANCH   6  26
ATOM     26  O   UNL     1     -36.276  75.724 -29.052  1.00  0.00    -0.507 OA
ATOM     27  H   UNL     1     -36.298  76.528 -29.659  1.00  0.00     0.293 HD
ENDBRANCH   6  26
BRANCH   8  28
ATOM     28  O   UNL     1     -33.071  75.892 -25.482  1.00  0.00    -0.508 OA
ATOM     29  H   UNL     1     -32.363  75.352 -25.967  1.00  0.00     0.293 HD
ENDBRANCH   8  28
TORSDOF 7
ENDMDL
MODEL 8
REMARK VINA RESULT:    -4.648      2.341      6.695
REMARK INTER + INTRA:          -5.684
REMARK INTER:                  -6.087
REMARK INTRA:                   0.404
REMARK UNBOUND:                 0.051
REMARK SMILES O=c1c(O)c(-c2cc(O)c(O)c(O)c2)oc2cc(O)cc(O)c12
REMARK SMILES IDX 5 1 3 2 2 3 1 4 23 5 21 6 20 7 18 8 17 9 16 10 15 11 6 12
REMARK SMILES IDX 7 13 8 14 14 15 10 16 12 17 9 18 11 20 13 22 4 24 22 26
REMARK SMILES IDX 19 28
REMARK H PARENT 9 19 11 21 13 23 4 25 22 27 19 29
REMARK Flexibility Score: inf
ROOT
ATOM      1  C   UNL     1     -39.097  76.179 -24.347  1.00  0.00     0.180 A 
ATOM      2  C   UNL     1     -40.479  76.103 -24.590  1.00  0.00     0.208 A 
ATOM      3  C   UNL     1     -41.368  76.247 -23.513  1.00  0.00     0.238 A 
ATOM      4  O   UNL     1     -42.605  76.253 -23.748  1.00  0.00    -0.285 OA
ATOM      5  C   UNL     1     -40.864  76.407 -22.199  1.00  0.00     0.111 A 
ATOM      6  C   UNL     1     -41.672  76.518 -21.027  1.00  0.00     0.134 A 
ATOM      7  C   UNL     1     -41.065  76.780 -19.792  1.00  0.00     0.093 A 
ATOM      8  C   UNL     1     -39.677  76.874 -19.677  1.00  0.00     0.123 A 
ATOM      9  C   UNL     1     -38.877  76.712 -20.805  1.00  0.00     0.094 A 
ATOM     10  C   UNL     1     -39.454  76.488 -22.057  1.00  0.00     0.146 A 
ATOM     11  O   UNL     1     -38.654  76.363 -23.110  1.00  0.00    -0.452 OA
ENDROOT
BRANCH   1  12
ATOM     12  C   UNL     1     -38.098  76.051 -25.433  1.00  0.00     0.029 A 
ATOM     13  C   UNL     1     -36.737  75.966 -25.112  1.00  0.00     0.062 A 
ATOM     14  C   UNL     1     -35.772  75.864 -26.121  1.00  0.00     0.162 A 
ATOM     15  C   UNL     1     -38.480  76.072 -26.784  1.00  0.00     0.062 A 
ATOM     16  C   UNL     1     -36.156  75.862 -27.469  1.00  0.00     0.200 A 
ATOM     17  C   UNL     1     -37.525  75.975 -27.804  1.00  0.00     0.162 A 
BRANCH  14  18
ATOM     18  O   UNL     1     -34.421  75.765 -25.790  1.00  0.00    -0.504 OA
ATOM     19  H   UNL     1     -33.714  76.304 -26.275  1.00  0.00     0.293 HD
ENDBRANCH  14  18
BRANCH  16  20
ATOM     20  O   UNL     1     -35.153  75.750 -28.437  1.00  0.00    -0.502 OA
ATOM     21  H   UNL     1     -34.575  76.519 -28.743  1.00  0.00     0.293 HD
ENDBRANCH  16  20
BRANCH  17  22
ATOM     22  O   UNL     1     -37.980  76.002 -29.125  1.00  0.00    -0.504 OA
ATOM     23  H   UNL     1     -38.129  75.177 -29.688  1.00  0.00     0.293 HD
ENDBRANCH  17  22
ENDBRANCH   1  12
BRANCH   2  24
ATOM     24  O   UNL     1     -40.955  75.868 -25.883  1.00  0.00    -0.502 OA
ATOM     25  H   UNL     1     -41.721  75.235 -26.074  1.00  0.00     0.293 HD
ENDBRANCH   2  24
BRANCH   6  26
ATOM     26  O   UNL     1     -43.060  76.354 -21.014  1.00  0.00    -0.507 OA
ATOM     27  H   UNL     1     -43.586  75.827 -21.694  1.00  0.00     0.293 HD
ENDBRANCH   6  26
BRANCH   8  28
ATOM     28  O   UNL     1     -39.081  77.118 -18.442  1.00  0.00    -0.508 OA
ATOM     29  H   UNL     1     -38.117  77.427 -18.369  1.00  0.00     0.293 HD
ENDBRANCH   8  28
TORSDOF 7
ENDMDL
MODEL 9
REMARK VINA RESULT:    -4.465      3.692      6.435
REMARK INTER + INTRA:          -5.458
REMARK INTER:                  -5.205
REMARK INTRA:                  -0.253
REMARK UNBOUND:                 0.051
REMARK SMILES O=c1c(O)c(-c2cc(O)c(O)c(O)c2)oc2cc(O)cc(O)c12
REMARK SMILES IDX 5 1 3 2 2 3 1 4 23 5 21 6 20 7 18 8 17 9 16 10 15 11 6 12
REMARK SMILES IDX 7 13 8 14 14 15 10 16 12 17 9 18 11 20 13 22 4 24 22 26
REMARK SMILES IDX 19 28
REMARK H PARENT 9 19 11 21 13 23 4 25 22 27 19 29
REMARK Flexibility Score: inf
ROOT
ATOM      1  C   UNL     1     -39.454  75.904 -22.127  1.00  0.00     0.180 A 
ATOM      2  C   UNL     1     -40.838  75.955 -22.363  1.00  0.00     0.208 A 
ATOM      3  C   UNL     1     -41.297  76.244 -23.657  1.00  0.00     0.238 A 
ATOM      4  O   UNL     1     -42.537  76.215 -23.878  1.00  0.00    -0.285 OA
ATOM      5  C   UNL     1     -40.369  76.536 -24.687  1.00  0.00     0.111 A 
ATOM      6  C   UNL     1     -40.724  76.886 -26.025  1.00  0.00     0.134 A 
ATOM      7  C   UNL     1     -39.718  77.050 -26.985  1.00  0.00     0.093 A 
ATOM      8  C   UNL     1     -38.369  76.938 -26.642  1.00  0.00     0.123 A 
ATOM      9  C   UNL     1     -38.011  76.650 -25.327  1.00  0.00     0.094 A 
ATOM     10  C   UNL     1     -38.993  76.444 -24.355  1.00  0.00     0.146 A 
ATOM     11  O   UNL     1     -38.607  76.150 -23.119  1.00  0.00    -0.452 OA
ENDROOT
BRANCH   1  12
ATOM     12  C   UNL     1     -38.892  75.591 -20.792  1.00  0.00     0.029 A 
ATOM     13  C   UNL     1     -38.287  74.347 -20.574  1.00  0.00     0.062 A 
ATOM     14  C   UNL     1     -37.766  74.021 -19.316  1.00  0.00     0.162 A 
ATOM     15  C   UNL     1     -39.006  76.494 -19.722  1.00  0.00     0.062 A 
ATOM     16  C   UNL     1     -37.859  74.930 -18.253  1.00  0.00     0.200 A 
ATOM     17  C   UNL     1     -38.493  76.178 -18.457  1.00  0.00     0.162 A 
BRANCH  14  18
ATOM     18  O   UNL     1     -37.150  72.786 -19.112  1.00  0.00    -0.504 OA
ATOM     19  H   UNL     1     -36.216  72.594 -19.456  1.00  0.00     0.293 HD
ENDBRANCH  14  18
BRANCH  16  20
ATOM     20  O   UNL     1     -37.315  74.557 -17.020  1.00  0.00    -0.502 OA
ATOM     21  H   UNL     1     -37.842  74.515 -16.160  1.00  0.00     0.293 HD
ENDBRANCH  16  20
BRANCH  17  22
ATOM     22  O   UNL     1     -38.642  77.125 -17.441  1.00  0.00    -0.504 OA
ATOM     23  H   UNL     1     -37.928  77.340 -16.760  1.00  0.00     0.293 HD
ENDBRANCH  17  22
ENDBRANCH   1  12
BRANCH   2  24
ATOM     24  O   UNL     1     -41.739  75.739 -21.316  1.00  0.00    -0.502 OA
ATOM     25  H   UNL     1     -42.083  74.817 -21.076  1.00  0.00     0.293 HD
ENDBRANCH   2  24
BRANCH   6  26
ATOM     26  O   UNL     1     -42.036  77.110 -26.454  1.00  0.00    -0.507 OA
ATOM     27  H   UNL     1     -42.382  77.981 -26.824  1.00  0.00     0.293 HD
ENDBRANCH   6  26
BRANCH   8  28
ATOM     28  O   UNL     1     -37.374  77.119 -27.601  1.00  0.00    -0.508 OA
ATOM     29  H   UNL     1     -36.485  76.636 -27.539  1.00  0.00     0.293 HD
ENDBRANCH   8  28
TORSDOF 7
ENDMDL
