MODEL 1
REMARK VINA RESULT:    -5.762      0.000      0.000
REMARK INTER + INTRA:          -6.342
REMARK INTER:                  -6.098
REMARK INTRA:                  -0.243
REMARK UNBOUND:                -0.243
REMARK SMILES CC1=CC[C@@H]2[C@H]3[C@@H](C(C)C)CC[C@]2(C)[C@@H]13
REMARK SMILES IDX 1 1 2 2 3 3 4 4 5 5 6 6 15 7 13 8 12 9 11 10 7 11 14 12 8 13
REMARK SMILES IDX 9 14 10 15
REMARK H PARENT
REMARK Flexibility Score: inf
ROOT
ATOM      1  C   UNL     1     -48.510 -47.614  20.316  1.00  0.00     0.039 C 
ATOM      2  C   UNL     1     -49.723 -48.436  20.634  1.00  0.00    -0.073 C 
ATOM      3  C   UNL     1     -49.937 -49.638  20.038  1.00  0.00    -0.027 C 
ATOM      4  C   UNL     1     -51.182 -50.444  20.423  1.00  0.00     0.031 C 
ATOM      5  C   UNL     1     -52.035 -49.662  21.473  1.00  0.00     0.003 C 
ATOM      6  C   UNL     1     -52.160 -48.205  20.971  1.00  0.00     0.004 C 
ATOM      7  C   UNL     1     -50.781 -47.954  21.631  1.00  0.00     0.024 C 
ATOM      8  C   UNL     1     -51.154 -49.094  22.609  1.00  0.00    -0.022 C 
ATOM      9  C   UNL     1     -52.075 -48.563  23.744  1.00  0.00     0.008 C 
ATOM     10  C   UNL     1     -53.037 -47.442  23.265  1.00  0.00     0.005 C 
ATOM     11  C   UNL     1     -53.296 -47.441  21.719  1.00  0.00    -0.005 C 
ATOM     12  C   UNL     1     -50.025 -49.981  23.188  1.00  0.00     0.012 C 
ENDROOT
BRANCH  11  13
ATOM     13  C   UNL     1     -54.733 -47.954  21.370  1.00  0.00    -0.014 C 
ATOM     14  C   UNL     1     -55.796 -46.889  21.705  1.00  0.00     0.007 C 
ATOM     15  C   UNL     1     -54.888 -48.348  19.891  1.00  0.00     0.007 C 
ENDBRANCH  11  13
TORSDOF 1
ENDMDL
MODEL 2
REMARK VINA RESULT:    -5.702      3.172      5.726
REMARK INTER + INTRA:          -6.279
REMARK INTER:                  -5.996
REMARK INTRA:                  -0.283
REMARK UNBOUND:                -0.243
REMARK SMILES CC1=CC[C@@H]2[C@H]3[C@@H](C(C)C)CC[C@]2(C)[C@@H]13
REMARK SMILES IDX 1 1 2 2 3 3 4 4 5 5 6 6 15 7 13 8 12 9 11 10 7 11 14 12 8 13
REMARK SMILES IDX 9 14 10 15
REMARK H PARENT
REMARK Flexibility Score: inf
ROOT
ATOM      1  C   UNL     1     -50.326 -51.116  15.041  1.00  0.00     0.039 C 
ATOM      2  C   UNL     1     -49.372 -50.924  16.182  1.00  0.00    -0.073 C 
ATOM      3  C   UNL     1     -48.396 -51.832  16.444  1.00  0.00    -0.027 C 
ATOM      4  C   UNL     1     -47.434 -51.570  17.608  1.00  0.00     0.031 C 
ATOM      5  C   UNL     1     -47.807 -50.236  18.334  1.00  0.00     0.003 C 
ATOM      6  C   UNL     1     -49.336 -50.247  18.558  1.00  0.00     0.004 C 
ATOM      7  C   UNL     1     -49.462 -49.710  17.110  1.00  0.00     0.024 C 
ATOM      8  C   UNL     1     -48.059 -49.093  17.323  1.00  0.00    -0.022 C 
ATOM      9  C   UNL     1     -48.162 -47.749  18.099  1.00  0.00     0.008 C 
ATOM     10  C   UNL     1     -49.313 -47.742  19.142  1.00  0.00     0.005 C 
ATOM     11  C   UNL     1     -49.766 -49.170  19.603  1.00  0.00    -0.005 C 
ATOM     12  C   UNL     1     -47.111 -48.954  16.108  1.00  0.00     0.012 C 
ENDROOT
BRANCH  11  13
ATOM     13  C   UNL     1     -49.292 -49.487  21.061  1.00  0.00    -0.014 C 
ATOM     14  C   UNL     1     -48.659 -48.245  21.717  1.00  0.00     0.007 C 
ATOM     15  C   UNL     1     -50.431 -49.989  21.966  1.00  0.00     0.007 C 
ENDBRANCH  11  13
TORSDOF 1
ENDMDL
MODEL 3
REMARK VINA RESULT:    -5.657      2.380      5.371
REMARK INTER + INTRA:          -6.232
REMARK INTER:                  -5.942
REMARK INTRA:                  -0.289
REMARK UNBOUND:                -0.243
REMARK SMILES CC1=CC[C@@H]2[C@H]3[C@@H](C(C)C)CC[C@]2(C)[C@@H]13
REMARK SMILES IDX 1 1 2 2 3 3 4 4 5 5 6 6 15 7 13 8 12 9 11 10 7 11 14 12 8 13
REMARK SMILES IDX 9 14 10 15
REMARK H PARENT
REMARK Flexibility Score: inf
ROOT
ATOM      1  C   UNL     1     -49.772 -50.258  23.418  1.00  0.00     0.039 C 
ATOM      2  C   UNL     1     -50.104 -49.797  22.030  1.00  0.00    -0.073 C 
ATOM      3  C   UNL     1     -51.384 -49.796  21.574  1.00  0.00    -0.027 C 
ATOM      4  C   UNL     1     -51.664 -49.289  20.155  1.00  0.00     0.031 C 
ATOM      5  C   UNL     1     -50.331 -48.876  19.450  1.00  0.00     0.003 C 
ATOM      6  C   UNL     1     -49.308 -50.008  19.700  1.00  0.00     0.004 C 
ATOM      7  C   UNL     1     -49.018 -49.325  21.059  1.00  0.00     0.024 C 
ATOM      8  C   UNL     1     -49.448 -48.005  20.374  1.00  0.00    -0.022 C 
ATOM      9  C   UNL     1     -48.277 -47.412  19.540  1.00  0.00     0.008 C 
ATOM     10  C   UNL     1     -47.381 -48.506  18.898  1.00  0.00     0.005 C 
ATOM     11  C   UNL     1     -48.088 -49.896  18.734  1.00  0.00    -0.005 C 
ATOM     12  C   UNL     1     -50.125 -46.906  21.228  1.00  0.00     0.012 C 
ENDROOT
BRANCH  11  13
ATOM     13  C   UNL     1     -48.440 -50.196  17.239  1.00  0.00    -0.014 C 
ATOM     14  C   UNL     1     -47.664 -49.262  16.291  1.00  0.00     0.007 C 
ATOM     15  C   UNL     1     -48.150 -51.652  16.834  1.00  0.00     0.007 C 
ENDBRANCH  11  13
TORSDOF 1
ENDMDL
MODEL 4
REMARK VINA RESULT:    -5.598     10.327     12.540
REMARK INTER + INTRA:          -6.169
REMARK INTER:                  -5.988
REMARK INTRA:                  -0.181
REMARK UNBOUND:                -0.243
REMARK SMILES CC1=CC[C@@H]2[C@H]3[C@@H](C(C)C)CC[C@]2(C)[C@@H]13
REMARK SMILES IDX 1 1 2 2 3 3 4 4 5 5 6 6 15 7 13 8 12 9 11 10 7 11 14 12 8 13
REMARK SMILES IDX 9 14 10 15
REMARK H PARENT
REMARK Flexibility Score: inf
ROOT
ATOM      1  C   UNL     1     -38.416 -46.229  29.303  1.00  0.00     0.039 C 
ATOM      2  C   UNL     1     -39.161 -47.402  28.738  1.00  0.00    -0.073 C 
ATOM      3  C   UNL     1     -38.506 -48.513  28.310  1.00  0.00    -0.027 C 
ATOM      4  C   UNL     1     -39.323 -49.690  27.766  1.00  0.00     0.031 C 
ATOM      5  C   UNL     1     -40.848 -49.348  27.780  1.00  0.00     0.003 C 
ATOM      6  C   UNL     1     -41.008 -47.931  27.184  1.00  0.00     0.004 C 
ATOM      7  C   UNL     1     -40.686 -47.396  28.601  1.00  0.00     0.024 C 
ATOM      8  C   UNL     1     -41.277 -48.725  29.129  1.00  0.00    -0.022 C 
ATOM      9  C   UNL     1     -42.830 -48.653  29.181  1.00  0.00     0.008 C 
ATOM     10  C   UNL     1     -43.432 -47.797  28.034  1.00  0.00     0.005 C 
ATOM     11  C   UNL     1     -42.490 -47.642  26.790  1.00  0.00    -0.005 C 
ATOM     12  C   UNL     1     -40.711 -49.327  30.438  1.00  0.00     0.012 C 
ENDROOT
BRANCH  11  13
ATOM     13  C   UNL     1     -42.992 -48.488  25.572  1.00  0.00    -0.014 C 
ATOM     14  C   UNL     1     -43.952 -49.602  26.033  1.00  0.00     0.007 C 
ATOM     15  C   UNL     1     -43.707 -47.640  24.505  1.00  0.00     0.007 C 
ENDBRANCH  11  13
TORSDOF 1
ENDMDL
MODEL 5
REMARK VINA RESULT:    -5.565      1.379      3.242
REMARK INTER + INTRA:          -6.134
REMARK INTER:                  -6.040
REMARK INTRA:                  -0.094
REMARK UNBOUND:                -0.243
REMARK SMILES CC1=CC[C@@H]2[C@H]3[C@@H](C(C)C)CC[C@]2(C)[C@@H]13
REMARK SMILES IDX 1 1 2 2 3 3 4 4 5 5 6 6 15 7 13 8 12 9 11 10 7 11 14 12 8 13
REMARK SMILES IDX 9 14 10 15
REMARK H PARENT
REMARK Flexibility Score: inf
ROOT
ATOM      1  C   UNL     1     -50.385 -49.576  25.337  1.00  0.00     0.039 C 
ATOM      2  C   UNL     1     -50.829 -48.589  24.299  1.00  0.00    -0.073 C 
ATOM      3  C   UNL     1     -50.708 -47.251  24.501  1.00  0.00    -0.027 C 
ATOM      4  C   UNL     1     -51.156 -46.292  23.393  1.00  0.00     0.031 C 
ATOM      5  C   UNL     1     -51.732 -47.091  22.179  1.00  0.00     0.003 C 
ATOM      6  C   UNL     1     -52.701 -48.153  22.746  1.00  0.00     0.004 C 
ATOM      7  C   UNL     1     -51.452 -49.041  22.975  1.00  0.00     0.024 C 
ATOM      8  C   UNL     1     -50.813 -48.274  21.793  1.00  0.00    -0.022 C 
ATOM      9  C   UNL     1     -51.292 -48.862  20.435  1.00  0.00     0.008 C 
ATOM     10  C   UNL     1     -52.756 -49.376  20.484  1.00  0.00     0.005 C 
ATOM     11  C   UNL     1     -53.618 -48.741  21.629  1.00  0.00    -0.005 C 
ATOM     12  C   UNL     1     -49.281 -48.053  21.786  1.00  0.00     0.012 C 
ENDROOT
BRANCH  11  13
ATOM     13  C   UNL     1     -54.662 -47.716  21.070  1.00  0.00    -0.014 C 
ATOM     14  C   UNL     1     -55.992 -48.415  20.729  1.00  0.00     0.007 C 
ATOM     15  C   UNL     1     -54.954 -46.563  22.047  1.00  0.00     0.007 C 
ENDBRANCH  11  13
TORSDOF 1
ENDMDL
MODEL 6
REMARK VINA RESULT:    -5.558      9.875     12.676
REMARK INTER + INTRA:          -6.126
REMARK INTER:                  -5.988
REMARK INTRA:                  -0.138
REMARK UNBOUND:                -0.243
REMARK SMILES CC1=CC[C@@H]2[C@H]3[C@@H](C(C)C)CC[C@]2(C)[C@@H]13
REMARK SMILES IDX 1 1 2 2 3 3 4 4 5 5 6 6 15 7 13 8 12 9 11 10 7 11 14 12 8 13
REMARK SMILES IDX 9 14 10 15
REMARK H PARENT
REMARK Flexibility Score: inf
ROOT
ATOM      1  C   UNL     1     -43.796 -49.713  24.676  1.00  0.00     0.039 C 
ATOM      2  C   UNL     1     -43.116 -48.681  25.526  1.00  0.00    -0.073 C 
ATOM      3  C   UNL     1     -43.031 -47.385  25.128  1.00  0.00    -0.027 C 
ATOM      4  C   UNL     1     -42.346 -46.371  26.051  1.00  0.00     0.031 C 
ATOM      5  C   UNL     1     -41.817 -47.078  27.341  1.00  0.00     0.003 C 
ATOM      6  C   UNL     1     -41.083 -48.362  26.893  1.00  0.00     0.004 C 
ATOM      7  C   UNL     1     -42.474 -49.042  26.868  1.00  0.00     0.024 C 
ATOM      8  C   UNL     1     -42.884 -48.016  27.951  1.00  0.00    -0.022 C 
ATOM      9  C   UNL     1     -42.404 -48.479  29.356  1.00  0.00     0.008 C 
ATOM     10  C   UNL     1     -41.052 -49.242  29.310  1.00  0.00     0.005 C 
ATOM     11  C   UNL     1     -40.190 -48.936  28.037  1.00  0.00    -0.005 C 
ATOM     12  C   UNL     1     -44.354 -47.533  28.005  1.00  0.00     0.012 C 
ENDROOT
BRANCH  11  13
ATOM     13  C   UNL     1     -38.951 -48.040  28.376  1.00  0.00    -0.014 C 
ATOM     14  C   UNL     1     -39.200 -47.216  29.654  1.00  0.00     0.007 C 
ATOM     15  C   UNL     1     -37.657 -48.850  28.563  1.00  0.00     0.007 C 
ENDBRANCH  11  13
TORSDOF 1
ENDMDL
MODEL 7
REMARK VINA RESULT:    -5.521     10.473     13.388
REMARK INTER + INTRA:          -6.087
REMARK INTER:                  -6.201
REMARK INTRA:                   0.114
REMARK UNBOUND:                -0.243
REMARK SMILES CC1=CC[C@@H]2[C@H]3[C@@H](C(C)C)CC[C@]2(C)[C@@H]13
REMARK SMILES IDX 1 1 2 2 3 3 4 4 5 5 6 6 15 7 13 8 12 9 11 10 7 11 14 12 8 13
REMARK SMILES IDX 9 14 10 15
REMARK H PARENT
REMARK Flexibility Score: inf
ROOT
ATOM      1  C   UNL     1     -44.750 -48.499  30.164  1.00  0.00     0.039 C 
ATOM      2  C   UNL     1     -43.490 -48.943  29.484  1.00  0.00    -0.073 C 
ATOM      3  C   UNL     1     -43.026 -50.213  29.618  1.00  0.00    -0.027 C 
ATOM      4  C   UNL     1     -41.745 -50.615  28.879  1.00  0.00     0.031 C 
ATOM      5  C   UNL     1     -41.167 -49.398  28.087  1.00  0.00     0.003 C 
ATOM      6  C   UNL     1     -41.182 -48.180  29.039  1.00  0.00     0.004 C 
ATOM      7  C   UNL     1     -42.661 -47.985  28.623  1.00  0.00     0.024 C 
ATOM      8  C   UNL     1     -42.271 -48.666  27.289  1.00  0.00    -0.022 C 
ATOM      9  C   UNL     1     -41.603 -47.643  26.326  1.00  0.00     0.008 C 
ATOM     10  C   UNL     1     -40.753 -46.579  27.073  1.00  0.00     0.005 C 
ATOM     11  C   UNL     1     -40.282 -47.025  28.500  1.00  0.00    -0.005 C 
ATOM     12  C   UNL     1     -43.332 -49.510  26.542  1.00  0.00     0.012 C 
ENDROOT
BRANCH  11  13
ATOM     13  C   UNL     1     -38.752 -47.354  28.531  1.00  0.00    -0.014 C 
ATOM     14  C   UNL     1     -37.962 -46.236  29.237  1.00  0.00     0.007 C 
ATOM     15  C   UNL     1     -38.438 -48.689  29.230  1.00  0.00     0.007 C 
ENDBRANCH  11  13
TORSDOF 1
ENDMDL
MODEL 8
REMARK VINA RESULT:    -5.444      9.340     12.254
REMARK INTER + INTRA:          -6.005
REMARK INTER:                  -5.774
REMARK INTRA:                  -0.232
REMARK UNBOUND:                -0.243
REMARK SMILES CC1=CC[C@@H]2[C@H]3[C@@H](C(C)C)CC[C@]2(C)[C@@H]13
REMARK SMILES IDX 1 1 2 2 3 3 4 4 5 5 6 6 15 7 13 8 12 9 11 10 7 11 14 12 8 13
REMARK SMILES IDX 9 14 10 15
REMARK H PARENT
REMARK Flexibility Score: inf
ROOT
ATOM      1  C   UNL     1     -45.170 -50.350  25.975  1.00  0.00     0.039 C 
ATOM      2  C   UNL     1     -44.608 -49.350  26.942  1.00  0.00    -0.073 C 
ATOM      3  C   UNL     1     -45.059 -48.069  26.973  1.00  0.00    -0.027 C 
ATOM      4  C   UNL     1     -44.464 -47.100  28.000  1.00  0.00     0.031 C 
ATOM      5  C   UNL     1     -43.359 -47.812  28.846  1.00  0.00     0.003 C 
ATOM      6  C   UNL     1     -42.448 -48.580  27.861  1.00  0.00     0.004 C 
ATOM      7  C   UNL     1     -43.493 -49.721  27.923  1.00  0.00     0.024 C 
ATOM      8  C   UNL     1     -43.832 -49.200  29.340  1.00  0.00    -0.022 C 
ATOM      9  C   UNL     1     -42.809 -49.738  30.382  1.00  0.00     0.008 C 
ATOM     10  C   UNL     1     -41.378 -49.889  29.799  1.00  0.00     0.005 C 
ATOM     11  C   UNL     1     -41.106 -49.000  28.537  1.00  0.00    -0.005 C 
ATOM     12  C   UNL     1     -45.280 -49.348  29.865  1.00  0.00     0.012 C 
ENDROOT
BRANCH  11  13
ATOM     13  C   UNL     1     -40.165 -47.793  28.867  1.00  0.00    -0.014 C 
ATOM     14  C   UNL     1     -38.701 -48.256  29.002  1.00  0.00     0.007 C 
ATOM     15  C   UNL     1     -40.227 -46.676  27.811  1.00  0.00     0.007 C 
ENDBRANCH  11  13
TORSDOF 1
ENDMDL
MODEL 9
REMARK VINA RESULT:    -5.364      1.810      2.354
REMARK INTER + INTRA:          -5.921
REMARK INTER:                  -5.626
REMARK INTRA:                  -0.295
REMARK UNBOUND:                -0.243
REMARK SMILES CC1=CC[C@@H]2[C@H]3[C@@H](C(C)C)CC[C@]2(C)[C@@H]13
REMARK SMILES IDX 1 1 2 2 3 3 4 4 5 5 6 6 15 7 13 8 12 9 11 10 7 11 14 12 8 13
REMARK SMILES IDX 9 14 10 15
REMARK H PARENT
REMARK Flexibility Score: inf
ROOT
ATOM      1  C   UNL     1     -47.618 -47.313  22.848  1.00  0.00     0.039 C 
ATOM      2  C   UNL     1     -48.917 -47.977  23.196  1.00  0.00    -0.073 C 
ATOM      3  C   UNL     1     -48.992 -49.318  23.397  1.00  0.00    -0.027 C 
ATOM      4  C   UNL     1     -50.342 -49.936  23.776  1.00  0.00     0.031 C 
ATOM      5  C   UNL     1     -51.450 -48.834  23.831  1.00  0.00     0.003 C 
ATOM      6  C   UNL     1     -51.304 -47.971  22.557  1.00  0.00     0.004 C 
ATOM      7  C   UNL     1     -50.218 -47.179  23.326  1.00  0.00     0.024 C 
ATOM      8  C   UNL     1     -50.972 -47.589  24.614  1.00  0.00    -0.022 C 
ATOM      9  C   UNL     1     -52.188 -46.651  24.860  1.00  0.00     0.008 C 
ATOM     10  C   UNL     1     -52.857 -46.173  23.543  1.00  0.00     0.005 C 
ATOM     11  C   UNL     1     -52.575 -47.101  22.311  1.00  0.00    -0.005 C 
ATOM     12  C   UNL     1     -50.165 -47.796  25.918  1.00  0.00     0.012 C 
ENDROOT
BRANCH  11  13
ATOM     13  C   UNL     1     -53.839 -47.934  21.910  1.00  0.00    -0.014 C 
ATOM     14  C   UNL     1     -55.052 -47.015  21.669  1.00  0.00     0.007 C 
ATOM     15  C   UNL     1     -53.619 -48.792  20.651  1.00  0.00     0.007 C 
ENDBRANCH  11  13
TORSDOF 1
ENDMDL
