MODEL 1
REMARK VINA RESULT:    -3.100      0.000      0.000
REMARK INTER + INTRA:         -14.415
REMARK INTER:                  -8.085
REMARK INTRA:                  -6.330
REMARK UNBOUND:                -6.330
REMARK SMILES CCCCCCCCCCCCCCCCCCCCCCCCCCCCCO
REMARK SMILES IDX 16 1 15 2 14 3 13 4 12 5 11 6 10 7 9 8 8 9 7 10 6 11 5 12
REMARK SMILES IDX 4 13 3 14 2 15 1 16 17 17 18 18 19 19 20 20 21 21 22 22
REMARK SMILES IDX 23 23 24 24 25 25 26 26 27 27 28 28 29 29 30 30
REMARK H PARENT 30 31
REMARK Flexibility Score: inf
ROOT
ATOM      1  C   UNL     1     163.045 165.458 185.717  1.00  0.00     0.000 C 
ENDROOT
BRANCH   1   2
ATOM      2  C   UNL     1     164.313 164.616 185.466  1.00  0.00     0.000 C 
BRANCH   2   3
ATOM      3  C   UNL     1     164.631 163.633 186.610  1.00  0.00     0.000 C 
BRANCH   3   4
ATOM      4  C   UNL     1     164.635 164.307 187.992  1.00  0.00     0.000 C 
BRANCH   4   5
ATOM      5  C   UNL     1     164.522 163.344 189.190  1.00  0.00     0.000 C 
BRANCH   5   6
ATOM      6  C   UNL     1     165.879 162.852 189.735  1.00  0.00     0.000 C 
BRANCH   6   7
ATOM      7  C   UNL     1     166.046 161.325 189.625  1.00  0.00     0.000 C 
BRANCH   7   8
ATOM      8  C   UNL     1     164.857 160.660 188.897  1.00  0.00    -0.000 C 
BRANCH   8   9
ATOM      9  C   UNL     1     165.171 160.281 187.440  1.00  0.00    -0.000 C 
BRANCH   9  10
ATOM     10  C   UNL     1     166.676 160.326 187.125  1.00  0.00    -0.000 C 
BRANCH  10  11
ATOM     11  C   UNL     1     166.974 160.939 185.747  1.00  0.00    -0.000 C 
BRANCH  11  12
ATOM     12  C   UNL     1     167.947 162.128 185.824  1.00  0.00    -0.000 C 
BRANCH  12  13
ATOM     13  C   UNL     1     168.696 162.186 187.166  1.00  0.00    -0.000 C 
BRANCH  13  14
ATOM     14  C   UNL     1     168.782 163.613 187.734  1.00  0.00    -0.000 C 
BRANCH  14  15
ATOM     15  C   UNL     1     168.164 164.658 186.793  1.00  0.00    -0.003 C 
ATOM     16  C   UNL     1     169.205 165.618 186.212  1.00  0.00     0.004 C 
ENDBRANCH  14  15
ENDBRANCH  13  14
ENDBRANCH  12  13
ENDBRANCH  11  12
ENDBRANCH  10  11
ENDBRANCH   9  10
ENDBRANCH   8   9
ENDBRANCH   7   8
ENDBRANCH   6   7
ENDBRANCH   5   6
ENDBRANCH   4   5
ENDBRANCH   3   4
ENDBRANCH   2   3
ENDBRANCH   1   2
BRANCH   1  17
ATOM     17  C   UNL     1     161.747 164.848 185.146  1.00  0.00     0.000 C 
BRANCH  17  18
ATOM     18  C   UNL     1     160.494 164.995 186.026  1.00  0.00     0.000 C 
BRANCH  18  19
ATOM     19  C   UNL     1     160.809 164.987 187.529  1.00  0.00     0.000 C 
BRANCH  19  20
ATOM     20  C   UNL     1     160.017 163.892 188.258  1.00  0.00     0.000 C 
BRANCH  20  21
ATOM     21  C   UNL     1     160.930 162.856 188.935  1.00  0.00     0.000 C 
BRANCH  21  22
ATOM     22  C   UNL     1     161.346 161.719 187.986  1.00  0.00     0.000 C 
BRANCH  22  23
ATOM     23  C   UNL     1     160.231 161.361 186.980  1.00  0.00     0.000 C 
BRANCH  23  24
ATOM     24  C   UNL     1     160.755 160.973 185.587  1.00  0.00     0.000 C 
BRANCH  24  25
ATOM     25  C   UNL     1     162.269 161.191 185.436  1.00  0.00     0.000 C 
BRANCH  25  26
ATOM     26  C   UNL     1     162.808 160.678 184.092  1.00  0.00     0.000 C 
BRANCH  26  27
ATOM     27  C   UNL     1     164.027 161.478 183.601  1.00  0.00     0.002 C 
BRANCH  27  28
ATOM     28  C   UNL     1     163.789 162.159 182.242  1.00  0.00     0.028 C 
BRANCH  28  29
ATOM     29  C   UNL     1     162.413 162.825 182.126  1.00  0.00     0.156 C 
BRANCH  29  30
ATOM     30  O   UNL     1     161.694 162.269 181.061  1.00  0.00    -0.396 OA
ATOM     31  H   UNL     1     160.737 162.315 181.321  1.00  0.00     0.210 HD
ENDBRANCH  29  30
ENDBRANCH  28  29
ENDBRANCH  27  28
ENDBRANCH  26  27
ENDBRANCH  25  26
ENDBRANCH  24  25
ENDBRANCH  23  24
ENDBRANCH  22  23
ENDBRANCH  21  22
ENDBRANCH  20  21
ENDBRANCH  19  20
ENDBRANCH  18  19
ENDBRANCH  17  18
ENDBRANCH   1  17
TORSDOF 28
ENDMDL
MODEL 2
REMARK VINA RESULT:    -3.017      2.364      5.410
REMARK INTER + INTRA:         -14.198
REMARK INTER:                  -8.747
REMARK INTRA:                  -5.451
REMARK UNBOUND:                -6.330
REMARK SMILES CCCCCCCCCCCCCCCCCCCCCCCCCCCCCO
REMARK SMILES IDX 16 1 15 2 14 3 13 4 12 5 11 6 10 7 9 8 8 9 7 10 6 11 5 12
REMARK SMILES IDX 4 13 3 14 2 15 1 16 17 17 18 18 19 19 20 20 21 21 22 22
REMARK SMILES IDX 23 23 24 24 25 25 26 26 27 27 28 28 29 29 30 30
REMARK H PARENT 30 31
REMARK Flexibility Score: inf
ROOT
ATOM      1  C   UNL     1     161.117 164.923 186.996  1.00  0.00     0.000 C 
ENDROOT
BRANCH   1   2
ATOM      2  C   UNL     1     161.255 164.487 185.523  1.00  0.00     0.000 C 
BRANCH   2   3
ATOM      3  C   UNL     1     159.981 163.830 184.957  1.00  0.00     0.000 C 
BRANCH   3   4
ATOM      4  C   UNL     1     160.240 162.430 184.376  1.00  0.00     0.000 C 
BRANCH   4   5
ATOM      5  C   UNL     1     161.245 161.569 185.166  1.00  0.00     0.000 C 
BRANCH   5   6
ATOM      6  C   UNL     1     162.123 160.655 184.285  1.00  0.00     0.000 C 
BRANCH   6   7
ATOM      7  C   UNL     1     163.603 161.079 184.278  1.00  0.00     0.000 C 
BRANCH   7   8
ATOM      8  C   UNL     1     163.841 162.352 183.435  1.00  0.00    -0.000 C 
BRANCH   8   9
ATOM      9  C   UNL     1     164.473 163.502 184.236  1.00  0.00    -0.000 C 
BRANCH   9  10
ATOM     10  C   UNL     1     164.687 163.147 185.717  1.00  0.00    -0.000 C 
BRANCH  10  11
ATOM     11  C   UNL     1     166.175 163.040 186.089  1.00  0.00    -0.000 C 
BRANCH  11  12
ATOM     12  C   UNL     1     167.084 162.869 184.860  1.00  0.00    -0.000 C 
BRANCH  12  13
ATOM     13  C   UNL     1     168.173 161.804 185.080  1.00  0.00    -0.000 C 
BRANCH  13  14
ATOM     14  C   UNL     1     167.668 160.603 185.898  1.00  0.00    -0.000 C 
BRANCH  14  15
ATOM     15  C   UNL     1     168.657 160.185 186.997  1.00  0.00    -0.003 C 
ATOM     16  C   UNL     1     169.216 161.379 187.773  1.00  0.00     0.004 C 
ENDBRANCH  14  15
ENDBRANCH  13  14
ENDBRANCH  12  13
ENDBRANCH  11  12
ENDBRANCH  10  11
ENDBRANCH   9  10
ENDBRANCH   8   9
ENDBRANCH   7   8
ENDBRANCH   6   7
ENDBRANCH   5   6
ENDBRANCH   4   5
ENDBRANCH   3   4
ENDBRANCH   2   3
ENDBRANCH   1   2
BRANCH   1  17
ATOM     17  C   UNL     1     160.011 164.188 187.782  1.00  0.00     0.000 C 
BRANCH  17  18
ATOM     18  C   UNL     1     160.471 163.434 189.041  1.00  0.00     0.000 C 
BRANCH  18  19
ATOM     19  C   UNL     1     160.989 162.021 188.740  1.00  0.00     0.000 C 
BRANCH  19  20
ATOM     20  C   UNL     1     162.516 162.012 188.574  1.00  0.00     0.000 C 
BRANCH  20  21
ATOM     21  C   UNL     1     163.039 160.685 187.998  1.00  0.00     0.000 C 
BRANCH  21  22
ATOM     22  C   UNL     1     164.056 159.994 188.923  1.00  0.00     0.000 C 
BRANCH  22  23
ATOM     23  C   UNL     1     165.474 160.584 188.772  1.00  0.00     0.000 C 
BRANCH  23  24
ATOM     24  C   UNL     1     166.338 160.451 190.038  1.00  0.00     0.000 C 
BRANCH  24  25
ATOM     25  C   UNL     1     166.722 161.810 190.645  1.00  0.00     0.000 C 
BRANCH  25  26
ATOM     26  C   UNL     1     166.214 162.995 189.808  1.00  0.00     0.000 C 
BRANCH  26  27
ATOM     27  C   UNL     1     166.994 164.291 190.088  1.00  0.00     0.002 C 
BRANCH  27  28
ATOM     28  C   UNL     1     167.908 164.705 188.921  1.00  0.00     0.028 C 
BRANCH  28  29
ATOM     29  C   UNL     1     167.530 166.054 188.300  1.00  0.00     0.156 C 
BRANCH  29  30
ATOM     30  O   UNL     1     166.640 166.740 189.136  1.00  0.00    -0.396 OA
ATOM     31  H   UNL     1     165.729 166.466 188.853  1.00  0.00     0.210 HD
ENDBRANCH  29  30
ENDBRANCH  28  29
ENDBRANCH  27  28
ENDBRANCH  26  27
ENDBRANCH  25  26
ENDBRANCH  24  25
ENDBRANCH  23  24
ENDBRANCH  22  23
ENDBRANCH  21  22
ENDBRANCH  20  21
ENDBRANCH  19  20
ENDBRANCH  18  19
ENDBRANCH  17  18
ENDBRANCH   1  17
TORSDOF 28
ENDMDL
MODEL 3
REMARK VINA RESULT:    -3.004      1.870      2.902
REMARK INTER + INTRA:         -14.164
REMARK INTER:                  -8.713
REMARK INTRA:                  -5.451
REMARK UNBOUND:                -6.330
REMARK SMILES CCCCCCCCCCCCCCCCCCCCCCCCCCCCCO
REMARK SMILES IDX 16 1 15 2 14 3 13 4 12 5 11 6 10 7 9 8 8 9 7 10 6 11 5 12
REMARK SMILES IDX 4 13 3 14 2 15 1 16 17 17 18 18 19 19 20 20 21 21 22 22
REMARK SMILES IDX 23 23 24 24 25 25 26 26 27 27 28 28 29 29 30 30
REMARK H PARENT 30 31
REMARK Flexibility Score: inf
ROOT
ATOM      1  C   UNL     1     163.182 164.942 187.530  1.00  0.00     0.000 C 
ENDROOT
BRANCH   1   2
ATOM      2  C   UNL     1     164.013 164.690 186.256  1.00  0.00     0.000 C 
BRANCH   2   3
ATOM      3  C   UNL     1     165.533 164.679 186.509  1.00  0.00     0.000 C 
BRANCH   3   4
ATOM      4  C   UNL     1     165.897 164.989 187.971  1.00  0.00     0.000 C 
BRANCH   4   5
ATOM      5  C   UNL     1     166.992 164.090 188.577  1.00  0.00     0.000 C 
BRANCH   5   6
ATOM      6  C   UNL     1     166.977 164.030 190.119  1.00  0.00     0.000 C 
BRANCH   6   7
ATOM      7  C   UNL     1     166.641 162.626 190.657  1.00  0.00     0.000 C 
BRANCH   7   8
ATOM      8  C   UNL     1     166.916 161.522 189.613  1.00  0.00    -0.000 C 
BRANCH   8   9
ATOM      9  C   UNL     1     165.806 160.459 189.546  1.00  0.00    -0.000 C 
BRANCH   9  10
ATOM     10  C   UNL     1     164.525 160.980 188.873  1.00  0.00    -0.000 C 
BRANCH  10  11
ATOM     11  C   UNL     1     164.715 161.249 187.370  1.00  0.00    -0.000 C 
BRANCH  11  12
ATOM     12  C   UNL     1     165.017 159.970 186.572  1.00  0.00    -0.000 C 
BRANCH  12  13
ATOM     13  C   UNL     1     166.232 160.132 185.643  1.00  0.00    -0.000 C 
BRANCH  13  14
ATOM     14  C   UNL     1     167.035 161.411 185.937  1.00  0.00    -0.000 C 
BRANCH  14  15
ATOM     15  C   UNL     1     167.424 162.168 184.659  1.00  0.00    -0.003 C 
ATOM     16  C   UNL     1     168.732 161.660 184.048  1.00  0.00     0.004 C 
ENDBRANCH  14  15
ENDBRANCH  13  14
ENDBRANCH  12  13
ENDBRANCH  11  12
ENDBRANCH  10  11
ENDBRANCH   9  10
ENDBRANCH   8   9
ENDBRANCH   7   8
ENDBRANCH   6   7
ENDBRANCH   5   6
ENDBRANCH   4   5
ENDBRANCH   3   4
ENDBRANCH   2   3
ENDBRANCH   1   2
BRANCH   1  17
ATOM     17  C   UNL     1     161.800 164.256 187.542  1.00  0.00     0.000 C 
BRANCH  17  18
ATOM     18  C   UNL     1     161.279 163.820 188.921  1.00  0.00     0.000 C 
BRANCH  18  19
ATOM     19  C   UNL     1     160.599 162.443 188.901  1.00  0.00     0.000 C 
BRANCH  19  20
ATOM     20  C   UNL     1     161.091 161.598 187.717  1.00  0.00     0.000 C 
BRANCH  20  21
ATOM     21  C   UNL     1     159.934 161.016 186.887  1.00  0.00     0.000 C 
BRANCH  21  22
ATOM     22  C   UNL     1     160.189 161.095 185.372  1.00  0.00     0.000 C 
BRANCH  22  23
ATOM     23  C   UNL     1     161.687 160.965 185.026  1.00  0.00     0.000 C 
BRANCH  23  24
ATOM     24  C   UNL     1     162.256 162.176 184.267  1.00  0.00     0.000 C 
BRANCH  24  25
ATOM     25  C   UNL     1     163.670 161.926 183.718  1.00  0.00     0.000 C 
BRANCH  25  26
ATOM     26  C   UNL     1     163.775 160.611 182.931  1.00  0.00     0.000 C 
BRANCH  26  27
ATOM     27  C   UNL     1     163.798 160.835 181.409  1.00  0.00     0.002 C 
BRANCH  27  28
ATOM     28  C   UNL     1     165.025 160.201 180.728  1.00  0.00     0.028 C 
BRANCH  28  29
ATOM     29  C   UNL     1     166.338 160.461 181.475  1.00  0.00     0.156 C 
BRANCH  29  30
ATOM     30  O   UNL     1     167.304 160.966 180.596  1.00  0.00    -0.396 OA
ATOM     31  H   UNL     1     167.080 161.924 180.461  1.00  0.00     0.210 HD
ENDBRANCH  29  30
ENDBRANCH  28  29
ENDBRANCH  27  28
ENDBRANCH  26  27
ENDBRANCH  25  26
ENDBRANCH  24  25
ENDBRANCH  23  24
ENDBRANCH  22  23
ENDBRANCH  21  22
ENDBRANCH  20  21
ENDBRANCH  19  20
ENDBRANCH  18  19
ENDBRANCH  17  18
ENDBRANCH   1  17
TORSDOF 28
ENDMDL
MODEL 4
REMARK VINA RESULT:    -2.984      2.010      3.983
REMARK INTER + INTRA:         -14.111
REMARK INTER:                  -8.425
REMARK INTRA:                  -5.686
REMARK UNBOUND:                -6.330
REMARK SMILES CCCCCCCCCCCCCCCCCCCCCCCCCCCCCO
REMARK SMILES IDX 16 1 15 2 14 3 13 4 12 5 11 6 10 7 9 8 8 9 7 10 6 11 5 12
REMARK SMILES IDX 4 13 3 14 2 15 1 16 17 17 18 18 19 19 20 20 21 21 22 22
REMARK SMILES IDX 23 23 24 24 25 25 26 26 27 27 28 28 29 29 30 30
REMARK H PARENT 30 31
REMARK Flexibility Score: inf
ROOT
ATOM      1  C   UNL     1     162.628 163.539 188.533  1.00  0.00     0.000 C 
ENDROOT
BRANCH   1   2
ATOM      2  C   UNL     1     163.136 162.309 187.753  1.00  0.00     0.000 C 
BRANCH   2   3
ATOM      3  C   UNL     1     162.768 160.968 188.417  1.00  0.00     0.000 C 
BRANCH   3   4
ATOM      4  C   UNL     1     164.002 160.130 188.793  1.00  0.00     0.000 C 
BRANCH   4   5
ATOM      5  C   UNL     1     165.216 160.296 187.859  1.00  0.00     0.000 C 
BRANCH   5   6
ATOM      6  C   UNL     1     166.518 160.702 188.581  1.00  0.00     0.000 C 
BRANCH   6   7
ATOM      7  C   UNL     1     166.258 161.446 189.904  1.00  0.00     0.000 C 
BRANCH   7   8
ATOM      8  C   UNL     1     166.380 162.977 189.744  1.00  0.00    -0.000 C 
BRANCH   8   9
ATOM      9  C   UNL     1     166.769 163.411 188.321  1.00  0.00    -0.000 C 
BRANCH   9  10
ATOM     10  C   UNL     1     166.025 164.676 187.861  1.00  0.00    -0.000 C 
BRANCH  10  11
ATOM     11  C   UNL     1     165.953 164.796 186.330  1.00  0.00    -0.000 C 
BRANCH  11  12
ATOM     12  C   UNL     1     164.551 165.182 185.830  1.00  0.00    -0.000 C 
BRANCH  12  13
ATOM     13  C   UNL     1     164.336 164.818 184.351  1.00  0.00    -0.000 C 
BRANCH  13  14
ATOM     14  C   UNL     1     163.450 165.837 183.613  1.00  0.00    -0.000 C 
BRANCH  14  15
ATOM     15  C   UNL     1     164.264 166.988 183.003  1.00  0.00    -0.003 C 
ATOM     16  C   UNL     1     165.665 166.554 182.569  1.00  0.00     0.004 C 
ENDBRANCH  14  15
ENDBRANCH  13  14
ENDBRANCH  12  13
ENDBRANCH  11  12
ENDBRANCH  10  11
ENDBRANCH   9  10
ENDBRANCH   8   9
ENDBRANCH   7   8
ENDBRANCH   6   7
ENDBRANCH   5   6
ENDBRANCH   4   5
ENDBRANCH   3   4
ENDBRANCH   2   3
ENDBRANCH   1   2
BRANCH   1  17
ATOM     17  C   UNL     1     161.185 163.411 189.065  1.00  0.00     0.000 C 
BRANCH  17  18
ATOM     18  C   UNL     1     160.067 163.699 188.050  1.00  0.00     0.000 C 
BRANCH  18  19
ATOM     19  C   UNL     1     160.083 165.143 187.530  1.00  0.00     0.000 C 
BRANCH  19  20
ATOM     20  C   UNL     1     160.613 165.211 186.090  1.00  0.00     0.000 C 
BRANCH  20  21
ATOM     21  C   UNL     1     160.002 164.129 185.185  1.00  0.00     0.000 C 
BRANCH  21  22
ATOM     22  C   UNL     1     161.054 163.154 184.629  1.00  0.00     0.000 C 
BRANCH  22  23
ATOM     23  C   UNL     1     160.751 161.689 185.009  1.00  0.00     0.000 C 
BRANCH  23  24
ATOM     24  C   UNL     1     161.914 160.723 184.730  1.00  0.00     0.000 C 
BRANCH  24  25
ATOM     25  C   UNL     1     163.187 161.442 184.256  1.00  0.00     0.000 C 
BRANCH  25  26
ATOM     26  C   UNL     1     164.448 160.580 184.419  1.00  0.00     0.000 C 
BRANCH  26  27
ATOM     27  C   UNL     1     165.692 161.228 183.787  1.00  0.00     0.002 C 
BRANCH  27  28
ATOM     28  C   UNL     1     166.775 161.583 184.821  1.00  0.00     0.028 C 
BRANCH  28  29
ATOM     29  C   UNL     1     168.145 161.867 184.195  1.00  0.00     0.156 C 
BRANCH  29  30
ATOM     30  O   UNL     1     168.269 161.194 182.974  1.00  0.00    -0.396 OA
ATOM     31  H   UNL     1     167.800 160.327 183.087  1.00  0.00     0.210 HD
ENDBRANCH  29  30
ENDBRANCH  28  29
ENDBRANCH  27  28
ENDBRANCH  26  27
ENDBRANCH  25  26
ENDBRANCH  24  25
ENDBRANCH  23  24
ENDBRANCH  22  23
ENDBRANCH  21  22
ENDBRANCH  20  21
ENDBRANCH  19  20
ENDBRANCH  18  19
ENDBRANCH  17  18
ENDBRANCH   1  17
TORSDOF 28
ENDMDL
MODEL 5
REMARK VINA RESULT:    -2.971      2.507      5.904
REMARK INTER + INTRA:         -14.078
REMARK INTER:                  -8.577
REMARK INTRA:                  -5.501
REMARK UNBOUND:                -6.330
REMARK SMILES CCCCCCCCCCCCCCCCCCCCCCCCCCCCCO
REMARK SMILES IDX 16 1 15 2 14 3 13 4 12 5 11 6 10 7 9 8 8 9 7 10 6 11 5 12
REMARK SMILES IDX 4 13 3 14 2 15 1 16 17 17 18 18 19 19 20 20 21 21 22 22
REMARK SMILES IDX 23 23 24 24 25 25 26 26 27 27 28 28 29 29 30 30
REMARK H PARENT 30 31
REMARK Flexibility Score: inf
ROOT
ATOM      1  C   UNL     1     162.357 165.098 187.683  1.00  0.00     0.000 C 
ENDROOT
BRANCH   1   2
ATOM      2  C   UNL     1     160.964 165.483 187.147  1.00  0.00     0.000 C 
BRANCH   2   3
ATOM      3  C   UNL     1     160.847 165.380 185.614  1.00  0.00     0.000 C 
BRANCH   3   4
ATOM      4  C   UNL     1     160.065 164.136 185.158  1.00  0.00     0.000 C 
BRANCH   4   5
ATOM      5  C   UNL     1     160.920 162.877 184.918  1.00  0.00     0.000 C 
BRANCH   5   6
ATOM      6  C   UNL     1     160.794 162.288 183.497  1.00  0.00     0.000 C 
BRANCH   6   7
ATOM      7  C   UNL     1     161.787 162.916 182.503  1.00  0.00     0.000 C 
BRANCH   7   8
ATOM      8  C   UNL     1     161.726 162.242 181.114  1.00  0.00    -0.000 C 
BRANCH   8   9
ATOM      9  C   UNL     1     163.110 161.869 180.558  1.00  0.00    -0.000 C 
BRANCH   9  10
ATOM     10  C   UNL     1     164.188 162.912 180.897  1.00  0.00    -0.000 C 
BRANCH  10  11
ATOM     11  C   UNL     1     165.399 162.299 181.619  1.00  0.00    -0.000 C 
BRANCH  11  12
ATOM     12  C   UNL     1     165.050 160.998 182.362  1.00  0.00    -0.000 C 
BRANCH  12  13
ATOM     13  C   UNL     1     164.720 161.241 183.846  1.00  0.00    -0.000 C 
BRANCH  13  14
ATOM     14  C   UNL     1     165.448 162.469 184.420  1.00  0.00    -0.000 C 
BRANCH  14  15
ATOM     15  C   UNL     1     164.491 163.439 185.129  1.00  0.00    -0.003 C 
ATOM     16  C   UNL     1     164.367 164.781 184.405  1.00  0.00     0.004 C 
ENDBRANCH  14  15
ENDBRANCH  13  14
ENDBRANCH  12  13
ENDBRANCH  11  12
ENDBRANCH  10  11
ENDBRANCH   9  10
ENDBRANCH   8   9
ENDBRANCH   7   8
ENDBRANCH   6   7
ENDBRANCH   5   6
ENDBRANCH   4   5
ENDBRANCH   3   4
ENDBRANCH   2   3
ENDBRANCH   1   2
BRANCH   1  17
ATOM     17  C   UNL     1     162.354 163.953 188.718  1.00  0.00     0.000 C 
BRANCH  17  18
ATOM     18  C   UNL     1     161.045 163.154 188.830  1.00  0.00     0.000 C 
BRANCH  18  19
ATOM     19  C   UNL     1     161.183 161.703 188.349  1.00  0.00     0.000 C 
BRANCH  19  20
ATOM     20  C   UNL     1     162.609 161.177 188.567  1.00  0.00     0.000 C 
BRANCH  20  21
ATOM     21  C   UNL     1     163.347 160.908 187.245  1.00  0.00     0.000 C 
BRANCH  21  22
ATOM     22  C   UNL     1     164.663 160.137 187.444  1.00  0.00     0.000 C 
BRANCH  22  23
ATOM     23  C   UNL     1     165.130 160.149 188.915  1.00  0.00     0.000 C 
BRANCH  23  24
ATOM     24  C   UNL     1     166.514 160.787 189.120  1.00  0.00     0.000 C 
BRANCH  24  25
ATOM     25  C   UNL     1     166.585 161.670 190.377  1.00  0.00     0.000 C 
BRANCH  25  26
ATOM     26  C   UNL     1     166.964 163.124 190.056  1.00  0.00     0.000 C 
BRANCH  26  27
ATOM     27  C   UNL     1     165.947 163.807 189.126  1.00  0.00     0.002 C 
BRANCH  27  28
ATOM     28  C   UNL     1     166.612 164.562 187.961  1.00  0.00     0.028 C 
BRANCH  28  29
ATOM     29  C   UNL     1     165.963 165.919 187.665  1.00  0.00     0.156 C 
BRANCH  29  30
ATOM     30  O   UNL     1     166.225 166.819 188.704  1.00  0.00    -0.396 OA
ATOM     31  H   UNL     1     165.340 167.127 189.032  1.00  0.00     0.210 HD
ENDBRANCH  29  30
ENDBRANCH  28  29
ENDBRANCH  27  28
ENDBRANCH  26  27
ENDBRANCH  25  26
ENDBRANCH  24  25
ENDBRANCH  23  24
ENDBRANCH  22  23
ENDBRANCH  21  22
ENDBRANCH  20  21
ENDBRANCH  19  20
ENDBRANCH  18  19
ENDBRANCH  17  18
ENDBRANCH   1  17
TORSDOF 28
ENDMDL
MODEL 6
REMARK VINA RESULT:    -2.940      2.755      6.820
REMARK INTER + INTRA:         -13.997
REMARK INTER:                  -8.811
REMARK INTRA:                  -5.185
REMARK UNBOUND:                -6.330
REMARK SMILES CCCCCCCCCCCCCCCCCCCCCCCCCCCCCO
REMARK SMILES IDX 16 1 15 2 14 3 13 4 12 5 11 6 10 7 9 8 8 9 7 10 6 11 5 12
REMARK SMILES IDX 4 13 3 14 2 15 1 16 17 17 18 18 19 19 20 20 21 21 22 22
REMARK SMILES IDX 23 23 24 24 25 25 26 26 27 27 28 28 29 29 30 30
REMARK H PARENT 30 31
REMARK Flexibility Score: inf
ROOT
ATOM      1  C   UNL     1     165.558 160.238 188.810  1.00  0.00     0.000 C 
ENDROOT
BRANCH   1   2
ATOM      2  C   UNL     1     164.032 160.081 188.970  1.00  0.00     0.000 C 
BRANCH   2   3
ATOM      3  C   UNL     1     163.222 160.872 187.925  1.00  0.00     0.000 C 
BRANCH   3   4
ATOM      4  C   UNL     1     162.140 161.763 188.558  1.00  0.00     0.000 C 
BRANCH   4   5
ATOM      5  C   UNL     1     160.701 161.482 188.083  1.00  0.00     0.000 C 
BRANCH   5   6
ATOM      6  C   UNL     1     159.875 162.752 187.785  1.00  0.00     0.000 C 
BRANCH   6   7
ATOM      7  C   UNL     1     160.728 164.033 187.800  1.00  0.00     0.000 C 
BRANCH   7   8
ATOM      8  C   UNL     1     160.927 164.616 186.383  1.00  0.00    -0.000 C 
BRANCH   8   9
ATOM      9  C   UNL     1     162.173 164.065 185.669  1.00  0.00    -0.000 C 
BRANCH   9  10
ATOM     10  C   UNL     1     161.865 163.542 184.256  1.00  0.00    -0.000 C 
BRANCH  10  11
ATOM     11  C   UNL     1     161.110 162.203 184.273  1.00  0.00    -0.000 C 
BRANCH  11  12
ATOM     12  C   UNL     1     162.019 161.013 184.625  1.00  0.00    -0.000 C 
BRANCH  12  13
ATOM     13  C   UNL     1     163.425 161.149 184.013  1.00  0.00    -0.000 C 
BRANCH  13  14
ATOM     14  C   UNL     1     163.840 159.909 183.203  1.00  0.00    -0.000 C 
BRANCH  14  15
ATOM     15  C   UNL     1     164.329 160.267 181.792  1.00  0.00    -0.003 C 
ATOM     16  C   UNL     1     163.203 160.770 180.887  1.00  0.00     0.004 C 
ENDBRANCH  14  15
ENDBRANCH  13  14
ENDBRANCH  12  13
ENDBRANCH  11  12
ENDBRANCH  10  11
ENDBRANCH   9  10
ENDBRANCH   8   9
ENDBRANCH   7   8
ENDBRANCH   6   7
ENDBRANCH   5   6
ENDBRANCH   4   5
ENDBRANCH   3   4
ENDBRANCH   2   3
ENDBRANCH   1   2
BRANCH   1  17
ATOM     17  C   UNL     1     166.266 160.892 190.015  1.00  0.00     0.000 C 
BRANCH  17  18
ATOM     18  C   UNL     1     166.858 162.290 189.768  1.00  0.00     0.000 C 
BRANCH  18  19
ATOM     19  C   UNL     1     165.857 163.423 190.034  1.00  0.00     0.000 C 
BRANCH  19  20
ATOM     20  C   UNL     1     165.202 163.905 188.732  1.00  0.00     0.000 C 
BRANCH  20  21
ATOM     21  C   UNL     1     166.172 163.879 187.539  1.00  0.00     0.000 C 
BRANCH  21  22
ATOM     22  C   UNL     1     165.620 163.091 186.339  1.00  0.00     0.000 C 
BRANCH  22  23
ATOM     23  C   UNL     1     166.597 163.085 185.145  1.00  0.00     0.000 C 
BRANCH  23  24
ATOM     24  C   UNL     1     167.074 161.680 184.741  1.00  0.00     0.000 C 
BRANCH  24  25
ATOM     25  C   UNL     1     167.064 160.686 185.914  1.00  0.00     0.000 C 
BRANCH  25  26
ATOM     26  C   UNL     1     168.463 160.140 186.237  1.00  0.00     0.000 C 
BRANCH  26  27
ATOM     27  C   UNL     1     169.157 160.925 187.363  1.00  0.00     0.002 C 
BRANCH  27  28
ATOM     28  C   UNL     1     170.622 160.502 187.575  1.00  0.00     0.028 C 
BRANCH  28  29
ATOM     29  C   UNL     1     171.609 161.247 186.669  1.00  0.00     0.156 C 
BRANCH  29  30
ATOM     30  O   UNL     1     172.875 160.654 186.740  1.00  0.00    -0.396 OA
ATOM     31  H   UNL     1     173.525 161.399 186.820  1.00  0.00     0.210 HD
ENDBRANCH  29  30
ENDBRANCH  28  29
ENDBRANCH  27  28
ENDBRANCH  26  27
ENDBRANCH  25  26
ENDBRANCH  24  25
ENDBRANCH  23  24
ENDBRANCH  22  23
ENDBRANCH  21  22
ENDBRANCH  20  21
ENDBRANCH  19  20
ENDBRANCH  18  19
ENDBRANCH  17  18
ENDBRANCH   1  17
TORSDOF 28
ENDMDL
MODEL 7
REMARK VINA RESULT:    -2.937      1.616      1.971
REMARK INTER + INTRA:         -13.989
REMARK INTER:                  -8.154
REMARK INTRA:                  -5.834
REMARK UNBOUND:                -6.330
REMARK SMILES CCCCCCCCCCCCCCCCCCCCCCCCCCCCCO
REMARK SMILES IDX 16 1 15 2 14 3 13 4 12 5 11 6 10 7 9 8 8 9 7 10 6 11 5 12
REMARK SMILES IDX 4 13 3 14 2 15 1 16 17 17 18 18 19 19 20 20 21 21 22 22
REMARK SMILES IDX 23 23 24 24 25 25 26 26 27 27 28 28 29 29 30 30
REMARK H PARENT 30 31
REMARK Flexibility Score: inf
ROOT
ATOM      1  C   UNL     1     163.408 165.295 186.153  1.00  0.00     0.000 C 
ENDROOT
BRANCH   1   2
ATOM      2  C   UNL     1     164.330 164.185 185.610  1.00  0.00     0.000 C 
BRANCH   2   3
ATOM      3  C   UNL     1     165.279 163.602 186.674  1.00  0.00     0.000 C 
BRANCH   3   4
ATOM      4  C   UNL     1     165.133 164.286 188.044  1.00  0.00     0.000 C 
BRANCH   4   5
ATOM      5  C   UNL     1     164.927 163.331 189.235  1.00  0.00     0.000 C 
BRANCH   5   6
ATOM      6  C   UNL     1     166.205 163.062 190.057  1.00  0.00     0.000 C 
BRANCH   6   7
ATOM      7  C   UNL     1     166.537 161.563 190.169  1.00  0.00     0.000 C 
BRANCH   7   8
ATOM      8  C   UNL     1     165.732 160.712 189.163  1.00  0.00    -0.000 C 
BRANCH   8   9
ATOM      9  C   UNL     1     166.472 160.479 187.835  1.00  0.00    -0.000 C 
BRANCH   9  10
ATOM     10  C   UNL     1     168.000 160.544 187.987  1.00  0.00    -0.000 C 
BRANCH  10  11
ATOM     11  C   UNL     1     168.639 161.614 187.085  1.00  0.00    -0.000 C 
BRANCH  11  12
ATOM     12  C   UNL     1     169.238 162.783 187.884  1.00  0.00    -0.000 C 
BRANCH  12  13
ATOM     13  C   UNL     1     168.831 164.153 187.313  1.00  0.00    -0.000 C 
BRANCH  13  14
ATOM     14  C   UNL     1     169.115 164.273 185.806  1.00  0.00    -0.000 C 
BRANCH  14  15
ATOM     15  C   UNL     1     168.125 165.210 185.096  1.00  0.00    -0.003 C 
ATOM     16  C   UNL     1     167.692 166.385 185.974  1.00  0.00     0.004 C 
ENDBRANCH  14  15
ENDBRANCH  13  14
ENDBRANCH  12  13
ENDBRANCH  11  12
ENDBRANCH  10  11
ENDBRANCH   9  10
ENDBRANCH   8   9
ENDBRANCH   7   8
ENDBRANCH   6   7
ENDBRANCH   5   6
ENDBRANCH   4   5
ENDBRANCH   3   4
ENDBRANCH   2   3
ENDBRANCH   1   2
BRANCH   1  17
ATOM     17  C   UNL     1     161.922 165.143 185.767  1.00  0.00     0.000 C 
BRANCH  17  18
ATOM     18  C   UNL     1     160.927 165.091 186.937  1.00  0.00     0.000 C 
BRANCH  18  19
ATOM     19  C   UNL     1     161.460 164.312 188.148  1.00  0.00     0.000 C 
BRANCH  19  20
ATOM     20  C   UNL     1     160.531 163.145 188.513  1.00  0.00     0.000 C 
BRANCH  20  21
ATOM     21  C   UNL     1     161.265 161.795 188.545  1.00  0.00     0.000 C 
BRANCH  21  22
ATOM     22  C   UNL     1     162.224 161.610 187.356  1.00  0.00     0.000 C 
BRANCH  22  23
ATOM     23  C   UNL     1     161.470 161.426 186.022  1.00  0.00     0.000 C 
BRANCH  23  24
ATOM     24  C   UNL     1     162.378 161.023 184.847  1.00  0.00     0.000 C 
BRANCH  24  25
ATOM     25  C   UNL     1     163.800 160.647 185.294  1.00  0.00     0.000 C 
BRANCH  25  26
ATOM     26  C   UNL     1     164.744 160.393 184.108  1.00  0.00     0.000 C 
BRANCH  26  27
ATOM     27  C   UNL     1     164.277 161.096 182.822  1.00  0.00     0.002 C 
BRANCH  27  28
ATOM     28  C   UNL     1     165.436 161.713 182.020  1.00  0.00     0.028 C 
BRANCH  28  29
ATOM     29  C   UNL     1     166.542 160.708 181.677  1.00  0.00     0.156 C 
BRANCH  29  30
ATOM     30  O   UNL     1     167.694 160.979 182.424  1.00  0.00    -0.396 OA
ATOM     31  H   UNL     1     168.090 160.098 182.650  1.00  0.00     0.210 HD
ENDBRANCH  29  30
ENDBRANCH  28  29
ENDBRANCH  27  28
ENDBRANCH  26  27
ENDBRANCH  25  26
ENDBRANCH  24  25
ENDBRANCH  23  24
ENDBRANCH  22  23
ENDBRANCH  21  22
ENDBRANCH  20  21
ENDBRANCH  19  20
ENDBRANCH  18  19
ENDBRANCH  17  18
ENDBRANCH   1  17
TORSDOF 28
ENDMDL
MODEL 8
REMARK VINA RESULT:    -2.922      2.195      4.396
REMARK INTER + INTRA:         -13.949
REMARK INTER:                  -8.920
REMARK INTRA:                  -5.029
REMARK UNBOUND:                -6.330
REMARK SMILES CCCCCCCCCCCCCCCCCCCCCCCCCCCCCO
REMARK SMILES IDX 16 1 15 2 14 3 13 4 12 5 11 6 10 7 9 8 8 9 7 10 6 11 5 12
REMARK SMILES IDX 4 13 3 14 2 15 1 16 17 17 18 18 19 19 20 20 21 21 22 22
REMARK SMILES IDX 23 23 24 24 25 25 26 26 27 27 28 28 29 29 30 30
REMARK H PARENT 30 31
REMARK Flexibility Score: inf
ROOT
ATOM      1  C   UNL     1     165.070 164.174 187.443  1.00  0.00     0.000 C 
ENDROOT
BRANCH   1   2
ATOM      2  C   UNL     1     166.207 164.530 188.422  1.00  0.00     0.000 C 
BRANCH   2   3
ATOM      3  C   UNL     1     167.034 163.310 188.871  1.00  0.00     0.000 C 
BRANCH   3   4
ATOM      4  C   UNL     1     166.624 162.790 190.259  1.00  0.00     0.000 C 
BRANCH   4   5
ATOM      5  C   UNL     1     166.558 161.256 190.390  1.00  0.00     0.000 C 
BRANCH   5   6
ATOM      6  C   UNL     1     166.173 160.527 189.086  1.00  0.00     0.000 C 
BRANCH   6   7
ATOM      7  C   UNL     1     164.660 160.265 188.974  1.00  0.00     0.000 C 
BRANCH   7   8
ATOM      8  C   UNL     1     164.148 160.414 187.525  1.00  0.00    -0.000 C 
BRANCH   8   9
ATOM      9  C   UNL     1     165.235 160.164 186.467  1.00  0.00    -0.000 C 
BRANCH   9  10
ATOM     10  C   UNL     1     165.068 161.051 185.222  1.00  0.00    -0.000 C 
BRANCH  10  11
ATOM     11  C   UNL     1     164.869 160.232 183.935  1.00  0.00    -0.000 C 
BRANCH  11  12
ATOM     12  C   UNL     1     164.377 161.089 182.757  1.00  0.00    -0.000 C 
BRANCH  12  13
ATOM     13  C   UNL     1     164.760 160.485 181.394  1.00  0.00    -0.000 C 
BRANCH  13  14
ATOM     14  C   UNL     1     166.271 160.231 181.263  1.00  0.00    -0.000 C 
BRANCH  14  15
ATOM     15  C   UNL     1     166.966 161.269 180.369  1.00  0.00    -0.003 C 
ATOM     16  C   UNL     1     167.376 162.527 181.136  1.00  0.00     0.004 C 
ENDBRANCH  14  15
ENDBRANCH  13  14
ENDBRANCH  12  13
ENDBRANCH  11  12
ENDBRANCH  10  11
ENDBRANCH   9  10
ENDBRANCH   8   9
ENDBRANCH   7   8
ENDBRANCH   6   7
ENDBRANCH   5   6
ENDBRANCH   4   5
ENDBRANCH   3   4
ENDBRANCH   2   3
ENDBRANCH   1   2
BRANCH   1  17
ATOM     17  C   UNL     1     163.656 164.540 187.940  1.00  0.00     0.000 C 
BRANCH  17  18
ATOM     18  C   UNL     1     162.994 163.527 188.888  1.00  0.00     0.000 C 
BRANCH  18  19
ATOM     19  C   UNL     1     161.464 163.494 188.762  1.00  0.00     0.000 C 
BRANCH  19  20
ATOM     20  C   UNL     1     160.934 162.053 188.791  1.00  0.00     0.000 C 
BRANCH  20  21
ATOM     21  C   UNL     1     159.957 161.761 187.641  1.00  0.00     0.000 C 
BRANCH  21  22
ATOM     22  C   UNL     1     160.649 161.146 186.412  1.00  0.00     0.000 C 
BRANCH  22  23
ATOM     23  C   UNL     1     160.581 162.073 185.180  1.00  0.00     0.000 C 
BRANCH  23  24
ATOM     24  C   UNL     1     161.893 162.826 184.899  1.00  0.00     0.000 C 
BRANCH  24  25
ATOM     25  C   UNL     1     161.716 164.354 184.900  1.00  0.00     0.000 C 
BRANCH  25  26
ATOM     26  C   UNL     1     160.343 164.789 185.435  1.00  0.00     0.000 C 
BRANCH  26  27
ATOM     27  C   UNL     1     160.433 166.013 186.362  1.00  0.00     0.002 C 
BRANCH  27  28
ATOM     28  C   UNL     1     161.134 167.215 185.704  1.00  0.00     0.028 C 
BRANCH  28  29
ATOM     29  C   UNL     1     162.326 167.742 186.511  1.00  0.00     0.156 C 
BRANCH  29  30
ATOM     30  O   UNL     1     163.513 167.578 185.786  1.00  0.00    -0.396 OA
ATOM     31  H   UNL     1     163.813 166.647 185.956  1.00  0.00     0.210 HD
ENDBRANCH  29  30
ENDBRANCH  28  29
ENDBRANCH  27  28
ENDBRANCH  26  27
ENDBRANCH  25  26
ENDBRANCH  24  25
ENDBRANCH  23  24
ENDBRANCH  22  23
ENDBRANCH  21  22
ENDBRANCH  20  21
ENDBRANCH  19  20
ENDBRANCH  18  19
ENDBRANCH  17  18
ENDBRANCH   1  17
TORSDOF 28
ENDMDL
