MODEL 1
REMARK VINA RESULT:    -0.213      0.000      0.000
REMARK INTER + INTRA:          -0.198
REMARK INTER:                  -0.287
REMARK INTRA:                   0.090
REMARK UNBOUND:                 0.090
REMARK SMILES CC[C@@H](CC[C@H](C)[C@@H]1CC[C@@H]2[C@@H]3CC(=O)C4=CC(=O)CC[C@]4(C)[C@@H]3CC[C@]21C)C(C)C
REMARK SMILES IDX 4 1 3 2 2 3 1 4 29 5 30 6 31 7 5 8 6 9 7 10 8 11 9 12 27 13
REMARK SMILES IDX 10 14 11 15 26 16 28 17 12 18 25 19 24 20 13 21 22 22 14 23
REMARK SMILES IDX 16 24 21 25 23 26 15 27 17 28 20 29 18 30 19 31
REMARK H PARENT
REMARK Flexibility Score: inf
ROOT
ATOM      1  C   UNL     1     -12.735 -34.573  26.674  1.00  0.00     0.004 C 
ENDROOT
BRANCH   1   2
ATOM      2  C   UNL     1     -14.003 -35.022  27.453  1.00  0.00    -0.009 C 
BRANCH   2   3
ATOM      3  C   UNL     1     -14.837 -33.842  28.026  1.00  0.00     0.000 C 
ATOM      4  C   UNL     1     -14.890 -32.590  27.151  1.00  0.00     0.004 C 
ENDBRANCH   2   3
BRANCH   2   5
ATOM      5  C   UNL     1     -13.718 -36.135  28.522  1.00  0.00    -0.014 C 
ATOM      6  C   UNL     1     -14.413 -35.812  29.854  1.00  0.00     0.007 C 
ATOM      7  C   UNL     1     -14.106 -37.559  28.080  1.00  0.00     0.007 C 
ENDBRANCH   2   5
ENDBRANCH   1   2
BRANCH   1   8
ATOM      8  C   UNL     1     -11.919 -33.489  27.412  1.00  0.00     0.004 C 
BRANCH   8   9
ATOM      9  C   UNL     1     -10.456 -33.919  27.724  1.00  0.00    -0.011 C 
ATOM     10  C   UNL     1     -10.069 -35.127  26.848  1.00  0.00     0.008 C 
BRANCH   9  11
ATOM     11  C   UNL     1     -10.298 -34.238  29.253  1.00  0.00    -0.002 C 
ATOM     12  C   UNL     1     -10.996 -35.573  29.652  1.00  0.00     0.005 C 
ATOM     13  C   UNL     1     -10.825 -33.221  30.324  1.00  0.00    -0.026 C 
ATOM     14  C   UNL     1     -11.421 -35.453  31.124  1.00  0.00     0.005 C 
ATOM     15  C   UNL     1     -10.794 -34.144  31.563  1.00  0.00    -0.001 C 
ATOM     16  C   UNL     1      -9.895 -32.020  30.639  1.00  0.00     0.007 C 
ATOM     17  C   UNL     1     -12.247 -32.710  29.925  1.00  0.00     0.012 C 
ATOM     18  C   UNL     1     -11.171 -33.536  32.934  1.00  0.00     0.004 C 
ATOM     19  C   UNL     1     -10.257 -31.324  31.981  1.00  0.00     0.005 C 
ATOM     20  C   UNL     1     -10.259 -32.294  33.202  1.00  0.00     0.003 C 
ATOM     21  C   UNL     1     -12.673 -33.266  33.142  1.00  0.00     0.085 C 
ATOM     22  C   UNL     1     -10.531 -31.625  34.616  1.00  0.00    -0.000 C 
ATOM     23  C   UNL     1     -12.939 -32.576  34.439  1.00  0.00     0.159 C 
ATOM     24  C   UNL     1     -12.026 -31.519  34.922  1.00  0.00     0.005 C 
ATOM     25  C   UNL     1      -9.879 -30.206  34.703  1.00  0.00     0.020 C 
ATOM     26  C   UNL     1      -9.900 -32.527  35.712  1.00  0.00     0.017 C 
ATOM     27  O   UNL     1     -13.996 -32.848  35.072  1.00  0.00    -0.295 OA
ATOM     28  C   UNL     1     -12.497 -30.576  35.764  1.00  0.00     0.055 C 
ATOM     29  C   UNL     1     -10.164 -29.491  36.029  1.00  0.00     0.081 C 
ATOM     30  C   UNL     1     -11.626 -29.542  36.351  1.00  0.00     0.156 C 
ATOM     31  O   UNL     1     -12.113 -28.709  37.160  1.00  0.00    -0.295 OA
ENDBRANCH   9  11
ENDBRANCH   8   9
ENDBRANCH   1   8
TORSDOF 6
ENDMDL
MODEL 2
REMARK VINA RESULT:     0.654      1.422      2.535
REMARK INTER + INTRA:           0.973
REMARK INTER:                   1.538
REMARK INTRA:                  -0.564
REMARK UNBOUND:                 0.090
REMARK SMILES CC[C@@H](CC[C@H](C)[C@@H]1CC[C@@H]2[C@@H]3CC(=O)C4=CC(=O)CC[C@]4(C)[C@@H]3CC[C@]21C)C(C)C
REMARK SMILES IDX 4 1 3 2 2 3 1 4 29 5 30 6 31 7 5 8 6 9 7 10 8 11 9 12 27 13
REMARK SMILES IDX 10 14 11 15 26 16 28 17 12 18 25 19 24 20 13 21 22 22 14 23
REMARK SMILES IDX 16 24 21 25 23 26 15 27 17 28 20 29 18 30 19 31
REMARK H PARENT
REMARK Flexibility Score: inf
ROOT
ATOM      1  C   UNL     1     -13.798 -35.456  27.823  1.00  0.00     0.004 C 
ENDROOT
BRANCH   1   2
ATOM      2  C   UNL     1     -13.563 -33.920  27.781  1.00  0.00    -0.009 C 
BRANCH   2   3
ATOM      3  C   UNL     1     -14.824 -33.104  27.384  1.00  0.00     0.000 C 
ATOM      4  C   UNL     1     -14.782 -31.617  27.734  1.00  0.00     0.004 C 
ENDBRANCH   2   3
BRANCH   2   5
ATOM      5  C   UNL     1     -12.292 -33.506  26.959  1.00  0.00    -0.014 C 
ATOM      6  C   UNL     1     -11.149 -33.070  27.890  1.00  0.00     0.007 C 
ATOM      7  C   UNL     1     -11.773 -34.591  25.995  1.00  0.00     0.007 C 
ENDBRANCH   2   5
ENDBRANCH   1   2
BRANCH   1   8
ATOM      8  C   UNL     1     -12.918 -36.179  28.866  1.00  0.00     0.004 C 
BRANCH   8   9
ATOM      9  C   UNL     1     -11.963 -35.224  29.641  1.00  0.00    -0.011 C 
ATOM     10  C   UNL     1     -10.523 -35.769  29.583  1.00  0.00     0.008 C 
BRANCH   9  11
ATOM     11  C   UNL     1     -12.456 -35.048  31.122  1.00  0.00    -0.002 C 
ATOM     12  C   UNL     1     -14.004 -35.169  31.246  1.00  0.00     0.005 C 
ATOM     13  C   UNL     1     -12.133 -33.727  31.902  1.00  0.00    -0.026 C 
ATOM     14  C   UNL     1     -14.441 -34.319  32.449  1.00  0.00     0.005 C 
ATOM     15  C   UNL     1     -13.127 -33.897  33.075  1.00  0.00    -0.001 C 
ATOM     16  C   UNL     1     -10.717 -33.635  32.528  1.00  0.00     0.007 C 
ATOM     17  C   UNL     1     -12.402 -32.486  30.992  1.00  0.00     0.012 C 
ATOM     18  C   UNL     1     -13.118 -32.831  34.196  1.00  0.00     0.004 C 
ATOM     19  C   UNL     1     -10.623 -32.539  33.627  1.00  0.00     0.005 C 
ATOM     20  C   UNL     1     -11.668 -32.716  34.770  1.00  0.00     0.003 C 
ATOM     21  C   UNL     1     -13.752 -31.478  33.820  1.00  0.00     0.085 C 
ATOM     22  C   UNL     1     -11.563 -31.680  35.970  1.00  0.00    -0.000 C 
ATOM     23  C   UNL     1     -13.602 -30.472  34.914  1.00  0.00     0.159 C 
ATOM     24  C   UNL     1     -12.347 -30.397  35.690  1.00  0.00     0.005 C 
ATOM     25  C   UNL     1     -10.072 -31.324  36.277  1.00  0.00     0.020 C 
ATOM     26  C   UNL     1     -12.185 -32.334  37.234  1.00  0.00     0.017 C 
ATOM     27  O   UNL     1     -14.526 -29.635  35.106  1.00  0.00    -0.295 OA
ATOM     28  C   UNL     1     -12.007 -29.233  36.281  1.00  0.00     0.055 C 
ATOM     29  C   UNL     1      -9.918 -30.280  37.389  1.00  0.00     0.081 C 
ATOM     30  C   UNL     1     -10.815 -29.108  37.139  1.00  0.00     0.156 C 
ATOM     31  O   UNL     1     -10.566 -28.005  37.695  1.00  0.00    -0.295 OA
ENDBRANCH   9  11
ENDBRANCH   8   9
ENDBRANCH   1   8
TORSDOF 6
ENDMDL
MODEL 3
REMARK VINA RESULT:     1.488      0.547      1.707
REMARK INTER + INTRA:           2.099
REMARK INTER:                   1.892
REMARK INTRA:                   0.207
REMARK UNBOUND:                 0.090
REMARK SMILES CC[C@@H](CC[C@H](C)[C@@H]1CC[C@@H]2[C@@H]3CC(=O)C4=CC(=O)CC[C@]4(C)[C@@H]3CC[C@]21C)C(C)C
REMARK SMILES IDX 4 1 3 2 2 3 1 4 29 5 30 6 31 7 5 8 6 9 7 10 8 11 9 12 27 13
REMARK SMILES IDX 10 14 11 15 26 16 28 17 12 18 25 19 24 20 13 21 22 22 14 23
REMARK SMILES IDX 16 24 21 25 23 26 15 27 17 28 20 29 18 30 19 31
REMARK H PARENT
REMARK Flexibility Score: inf
ROOT
ATOM      1  C   UNL     1     -12.948 -34.172  26.917  1.00  0.00     0.004 C 
ENDROOT
BRANCH   1   2
ATOM      2  C   UNL     1     -14.224 -34.073  27.800  1.00  0.00    -0.009 C 
BRANCH   2   3
ATOM      3  C   UNL     1     -14.990 -35.417  27.944  1.00  0.00     0.000 C 
ATOM      4  C   UNL     1     -14.201 -36.559  28.582  1.00  0.00     0.004 C 
ENDBRANCH   2   3
BRANCH   2   5
ATOM      5  C   UNL     1     -15.164 -32.880  27.408  1.00  0.00    -0.014 C 
ATOM      6  C   UNL     1     -15.014 -31.711  28.395  1.00  0.00     0.007 C 
ATOM      7  C   UNL     1     -14.968 -32.357  25.971  1.00  0.00     0.007 C 
ENDBRANCH   2   5
ENDBRANCH   1   2
BRANCH   1   8
ATOM      8  C   UNL     1     -11.747 -33.391  27.493  1.00  0.00     0.004 C 
BRANCH   8   9
ATOM      9  C   UNL     1     -10.527 -34.293  27.838  1.00  0.00    -0.011 C 
ATOM     10  C   UNL     1     -10.591 -35.594  27.014  1.00  0.00     0.008 C 
BRANCH   9  11
ATOM     11  C   UNL     1     -10.488 -34.587  29.381  1.00  0.00    -0.002 C 
ATOM     12  C   UNL     1     -11.360 -35.818  29.769  1.00  0.00     0.005 C 
ATOM     13  C   UNL     1     -10.945 -33.485  30.399  1.00  0.00    -0.026 C 
ATOM     14  C   UNL     1     -11.843 -35.608  31.212  1.00  0.00     0.005 C 
ATOM     15  C   UNL     1     -11.089 -34.371  31.657  1.00  0.00    -0.001 C 
ATOM     16  C   UNL     1      -9.896 -32.394  30.739  1.00  0.00     0.007 C 
ATOM     17  C   UNL     1     -12.273 -32.821  29.912  1.00  0.00     0.012 C 
ATOM     18  C   UNL     1     -11.461 -33.685  32.993  1.00  0.00     0.004 C 
ATOM     19  C   UNL     1     -10.241 -31.623  32.044  1.00  0.00     0.005 C 
ATOM     20  C   UNL     1     -10.422 -32.552  33.284  1.00  0.00     0.003 C 
ATOM     21  C   UNL     1     -12.929 -33.234  33.112  1.00  0.00     0.085 C 
ATOM     22  C   UNL     1     -10.686 -31.817  34.666  1.00  0.00    -0.000 C 
ATOM     23  C   UNL     1     -13.178 -32.482  34.378  1.00  0.00     0.159 C 
ATOM     24  C   UNL     1     -12.172 -31.527  34.887  1.00  0.00     0.005 C 
ATOM     25  C   UNL     1      -9.875 -30.483  34.759  1.00  0.00     0.020 C 
ATOM     26  C   UNL     1     -10.225 -32.757  35.814  1.00  0.00     0.017 C 
ATOM     27  O   UNL     1     -14.291 -32.610  34.957  1.00  0.00    -0.295 OA
ATOM     28  C   UNL     1     -12.570 -30.512  35.682  1.00  0.00     0.055 C 
ATOM     29  C   UNL     1     -10.141 -29.703  36.052  1.00  0.00     0.081 C 
ATOM     30  C   UNL     1     -11.613 -29.573  36.293  1.00  0.00     0.156 C 
ATOM     31  O   UNL     1     -12.039 -28.665  37.057  1.00  0.00    -0.295 OA
ENDBRANCH   9  11
ENDBRANCH   8   9
ENDBRANCH   1   8
TORSDOF 6
ENDMDL
MODEL 4
REMARK VINA RESULT:     1.649      2.889      8.399
REMARK INTER + INTRA:           2.317
REMARK INTER:                   1.858
REMARK INTRA:                   0.460
REMARK UNBOUND:                 0.090
REMARK SMILES CC[C@@H](CC[C@H](C)[C@@H]1CC[C@@H]2[C@@H]3CC(=O)C4=CC(=O)CC[C@]4(C)[C@@H]3CC[C@]21C)C(C)C
REMARK SMILES IDX 4 1 3 2 2 3 1 4 29 5 30 6 31 7 5 8 6 9 7 10 8 11 9 12 27 13
REMARK SMILES IDX 10 14 11 15 26 16 28 17 12 18 25 19 24 20 13 21 22 22 14 23
REMARK SMILES IDX 16 24 21 25 23 26 15 27 17 28 20 29 18 30 19 31
REMARK H PARENT
REMARK Flexibility Score: inf
ROOT
ATOM      1  C   UNL     1     -12.337 -29.985  35.396  1.00  0.00     0.004 C 
ENDROOT
BRANCH   1   2
ATOM      2  C   UNL     1     -11.620 -28.796  36.094  1.00  0.00    -0.009 C 
BRANCH   2   3
ATOM      3  C   UNL     1     -10.302 -28.361  35.394  1.00  0.00     0.000 C 
ATOM      4  C   UNL     1     -10.427 -27.176  34.437  1.00  0.00     0.004 C 
ENDBRANCH   2   3
BRANCH   2   5
ATOM      5  C   UNL     1     -11.446 -28.993  37.641  1.00  0.00    -0.014 C 
ATOM      6  C   UNL     1     -12.187 -30.250  38.125  1.00  0.00     0.007 C 
ATOM      7  C   UNL     1      -9.981 -29.054  38.116  1.00  0.00     0.007 C 
ENDBRANCH   2   5
ENDBRANCH   1   2
BRANCH   1   8
ATOM      8  C   UNL     1     -11.894 -31.363  35.933  1.00  0.00     0.004 C 
BRANCH   8   9
ATOM      9  C   UNL     1     -11.358 -32.319  34.827  1.00  0.00    -0.011 C 
ATOM     10  C   UNL     1      -9.924 -31.913  34.437  1.00  0.00     0.008 C 
BRANCH   9  11
ATOM     11  C   UNL     1     -12.321 -32.306  33.587  1.00  0.00    -0.002 C 
ATOM     12  C   UNL     1     -13.718 -32.910  33.918  1.00  0.00     0.005 C 
ATOM     13  C   UNL     1     -11.909 -33.049  32.268  1.00  0.00    -0.026 C 
ATOM     14  C   UNL     1     -14.284 -33.509  32.621  1.00  0.00     0.005 C 
ATOM     15  C   UNL     1     -13.287 -33.068  31.568  1.00  0.00    -0.001 C 
ATOM     16  C   UNL     1     -10.942 -32.283  31.329  1.00  0.00     0.007 C 
ATOM     17  C   UNL     1     -11.328 -34.459  32.606  1.00  0.00     0.012 C 
ATOM     18  C   UNL     1     -13.369 -33.656  30.139  1.00  0.00     0.004 C 
ATOM     19  C   UNL     1     -10.932 -32.861  29.886  1.00  0.00     0.005 C 
ATOM     20  C   UNL     1     -12.344 -32.906  29.226  1.00  0.00     0.003 C 
ATOM     21  C   UNL     1     -13.277 -35.191  30.055  1.00  0.00     0.085 C 
ATOM     22  C   UNL     1     -12.387 -33.402  27.718  1.00  0.00    -0.000 C 
ATOM     23  C   UNL     1     -13.249 -35.669  28.641  1.00  0.00     0.159 C 
ATOM     24  C   UNL     1     -12.485 -34.925  27.618  1.00  0.00     0.005 C 
ATOM     25  C   UNL     1     -11.134 -32.907  26.926  1.00  0.00     0.020 C 
ATOM     26  C   UNL     1     -13.660 -32.814  27.048  1.00  0.00     0.017 C 
ATOM     27  O   UNL     1     -13.814 -36.759  28.352  1.00  0.00    -0.295 OA
ATOM     28  C   UNL     1     -12.036 -35.579  26.527  1.00  0.00     0.055 C 
ATOM     29  C   UNL     1     -11.097 -33.409  25.478  1.00  0.00     0.081 C 
ATOM     30  C   UNL     1     -11.341 -34.886  25.428  1.00  0.00     0.156 C 
ATOM     31  O   UNL     1     -10.975 -35.542  24.416  1.00  0.00    -0.295 OA
ENDBRANCH   9  11
ENDBRANCH   8   9
ENDBRANCH   1   8
TORSDOF 6
ENDMDL
