MODEL 1
REMARK VINA RESULT:    -4.516      0.000      0.000
REMARK INTER + INTRA:          -6.098
REMARK INTER:                  -5.836
REMARK INTRA:                  -0.261
REMARK UNBOUND:                -0.261
REMARK SMILES CCCCCCC(C)=O
REMARK SMILES IDX 4 1 3 2 2 3 1 4 5 5 6 6 7 7 9 8 8 9
REMARK H PARENT
REMARK Flexibility Score: inf
ROOT
ATOM      1  C   UNL     1      12.249 -32.488 -21.017  1.00  0.00     0.000 C 
ENDROOT
BRANCH   1   2
ATOM      2  C   UNL     1      11.936 -32.142 -19.554  1.00  0.00    -0.000 C 
BRANCH   2   3
ATOM      3  C   UNL     1      13.074 -31.364 -18.876  1.00  0.00    -0.003 C 
ATOM      4  C   UNL     1      13.123 -29.897 -19.302  1.00  0.00     0.004 C 
ENDBRANCH   2   3
ENDBRANCH   1   2
BRANCH   1   5
ATOM      5  C   UNL     1      11.238 -31.826 -21.966  1.00  0.00     0.008 C 
BRANCH   5   6
ATOM      6  C   UNL     1      11.885 -30.743 -22.840  1.00  0.00     0.075 C 
BRANCH   6   7
ATOM      7  C   UNL     1      10.871 -30.028 -23.695  1.00  0.00     0.129 C 
ATOM      8  O   UNL     1      10.460 -30.558 -24.715  1.00  0.00    -0.300 OA
ATOM      9  C   UNL     1      10.332 -28.688 -23.295  1.00  0.00     0.087 C 
ENDBRANCH   6   7
ENDBRANCH   5   6
ENDBRANCH   1   5
TORSDOF 5
ENDMDL
MODEL 2
REMARK VINA RESULT:    -4.495      2.447      4.824
REMARK INTER + INTRA:          -6.070
REMARK INTER:                  -5.714
REMARK INTRA:                  -0.357
REMARK UNBOUND:                -0.261
REMARK SMILES CCCCCCC(C)=O
REMARK SMILES IDX 4 1 3 2 2 3 1 4 5 5 6 6 7 7 9 8 8 9
REMARK H PARENT
REMARK Flexibility Score: inf
ROOT
ATOM      1  C   UNL     1      12.114 -28.774 -22.601  1.00  0.00     0.000 C 
ENDROOT
BRANCH   1   2
ATOM      2  C   UNL     1      10.816 -29.146 -23.333  1.00  0.00    -0.000 C 
BRANCH   2   3
ATOM      3  C   UNL     1      10.835 -30.583 -23.876  1.00  0.00    -0.003 C 
ATOM      4  C   UNL     1      10.484 -30.659 -25.361  1.00  0.00     0.004 C 
ENDBRANCH   2   3
ENDBRANCH   1   2
BRANCH   1   5
ATOM      5  C   UNL     1      12.843 -30.032 -22.104  1.00  0.00     0.008 C 
BRANCH   5   6
ATOM      6  C   UNL     1      12.858 -30.128 -20.572  1.00  0.00     0.075 C 
BRANCH   6   7
ATOM      7  C   UNL     1      12.608 -31.534 -20.093  1.00  0.00     0.129 C 
ATOM      8  O   UNL     1      13.099 -31.910 -19.040  1.00  0.00    -0.300 OA
ATOM      9  C   UNL     1      11.738 -32.473 -20.873  1.00  0.00     0.087 C 
ENDBRANCH   6   7
ENDBRANCH   5   6
ENDBRANCH   1   5
TORSDOF 5
ENDMDL
MODEL 3
REMARK VINA RESULT:    -4.463      1.634      2.416
REMARK INTER + INTRA:          -6.029
REMARK INTER:                  -5.787
REMARK INTRA:                  -0.242
REMARK UNBOUND:                -0.261
REMARK SMILES CCCCCCC(C)=O
REMARK SMILES IDX 4 1 3 2 2 3 1 4 5 5 6 6 7 7 9 8 8 9
REMARK H PARENT
REMARK Flexibility Score: inf
ROOT
ATOM      1  C   UNL     1      12.979 -30.177 -20.238  1.00  0.00     0.000 C 
ENDROOT
BRANCH   1   2
ATOM      2  C   UNL     1      13.739 -29.117 -19.429  1.00  0.00    -0.000 C 
BRANCH   2   3
ATOM      3  C   UNL     1      14.788 -28.373 -20.270  1.00  0.00    -0.003 C 
ATOM      4  C   UNL     1      14.586 -26.858 -20.263  1.00  0.00     0.004 C 
ENDBRANCH   2   3
ENDBRANCH   1   2
BRANCH   1   5
ATOM      5  C   UNL     1      12.943 -29.808 -21.729  1.00  0.00     0.008 C 
BRANCH   5   6
ATOM      6  C   UNL     1      12.071 -30.771 -22.546  1.00  0.00     0.075 C 
BRANCH   6   7
ATOM      7  C   UNL     1      11.126 -30.038 -23.461  1.00  0.00     0.129 C 
ATOM      8  O   UNL     1      10.718 -30.585 -24.474  1.00  0.00    -0.300 OA
ATOM      9  C   UNL     1      10.651 -28.654 -23.133  1.00  0.00     0.087 C 
ENDBRANCH   6   7
ENDBRANCH   5   6
ENDBRANCH   1   5
TORSDOF 5
ENDMDL
MODEL 4
REMARK VINA RESULT:    -4.390      2.472      3.521
REMARK INTER + INTRA:          -5.935
REMARK INTER:                  -5.698
REMARK INTRA:                  -0.237
REMARK UNBOUND:                -0.261
REMARK SMILES CCCCCCC(C)=O
REMARK SMILES IDX 4 1 3 2 2 3 1 4 5 5 6 6 7 7 9 8 8 9
REMARK H PARENT
REMARK Flexibility Score: inf
ROOT
ATOM      1  C   UNL     1      13.809 -29.050 -19.318  1.00  0.00     0.000 C 
ENDROOT
BRANCH   1   2
ATOM      2  C   UNL     1      14.869 -28.270 -20.109  1.00  0.00    -0.000 C 
BRANCH   2   3
ATOM      3  C   UNL     1      14.744 -26.750 -19.922  1.00  0.00    -0.003 C 
ATOM      4  C   UNL     1      14.546 -26.006 -21.242  1.00  0.00     0.004 C 
ENDBRANCH   2   3
ENDBRANCH   1   2
BRANCH   1   5
ATOM      5  C   UNL     1      13.000 -29.971 -20.245  1.00  0.00     0.008 C 
BRANCH   5   6
ATOM      6  C   UNL     1      12.922 -29.429 -21.679  1.00  0.00     0.075 C 
BRANCH   6   7
ATOM      7  C   UNL     1      11.878 -30.144 -22.496  1.00  0.00     0.129 C 
ATOM      8  O   UNL     1      11.830 -31.364 -22.481  1.00  0.00    -0.300 OA
ATOM      9  C   UNL     1      10.873 -29.379 -23.303  1.00  0.00     0.087 C 
ENDBRANCH   6   7
ENDBRANCH   5   6
ENDBRANCH   1   5
TORSDOF 5
ENDMDL
MODEL 5
REMARK VINA RESULT:    -4.354      3.622      5.126
REMARK INTER + INTRA:          -5.888
REMARK INTER:                  -5.599
REMARK INTRA:                  -0.290
REMARK UNBOUND:                -0.261
REMARK SMILES CCCCCCC(C)=O
REMARK SMILES IDX 4 1 3 2 2 3 1 4 5 5 6 6 7 7 9 8 8 9
REMARK H PARENT
REMARK Flexibility Score: inf
ROOT
ATOM      1  C   UNL     1      12.979 -29.990 -20.477  1.00  0.00     0.000 C 
ENDROOT
BRANCH   1   2
ATOM      2  C   UNL     1      13.144 -29.553 -21.939  1.00  0.00    -0.000 C 
BRANCH   2   3
ATOM      3  C   UNL     1      11.816 -29.117 -22.578  1.00  0.00    -0.003 C 
ATOM      4  C   UNL     1      11.140 -30.242 -23.361  1.00  0.00     0.004 C 
ENDBRANCH   2   3
ENDBRANCH   1   2
BRANCH   1   5
ATOM      5  C   UNL     1      13.684 -29.008 -19.528  1.00  0.00     0.008 C 
BRANCH   5   6
ATOM      6  C   UNL     1      14.829 -28.254 -20.217  1.00  0.00     0.075 C 
BRANCH   6   7
ATOM      7  C   UNL     1      14.626 -26.762 -20.177  1.00  0.00     0.129 C 
ATOM      8  O   UNL     1      14.550 -26.191 -19.100  1.00  0.00    -0.300 OA
ATOM      9  C   UNL     1      14.547 -25.960 -21.441  1.00  0.00     0.087 C 
ENDBRANCH   6   7
ENDBRANCH   5   6
ENDBRANCH   1   5
TORSDOF 5
ENDMDL
MODEL 6
REMARK VINA RESULT:    -4.340      2.261      3.542
REMARK INTER + INTRA:          -5.870
REMARK INTER:                  -5.616
REMARK INTRA:                  -0.254
REMARK UNBOUND:                -0.261
REMARK SMILES CCCCCCC(C)=O
REMARK SMILES IDX 4 1 3 2 2 3 1 4 5 5 6 6 7 7 9 8 8 9
REMARK H PARENT
REMARK Flexibility Score: inf
ROOT
ATOM      1  C   UNL     1      13.398 -28.735 -21.766  1.00  0.00     0.000 C 
ENDROOT
BRANCH   1   2
ATOM      2  C   UNL     1      13.899 -28.933 -20.328  1.00  0.00    -0.000 C 
BRANCH   2   3
ATOM      3  C   UNL     1      15.103 -28.038 -19.994  1.00  0.00    -0.003 C 
ATOM      4  C   UNL     1      14.690 -26.676 -19.437  1.00  0.00     0.004 C 
ENDBRANCH   2   3
ENDBRANCH   1   2
BRANCH   1   5
ATOM      5  C   UNL     1      12.109 -29.533 -22.013  1.00  0.00     0.008 C 
BRANCH   5   6
ATOM      6  C   UNL     1      12.395 -30.968 -22.480  1.00  0.00     0.075 C 
BRANCH   6   7
ATOM      7  C   UNL     1      11.732 -31.991 -21.596  1.00  0.00     0.129 C 
ATOM      8  O   UNL     1      10.795 -32.646 -22.027  1.00  0.00    -0.300 OA
ATOM      9  C   UNL     1      12.223 -32.242 -20.202  1.00  0.00     0.087 C 
ENDBRANCH   6   7
ENDBRANCH   5   6
ENDBRANCH   1   5
TORSDOF 5
ENDMDL
MODEL 7
REMARK VINA RESULT:    -4.293     13.625     15.136
REMARK INTER + INTRA:          -5.809
REMARK INTER:                  -5.396
REMARK INTRA:                  -0.412
REMARK UNBOUND:                -0.261
REMARK SMILES CCCCCCC(C)=O
REMARK SMILES IDX 4 1 3 2 2 3 1 4 5 5 6 6 7 7 9 8 8 9
REMARK H PARENT
REMARK Flexibility Score: inf
ROOT
ATOM      1  C   UNL     1      10.760 -31.387 -35.276  1.00  0.00     0.000 C 
ENDROOT
BRANCH   1   2
ATOM      2  C   UNL     1      11.862 -30.497 -34.684  1.00  0.00    -0.000 C 
BRANCH   2   3
ATOM      3  C   UNL     1      11.722 -29.026 -35.106  1.00  0.00    -0.003 C 
ATOM      4  C   UNL     1      13.049 -28.410 -35.550  1.00  0.00     0.004 C 
ENDBRANCH   2   3
ENDBRANCH   1   2
BRANCH   1   5
ATOM      5  C   UNL     1       9.741 -30.549 -36.064  1.00  0.00     0.008 C 
BRANCH   5   6
ATOM      6  C   UNL     1       9.688 -30.941 -37.547  1.00  0.00     0.075 C 
BRANCH   6   7
ATOM      7  C   UNL     1      10.294 -29.884 -38.432  1.00  0.00     0.129 C 
ATOM      8  O   UNL     1      11.493 -29.908 -38.667  1.00  0.00    -0.300 OA
ATOM      9  C   UNL     1       9.445 -28.819 -39.056  1.00  0.00     0.087 C 
ENDBRANCH   6   7
ENDBRANCH   5   6
ENDBRANCH   1   5
TORSDOF 5
ENDMDL
MODEL 8
REMARK VINA RESULT:    -4.191     13.410     15.530
REMARK INTER + INTRA:          -5.677
REMARK INTER:                  -5.229
REMARK INTRA:                  -0.448
REMARK UNBOUND:                -0.261
REMARK SMILES CCCCCCC(C)=O
REMARK SMILES IDX 4 1 3 2 2 3 1 4 5 5 6 6 7 7 9 8 8 9
REMARK H PARENT
REMARK Flexibility Score: inf
ROOT
ATOM      1  C   UNL     1       9.984 -31.347 -37.722  1.00  0.00     0.000 C 
ENDROOT
BRANCH   1   2
ATOM      2  C   UNL     1       9.582 -29.887 -37.972  1.00  0.00    -0.000 C 
BRANCH   2   3
ATOM      3  C   UNL     1      10.371 -29.247 -39.125  1.00  0.00    -0.003 C 
ATOM      4  C   UNL     1      11.318 -28.144 -38.652  1.00  0.00     0.004 C 
ENDBRANCH   2   3
ENDBRANCH   1   2
BRANCH   1   5
ATOM      5  C   UNL     1      10.414 -31.555 -36.261  1.00  0.00     0.008 C 
BRANCH   5   6
ATOM      6  C   UNL     1      10.493 -30.234 -35.484  1.00  0.00     0.075 C 
BRANCH   6   7
ATOM      7  C   UNL     1      11.858 -30.010 -34.890  1.00  0.00     0.129 C 
ATOM      8  O   UNL     1      12.385 -30.896 -34.234  1.00  0.00    -0.300 OA
ATOM      9  C   UNL     1      12.598 -28.726 -35.116  1.00  0.00     0.087 C 
ENDBRANCH   6   7
ENDBRANCH   5   6
ENDBRANCH   1   5
TORSDOF 5
ENDMDL
MODEL 9
REMARK VINA RESULT:    -4.187     13.219     14.648
REMARK INTER + INTRA:          -5.672
REMARK INTER:                  -5.188
REMARK INTRA:                  -0.484
REMARK UNBOUND:                -0.261
REMARK SMILES CCCCCCC(C)=O
REMARK SMILES IDX 4 1 3 2 2 3 1 4 5 5 6 6 7 7 9 8 8 9
REMARK H PARENT
REMARK Flexibility Score: inf
ROOT
ATOM      1  C   UNL     1      12.603 -30.621 -34.315  1.00  0.00     0.000 C 
ENDROOT
BRANCH   1   2
ATOM      2  C   UNL     1      11.119 -30.478 -34.685  1.00  0.00    -0.000 C 
BRANCH   2   3
ATOM      3  C   UNL     1      10.679 -31.487 -35.757  1.00  0.00    -0.003 C 
ATOM      4  C   UNL     1       9.783 -30.862 -36.825  1.00  0.00     0.004 C 
ENDBRANCH   2   3
ENDBRANCH   1   2
BRANCH   1   5
ATOM      5  C   UNL     1      13.382 -29.345 -34.668  1.00  0.00     0.008 C 
BRANCH   5   6
ATOM      6  C   UNL     1      12.510 -28.314 -35.398  1.00  0.00     0.075 C 
BRANCH   6   7
ATOM      7  C   UNL     1      13.052 -27.983 -36.764  1.00  0.00     0.129 C 
ATOM      8  O   UNL     1      13.912 -27.124 -36.882  1.00  0.00    -0.300 OA
ATOM      9  C   UNL     1      12.574 -28.715 -37.982  1.00  0.00     0.087 C 
ENDBRANCH   6   7
ENDBRANCH   5   6
ENDBRANCH   1   5
TORSDOF 5
ENDMDL
