MODEL 1
REMARK VINA RESULT:    20.905      0.000      0.000
REMARK INTER + INTRA:          39.490
REMARK INTER:                  34.348
REMARK INTRA:                   5.141
REMARK UNBOUND:                 5.141
REMARK SMILES C[C@H]1O[C@@H](OC[C@H]2O[C@H](Oc3c(-c4ccc(O)c(O)c4)oc4cc(O)cc(O)c4c3=O)[C@@H](O)[C@@H](O)[C@H]2O)[C@H](O)[C@@H](O)[C@@H]1O
REMARK SMILES IDX 7 1 36 2 34 3 32 4 9 5 8 6 6 7 5 8 4 9 1 10 2 11 42 12 3 13
REMARK SMILES IDX 40 14 38 15 43 16 41 18 39 20 37 22 35 24 10 26 11 27 12 28
REMARK SMILES IDX 30 29 21 30 29 31 31 32 22 33 27 34 23 35 26 36 24 37 13 38
REMARK SMILES IDX 20 39 14 40 18 41 15 42 16 43 19 44 17 46 28 48 25 50 33 52
REMARK H PARENT 43 17 41 19 39 21 37 23 35 25 19 45 17 47 28 49 25 51 33 53
REMARK Flexibility Score: inf
ROOT
ATOM      1  C   UNL     1      19.132  40.199  28.968  1.00  0.00     0.180 C 
ATOM      2  C   UNL     1      19.312  39.983  27.433  1.00  0.00     0.177 C 
ATOM      3  C   UNL     1      20.374  40.941  26.860  1.00  0.00     0.180 C 
ATOM      4  C   UNL     1      21.622  41.002  27.756  1.00  0.00     0.214 C 
ATOM      5  C   UNL     1      21.255  41.219  29.252  1.00  0.00     0.339 C 
ATOM      6  O   UNL     1      19.853  41.325  29.458  1.00  0.00    -0.332 OA
ENDROOT
BRANCH   1   7
ATOM      7  C   UNL     1      19.350  38.936  29.838  1.00  0.00     0.198 C 
BRANCH   7   8
ATOM      8  O   UNL     1      18.107  38.464  30.326  1.00  0.00    -0.347 OA
BRANCH   8   9
ATOM      9  C   UNL     1      17.560  37.449  29.494  1.00  0.00     0.281 C 
ATOM     10  C   UNL     1      15.584  39.705  27.438  1.00  0.00     0.041 C 
ATOM     11  C   UNL     1      15.706  38.472  28.335  1.00  0.00     0.150 C 
ATOM     12  C   UNL     1      15.169  38.766  29.760  1.00  0.00     0.174 C 
ATOM     13  O   UNL     1      17.064  38.044  28.300  1.00  0.00    -0.344 OA
ATOM     14  C   UNL     1      15.261  37.492  30.628  1.00  0.00     0.179 C 
ATOM     15  C   UNL     1      16.501  36.634  30.274  1.00  0.00     0.202 C 
BRANCH  12  16
ATOM     16  O   UNL     1      13.846  39.247  29.730  1.00  0.00    -0.388 OA
ATOM     17  H   UNL     1      13.275  38.596  30.220  1.00  0.00     0.211 HD
ENDBRANCH  12  16
BRANCH  14  18
ATOM     18  O   UNL     1      15.237  37.818  31.996  1.00  0.00    -0.387 OA
ATOM     19  H   UNL     1      16.007  37.363  32.429  1.00  0.00     0.211 HD
ENDBRANCH  14  18
BRANCH  15  20
ATOM     20  O   UNL     1      16.104  35.534  29.493  1.00  0.00    -0.385 OA
ATOM     21  H   UNL     1      16.530  34.731  29.886  1.00  0.00     0.211 HD
ENDBRANCH  15  20
ENDBRANCH   8   9
ENDBRANCH   7   8
ENDBRANCH   1   7
BRANCH   2  22
ATOM     22  O   UNL     1      19.637  38.646  27.133  1.00  0.00    -0.387 OA
ATOM     23  H   UNL     1      20.602  38.629  26.892  1.00  0.00     0.211 HD
ENDBRANCH   2  22
BRANCH   3  24
ATOM     24  O   UNL     1      20.741  40.575  25.554  1.00  0.00    -0.387 OA
ATOM     25  H   UNL     1      20.327  39.692  25.378  1.00  0.00     0.211 HD
ENDBRANCH   3  24
BRANCH   5  26
ATOM     26  O   UNL     1      21.870  42.435  29.677  1.00  0.00    -0.454 OA
BRANCH  26  27
ATOM     27  C   UNL     1      22.124  43.539  28.848  1.00  0.00     0.214 A 
ATOM     28  C   UNL     1      22.197  44.820  29.423  1.00  0.00     0.180 A 
ATOM     29  C   UNL     1      22.297  43.414  27.457  1.00  0.00     0.239 A 
ATOM     30  O   UNL     1      22.382  45.886  28.652  1.00  0.00    -0.452 OA
ATOM     31  C   UNL     1      22.518  44.568  26.675  1.00  0.00     0.111 A 
ATOM     32  O   UNL     1      22.276  42.271  26.926  1.00  0.00    -0.285 OA
ATOM     33  C   UNL     1      22.542  45.817  27.337  1.00  0.00     0.146 A 
ATOM     34  C   UNL     1      22.726  44.532  25.276  1.00  0.00     0.134 A 
ATOM     35  C   UNL     1      22.742  46.996  26.614  1.00  0.00     0.094 A 
ATOM     36  C   UNL     1      22.926  45.726  24.568  1.00  0.00     0.093 A 
ATOM     37  C   UNL     1      22.930  46.954  25.229  1.00  0.00     0.123 A 
BRANCH  28  38
ATOM     38  C   UNL     1      22.028  45.032  30.878  1.00  0.00     0.025 A 
ATOM     39  C   UNL     1      20.805  44.771  31.522  1.00  0.00     0.062 A 
ATOM     40  C   UNL     1      23.124  45.466  31.640  1.00  0.00     0.016 A 
ATOM     41  C   UNL     1      20.665  44.984  32.898  1.00  0.00     0.158 A 
ATOM     42  C   UNL     1      22.989  45.673  33.013  1.00  0.00     0.051 A 
ATOM     43  C   UNL     1      21.762  45.440  33.649  1.00  0.00     0.157 A 
BRANCH  41  44
ATOM     44  O   UNL     1      19.432  44.730  33.500  1.00  0.00    -0.504 OA
ATOM     45  H   UNL     1      19.030  45.356  34.188  1.00  0.00     0.293 HD
ENDBRANCH  41  44
BRANCH  43  46
ATOM     46  O   UNL     1      21.633  45.655  35.020  1.00  0.00    -0.504 OA
ATOM     47  H   UNL     1      20.729  45.802  35.451  1.00  0.00     0.293 HD
ENDBRANCH  43  46
ENDBRANCH  28  38
BRANCH  34  48
ATOM     48  O   UNL     1      22.748  43.322  24.586  1.00  0.00    -0.507 OA
ATOM     49  H   UNL     1      23.004  43.273  23.607  1.00  0.00     0.293 HD
ENDBRANCH  34  48
BRANCH  37  50
ATOM     50  O   UNL     1      23.125  48.125  24.501  1.00  0.00    -0.508 OA
ATOM     51  H   UNL     1      23.022  48.149  23.492  1.00  0.00     0.293 HD
ENDBRANCH  37  50
ENDBRANCH  26  27
ENDBRANCH   5  26
BRANCH   4  52
ATOM     52  O   UNL     1      22.438  39.867  27.588  1.00  0.00    -0.384 OA
ATOM     53  H   UNL     1      23.304  40.162  27.204  1.00  0.00     0.211 HD
ENDBRANCH   4  52
TORSDOF 16
ENDMDL
