MODEL 1
REMARK VINA RESULT:    -3.499      0.000      0.000
REMARK INTER + INTRA:          -7.439
REMARK INTER:                  -6.362
REMARK INTRA:                  -1.077
REMARK UNBOUND:                -1.077
REMARK SMILES CCCCCCCCCCCCCC[C@@H](C)C(=O)[O-]
REMARK SMILES IDX 9 1 10 2 11 3 12 4 13 5 14 6 15 7 16 8 17 9 18 10 19 11 8 12
REMARK SMILES IDX 7 13 6 14 5 15 4 16 3 17 2 18 1 19
REMARK H PARENT
REMARK Flexibility Score: inf
ROOT
ATOM      1  C   UNL     1      -5.634  35.139  23.595  1.00  0.00     0.000 C 
ENDROOT
BRANCH   1   2
ATOM      2  C   UNL     1      -4.991  35.550  22.259  1.00  0.00     0.000 C 
BRANCH   2   3
ATOM      3  C   UNL     1      -5.709  36.735  21.591  1.00  0.00     0.000 C 
BRANCH   3   4
ATOM      4  C   UNL     1      -5.492  36.849  20.071  1.00  0.00     0.000 C 
BRANCH   4   5
ATOM      5  C   UNL     1      -4.209  37.615  19.704  1.00  0.00     0.001 C 
BRANCH   5   6
ATOM      6  C   UNL     1      -3.501  37.014  18.468  1.00  0.00     0.009 C 
BRANCH   6   7
ATOM      7  C   UNL     1      -2.612  37.998  17.670  1.00  0.00     0.032 C 
ATOM      8  C   UNL     1      -1.297  38.323  18.395  1.00  0.00     0.014 C 
BRANCH   7   9
ATOM      9  C   UNL     1      -2.364  37.530  16.261  1.00  0.00     0.044 C 
ATOM     10  O   UNL     1      -1.502  36.639  16.039  1.00  0.00    -0.550 OA
ATOM     11  O   UNL     1      -3.039  38.109  15.192  1.00  0.00    -0.550 OA
ENDBRANCH   7   9
ENDBRANCH   6   7
ENDBRANCH   5   6
ENDBRANCH   4   5
ENDBRANCH   3   4
ENDBRANCH   2   3
ENDBRANCH   1   2
BRANCH   1  12
ATOM     12  C   UNL     1      -6.109  36.349  24.416  1.00  0.00     0.000 C 
BRANCH  12  13
ATOM     13  C   UNL     1      -5.020  36.879  25.366  1.00  0.00    -0.000 C 
BRANCH  13  14
ATOM     14  C   UNL     1      -4.982  38.414  25.418  1.00  0.00    -0.000 C 
BRANCH  14  15
ATOM     15  C   UNL     1      -5.702  39.064  24.224  1.00  0.00    -0.000 C 
BRANCH  15  16
ATOM     16  C   UNL     1      -4.976  40.332  23.727  1.00  0.00    -0.000 C 
BRANCH  16  17
ATOM     17  C   UNL     1      -5.692  41.036  22.562  1.00  0.00    -0.000 C 
BRANCH  17  18
ATOM     18  C   UNL     1      -6.111  42.473  22.900  1.00  0.00    -0.003 C 
ATOM     19  C   UNL     1      -6.116  42.704  24.409  1.00  0.00     0.004 C 
ENDBRANCH  17  18
ENDBRANCH  16  17
ENDBRANCH  15  16
ENDBRANCH  14  15
ENDBRANCH  13  14
ENDBRANCH  12  13
ENDBRANCH   1  12
TORSDOF 14
ENDMDL
MODEL 2
REMARK VINA RESULT:    -3.001      1.421      3.929
REMARK INTER + INTRA:          -6.534
REMARK INTER:                  -5.373
REMARK INTRA:                  -1.161
REMARK UNBOUND:                -1.077
REMARK SMILES CCCCCCCCCCCCCC[C@@H](C)C(=O)[O-]
REMARK SMILES IDX 9 1 10 2 11 3 12 4 13 5 14 6 15 7 16 8 17 9 18 10 19 11 8 12
REMARK SMILES IDX 7 13 6 14 5 15 4 16 3 17 2 18 1 19
REMARK H PARENT
REMARK Flexibility Score: inf
ROOT
ATOM      1  C   UNL     1      -5.141  39.316  20.343  1.00  0.00     0.000 C 
ENDROOT
BRANCH   1   2
ATOM      2  C   UNL     1      -5.283  37.793  20.179  1.00  0.00     0.000 C 
BRANCH   2   3
ATOM      3  C   UNL     1      -3.932  37.088  19.967  1.00  0.00     0.000 C 
BRANCH   3   4
ATOM      4  C   UNL     1      -2.726  38.033  19.814  1.00  0.00     0.000 C 
BRANCH   4   5
ATOM      5  C   UNL     1      -2.023  37.894  18.453  1.00  0.00     0.001 C 
BRANCH   5   6
ATOM      6  C   UNL     1      -3.022  37.634  17.302  1.00  0.00     0.009 C 
BRANCH   6   7
ATOM      7  C   UNL     1      -2.427  37.727  15.876  1.00  0.00     0.032 C 
ATOM      8  C   UNL     1      -1.618  36.480  15.493  1.00  0.00     0.014 C 
BRANCH   7   9
ATOM      9  C   UNL     1      -3.473  38.046  14.841  1.00  0.00     0.044 C 
ATOM     10  O   UNL     1      -3.949  37.125  14.126  1.00  0.00    -0.550 OA
ATOM     11  O   UNL     1      -3.884  39.357  14.627  1.00  0.00    -0.550 OA
ENDBRANCH   7   9
ENDBRANCH   6   7
ENDBRANCH   5   6
ENDBRANCH   4   5
ENDBRANCH   3   4
ENDBRANCH   2   3
ENDBRANCH   1   2
BRANCH   1  12
ATOM     12  C   UNL     1      -6.098  39.887  21.402  1.00  0.00     0.000 C 
BRANCH  12  13
ATOM     13  C   UNL     1      -5.373  40.761  22.440  1.00  0.00    -0.000 C 
BRANCH  13  14
ATOM     14  C   UNL     1      -5.361  40.125  23.839  1.00  0.00    -0.000 C 
BRANCH  14  15
ATOM     15  C   UNL     1      -5.739  38.634  23.813  1.00  0.00    -0.000 C 
BRANCH  15  16
ATOM     16  C   UNL     1      -5.341  37.911  25.118  1.00  0.00    -0.000 C 
BRANCH  16  17
ATOM     17  C   UNL     1      -5.708  36.418  25.131  1.00  0.00    -0.000 C 
BRANCH  17  18
ATOM     18  C   UNL     1      -6.090  35.884  23.743  1.00  0.00    -0.003 C 
ATOM     19  C   UNL     1      -5.730  34.407  23.605  1.00  0.00     0.004 C 
ENDBRANCH  17  18
ENDBRANCH  16  17
ENDBRANCH  15  16
ENDBRANCH  14  15
ENDBRANCH  13  14
ENDBRANCH  12  13
ENDBRANCH   1  12
TORSDOF 14
ENDMDL
MODEL 3
REMARK VINA RESULT:    -2.720      0.994      1.568
REMARK INTER + INTRA:          -6.024
REMARK INTER:                  -4.499
REMARK INTRA:                  -1.526
REMARK UNBOUND:                -1.077
REMARK SMILES CCCCCCCCCCCCCC[C@@H](C)C(=O)[O-]
REMARK SMILES IDX 9 1 10 2 11 3 12 4 13 5 14 6 15 7 16 8 17 9 18 10 19 11 8 12
REMARK SMILES IDX 7 13 6 14 5 15 4 16 3 17 2 18 1 19
REMARK H PARENT
REMARK Flexibility Score: inf
ROOT
ATOM      1  C   UNL     1      -5.978  35.985  24.134  1.00  0.00     0.000 C 
ENDROOT
BRANCH   1   2
ATOM      2  C   UNL     1      -5.172  35.035  23.231  1.00  0.00     0.000 C 
BRANCH   2   3
ATOM      3  C   UNL     1      -4.716  35.701  21.921  1.00  0.00     0.000 C 
BRANCH   3   4
ATOM      4  C   UNL     1      -5.859  36.163  20.999  1.00  0.00     0.000 C 
BRANCH   4   5
ATOM      5  C   UNL     1      -5.428  36.294  19.528  1.00  0.00     0.001 C 
BRANCH   5   6
ATOM      6  C   UNL     1      -3.891  36.289  19.365  1.00  0.00     0.009 C 
BRANCH   6   7
ATOM      7  C   UNL     1      -3.269  37.631  18.908  1.00  0.00     0.032 C 
ATOM      8  C   UNL     1      -2.260  38.188  19.923  1.00  0.00     0.014 C 
BRANCH   7   9
ATOM      9  C   UNL     1      -2.673  37.543  17.528  1.00  0.00     0.044 C 
ATOM     10  O   UNL     1      -3.425  37.391  16.530  1.00  0.00    -0.550 OA
ATOM     11  O   UNL     1      -1.295  37.573  17.348  1.00  0.00    -0.550 OA
ENDBRANCH   7   9
ENDBRANCH   6   7
ENDBRANCH   5   6
ENDBRANCH   4   5
ENDBRANCH   3   4
ENDBRANCH   2   3
ENDBRANCH   1   2
BRANCH   1  12
ATOM     12  C   UNL     1      -5.098  36.697  25.174  1.00  0.00     0.000 C 
BRANCH  12  13
ATOM     13  C   UNL     1      -5.202  38.230  25.082  1.00  0.00    -0.000 C 
BRANCH  13  14
ATOM     14  C   UNL     1      -5.940  38.694  23.817  1.00  0.00    -0.000 C 
BRANCH  14  15
ATOM     15  C   UNL     1      -4.993  39.320  22.778  1.00  0.00    -0.000 C 
BRANCH  15  16
ATOM     16  C   UNL     1      -5.744  40.228  21.780  1.00  0.00    -0.000 C 
BRANCH  16  17
ATOM     17  C   UNL     1      -6.088  41.615  22.348  1.00  0.00    -0.000 C 
BRANCH  17  18
ATOM     18  C   UNL     1      -5.466  41.866  23.729  1.00  0.00    -0.003 C 
ATOM     19  C   UNL     1      -6.125  43.057  24.419  1.00  0.00     0.004 C 
ENDBRANCH  17  18
ENDBRANCH  16  17
ENDBRANCH  15  16
ENDBRANCH  14  15
ENDBRANCH  13  14
ENDBRANCH  12  13
ENDBRANCH   1  12
TORSDOF 14
ENDMDL
MODEL 4
REMARK VINA RESULT:    -2.677      3.354      6.871
REMARK INTER + INTRA:          -5.945
REMARK INTER:                  -5.114
REMARK INTRA:                  -0.831
REMARK UNBOUND:                -1.077
REMARK SMILES CCCCCCCCCCCCCC[C@@H](C)C(=O)[O-]
REMARK SMILES IDX 9 1 10 2 11 3 12 4 13 5 14 6 15 7 16 8 17 9 18 10 19 11 8 12
REMARK SMILES IDX 7 13 6 14 5 15 4 16 3 17 2 18 1 19
REMARK H PARENT
REMARK Flexibility Score: inf
ROOT
ATOM      1  C   UNL     1      -5.379  36.048  22.367  1.00  0.00     0.000 C 
ENDROOT
BRANCH   1   2
ATOM      2  C   UNL     1      -5.862  35.228  23.576  1.00  0.00     0.000 C 
BRANCH   2   3
ATOM      3  C   UNL     1      -5.353  35.785  24.917  1.00  0.00     0.000 C 
BRANCH   3   4
ATOM      4  C   UNL     1      -5.805  37.223  25.233  1.00  0.00     0.000 C 
BRANCH   4   5
ATOM      5  C   UNL     1      -5.007  38.287  24.458  1.00  0.00     0.001 C 
BRANCH   5   6
ATOM      6  C   UNL     1      -5.765  39.631  24.361  1.00  0.00     0.009 C 
BRANCH   6   7
ATOM      7  C   UNL     1      -5.324  40.557  23.202  1.00  0.00     0.032 C 
ATOM      8  C   UNL     1      -5.732  40.012  21.826  1.00  0.00     0.014 C 
BRANCH   7   9
ATOM      9  C   UNL     1      -5.792  41.975  23.395  1.00  0.00     0.044 C 
ATOM     10  O   UNL     1      -6.123  42.667  22.397  1.00  0.00    -0.550 OA
ATOM     11  O   UNL     1      -5.813  42.550  24.661  1.00  0.00    -0.550 OA
ENDBRANCH   7   9
ENDBRANCH   6   7
ENDBRANCH   5   6
ENDBRANCH   4   5
ENDBRANCH   3   4
ENDBRANCH   2   3
ENDBRANCH   1   2
BRANCH   1  12
ATOM     12  C   UNL     1      -6.125  35.685  21.074  1.00  0.00     0.000 C 
BRANCH  12  13
ATOM     13  C   UNL     1      -5.246  35.851  19.821  1.00  0.00    -0.000 C 
BRANCH  13  14
ATOM     14  C   UNL     1      -3.862  36.435  20.147  1.00  0.00    -0.000 C 
BRANCH  14  15
ATOM     15  C   UNL     1      -3.676  37.858  19.593  1.00  0.00    -0.000 C 
BRANCH  15  16
ATOM     16  C   UNL     1      -3.361  37.857  18.082  1.00  0.00    -0.000 C 
BRANCH  16  17
ATOM     17  C   UNL     1      -1.867  37.679  17.764  1.00  0.00    -0.000 C 
BRANCH  17  18
ATOM     18  C   UNL     1      -1.620  37.085  16.370  1.00  0.00    -0.003 C 
ATOM     19  C   UNL     1      -2.935  36.835  15.639  1.00  0.00     0.004 C 
ENDBRANCH  17  18
ENDBRANCH  16  17
ENDBRANCH  15  16
ENDBRANCH  14  15
ENDBRANCH  13  14
ENDBRANCH  12  13
ENDBRANCH   1  12
TORSDOF 14
ENDMDL
MODEL 5
REMARK VINA RESULT:    -2.638      3.682      7.603
REMARK INTER + INTRA:          -5.874
REMARK INTER:                  -4.790
REMARK INTRA:                  -1.084
REMARK UNBOUND:                -1.077
REMARK SMILES CCCCCCCCCCCCCC[C@@H](C)C(=O)[O-]
REMARK SMILES IDX 9 1 10 2 11 3 12 4 13 5 14 6 15 7 16 8 17 9 18 10 19 11 8 12
REMARK SMILES IDX 7 13 6 14 5 15 4 16 3 17 2 18 1 19
REMARK H PARENT
REMARK Flexibility Score: inf
ROOT
ATOM      1  C   UNL     1      -2.123  37.838  20.262  1.00  0.00     0.000 C 
ENDROOT
BRANCH   1   2
ATOM      2  C   UNL     1      -3.569  38.242  20.595  1.00  0.00     0.000 C 
BRANCH   2   3
ATOM      3  C   UNL     1      -4.564  37.872  19.481  1.00  0.00     0.000 C 
BRANCH   3   4
ATOM      4  C   UNL     1      -4.764  36.360  19.270  1.00  0.00     0.000 C 
BRANCH   4   5
ATOM      5  C   UNL     1      -4.769  35.566  20.588  1.00  0.00     0.001 C 
BRANCH   5   6
ATOM      6  C   UNL     1      -6.125  35.663  21.325  1.00  0.00     0.009 C 
BRANCH   6   7
ATOM      7  C   UNL     1      -6.058  35.474  22.860  1.00  0.00     0.032 C 
ATOM      8  C   UNL     1      -5.015  34.428  23.280  1.00  0.00     0.014 C 
BRANCH   7   9
ATOM      9  C   UNL     1      -5.858  36.777  23.587  1.00  0.00     0.044 C 
ATOM     10  O   UNL     1      -5.744  37.848  22.935  1.00  0.00    -0.550 OA
ATOM     11  O   UNL     1      -5.742  36.805  24.973  1.00  0.00    -0.550 OA
ENDBRANCH   7   9
ENDBRANCH   6   7
ENDBRANCH   5   6
ENDBRANCH   4   5
ENDBRANCH   3   4
ENDBRANCH   2   3
ENDBRANCH   1   2
BRANCH   1  12
ATOM     12  C   UNL     1      -1.544  38.639  19.085  1.00  0.00     0.000 C 
BRANCH  12  13
ATOM     13  C   UNL     1      -0.321  37.952  18.451  1.00  0.00    -0.000 C 
BRANCH  13  14
ATOM     14  C   UNL     1      -0.640  37.330  17.083  1.00  0.00    -0.000 C 
BRANCH  14  15
ATOM     15  C   UNL     1      -1.963  37.847  16.493  1.00  0.00    -0.000 C 
BRANCH  15  16
ATOM     16  C   UNL     1      -2.975  36.707  16.247  1.00  0.00    -0.000 C 
BRANCH  16  17
ATOM     17  C   UNL     1      -3.245  36.434  14.758  1.00  0.00    -0.000 C 
BRANCH  17  18
ATOM     18  C   UNL     1      -3.078  37.683  13.881  1.00  0.00    -0.003 C 
ATOM     19  C   UNL     1      -4.138  38.730  14.211  1.00  0.00     0.004 C 
ENDBRANCH  17  18
ENDBRANCH  16  17
ENDBRANCH  15  16
ENDBRANCH  14  15
ENDBRANCH  13  14
ENDBRANCH  12  13
ENDBRANCH   1  12
TORSDOF 14
ENDMDL
MODEL 6
REMARK VINA RESULT:    -2.567      3.197      7.453
REMARK INTER + INTRA:          -5.746
REMARK INTER:                  -5.025
REMARK INTRA:                  -0.721
REMARK UNBOUND:                -1.077
REMARK SMILES CCCCCCCCCCCCCC[C@@H](C)C(=O)[O-]
REMARK SMILES IDX 9 1 10 2 11 3 12 4 13 5 14 6 15 7 16 8 17 9 18 10 19 11 8 12
REMARK SMILES IDX 7 13 6 14 5 15 4 16 3 17 2 18 1 19
REMARK H PARENT
REMARK Flexibility Score: inf
ROOT
ATOM      1  C   UNL     1      -4.901  36.607  19.892  1.00  0.00     0.000 C 
ENDROOT
BRANCH   1   2
ATOM      2  C   UNL     1      -4.758  35.681  21.112  1.00  0.00     0.000 C 
BRANCH   2   3
ATOM      3  C   UNL     1      -6.103  35.396  21.805  1.00  0.00     0.000 C 
BRANCH   3   4
ATOM      4  C   UNL     1      -5.987  34.852  23.241  1.00  0.00     0.000 C 
BRANCH   4   5
ATOM      5  C   UNL     1      -5.884  35.965  24.298  1.00  0.00     0.001 C 
BRANCH   5   6
ATOM      6  C   UNL     1      -5.725  37.365  23.660  1.00  0.00     0.009 C 
BRANCH   6   7
ATOM      7  C   UNL     1      -5.653  38.544  24.660  1.00  0.00     0.032 C 
ATOM      8  C   UNL     1      -4.637  38.299  25.786  1.00  0.00     0.014 C 
BRANCH   7   9
ATOM      9  C   UNL     1      -5.408  39.861  23.973  1.00  0.00     0.044 C 
ATOM     10  O   UNL     1      -5.319  40.916  24.654  1.00  0.00    -0.550 OA
ATOM     11  O   UNL     1      -5.334  39.935  22.586  1.00  0.00    -0.550 OA
ENDBRANCH   7   9
ENDBRANCH   6   7
ENDBRANCH   5   6
ENDBRANCH   4   5
ENDBRANCH   3   4
ENDBRANCH   2   3
ENDBRANCH   1   2
BRANCH   1  12
ATOM     12  C   UNL     1      -4.120  37.920  20.055  1.00  0.00     0.000 C 
BRANCH  12  13
ATOM     13  C   UNL     1      -2.724  37.858  19.410  1.00  0.00    -0.000 C 
BRANCH  13  14
ATOM     14  C   UNL     1      -2.783  37.890  17.875  1.00  0.00    -0.000 C 
BRANCH  14  15
ATOM     15  C   UNL     1      -1.472  37.415  17.224  1.00  0.00    -0.000 C 
BRANCH  15  16
ATOM     16  C   UNL     1      -1.642  37.132  15.716  1.00  0.00    -0.000 C 
BRANCH  16  17
ATOM     17  C   UNL     1      -3.065  36.697  15.327  1.00  0.00    -0.000 C 
BRANCH  17  18
ATOM     18  C   UNL     1      -3.575  37.390  14.055  1.00  0.00    -0.003 C 
ATOM     19  C   UNL     1      -3.935  38.847  14.331  1.00  0.00     0.004 C 
ENDBRANCH  17  18
ENDBRANCH  16  17
ENDBRANCH  15  16
ENDBRANCH  14  15
ENDBRANCH  13  14
ENDBRANCH  12  13
ENDBRANCH   1  12
TORSDOF 14
ENDMDL
MODEL 7
REMARK VINA RESULT:    -2.528      3.186      5.753
REMARK INTER + INTRA:          -5.674
REMARK INTER:                  -4.979
REMARK INTRA:                  -0.694
REMARK UNBOUND:                -1.077
REMARK SMILES CCCCCCCCCCCCCC[C@@H](C)C(=O)[O-]
REMARK SMILES IDX 9 1 10 2 11 3 12 4 13 5 14 6 15 7 16 8 17 9 18 10 19 11 8 12
REMARK SMILES IDX 7 13 6 14 5 15 4 16 3 17 2 18 1 19
REMARK H PARENT
REMARK Flexibility Score: inf
ROOT
ATOM      1  C   UNL     1      -2.161  37.406  16.737  1.00  0.00     0.000 C 
ENDROOT
BRANCH   1   2
ATOM      2  C   UNL     1      -3.020  36.130  16.742  1.00  0.00     0.000 C 
BRANCH   2   3
ATOM      3  C   UNL     1      -4.277  36.261  17.620  1.00  0.00     0.000 C 
BRANCH   3   4
ATOM      4  C   UNL     1      -4.686  34.974  18.360  1.00  0.00     0.000 C 
BRANCH   4   5
ATOM      5  C   UNL     1      -6.022  35.111  19.109  1.00  0.00     0.001 C 
BRANCH   5   6
ATOM      6  C   UNL     1      -5.881  35.929  20.414  1.00  0.00     0.009 C 
BRANCH   6   7
ATOM      7  C   UNL     1      -5.123  35.218  21.561  1.00  0.00     0.032 C 
ATOM      8  C   UNL     1      -3.615  35.509  21.540  1.00  0.00     0.014 C 
BRANCH   7   9
ATOM      9  C   UNL     1      -5.723  35.513  22.911  1.00  0.00     0.044 C 
ATOM     10  O   UNL     1      -5.818  36.704  23.308  1.00  0.00    -0.550 OA
ATOM     11  O   UNL     1      -6.125  34.479  23.750  1.00  0.00    -0.550 OA
ENDBRANCH   7   9
ENDBRANCH   6   7
ENDBRANCH   5   6
ENDBRANCH   4   5
ENDBRANCH   3   4
ENDBRANCH   2   3
ENDBRANCH   1   2
BRANCH   1  12
ATOM     12  C   UNL     1      -1.224  37.490  17.952  1.00  0.00     0.000 C 
BRANCH  12  13
ATOM     13  C   UNL     1      -1.616  38.621  18.920  1.00  0.00    -0.000 C 
BRANCH  13  14
ATOM     14  C   UNL     1      -2.733  38.205  19.890  1.00  0.00    -0.000 C 
BRANCH  14  15
ATOM     15  C   UNL     1      -4.065  38.917  19.597  1.00  0.00    -0.000 C 
BRANCH  15  16
ATOM     16  C   UNL     1      -5.083  38.740  20.743  1.00  0.00    -0.000 C 
BRANCH  16  17
ATOM     17  C   UNL     1      -5.807  40.040  21.131  1.00  0.00    -0.000 C 
BRANCH  17  18
ATOM     18  C   UNL     1      -5.393  40.565  22.512  1.00  0.00    -0.003 C 
ATOM     19  C   UNL     1      -5.974  41.952  22.769  1.00  0.00     0.004 C 
ENDBRANCH  17  18
ENDBRANCH  16  17
ENDBRANCH  15  16
ENDBRANCH  14  15
ENDBRANCH  13  14
ENDBRANCH  12  13
ENDBRANCH   1  12
TORSDOF 14
ENDMDL
MODEL 8
REMARK VINA RESULT:    -2.311      0.854      3.795
REMARK INTER + INTRA:          -5.280
REMARK INTER:                  -5.107
REMARK INTRA:                  -0.173
REMARK UNBOUND:                -1.077
REMARK SMILES CCCCCCCCCCCCCC[C@@H](C)C(=O)[O-]
REMARK SMILES IDX 9 1 10 2 11 3 12 4 13 5 14 6 15 7 16 8 17 9 18 10 19 11 8 12
REMARK SMILES IDX 7 13 6 14 5 15 4 16 3 17 2 18 1 19
REMARK H PARENT
REMARK Flexibility Score: inf
ROOT
ATOM      1  C   UNL     1      -5.390  41.219  22.280  1.00  0.00     0.000 C 
ENDROOT
BRANCH   1   2
ATOM      2  C   UNL     1      -5.773  39.807  21.806  1.00  0.00     0.000 C 
BRANCH   2   3
ATOM      3  C   UNL     1      -5.353  39.532  20.351  1.00  0.00     0.000 C 
BRANCH   3   4
ATOM      4  C   UNL     1      -5.192  38.042  19.996  1.00  0.00     0.000 C 
BRANCH   4   5
ATOM      5  C   UNL     1      -3.721  37.605  19.891  1.00  0.00     0.001 C 
BRANCH   5   6
ATOM      6  C   UNL     1      -3.380  37.025  18.499  1.00  0.00     0.009 C 
BRANCH   6   7
ATOM      7  C   UNL     1      -2.505  37.931  17.600  1.00  0.00     0.032 C 
ATOM      8  C   UNL     1      -1.058  38.041  18.106  1.00  0.00     0.014 C 
BRANCH   7   9
ATOM      9  C   UNL     1      -2.553  37.518  16.153  1.00  0.00     0.044 C 
ATOM     10  O   UNL     1      -1.846  36.557  15.751  1.00  0.00    -0.550 OA
ATOM     11  O   UNL     1      -3.331  38.222  15.240  1.00  0.00    -0.550 OA
ENDBRANCH   7   9
ENDBRANCH   6   7
ENDBRANCH   5   6
ENDBRANCH   4   5
ENDBRANCH   3   4
ENDBRANCH   2   3
ENDBRANCH   1   2
BRANCH   1  12
ATOM     12  C   UNL     1      -5.811  41.487  23.733  1.00  0.00     0.000 C 
BRANCH  12  13
ATOM     13  C   UNL     1      -5.135  40.528  24.729  1.00  0.00    -0.000 C 
BRANCH  13  14
ATOM     14  C   UNL     1      -5.335  39.052  24.351  1.00  0.00    -0.000 C 
BRANCH  14  15
ATOM     15  C   UNL     1      -5.025  38.096  25.517  1.00  0.00    -0.000 C 
BRANCH  15  16
ATOM     16  C   UNL     1      -5.785  36.759  25.390  1.00  0.00    -0.000 C 
BRANCH  16  17
ATOM     17  C   UNL     1      -6.125  36.378  23.939  1.00  0.00    -0.000 C 
BRANCH  17  18
ATOM     18  C   UNL     1      -5.497  35.046  23.508  1.00  0.00    -0.003 C 
ATOM     19  C   UNL     1      -4.620  35.226  22.273  1.00  0.00     0.004 C 
ENDBRANCH  17  18
ENDBRANCH  16  17
ENDBRANCH  15  16
ENDBRANCH  14  15
ENDBRANCH  13  14
ENDBRANCH  12  13
ENDBRANCH   1  12
TORSDOF 14
ENDMDL
MODEL 9
REMARK VINA RESULT:    -1.609      1.156      1.972
REMARK INTER + INTRA:          -4.003
REMARK INTER:                  -2.727
REMARK INTRA:                  -1.276
REMARK UNBOUND:                -1.077
REMARK SMILES CCCCCCCCCCCCCC[C@@H](C)C(=O)[O-]
REMARK SMILES IDX 9 1 10 2 11 3 12 4 13 5 14 6 15 7 16 8 17 9 18 10 19 11 8 12
REMARK SMILES IDX 7 13 6 14 5 15 4 16 3 17 2 18 1 19
REMARK H PARENT
REMARK Flexibility Score: inf
ROOT
ATOM      1  C   UNL     1      -5.228  36.038  22.072  1.00  0.00     0.000 C 
ENDROOT
BRANCH   1   2
ATOM      2  C   UNL     1      -5.786  36.239  20.653  1.00  0.00     0.000 C 
BRANCH   2   3
ATOM      3  C   UNL     1      -5.133  37.423  19.917  1.00  0.00     0.000 C 
BRANCH   3   4
ATOM      4  C   UNL     1      -3.654  37.667  20.270  1.00  0.00     0.000 C 
BRANCH   4   5
ATOM      5  C   UNL     1      -2.712  37.487  19.067  1.00  0.00     0.001 C 
BRANCH   5   6
ATOM      6  C   UNL     1      -3.401  37.836  17.727  1.00  0.00     0.009 C 
BRANCH   6   7
ATOM      7  C   UNL     1      -2.459  37.929  16.503  1.00  0.00     0.032 C 
ATOM      8  C   UNL     1      -1.229  37.019  16.636  1.00  0.00     0.014 C 
BRANCH   7   9
ATOM      9  C   UNL     1      -3.184  37.691  15.205  1.00  0.00     0.044 C 
ATOM     10  O   UNL     1      -3.096  36.572  14.634  1.00  0.00    -0.550 OA
ATOM     11  O   UNL     1      -3.908  38.712  14.599  1.00  0.00    -0.550 OA
ENDBRANCH   7   9
ENDBRANCH   6   7
ENDBRANCH   5   6
ENDBRANCH   4   5
ENDBRANCH   3   4
ENDBRANCH   2   3
ENDBRANCH   1   2
BRANCH   1  12
ATOM     12  C   UNL     1      -6.125  35.138  22.935  1.00  0.00     0.000 C 
BRANCH  12  13
ATOM     13  C   UNL     1      -5.802  35.250  24.436  1.00  0.00    -0.000 C 
BRANCH  13  14
ATOM     14  C   UNL     1      -6.125  36.641  25.005  1.00  0.00    -0.000 C 
BRANCH  14  15
ATOM     15  C   UNL     1      -4.883  37.352  25.569  1.00  0.00    -0.000 C 
BRANCH  15  16
ATOM     16  C   UNL     1      -4.869  38.857  25.227  1.00  0.00    -0.000 C 
BRANCH  16  17
ATOM     17  C   UNL     1      -5.680  39.211  23.969  1.00  0.00    -0.000 C 
BRANCH  17  18
ATOM     18  C   UNL     1      -5.459  40.656  23.503  1.00  0.00    -0.003 C 
ATOM     19  C   UNL     1      -5.672  40.786  21.998  1.00  0.00     0.004 C 
ENDBRANCH  17  18
ENDBRANCH  16  17
ENDBRANCH  15  16
ENDBRANCH  14  15
ENDBRANCH  13  14
ENDBRANCH  12  13
ENDBRANCH   1  12
TORSDOF 14
ENDMDL
