MODEL 1
REMARK VINA RESULT:     3.832      0.000      0.000
REMARK INTER + INTRA:           4.694
REMARK INTER:                   4.616
REMARK INTRA:                   0.078
REMARK UNBOUND:                 0.078
REMARK SMILES O=c1c(O)c(-c2ccc(O)c(O)c2)oc2cc(O)cc(O)c12
REMARK SMILES IDX 5 1 3 2 2 3 1 4 22 5 20 6 19 7 17 8 16 9 15 10 14 11 6 12
REMARK SMILES IDX 7 13 8 14 9 15 13 16 11 17 10 18 12 20 4 22 21 24 18 26
REMARK H PARENT 10 19 12 21 4 23 21 25 18 27
REMARK Flexibility Score: inf
ROOT
ATOM      1  C   UNL     1      21.079   9.331  -6.507  1.00  0.00     0.180 A 
ATOM      2  C   UNL     1      22.087   9.105  -7.464  1.00  0.00     0.208 A 
ATOM      3  C   UNL     1      22.047   9.817  -8.673  1.00  0.00     0.238 A 
ATOM      4  O   UNL     1      22.938   9.615  -9.542  1.00  0.00    -0.285 OA
ATOM      5  C   UNL     1      21.017  10.753  -8.896  1.00  0.00     0.111 A 
ATOM      6  C   UNL     1      20.905  11.515 -10.086  1.00  0.00     0.134 A 
ATOM      7  C   UNL     1      19.855  12.434 -10.227  1.00  0.00     0.093 A 
ATOM      8  C   UNL     1      18.916  12.607  -9.208  1.00  0.00     0.123 A 
ATOM      9  C   UNL     1      19.020  11.858  -8.032  1.00  0.00     0.094 A 
ATOM     10  C   UNL     1      20.059  10.935  -7.871  1.00  0.00     0.146 A 
ATOM     11  O   UNL     1      20.131  10.233  -6.747  1.00  0.00    -0.452 OA
ENDROOT
BRANCH   1  12
ATOM     12  C   UNL     1      21.043   8.606  -5.217  1.00  0.00     0.025 A 
ATOM     13  C   UNL     1      20.868   9.285  -4.001  1.00  0.00     0.016 A 
ATOM     14  C   UNL     1      20.861   8.581  -2.795  1.00  0.00     0.051 A 
ATOM     15  C   UNL     1      21.041   7.194  -2.776  1.00  0.00     0.157 A 
ATOM     16  C   UNL     1      21.245   7.217  -5.199  1.00  0.00     0.062 A 
ATOM     17  C   UNL     1      21.240   6.503  -3.995  1.00  0.00     0.158 A 
BRANCH  15  18
ATOM     18  O   UNL     1      21.019   6.550  -1.537  1.00  0.00    -0.504 OA
ATOM     19  H   UNL     1      21.730   5.906  -1.223  1.00  0.00     0.293 HD
ENDBRANCH  15  18
BRANCH  17  20
ATOM     20  O   UNL     1      21.435   5.121  -4.055  1.00  0.00    -0.504 OA
ATOM     21  H   UNL     1      20.947   4.509  -4.694  1.00  0.00     0.293 HD
ENDBRANCH  17  20
ENDBRANCH   1  12
BRANCH   2  22
ATOM     22  O   UNL     1      23.125   8.209  -7.199  1.00  0.00    -0.502 OA
ATOM     23  H   UNL     1      23.418   7.980  -6.256  1.00  0.00     0.293 HD
ENDBRANCH   2  22
BRANCH   6  24
ATOM     24  O   UNL     1      21.828  11.365 -11.122  1.00  0.00    -0.507 OA
ATOM     25  H   UNL     1      21.923  10.492 -11.628  1.00  0.00     0.293 HD
ENDBRANCH   6  24
BRANCH   8  26
ATOM     26  O   UNL     1      17.884  13.526  -9.375  1.00  0.00    -0.508 OA
ATOM     27  H   UNL     1      17.335  13.558 -10.227  1.00  0.00     0.293 HD
ENDBRANCH   8  26
TORSDOF 6
ENDMDL
MODEL 2
REMARK VINA RESULT:     4.159      1.553      2.083
REMARK INTER + INTRA:           5.088
REMARK INTER:                   5.387
REMARK INTRA:                  -0.299
REMARK UNBOUND:                 0.078
REMARK SMILES O=c1c(O)c(-c2ccc(O)c(O)c2)oc2cc(O)cc(O)c12
REMARK SMILES IDX 5 1 3 2 2 3 1 4 22 5 20 6 19 7 17 8 16 9 15 10 14 11 6 12
REMARK SMILES IDX 7 13 8 14 9 15 13 16 11 17 10 18 12 20 4 22 21 24 18 26
REMARK H PARENT 10 19 12 21 4 23 21 25 18 27
REMARK Flexibility Score: inf
ROOT
ATOM      1  C   UNL     1      20.498   9.637  -6.979  1.00  0.00     0.180 A 
ATOM      2  C   UNL     1      21.535  10.303  -7.660  1.00  0.00     0.208 A 
ATOM      3  C   UNL     1      21.221  11.065  -8.796  1.00  0.00     0.238 A 
ATOM      4  O   UNL     1      22.144  11.656  -9.421  1.00  0.00    -0.285 OA
ATOM      5  C   UNL     1      19.881  11.167  -9.218  1.00  0.00     0.111 A 
ATOM      6  C   UNL     1      19.479  11.918 -10.350  1.00  0.00     0.134 A 
ATOM      7  C   UNL     1      18.122  11.977 -10.700  1.00  0.00     0.093 A 
ATOM      8  C   UNL     1      17.161  11.303  -9.944  1.00  0.00     0.123 A 
ATOM      9  C   UNL     1      17.550  10.559  -8.827  1.00  0.00     0.094 A 
ATOM     10  C   UNL     1      18.898  10.486  -8.462  1.00  0.00     0.146 A 
ATOM     11  O   UNL     1      19.242   9.768  -7.399  1.00  0.00    -0.452 OA
ENDROOT
BRANCH   1  12
ATOM     12  C   UNL     1      20.751   8.799  -5.786  1.00  0.00     0.025 A 
ATOM     13  C   UNL     1      20.813   7.399  -5.874  1.00  0.00     0.016 A 
ATOM     14  C   UNL     1      21.029   6.629  -4.730  1.00  0.00     0.051 A 
ATOM     15  C   UNL     1      21.174   7.235  -3.477  1.00  0.00     0.157 A 
ATOM     16  C   UNL     1      20.874   9.408  -4.527  1.00  0.00     0.062 A 
ATOM     17  C   UNL     1      21.090   8.644  -3.374  1.00  0.00     0.158 A 
BRANCH  15  18
ATOM     18  O   UNL     1      21.392   6.408  -2.374  1.00  0.00    -0.504 OA
ATOM     19  H   UNL     1      21.644   5.432  -2.440  1.00  0.00     0.293 HD
ENDBRANCH  15  18
BRANCH  17  20
ATOM     20  O   UNL     1      21.216   9.319  -2.158  1.00  0.00    -0.504 OA
ATOM     21  H   UNL     1      22.082   9.708  -1.814  1.00  0.00     0.293 HD
ENDBRANCH  17  20
ENDBRANCH   1  12
BRANCH   2  22
ATOM     22  O   UNL     1      22.849  10.226  -7.193  1.00  0.00    -0.502 OA
ATOM     23  H   UNL     1      23.075   9.915  -6.255  1.00  0.00     0.293 HD
ENDBRANCH   2  22
BRANCH   6  24
ATOM     24  O   UNL     1      20.416  12.604 -11.125  1.00  0.00    -0.507 OA
ATOM     25  H   UNL     1      21.350  12.240 -11.276  1.00  0.00     0.293 HD
ENDBRANCH   6  24
BRANCH   8  26
ATOM     26  O   UNL     1      15.820  11.379 -10.314  1.00  0.00    -0.508 OA
ATOM     27  H   UNL     1      15.151  11.915  -9.773  1.00  0.00     0.293 HD
ENDBRANCH   8  26
TORSDOF 6
ENDMDL
MODEL 3
REMARK VINA RESULT:     5.099      1.550      3.087
REMARK INTER + INTRA:           6.220
REMARK INTER:                   6.521
REMARK INTRA:                  -0.301
REMARK UNBOUND:                 0.078
REMARK SMILES O=c1c(O)c(-c2ccc(O)c(O)c2)oc2cc(O)cc(O)c12
REMARK SMILES IDX 5 1 3 2 2 3 1 4 22 5 20 6 19 7 17 8 16 9 15 10 14 11 6 12
REMARK SMILES IDX 7 13 8 14 9 15 13 16 11 17 10 18 12 20 4 22 21 24 18 26
REMARK H PARENT 10 19 12 21 4 23 21 25 18 27
REMARK Flexibility Score: inf
ROOT
ATOM      1  C   UNL     1      20.327   9.780  -7.042  1.00  0.00     0.180 A 
ATOM      2  C   UNL     1      19.002   9.896  -7.505  1.00  0.00     0.208 A 
ATOM      3  C   UNL     1      18.744  10.693  -8.631  1.00  0.00     0.238 A 
ATOM      4  O   UNL     1      17.559  10.814  -9.048  1.00  0.00    -0.285 OA
ATOM      5  C   UNL     1      19.811  11.342  -9.285  1.00  0.00     0.111 A 
ATOM      6  C   UNL     1      19.637  12.160 -10.429  1.00  0.00     0.134 A 
ATOM      7  C   UNL     1      20.752  12.764 -11.028  1.00  0.00     0.093 A 
ATOM      8  C   UNL     1      22.034  12.567 -10.510  1.00  0.00     0.123 A 
ATOM      9  C   UNL     1      22.212  11.762  -9.381  1.00  0.00     0.094 A 
ATOM     10  C   UNL     1      21.113  11.152  -8.768  1.00  0.00     0.146 A 
ATOM     11  O   UNL     1      21.310  10.396  -7.694  1.00  0.00    -0.452 OA
ENDROOT
BRANCH   1  12
ATOM     12  C   UNL     1      20.676   8.974  -5.852  1.00  0.00     0.025 A 
ATOM     13  C   UNL     1      20.822   7.580  -5.929  1.00  0.00     0.016 A 
ATOM     14  C   UNL     1      21.129   6.839  -4.786  1.00  0.00     0.051 A 
ATOM     15  C   UNL     1      21.282   7.467  -3.546  1.00  0.00     0.157 A 
ATOM     16  C   UNL     1      20.808   9.605  -4.605  1.00  0.00     0.062 A 
ATOM     17  C   UNL     1      21.115   8.870  -3.453  1.00  0.00     0.158 A 
BRANCH  15  18
ATOM     18  O   UNL     1      21.593   6.669  -2.443  1.00  0.00    -0.504 OA
ATOM     19  H   UNL     1      22.347   6.863  -1.800  1.00  0.00     0.293 HD
ENDBRANCH  15  18
BRANCH  17  20
ATOM     20  O   UNL     1      21.244   9.566  -2.249  1.00  0.00    -0.504 OA
ATOM     21  H   UNL     1      21.991  10.215  -2.049  1.00  0.00     0.293 HD
ENDBRANCH  17  20
ENDBRANCH   1  12
BRANCH   2  22
ATOM     22  O   UNL     1      17.969   9.204  -6.869  1.00  0.00    -0.502 OA
ATOM     23  H   UNL     1      17.276   8.670  -7.381  1.00  0.00     0.293 HD
ENDBRANCH   2  22
BRANCH   6  24
ATOM     24  O   UNL     1      18.369  12.375 -10.970  1.00  0.00    -0.507 OA
ATOM     25  H   UNL     1      18.067  13.296 -11.270  1.00  0.00     0.293 HD
ENDBRANCH   6  24
BRANCH   8  26
ATOM     26  O   UNL     1      23.124  13.179 -11.125  1.00  0.00    -0.508 OA
ATOM     27  H   UNL     1      24.038  13.197 -10.687  1.00  0.00     0.293 HD
ENDBRANCH   8  26
TORSDOF 6
ENDMDL
MODEL 4
REMARK VINA RESULT:     5.542      1.612      6.964
REMARK INTER + INTRA:           6.754
REMARK INTER:                   7.072
REMARK INTRA:                  -0.318
REMARK UNBOUND:                 0.078
REMARK SMILES O=c1c(O)c(-c2ccc(O)c(O)c2)oc2cc(O)cc(O)c12
REMARK SMILES IDX 5 1 3 2 2 3 1 4 22 5 20 6 19 7 17 8 16 9 15 10 14 11 6 12
REMARK SMILES IDX 7 13 8 14 9 15 13 16 11 17 10 18 12 20 4 22 21 24 18 26
REMARK H PARENT 10 19 12 21 4 23 21 25 18 27
REMARK Flexibility Score: inf
ROOT
ATOM      1  C   UNL     1      20.043  11.480  -8.792  1.00  0.00     0.180 A 
ATOM      2  C   UNL     1      21.111  10.842  -9.451  1.00  0.00     0.208 A 
ATOM      3  C   UNL     1      21.799   9.814  -8.789  1.00  0.00     0.238 A 
ATOM      4  O   UNL     1      22.766   9.243  -9.365  1.00  0.00    -0.285 OA
ATOM      5  C   UNL     1      21.398   9.427  -7.494  1.00  0.00     0.111 A 
ATOM      6  C   UNL     1      22.036   8.397  -6.760  1.00  0.00     0.134 A 
ATOM      7  C   UNL     1      21.569   8.066  -5.480  1.00  0.00     0.093 A 
ATOM      8  C   UNL     1      20.482   8.739  -4.919  1.00  0.00     0.123 A 
ATOM      9  C   UNL     1      19.848   9.757  -5.639  1.00  0.00     0.094 A 
ATOM     10  C   UNL     1      20.299  10.104  -6.916  1.00  0.00     0.146 A 
ATOM     11  O   UNL     1      19.683  11.078  -7.576  1.00  0.00    -0.452 OA
ENDROOT
BRANCH   1  12
ATOM     12  C   UNL     1      19.281  12.585  -9.416  1.00  0.00     0.025 A 
ATOM     13  C   UNL     1      19.761  13.904  -9.402  1.00  0.00     0.016 A 
ATOM     14  C   UNL     1      19.012  14.933  -9.977  1.00  0.00     0.051 A 
ATOM     15  C   UNL     1      17.769  14.672 -10.562  1.00  0.00     0.157 A 
ATOM     16  C   UNL     1      18.024  12.324  -9.984  1.00  0.00     0.062 A 
ATOM     17  C   UNL     1      17.266  13.349 -10.562  1.00  0.00     0.158 A 
BRANCH  15  18
ATOM     18  O   UNL     1      17.073  15.745 -11.124  1.00  0.00    -0.504 OA
ATOM     19  H   UNL     1      16.573  15.697 -11.999  1.00  0.00     0.293 HD
ENDBRANCH  15  18
BRANCH  17  20
ATOM     20  O   UNL     1      16.030  13.013 -11.120  1.00  0.00    -0.504 OA
ATOM     21  H   UNL     1      15.893  12.789 -12.095  1.00  0.00     0.293 HD
ENDBRANCH  17  20
ENDBRANCH   1  12
BRANCH   2  22
ATOM     22  O   UNL     1      21.459  11.210 -10.753  1.00  0.00    -0.502 OA
ATOM     23  H   UNL     1      21.127  10.706 -11.567  1.00  0.00     0.293 HD
ENDBRANCH   2  22
BRANCH   6  24
ATOM     24  O   UNL     1      23.124   7.705  -7.292  1.00  0.00    -0.507 OA
ATOM     25  H   UNL     1      23.967   8.185  -7.588  1.00  0.00     0.293 HD
ENDBRANCH   6  24
BRANCH   8  26
ATOM     26  O   UNL     1      20.039   8.389  -3.646  1.00  0.00    -0.508 OA
ATOM     27  H   UNL     1      19.073   8.138  -3.472  1.00  0.00     0.293 HD
ENDBRANCH   8  26
TORSDOF 6
ENDMDL
