MODEL 1
REMARK VINA RESULT:    -3.511      0.000      0.000
REMARK INTER + INTRA:          -4.164
REMARK INTER:                  -4.127
REMARK INTRA:                  -0.037
REMARK UNBOUND:                -0.037
REMARK SMILES O=C([O-])CCC(=O)[O-]
REMARK SMILES IDX 4 1 2 2 1 3 3 4 5 5 6 6 7 7 8 8
REMARK H PARENT
REMARK Flexibility Score: inf
ROOT
ATOM      1  C   UNL     1      -8.152  23.853  13.707  1.00  0.00     0.059 C 
ENDROOT
BRANCH   1   2
ATOM      2  C   UNL     1      -8.581  25.267  13.943  1.00  0.00     0.042 C 
ATOM      3  O   UNL     1      -8.530  25.759  15.102  1.00  0.00    -0.550 OA
ATOM      4  O   UNL     1      -8.990  26.057  12.878  1.00  0.00    -0.550 OA
ENDBRANCH   1   2
BRANCH   1   5
ATOM      5  C   UNL     1      -9.147  22.879  14.338  1.00  0.00     0.059 C 
BRANCH   5   6
ATOM      6  C   UNL     1      -8.539  21.518  14.466  1.00  0.00     0.042 C 
ATOM      7  O   UNL     1      -9.269  20.516  14.687  1.00  0.00    -0.550 OA
ATOM      8  O   UNL     1      -7.161  21.363  14.393  1.00  0.00    -0.550 OA
ENDBRANCH   5   6
ENDBRANCH   1   5
TORSDOF 3
ENDMDL
MODEL 2
REMARK VINA RESULT:    -3.478      0.087      4.260
REMARK INTER + INTRA:          -4.125
REMARK INTER:                  -4.088
REMARK INTRA:                  -0.037
REMARK UNBOUND:                -0.037
REMARK SMILES O=C([O-])CCC(=O)[O-]
REMARK SMILES IDX 4 1 2 2 1 3 3 4 5 5 6 6 7 7 8 8
REMARK H PARENT
REMARK Flexibility Score: inf
ROOT
ATOM      1  C   UNL     1      -9.114  22.952  14.444  1.00  0.00     0.059 C 
ENDROOT
BRANCH   1   2
ATOM      2  C   UNL     1      -8.540  21.571  14.475  1.00  0.00     0.042 C 
ATOM      3  O   UNL     1      -9.300  20.570  14.562  1.00  0.00    -0.550 OA
ATOM      4  O   UNL     1      -7.169  21.385  14.357  1.00  0.00    -0.550 OA
ENDBRANCH   1   2
BRANCH   1   5
ATOM      5  C   UNL     1      -8.203  23.893  13.656  1.00  0.00     0.059 C 
BRANCH   5   6
ATOM      6  C   UNL     1      -8.568  25.319  13.920  1.00  0.00     0.042 C 
ATOM      7  O   UNL     1      -8.556  25.769  15.097  1.00  0.00    -0.550 OA
ATOM      8  O   UNL     1      -8.971  26.140  12.875  1.00  0.00    -0.550 OA
ENDBRANCH   5   6
ENDBRANCH   1   5
TORSDOF 3
ENDMDL
MODEL 3
REMARK VINA RESULT:    -3.292      2.010      4.846
REMARK INTER + INTRA:          -3.906
REMARK INTER:                  -3.868
REMARK INTRA:                  -0.038
REMARK UNBOUND:                -0.037
REMARK SMILES O=C([O-])CCC(=O)[O-]
REMARK SMILES IDX 4 1 2 2 1 3 3 4 5 5 6 6 7 7 8 8
REMARK H PARENT
REMARK Flexibility Score: inf
ROOT
ATOM      1  C   UNL     1      -8.872  25.193  13.376  1.00  0.00     0.059 C 
ENDROOT
BRANCH   1   2
ATOM      2  C   UNL     1      -8.381  23.948  14.044  1.00  0.00     0.042 C 
ATOM      3  O   UNL     1      -7.178  23.854  14.406  1.00  0.00    -0.550 OA
ATOM      4  O   UNL     1      -9.263  22.910  14.314  1.00  0.00    -0.550 OA
ENDBRANCH   1   2
BRANCH   1   5
ATOM      5  C   UNL     1      -8.245  26.430  14.022  1.00  0.00     0.059 C 
BRANCH   5   6
ATOM      6  C   UNL     1      -8.624  27.664  13.267  1.00  0.00     0.042 C 
ATOM      7  O   UNL     1      -9.604  27.647  12.475  1.00  0.00    -0.550 OA
ATOM      8  O   UNL     1      -7.866  28.820  13.397  1.00  0.00    -0.550 OA
ENDBRANCH   5   6
ENDBRANCH   1   5
TORSDOF 3
ENDMDL
MODEL 4
REMARK VINA RESULT:    -3.284      1.608      1.925
REMARK INTER + INTRA:          -3.897
REMARK INTER:                  -3.861
REMARK INTRA:                  -0.037
REMARK UNBOUND:                -0.037
REMARK SMILES O=C([O-])CCC(=O)[O-]
REMARK SMILES IDX 4 1 2 2 1 3 3 4 5 5 6 6 7 7 8 8
REMARK H PARENT
REMARK Flexibility Score: inf
ROOT
ATOM      1  C   UNL     1      -8.902  25.448  13.303  1.00  0.00     0.059 C 
ENDROOT
BRANCH   1   2
ATOM      2  C   UNL     1      -8.765  26.937  13.320  1.00  0.00     0.042 C 
ATOM      3  O   UNL     1      -7.812  27.479  13.942  1.00  0.00    -0.550 OA
ATOM      4  O   UNL     1      -9.659  27.726  12.610  1.00  0.00    -0.550 OA
ENDBRANCH   1   2
BRANCH   1   5
ATOM      5  C   UNL     1      -8.089  24.822  14.436  1.00  0.00     0.059 C 
BRANCH   5   6
ATOM      6  C   UNL     1      -8.183  23.330  14.387  1.00  0.00     0.042 C 
ATOM      7  O   UNL     1      -9.303  22.769  14.247  1.00  0.00    -0.550 OA
ATOM      8  O   UNL     1      -7.042  22.555  14.545  1.00  0.00    -0.550 OA
ENDBRANCH   5   6
ENDBRANCH   1   5
TORSDOF 3
ENDMDL
MODEL 5
REMARK VINA RESULT:    -3.080      2.682      4.203
REMARK INTER + INTRA:          -3.657
REMARK INTER:                  -3.621
REMARK INTRA:                  -0.036
REMARK UNBOUND:                -0.037
REMARK SMILES O=C([O-])CCC(=O)[O-]
REMARK SMILES IDX 4 1 2 2 1 3 3 4 5 5 6 6 7 7 8 8
REMARK H PARENT
REMARK Flexibility Score: inf
ROOT
ATOM      1  C   UNL     1      -7.477  20.239  14.970  1.00  0.00     0.059 C 
ENDROOT
BRANCH   1   2
ATOM      2  C   UNL     1      -8.289  21.378  14.441  1.00  0.00     0.042 C 
ATOM      3  O   UNL     1      -9.540  21.269  14.337  1.00  0.00    -0.550 OA
ATOM      4  O   UNL     1      -7.673  22.577  14.110  1.00  0.00    -0.550 OA
ENDBRANCH   1   2
BRANCH   1   5
ATOM      5  C   UNL     1      -6.007  20.403  14.581  1.00  0.00     0.059 C 
BRANCH   5   6
ATOM      6  C   UNL     1      -5.351  19.067  14.434  1.00  0.00     0.042 C 
ATOM      7  O   UNL     1      -4.364  18.926  13.664  1.00  0.00    -0.550 OA
ATOM      8  O   UNL     1      -5.860  17.965  15.108  1.00  0.00    -0.550 OA
ENDBRANCH   5   6
ENDBRANCH   1   5
TORSDOF 3
ENDMDL
MODEL 6
REMARK VINA RESULT:    -2.986      2.820      4.005
REMARK INTER + INTRA:          -3.547
REMARK INTER:                  -3.511
REMARK INTRA:                  -0.035
REMARK UNBOUND:                -0.037
REMARK SMILES O=C([O-])CCC(=O)[O-]
REMARK SMILES IDX 4 1 2 2 1 3 3 4 5 5 6 6 7 7 8 8
REMARK H PARENT
REMARK Flexibility Score: inf
ROOT
ATOM      1  C   UNL     1      -7.315  20.338  14.460  1.00  0.00     0.059 C 
ENDROOT
BRANCH   1   2
ATOM      2  C   UNL     1      -7.864  21.729  14.440  1.00  0.00     0.042 C 
ATOM      3  O   UNL     1      -7.092  22.718  14.562  1.00  0.00    -0.550 OA
ATOM      4  O   UNL     1      -9.222  21.938  14.237  1.00  0.00    -0.550 OA
ENDBRANCH   1   2
BRANCH   1   5
ATOM      5  C   UNL     1      -5.802  20.363  14.679  1.00  0.00     0.059 C 
BRANCH   5   6
ATOM      6  C   UNL     1      -5.211  19.016  14.408  1.00  0.00     0.042 C 
ATOM      7  O   UNL     1      -5.527  18.029  15.125  1.00  0.00    -0.550 OA
ATOM      8  O   UNL     1      -4.274  18.858  13.396  1.00  0.00    -0.550 OA
ENDBRANCH   5   6
ENDBRANCH   1   5
TORSDOF 3
ENDMDL
MODEL 7
REMARK VINA RESULT:    -2.674      6.317      8.071
REMARK INTER + INTRA:          -3.179
REMARK INTER:                  -3.147
REMARK INTRA:                  -0.032
REMARK UNBOUND:                -0.037
REMARK SMILES O=C([O-])CCC(=O)[O-]
REMARK SMILES IDX 4 1 2 2 1 3 3 4 5 5 6 6 7 7 8 8
REMARK H PARENT
REMARK Flexibility Score: inf
ROOT
ATOM      1  C   UNL     1      -3.597  18.642  13.236  1.00  0.00     0.059 C 
ENDROOT
BRANCH   1   2
ATOM      2  C   UNL     1      -4.802  18.765  14.115  1.00  0.00     0.042 C 
ATOM      3  O   UNL     1      -5.591  19.736  13.975  1.00  0.00    -0.550 OA
ATOM      4  O   UNL     1      -5.081  17.781  15.054  1.00  0.00    -0.550 OA
ENDBRANCH   1   2
BRANCH   1   5
ATOM      5  C   UNL     1      -2.850  17.341  13.531  1.00  0.00     0.059 C 
BRANCH   5   6
ATOM      6  C   UNL     1      -1.742  17.138  12.547  1.00  0.00     0.042 C 
ATOM      7  O   UNL     1      -1.984  16.650  11.411  1.00  0.00    -0.550 OA
ATOM      8  O   UNL     1      -0.434  17.442  12.900  1.00  0.00    -0.550 OA
ENDBRANCH   5   6
ENDBRANCH   1   5
TORSDOF 3
ENDMDL
MODEL 8
REMARK VINA RESULT:    -2.612     15.595     16.564
REMARK INTER + INTRA:          -3.107
REMARK INTER:                  -3.015
REMARK INTRA:                  -0.093
REMARK UNBOUND:                -0.037
REMARK SMILES O=C([O-])CCC(=O)[O-]
REMARK SMILES IDX 4 1 2 2 1 3 3 4 5 5 6 6 7 7 8 8
REMARK H PARENT
REMARK Flexibility Score: inf
ROOT
ATOM      1  C   UNL     1     -14.875   9.984   4.710  1.00  0.00     0.059 C 
ENDROOT
BRANCH   1   2
ATOM      2  C   UNL     1     -15.677  11.179   5.119  1.00  0.00     0.042 C 
ATOM      3  O   UNL     1     -16.448  11.737   4.293  1.00  0.00    -0.550 OA
ATOM      4  O   UNL     1     -15.614  11.647   6.424  1.00  0.00    -0.550 OA
ENDBRANCH   1   2
BRANCH   1   5
ATOM      5  C   UNL     1     -13.464  10.403   4.294  1.00  0.00     0.059 C 
BRANCH   5   6
ATOM      6  C   UNL     1     -12.589  10.564   5.496  1.00  0.00     0.042 C 
ATOM      7  O   UNL     1     -12.569   9.674   6.389  1.00  0.00    -0.550 OA
ATOM      8  O   UNL     1     -11.833  11.717   5.658  1.00  0.00    -0.550 OA
ENDBRANCH   5   6
ENDBRANCH   1   5
TORSDOF 3
ENDMDL
MODEL 9
REMARK VINA RESULT:    -2.594     15.658     16.659
REMARK INTER + INTRA:          -3.085
REMARK INTER:                  -2.994
REMARK INTRA:                  -0.091
REMARK UNBOUND:                -0.037
REMARK SMILES O=C([O-])CCC(=O)[O-]
REMARK SMILES IDX 4 1 2 2 1 3 3 4 5 5 6 6 7 7 8 8
REMARK H PARENT
REMARK Flexibility Score: inf
ROOT
ATOM      1  C   UNL     1     -13.613  10.368   4.362  1.00  0.00     0.059 C 
ENDROOT
BRANCH   1   2
ATOM      2  C   UNL     1     -12.695  10.537   5.530  1.00  0.00     0.042 C 
ATOM      3  O   UNL     1     -12.648   9.659   6.432  1.00  0.00    -0.550 OA
ATOM      4  O   UNL     1     -11.853  11.639   5.599  1.00  0.00    -0.550 OA
ENDBRANCH   1   2
BRANCH   1   5
ATOM      5  C   UNL     1     -15.019   9.996   4.835  1.00  0.00     0.059 C 
BRANCH   5   6
ATOM      6  C   UNL     1     -15.783  11.223   5.223  1.00  0.00     0.042 C 
ATOM      7  O   UNL     1     -16.489  11.825   4.371  1.00  0.00    -0.550 OA
ATOM      8  O   UNL     1     -15.676  11.730   6.511  1.00  0.00    -0.550 OA
ENDBRANCH   5   6
ENDBRANCH   1   5
TORSDOF 3
ENDMDL
