MODEL 1
REMARK VINA RESULT:    -3.878      0.000      0.000
REMARK INTER + INTRA:          -5.912
REMARK INTER:                  -5.579
REMARK INTRA:                  -0.333
REMARK UNBOUND:                -0.333
REMARK SMILES CCCCCCCCCO
REMARK SMILES IDX 6 1 5 2 4 3 3 4 2 5 1 6 7 7 8 8 9 9 10 10
REMARK H PARENT 10 11
REMARK Flexibility Score: inf
ROOT
ATOM      1  C   UNL     1     181.157 178.268 184.621  1.00  0.00     0.000 C 
ENDROOT
BRANCH   1   2
ATOM      2  C   UNL     1     180.986 179.140 185.876  1.00  0.00     0.000 C 
BRANCH   2   3
ATOM      3  C   UNL     1     182.255 179.940 186.216  1.00  0.00    -0.000 C 
BRANCH   3   4
ATOM      4  C   UNL     1     181.949 181.226 187.001  1.00  0.00    -0.000 C 
BRANCH   4   5
ATOM      5  C   UNL     1     182.151 181.059 188.514  1.00  0.00    -0.003 C 
ATOM      6  C   UNL     1     183.132 179.929 188.814  1.00  0.00     0.004 C 
ENDBRANCH   4   5
ENDBRANCH   3   4
ENDBRANCH   2   3
ENDBRANCH   1   2
BRANCH   1   7
ATOM      7  C   UNL     1     180.285 178.744 183.445  1.00  0.00     0.002 C 
BRANCH   7   8
ATOM      8  C   UNL     1     179.261 179.815 183.855  1.00  0.00     0.028 C 
BRANCH   8   9
ATOM      9  C   UNL     1     179.407 181.129 183.078  1.00  0.00     0.156 C 
BRANCH   9  10
ATOM     10  O   UNL     1     178.217 181.432 182.406  1.00  0.00    -0.396 OA
ATOM     11  H   UNL     1     178.452 182.118 181.727  1.00  0.00     0.210 HD
ENDBRANCH   9  10
ENDBRANCH   8   9
ENDBRANCH   7   8
ENDBRANCH   1   7
TORSDOF 8
ENDMDL
MODEL 2
REMARK VINA RESULT:    -3.861      4.869      6.059
REMARK INTER + INTRA:          -5.887
REMARK INTER:                  -5.686
REMARK INTRA:                  -0.201
REMARK UNBOUND:                -0.333
REMARK SMILES CCCCCCCCCO
REMARK SMILES IDX 6 1 5 2 4 3 3 4 2 5 1 6 7 7 8 8 9 9 10 10
REMARK H PARENT 10 11
REMARK Flexibility Score: inf
ROOT
ATOM      1  C   UNL     1     181.976 175.376 183.159  1.00  0.00     0.000 C 
ENDROOT
BRANCH   1   2
ATOM      2  C   UNL     1     181.288 176.729 183.402  1.00  0.00     0.000 C 
BRANCH   2   3
ATOM      3  C   UNL     1     182.294 177.877 183.595  1.00  0.00    -0.000 C 
BRANCH   3   4
ATOM      4  C   UNL     1     181.943 178.774 184.793  1.00  0.00    -0.000 C 
BRANCH   4   5
ATOM      5  C   UNL     1     180.514 178.546 185.305  1.00  0.00    -0.003 C 
ATOM      6  C   UNL     1     179.582 179.663 184.844  1.00  0.00     0.004 C 
ENDBRANCH   4   5
ENDBRANCH   3   4
ENDBRANCH   2   3
ENDBRANCH   1   2
BRANCH   1   7
ATOM      7  C   UNL     1     181.395 174.624 181.948  1.00  0.00     0.002 C 
BRANCH   7   8
ATOM      8  C   UNL     1     181.946 173.194 181.812  1.00  0.00     0.028 C 
BRANCH   8   9
ATOM      9  C   UNL     1     181.420 172.453 180.577  1.00  0.00     0.156 C 
BRANCH   9  10
ATOM     10  O   UNL     1     180.833 171.238 180.953  1.00  0.00    -0.396 OA
ATOM     11  H   UNL     1     181.296 170.954 181.784  1.00  0.00     0.210 HD
ENDBRANCH   9  10
ENDBRANCH   8   9
ENDBRANCH   7   8
ENDBRANCH   1   7
TORSDOF 8
ENDMDL
MODEL 3
REMARK VINA RESULT:    -3.853      2.732      5.124
REMARK INTER + INTRA:          -5.875
REMARK INTER:                  -5.349
REMARK INTRA:                  -0.526
REMARK UNBOUND:                -0.333
REMARK SMILES CCCCCCCCCO
REMARK SMILES IDX 6 1 5 2 4 3 3 4 2 5 1 6 7 7 8 8 9 9 10 10
REMARK H PARENT 10 11
REMARK Flexibility Score: inf
ROOT
ATOM      1  C   UNL     1     180.110 180.976 186.347  1.00  0.00     0.000 C 
ENDROOT
BRANCH   1   2
ATOM      2  C   UNL     1     179.730 179.648 185.673  1.00  0.00     0.000 C 
BRANCH   2   3
ATOM      3  C   UNL     1     179.562 179.786 184.150  1.00  0.00    -0.000 C 
BRANCH   3   4
ATOM      4  C   UNL     1     180.394 178.755 183.370  1.00  0.00    -0.000 C 
BRANCH   4   5
ATOM      5  C   UNL     1     180.920 177.620 184.261  1.00  0.00    -0.003 C 
ATOM      6  C   UNL     1     181.471 176.472 183.420  1.00  0.00     0.004 C 
ENDBRANCH   4   5
ENDBRANCH   3   4
ENDBRANCH   2   3
ENDBRANCH   1   2
BRANCH   1   7
ATOM      7  C   UNL     1     181.629 181.125 186.551  1.00  0.00     0.002 C 
BRANCH   7   8
ATOM      8  C   UNL     1     182.297 179.825 187.031  1.00  0.00     0.028 C 
BRANCH   8   9
ATOM      9  C   UNL     1     182.833 179.908 188.466  1.00  0.00     0.156 C 
BRANCH   9  10
ATOM     10  O   UNL     1     182.382 181.080 189.086  1.00  0.00    -0.396 OA
ATOM     11  H   UNL     1     181.478 181.257 188.716  1.00  0.00     0.210 HD
ENDBRANCH   9  10
ENDBRANCH   8   9
ENDBRANCH   7   8
ENDBRANCH   1   7
TORSDOF 8
ENDMDL
MODEL 4
REMARK VINA RESULT:    -3.829      2.923      4.383
REMARK INTER + INTRA:          -5.841
REMARK INTER:                  -5.630
REMARK INTRA:                  -0.211
REMARK UNBOUND:                -0.333
REMARK SMILES CCCCCCCCCO
REMARK SMILES IDX 6 1 5 2 4 3 3 4 2 5 1 6 7 7 8 8 9 9 10 10
REMARK H PARENT 10 11
REMARK Flexibility Score: inf
ROOT
ATOM      1  C   UNL     1     179.336 181.629 183.735  1.00  0.00     0.000 C 
ENDROOT
BRANCH   1   2
ATOM      2  C   UNL     1     179.269 180.094 183.704  1.00  0.00     0.000 C 
BRANCH   2   3
ATOM      3  C   UNL     1     179.618 179.461 185.062  1.00  0.00    -0.000 C 
BRANCH   3   4
ATOM      4  C   UNL     1     180.754 178.430 184.958  1.00  0.00    -0.000 C 
BRANCH   4   5
ATOM      5  C   UNL     1     180.951 177.908 183.527  1.00  0.00    -0.003 C 
ATOM      6  C   UNL     1     181.352 176.436 183.530  1.00  0.00     0.004 C 
ENDBRANCH   4   5
ENDBRANCH   3   4
ENDBRANCH   2   3
ENDBRANCH   1   2
BRANCH   1   7
ATOM      7  C   UNL     1     178.550 182.280 182.582  1.00  0.00     0.002 C 
BRANCH   7   8
ATOM      8  C   UNL     1     178.640 183.816 182.590  1.00  0.00     0.028 C 
BRANCH   8   9
ATOM      9  C   UNL     1     178.410 184.433 183.975  1.00  0.00     0.156 C 
BRANCH   9  10
ATOM     10  O   UNL     1     177.624 185.587 183.868  1.00  0.00    -0.396 OA
ATOM     11  H   UNL     1     177.508 185.752 182.895  1.00  0.00     0.210 HD
ENDBRANCH   9  10
ENDBRANCH   8   9
ENDBRANCH   7   8
ENDBRANCH   1   7
TORSDOF 8
ENDMDL
MODEL 5
REMARK VINA RESULT:    -3.789      2.503      4.212
REMARK INTER + INTRA:          -5.783
REMARK INTER:                  -5.391
REMARK INTRA:                  -0.393
REMARK UNBOUND:                -0.333
REMARK SMILES CCCCCCCCCO
REMARK SMILES IDX 6 1 5 2 4 3 3 4 2 5 1 6 7 7 8 8 9 9 10 10
REMARK H PARENT 10 11
REMARK Flexibility Score: inf
ROOT
ATOM      1  C   UNL     1     179.561 181.815 181.793  1.00  0.00     0.000 C 
ENDROOT
BRANCH   1   2
ATOM      2  C   UNL     1     180.030 180.394 182.144  1.00  0.00     0.000 C 
BRANCH   2   3
ATOM      3  C   UNL     1     179.333 179.835 183.397  1.00  0.00    -0.000 C 
BRANCH   3   4
ATOM      4  C   UNL     1     180.138 178.709 184.066  1.00  0.00    -0.000 C 
BRANCH   4   5
ATOM      5  C   UNL     1     180.528 179.040 185.514  1.00  0.00    -0.003 C 
ATOM      6  C   UNL     1     179.911 180.363 185.960  1.00  0.00     0.004 C 
ENDBRANCH   4   5
ENDBRANCH   3   4
ENDBRANCH   2   3
ENDBRANCH   1   2
BRANCH   1   7
ATOM      7  C   UNL     1     178.591 182.395 182.838  1.00  0.00     0.002 C 
BRANCH   7   8
ATOM      8  C   UNL     1     178.302 183.890 182.620  1.00  0.00     0.028 C 
BRANCH   8   9
ATOM      9  C   UNL     1     177.623 184.562 183.820  1.00  0.00     0.156 C 
BRANCH   9  10
ATOM     10  O   UNL     1     176.361 185.047 183.455  1.00  0.00    -0.396 OA
ATOM     11  H   UNL     1     176.385 186.027 183.621  1.00  0.00     0.210 HD
ENDBRANCH   9  10
ENDBRANCH   8   9
ENDBRANCH   7   8
ENDBRANCH   1   7
TORSDOF 8
ENDMDL
MODEL 6
REMARK VINA RESULT:    -3.760      3.711      5.366
REMARK INTER + INTRA:          -5.741
REMARK INTER:                  -5.275
REMARK INTRA:                  -0.466
REMARK UNBOUND:                -0.333
REMARK SMILES CCCCCCCCCO
REMARK SMILES IDX 6 1 5 2 4 3 3 4 2 5 1 6 7 7 8 8 9 9 10 10
REMARK H PARENT 10 11
REMARK Flexibility Score: inf
ROOT
ATOM      1  C   UNL     1     180.685 177.295 183.900  1.00  0.00     0.000 C 
ENDROOT
BRANCH   1   2
ATOM      2  C   UNL     1     180.978 178.416 184.910  1.00  0.00     0.000 C 
BRANCH   2   3
ATOM      3  C   UNL     1     179.836 179.442 184.999  1.00  0.00    -0.000 C 
BRANCH   3   4
ATOM      4  C   UNL     1     179.237 179.781 183.624  1.00  0.00    -0.000 C 
BRANCH   4   5
ATOM      5  C   UNL     1     180.149 180.692 182.789  1.00  0.00    -0.003 C 
ATOM      6  C   UNL     1     180.392 180.104 181.403  1.00  0.00     0.004 C 
ENDBRANCH   4   5
ENDBRANCH   3   4
ENDBRANCH   2   3
ENDBRANCH   1   2
BRANCH   1   7
ATOM      7  C   UNL     1     181.965 176.628 183.365  1.00  0.00     0.002 C 
BRANCH   7   8
ATOM      8  C   UNL     1     181.733 175.849 182.060  1.00  0.00     0.028 C 
BRANCH   8   9
ATOM      9  C   UNL     1     181.562 174.340 182.272  1.00  0.00     0.156 C 
BRANCH   9  10
ATOM     10  O   UNL     1     182.211 173.937 183.445  1.00  0.00    -0.396 OA
ATOM     11  H   UNL     1     182.084 172.953 183.506  1.00  0.00     0.210 HD
ENDBRANCH   9  10
ENDBRANCH   8   9
ENDBRANCH   7   8
ENDBRANCH   1   7
TORSDOF 8
ENDMDL
MODEL 7
REMARK VINA RESULT:    -3.741      2.083      3.620
REMARK INTER + INTRA:          -5.714
REMARK INTER:                  -4.968
REMARK INTRA:                  -0.746
REMARK UNBOUND:                -0.333
REMARK SMILES CCCCCCCCCO
REMARK SMILES IDX 6 1 5 2 4 3 3 4 2 5 1 6 7 7 8 8 9 9 10 10
REMARK H PARENT 10 11
REMARK Flexibility Score: inf
ROOT
ATOM      1  C   UNL     1     181.226 181.517 185.400  1.00  0.00     0.000 C 
ENDROOT
BRANCH   1   2
ATOM      2  C   UNL     1     179.929 180.987 186.032  1.00  0.00     0.000 C 
BRANCH   2   3
ATOM      3  C   UNL     1     179.662 179.512 185.686  1.00  0.00    -0.000 C 
BRANCH   3   4
ATOM      4  C   UNL     1     180.946 178.753 185.313  1.00  0.00    -0.000 C 
BRANCH   4   5
ATOM      5  C   UNL     1     180.780 177.890 184.054  1.00  0.00    -0.003 C 
ATOM      6  C   UNL     1     180.983 178.719 182.790  1.00  0.00     0.004 C 
ENDBRANCH   4   5
ENDBRANCH   3   4
ENDBRANCH   2   3
ENDBRANCH   1   2
BRANCH   1   7
ATOM      7  C   UNL     1     180.977 182.278 184.085  1.00  0.00     0.002 C 
BRANCH   7   8
ATOM      8  C   UNL     1     179.514 182.723 183.920  1.00  0.00     0.028 C 
BRANCH   8   9
ATOM      9  C   UNL     1     178.865 182.218 182.625  1.00  0.00     0.156 C 
BRANCH   9  10
ATOM     10  O   UNL     1     178.281 180.963 182.832  1.00  0.00    -0.396 OA
ATOM     11  H   UNL     1     178.301 180.808 183.813  1.00  0.00     0.210 HD
ENDBRANCH   9  10
ENDBRANCH   8   9
ENDBRANCH   7   8
ENDBRANCH   1   7
TORSDOF 8
ENDMDL
MODEL 8
REMARK VINA RESULT:    -3.723      2.383      4.276
REMARK INTER + INTRA:          -5.688
REMARK INTER:                  -5.407
REMARK INTRA:                  -0.282
REMARK UNBOUND:                -0.333
REMARK SMILES CCCCCCCCCO
REMARK SMILES IDX 6 1 5 2 4 3 3 4 2 5 1 6 7 7 8 8 9 9 10 10
REMARK H PARENT 10 11
REMARK Flexibility Score: inf
ROOT
ATOM      1  C   UNL     1     180.381 178.750 185.257  1.00  0.00     0.000 C 
ENDROOT
BRANCH   1   2
ATOM      2  C   UNL     1     181.838 178.901 184.791  1.00  0.00     0.000 C 
BRANCH   2   3
ATOM      3  C   UNL     1     182.254 177.809 183.792  1.00  0.00    -0.000 C 
BRANCH   3   4
ATOM      4  C   UNL     1     181.222 176.673 183.695  1.00  0.00    -0.000 C 
BRANCH   4   5
ATOM      5  C   UNL     1     181.443 175.774 182.470  1.00  0.00    -0.003 C 
ATOM      6  C   UNL     1     182.045 174.432 182.876  1.00  0.00     0.004 C 
ENDBRANCH   4   5
ENDBRANCH   3   4
ENDBRANCH   2   3
ENDBRANCH   1   2
BRANCH   1   7
ATOM      7  C   UNL     1     179.408 179.641 184.463  1.00  0.00     0.002 C 
BRANCH   7   8
ATOM      8  C   UNL     1     180.051 180.958 183.995  1.00  0.00     0.028 C 
BRANCH   8   9
ATOM      9  C   UNL     1     179.060 181.913 183.317  1.00  0.00     0.156 C 
BRANCH   9  10
ATOM     10  O   UNL     1     178.309 181.230 182.353  1.00  0.00    -0.396 OA
ATOM     11  H   UNL     1     178.945 180.986 181.631  1.00  0.00     0.210 HD
ENDBRANCH   9  10
ENDBRANCH   8   9
ENDBRANCH   7   8
ENDBRANCH   1   7
TORSDOF 8
ENDMDL
MODEL 9
REMARK VINA RESULT:    -3.677      2.073      2.971
REMARK INTER + INTRA:          -5.623
REMARK INTER:                  -4.885
REMARK INTRA:                  -0.738
REMARK UNBOUND:                -0.333
REMARK SMILES CCCCCCCCCO
REMARK SMILES IDX 6 1 5 2 4 3 3 4 2 5 1 6 7 7 8 8 9 9 10 10
REMARK H PARENT 10 11
REMARK Flexibility Score: inf
ROOT
ATOM      1  C   UNL     1     181.256 179.237 181.967  1.00  0.00     0.000 C 
ENDROOT
BRANCH   1   2
ATOM      2  C   UNL     1     180.488 178.605 183.139  1.00  0.00     0.000 C 
BRANCH   2   3
ATOM      3  C   UNL     1     181.393 178.310 184.347  1.00  0.00    -0.000 C 
BRANCH   3   4
ATOM      4  C   UNL     1     180.848 178.913 185.653  1.00  0.00    -0.000 C 
BRANCH   4   5
ATOM      5  C   UNL     1     179.609 179.792 185.428  1.00  0.00    -0.003 C 
ATOM      6  C   UNL     1     179.897 181.247 185.788  1.00  0.00     0.004 C 
ENDBRANCH   4   5
ENDBRANCH   3   4
ENDBRANCH   2   3
ENDBRANCH   1   2
BRANCH   1   7
ATOM      7  C   UNL     1     180.456 180.346 181.261  1.00  0.00     0.002 C 
BRANCH   7   8
ATOM      8  C   UNL     1     180.514 181.691 182.006  1.00  0.00     0.028 C 
BRANCH   8   9
ATOM      9  C   UNL     1     179.133 182.302 182.272  1.00  0.00     0.156 C 
BRANCH   9  10
ATOM     10  O   UNL     1     178.187 181.292 182.482  1.00  0.00    -0.396 OA
ATOM     11  H   UNL     1     178.685 180.434 182.431  1.00  0.00     0.210 HD
ENDBRANCH   9  10
ENDBRANCH   8   9
ENDBRANCH   7   8
ENDBRANCH   1   7
TORSDOF 8
ENDMDL
