MODEL 1
REMARK VINA RESULT:    -2.295      0.000      0.000
REMARK INTER + INTRA:          -5.174
REMARK INTER:                  -4.442
REMARK INTRA:                  -0.732
REMARK UNBOUND:                -0.732
REMARK SMILES CCCCCCCCCCCCCCCCCC(=O)[O-]
REMARK SMILES IDX 10 1 11 2 12 3 13 4 14 5 15 6 16 7 17 8 18 9 19 10 20 11
REMARK SMILES IDX 9 12 8 13 7 14 6 15 5 16 4 17 3 18 2 19 1 20
REMARK H PARENT
REMARK Flexibility Score: inf
ROOT
ATOM      1  C   UNL     1       4.698 -35.769  21.848  1.00  0.00     0.000 C 
ENDROOT
BRANCH   1   2
ATOM      2  C   UNL     1       6.066 -35.571  22.518  1.00  0.00     0.000 C 
BRANCH   2   3
ATOM      3  C   UNL     1       6.024 -34.549  23.665  1.00  0.00     0.000 C 
BRANCH   3   4
ATOM      4  C   UNL     1       6.124 -35.210  25.049  1.00  0.00     0.000 C 
BRANCH   4   5
ATOM      5  C   UNL     1       5.074 -36.315  25.207  1.00  0.00     0.000 C 
BRANCH   5   6
ATOM      6  C   UNL     1       5.716 -37.706  25.093  1.00  0.00     0.000 C 
BRANCH   6   7
ATOM      7  C   UNL     1       4.926 -38.649  24.170  1.00  0.00     0.006 C 
BRANCH   7   8
ATOM      8  C   UNL     1       5.777 -39.815  23.649  1.00  0.00     0.053 C 
BRANCH   8   9
ATOM      9  C   UNL     1       5.777 -39.834  22.152  1.00  0.00     0.041 C 
ATOM     10  O   UNL     1       5.455 -38.804  21.504  1.00  0.00    -0.550 OA
ATOM     11  O   UNL     1       6.092 -41.005  21.473  1.00  0.00    -0.550 OA
ENDBRANCH   8   9
ENDBRANCH   7   8
ENDBRANCH   6   7
ENDBRANCH   5   6
ENDBRANCH   4   5
ENDBRANCH   3   4
ENDBRANCH   2   3
ENDBRANCH   1   2
BRANCH   1  12
ATOM     12  C   UNL     1       4.692 -35.173  20.432  1.00  0.00     0.000 C 
BRANCH  12  13
ATOM     13  C   UNL     1       4.670 -36.251  19.336  1.00  0.00    -0.000 C 
BRANCH  13  14
ATOM     14  C   UNL     1       3.476 -37.207  19.471  1.00  0.00    -0.000 C 
BRANCH  14  15
ATOM     15  C   UNL     1       3.087 -37.793  18.109  1.00  0.00    -0.000 C 
BRANCH  15  16
ATOM     16  C   UNL     1       3.018 -36.700  17.036  1.00  0.00    -0.000 C 
BRANCH  16  17
ATOM     17  C   UNL     1       2.102 -37.125  15.878  1.00  0.00    -0.000 C 
BRANCH  17  18
ATOM     18  C   UNL     1       2.603 -36.623  14.514  1.00  0.00    -0.000 C 
BRANCH  18  19
ATOM     19  C   UNL     1       4.032 -37.092  14.200  1.00  0.00    -0.003 C 
ATOM     20  C   UNL     1       4.133 -38.614  14.239  1.00  0.00     0.004 C 
ENDBRANCH  18  19
ENDBRANCH  17  18
ENDBRANCH  16  17
ENDBRANCH  15  16
ENDBRANCH  14  15
ENDBRANCH  13  14
ENDBRANCH  12  13
ENDBRANCH   1  12
TORSDOF 16
ENDMDL
MODEL 2
REMARK VINA RESULT:    -2.293      1.807      3.150
REMARK INTER + INTRA:          -5.170
REMARK INTER:                  -4.389
REMARK INTRA:                  -0.781
REMARK UNBOUND:                -0.732
REMARK SMILES CCCCCCCCCCCCCCCCCC(=O)[O-]
REMARK SMILES IDX 10 1 11 2 12 3 13 4 14 5 15 6 16 7 17 8 18 9 19 10 20 11
REMARK SMILES IDX 9 12 8 13 7 14 6 15 5 16 4 17 3 18 2 19 1 20
REMARK H PARENT
REMARK Flexibility Score: inf
ROOT
ATOM      1  C   UNL     1       4.107 -37.901  20.054  1.00  0.00     0.000 C 
ENDROOT
BRANCH   1   2
ATOM      2  C   UNL     1       5.336 -37.097  19.604  1.00  0.00     0.000 C 
BRANCH   2   3
ATOM      3  C   UNL     1       5.305 -35.641  20.092  1.00  0.00     0.000 C 
BRANCH   3   4
ATOM      4  C   UNL     1       4.893 -35.520  21.568  1.00  0.00     0.000 C 
BRANCH   4   5
ATOM      5  C   UNL     1       6.125 -35.458  22.479  1.00  0.00     0.000 C 
BRANCH   5   6
ATOM      6  C   UNL     1       5.844 -34.607  23.727  1.00  0.00     0.000 C 
BRANCH   6   7
ATOM      7  C   UNL     1       5.921 -35.421  25.028  1.00  0.00     0.006 C 
BRANCH   7   8
ATOM      8  C   UNL     1       6.090 -36.925  24.775  1.00  0.00     0.053 C 
BRANCH   8   9
ATOM      9  C   UNL     1       4.992 -37.694  25.442  1.00  0.00     0.041 C 
ATOM     10  O   UNL     1       4.748 -38.880  25.098  1.00  0.00    -0.550 OA
ATOM     11  O   UNL     1       4.210 -37.084  26.415  1.00  0.00    -0.550 OA
ENDBRANCH   8   9
ENDBRANCH   7   8
ENDBRANCH   6   7
ENDBRANCH   5   6
ENDBRANCH   4   5
ENDBRANCH   3   4
ENDBRANCH   2   3
ENDBRANCH   1   2
BRANCH   1  12
ATOM     12  C   UNL     1       2.824 -37.073  19.892  1.00  0.00     0.000 C 
BRANCH  12  13
ATOM     13  C   UNL     1       1.561 -37.946  19.815  1.00  0.00    -0.000 C 
BRANCH  13  14
ATOM     14  C   UNL     1       0.853 -37.844  18.456  1.00  0.00    -0.000 C 
BRANCH  14  15
ATOM     15  C   UNL     1       1.865 -37.910  17.306  1.00  0.00    -0.000 C 
BRANCH  15  16
ATOM     16  C   UNL     1       1.610 -36.798  16.280  1.00  0.00    -0.000 C 
BRANCH  16  17
ATOM     17  C   UNL     1       2.929 -36.312  15.661  1.00  0.00    -0.000 C 
BRANCH  17  18
ATOM     18  C   UNL     1       3.059 -36.689  14.176  1.00  0.00    -0.000 C 
BRANCH  18  19
ATOM     19  C   UNL     1       4.352 -37.463  13.875  1.00  0.00    -0.003 C 
ATOM     20  C   UNL     1       4.303 -38.867  14.471  1.00  0.00     0.004 C 
ENDBRANCH  18  19
ENDBRANCH  17  18
ENDBRANCH  16  17
ENDBRANCH  15  16
ENDBRANCH  14  15
ENDBRANCH  13  14
ENDBRANCH  12  13
ENDBRANCH   1  12
TORSDOF 16
ENDMDL
MODEL 3
REMARK VINA RESULT:    -1.749      2.191      7.247
REMARK INTER + INTRA:          -4.117
REMARK INTER:                  -2.808
REMARK INTRA:                  -1.310
REMARK UNBOUND:                -0.732
REMARK SMILES CCCCCCCCCCCCCCCCCC(=O)[O-]
REMARK SMILES IDX 10 1 11 2 12 3 13 4 14 5 15 6 16 7 17 8 18 9 19 10 20 11
REMARK SMILES IDX 9 12 8 13 7 14 6 15 5 16 4 17 3 18 2 19 1 20
REMARK H PARENT
REMARK Flexibility Score: inf
ROOT
ATOM      1  C   UNL     1       4.607 -36.777  20.106  1.00  0.00     0.000 C 
ENDROOT
BRANCH   1   2
ATOM      2  C   UNL     1       5.837 -35.868  19.963  1.00  0.00     0.000 C 
BRANCH   2   3
ATOM      3  C   UNL     1       5.693 -34.849  18.821  1.00  0.00     0.000 C 
BRANCH   3   4
ATOM      4  C   UNL     1       4.323 -34.926  18.128  1.00  0.00     0.000 C 
BRANCH   4   5
ATOM      5  C   UNL     1       4.273 -36.097  17.139  1.00  0.00     0.000 C 
BRANCH   5   6
ATOM      6  C   UNL     1       3.104 -35.937  16.155  1.00  0.00     0.000 C 
BRANCH   6   7
ATOM      7  C   UNL     1       1.903 -36.826  16.513  1.00  0.00     0.006 C 
BRANCH   7   8
ATOM      8  C   UNL     1       2.221 -37.826  17.633  1.00  0.00     0.053 C 
BRANCH   8   9
ATOM      9  C   UNL     1       1.088 -37.896  18.608  1.00  0.00     0.041 C 
ATOM     10  O   UNL     1      -0.076 -38.163  18.211  1.00  0.00    -0.550 OA
ATOM     11  O   UNL     1       1.312 -37.623  19.953  1.00  0.00    -0.550 OA
ENDBRANCH   8   9
ENDBRANCH   7   8
ENDBRANCH   6   7
ENDBRANCH   5   6
ENDBRANCH   4   5
ENDBRANCH   3   4
ENDBRANCH   2   3
ENDBRANCH   1   2
BRANCH   1  12
ATOM     12  C   UNL     1       5.020 -38.256  20.119  1.00  0.00     0.000 C 
BRANCH  12  13
ATOM     13  C   UNL     1       5.939 -38.604  21.301  1.00  0.00    -0.000 C 
BRANCH  13  14
ATOM     14  C   UNL     1       5.364 -39.719  22.188  1.00  0.00    -0.000 C 
BRANCH  14  15
ATOM     15  C   UNL     1       5.069 -39.197  23.600  1.00  0.00    -0.000 C 
BRANCH  15  16
ATOM     16  C   UNL     1       5.942 -37.982  23.934  1.00  0.00    -0.000 C 
BRANCH  16  17
ATOM     17  C   UNL     1       5.422 -37.261  25.187  1.00  0.00    -0.000 C 
BRANCH  17  18
ATOM     18  C   UNL     1       5.706 -35.751  25.162  1.00  0.00    -0.000 C 
BRANCH  18  19
ATOM     19  C   UNL     1       6.125 -35.252  23.770  1.00  0.00    -0.003 C 
ATOM     20  C   UNL     1       5.974 -33.738  23.660  1.00  0.00     0.004 C 
ENDBRANCH  18  19
ENDBRANCH  17  18
ENDBRANCH  16  17
ENDBRANCH  15  16
ENDBRANCH  14  15
ENDBRANCH  13  14
ENDBRANCH  12  13
ENDBRANCH   1  12
TORSDOF 16
ENDMDL
MODEL 4
REMARK VINA RESULT:    -1.622      2.505      6.858
REMARK INTER + INTRA:          -3.870
REMARK INTER:                  -2.643
REMARK INTRA:                  -1.227
REMARK UNBOUND:                -0.732
REMARK SMILES CCCCCCCCCCCCCCCCCC(=O)[O-]
REMARK SMILES IDX 10 1 11 2 12 3 13 4 14 5 15 6 16 7 17 8 18 9 19 10 20 11
REMARK SMILES IDX 9 12 8 13 7 14 6 15 5 16 4 17 3 18 2 19 1 20
REMARK H PARENT
REMARK Flexibility Score: inf
ROOT
ATOM      1  C   UNL     1       5.432 -35.494  23.128  1.00  0.00     0.000 C 
ENDROOT
BRANCH   1   2
ATOM      2  C   UNL     1       5.825 -34.992  21.730  1.00  0.00     0.000 C 
BRANCH   2   3
ATOM      3  C   UNL     1       5.752 -36.094  20.661  1.00  0.00     0.000 C 
BRANCH   3   4
ATOM      4  C   UNL     1       4.693 -35.805  19.586  1.00  0.00     0.000 C 
BRANCH   4   5
ATOM      5  C   UNL     1       3.530 -36.799  19.679  1.00  0.00     0.000 C 
BRANCH   5   6
ATOM      6  C   UNL     1       3.445 -37.668  18.414  1.00  0.00     0.000 C 
BRANCH   6   7
ATOM      7  C   UNL     1       3.103 -36.852  17.158  1.00  0.00     0.006 C 
BRANCH   7   8
ATOM      8  C   UNL     1       2.613 -37.729  15.998  1.00  0.00     0.053 C 
BRANCH   8   9
ATOM      9  C   UNL     1       3.629 -37.761  14.900  1.00  0.00     0.041 C 
ATOM     10  O   UNL     1       4.049 -36.689  14.392  1.00  0.00    -0.550 OA
ATOM     11  O   UNL     1       4.081 -38.980  14.408  1.00  0.00    -0.550 OA
ENDBRANCH   8   9
ENDBRANCH   7   8
ENDBRANCH   6   7
ENDBRANCH   5   6
ENDBRANCH   4   5
ENDBRANCH   3   4
ENDBRANCH   2   3
ENDBRANCH   1   2
BRANCH   1  12
ATOM     12  C   UNL     1       6.115 -34.658  24.221  1.00  0.00     0.000 C 
BRANCH  12  13
ATOM     13  C   UNL     1       6.097 -35.348  25.594  1.00  0.00    -0.000 C 
BRANCH  13  14
ATOM     14  C   UNL     1       6.125 -36.880  25.486  1.00  0.00    -0.000 C 
BRANCH  14  15
ATOM     15  C   UNL     1       4.737 -37.473  25.757  1.00  0.00    -0.000 C 
BRANCH  15  16
ATOM     16  C   UNL     1       4.438 -38.638  24.806  1.00  0.00    -0.000 C 
BRANCH  16  17
ATOM     17  C   UNL     1       5.726 -39.150  24.144  1.00  0.00    -0.000 C 
BRANCH  17  18
ATOM     18  C   UNL     1       5.461 -39.873  22.814  1.00  0.00    -0.000 C 
BRANCH  18  19
ATOM     19  C   UNL     1       5.827 -39.015  21.592  1.00  0.00    -0.003 C 
ATOM     20  C   UNL     1       5.835 -39.851  20.316  1.00  0.00     0.004 C 
ENDBRANCH  18  19
ENDBRANCH  17  18
ENDBRANCH  16  17
ENDBRANCH  15  16
ENDBRANCH  14  15
ENDBRANCH  13  14
ENDBRANCH  12  13
ENDBRANCH   1  12
TORSDOF 16
ENDMDL
MODEL 5
REMARK VINA RESULT:    -1.591      2.588      7.261
REMARK INTER + INTRA:          -3.811
REMARK INTER:                  -2.949
REMARK INTRA:                  -0.862
REMARK UNBOUND:                -0.732
REMARK SMILES CCCCCCCCCCCCCCCCCC(=O)[O-]
REMARK SMILES IDX 10 1 11 2 12 3 13 4 14 5 15 6 16 7 17 8 18 9 19 10 20 11
REMARK SMILES IDX 9 12 8 13 7 14 6 15 5 16 4 17 3 18 2 19 1 20
REMARK H PARENT
REMARK Flexibility Score: inf
ROOT
ATOM      1  C   UNL     1       4.979 -39.867  22.854  1.00  0.00     0.000 C 
ENDROOT
BRANCH   1   2
ATOM      2  C   UNL     1       5.720 -39.491  21.562  1.00  0.00     0.000 C 
BRANCH   2   3
ATOM      3  C   UNL     1       5.267 -38.139  20.988  1.00  0.00     0.000 C 
BRANCH   3   4
ATOM      4  C   UNL     1       4.942 -38.212  19.488  1.00  0.00     0.000 C 
BRANCH   4   5
ATOM      5  C   UNL     1       3.696 -37.382  19.156  1.00  0.00     0.000 C 
BRANCH   5   6
ATOM      6  C   UNL     1       3.068 -37.838  17.830  1.00  0.00     0.000 C 
BRANCH   6   7
ATOM      7  C   UNL     1       3.104 -36.745  16.750  1.00  0.00     0.006 C 
BRANCH   7   8
ATOM      8  C   UNL     1       2.615 -37.246  15.385  1.00  0.00     0.053 C 
BRANCH   8   9
ATOM      9  C   UNL     1       3.777 -37.608  14.514  1.00  0.00     0.041 C 
ATOM     10  O   UNL     1       4.452 -36.708  13.950  1.00  0.00    -0.550 OA
ATOM     11  O   UNL     1       4.088 -38.944  14.291  1.00  0.00    -0.550 OA
ENDBRANCH   8   9
ENDBRANCH   7   8
ENDBRANCH   6   7
ENDBRANCH   5   6
ENDBRANCH   4   5
ENDBRANCH   3   4
ENDBRANCH   2   3
ENDBRANCH   1   2
BRANCH   1  12
ATOM     12  C   UNL     1       5.717 -39.319  24.085  1.00  0.00     0.000 C 
BRANCH  12  13
ATOM     13  C   UNL     1       4.764 -38.694  25.117  1.00  0.00    -0.000 C 
BRANCH  13  14
ATOM     14  C   UNL     1       5.313 -37.391  25.715  1.00  0.00    -0.000 C 
BRANCH  14  15
ATOM     15  C   UNL     1       6.125 -36.610  24.674  1.00  0.00    -0.000 C 
BRANCH  15  16
ATOM     16  C   UNL     1       5.879 -35.102  24.798  1.00  0.00    -0.000 C 
BRANCH  16  17
ATOM     17  C   UNL     1       6.089 -34.399  23.448  1.00  0.00    -0.000 C 
BRANCH  17  18
ATOM     18  C   UNL     1       6.050 -35.375  22.261  1.00  0.00    -0.000 C 
BRANCH  18  19
ATOM     19  C   UNL     1       4.968 -35.010  21.233  1.00  0.00    -0.003 C 
ATOM     20  C   UNL     1       3.668 -34.604  21.923  1.00  0.00     0.004 C 
ENDBRANCH  18  19
ENDBRANCH  17  18
ENDBRANCH  16  17
ENDBRANCH  15  16
ENDBRANCH  14  15
ENDBRANCH  13  14
ENDBRANCH  12  13
ENDBRANCH   1  12
TORSDOF 16
ENDMDL
MODEL 6
REMARK VINA RESULT:    -1.197      2.613      7.896
REMARK INTER + INTRA:          -3.049
REMARK INTER:                  -2.971
REMARK INTRA:                  -0.078
REMARK UNBOUND:                -0.732
REMARK SMILES CCCCCCCCCCCCCCCCCC(=O)[O-]
REMARK SMILES IDX 10 1 11 2 12 3 13 4 14 5 15 6 16 7 17 8 18 9 19 10 20 11
REMARK SMILES IDX 9 12 8 13 7 14 6 15 5 16 4 17 3 18 2 19 1 20
REMARK H PARENT
REMARK Flexibility Score: inf
ROOT
ATOM      1  C   UNL     1       4.671 -38.199  20.530  1.00  0.00     0.000 C 
ENDROOT
BRANCH   1   2
ATOM      2  C   UNL     1       4.931 -37.541  19.166  1.00  0.00     0.000 C 
BRANCH   2   3
ATOM      3  C   UNL     1       3.669 -37.469  18.292  1.00  0.00     0.000 C 
BRANCH   3   4
ATOM      4  C   UNL     1       2.374 -37.535  19.116  1.00  0.00     0.000 C 
BRANCH   4   5
ATOM      5  C   UNL     1       1.235 -38.156  18.299  1.00  0.00     0.000 C 
BRANCH   5   6
ATOM      6  C   UNL     1       0.931 -37.316  17.049  1.00  0.00     0.000 C 
BRANCH   6   7
ATOM      7  C   UNL     1       2.184 -36.640  16.471  1.00  0.00     0.006 C 
BRANCH   7   8
ATOM      8  C   UNL     1       2.278 -36.776  14.945  1.00  0.00     0.053 C 
BRANCH   8   9
ATOM      9  C   UNL     1       3.571 -37.421  14.556  1.00  0.00     0.041 C 
ATOM     10  O   UNL     1       4.419 -36.785  13.878  1.00  0.00    -0.550 OA
ATOM     11  O   UNL     1       3.820 -38.743  14.906  1.00  0.00    -0.550 OA
ENDBRANCH   8   9
ENDBRANCH   7   8
ENDBRANCH   6   7
ENDBRANCH   5   6
ENDBRANCH   4   5
ENDBRANCH   3   4
ENDBRANCH   2   3
ENDBRANCH   1   2
BRANCH   1  12
ATOM     12  C   UNL     1       5.341 -37.400  21.658  1.00  0.00     0.000 C 
BRANCH  12  13
ATOM     13  C   UNL     1       5.565 -35.926  21.287  1.00  0.00    -0.000 C 
BRANCH  13  14
ATOM     14  C   UNL     1       4.393 -35.026  21.706  1.00  0.00    -0.000 C 
BRANCH  14  15
ATOM     15  C   UNL     1       4.718 -34.271  23.001  1.00  0.00    -0.000 C 
BRANCH  15  16
ATOM     16  C   UNL     1       6.125 -34.616  23.503  1.00  0.00    -0.000 C 
BRANCH  16  17
ATOM     17  C   UNL     1       6.080 -35.126  24.952  1.00  0.00    -0.000 C 
BRANCH  17  18
ATOM     18  C   UNL     1       5.862 -36.645  25.037  1.00  0.00    -0.000 C 
BRANCH  18  19
ATOM     19  C   UNL     1       4.634 -37.019  25.881  1.00  0.00    -0.003 C 
ATOM     20  C   UNL     1       4.567 -38.525  26.117  1.00  0.00     0.004 C 
ENDBRANCH  18  19
ENDBRANCH  17  18
ENDBRANCH  16  17
ENDBRANCH  15  16
ENDBRANCH  14  15
ENDBRANCH  13  14
ENDBRANCH  12  13
ENDBRANCH   1  12
TORSDOF 16
ENDMDL
MODEL 7
REMARK VINA RESULT:    -1.159      2.090      7.022
REMARK INTER + INTRA:          -2.975
REMARK INTER:                  -1.475
REMARK INTRA:                  -1.500
REMARK UNBOUND:                -0.732
REMARK SMILES CCCCCCCCCCCCCCCCCC(=O)[O-]
REMARK SMILES IDX 10 1 11 2 12 3 13 4 14 5 15 6 16 7 17 8 18 9 19 10 20 11
REMARK SMILES IDX 9 12 8 13 7 14 6 15 5 16 4 17 3 18 2 19 1 20
REMARK H PARENT
REMARK Flexibility Score: inf
ROOT
ATOM      1  C   UNL     1       5.453 -36.522  21.579  1.00  0.00     0.000 C 
ENDROOT
BRANCH   1   2
ATOM      2  C   UNL     1       5.518 -36.519  20.044  1.00  0.00     0.000 C 
BRANCH   2   3
ATOM      3  C   UNL     1       5.806 -35.125  19.464  1.00  0.00     0.000 C 
BRANCH   3   4
ATOM      4  C   UNL     1       4.966 -34.819  18.214  1.00  0.00     0.000 C 
BRANCH   4   5
ATOM      5  C   UNL     1       4.414 -36.108  17.595  1.00  0.00     0.000 C 
BRANCH   5   6
ATOM      6  C   UNL     1       3.320 -35.799  16.561  1.00  0.00     0.000 C 
BRANCH   6   7
ATOM      7  C   UNL     1       2.178 -36.826  16.582  1.00  0.00     0.006 C 
BRANCH   7   8
ATOM      8  C   UNL     1       2.457 -38.002  17.527  1.00  0.00     0.053 C 
BRANCH   8   9
ATOM      9  C   UNL     1       1.412 -38.074  18.596  1.00  0.00     0.041 C 
ATOM     10  O   UNL     1       1.681 -38.583  19.715  1.00  0.00    -0.550 OA
ATOM     11  O   UNL     1       0.125 -37.615  18.340  1.00  0.00    -0.550 OA
ENDBRANCH   8   9
ENDBRANCH   7   8
ENDBRANCH   6   7
ENDBRANCH   5   6
ENDBRANCH   4   5
ENDBRANCH   3   4
ENDBRANCH   2   3
ENDBRANCH   1   2
BRANCH   1  12
ATOM     12  C   UNL     1       5.984 -35.198  22.151  1.00  0.00     0.000 C 
BRANCH  12  13
ATOM     13  C   UNL     1       5.295 -34.803  23.467  1.00  0.00    -0.000 C 
BRANCH  13  14
ATOM     14  C   UNL     1       6.123 -35.180  24.704  1.00  0.00    -0.000 C 
BRANCH  14  15
ATOM     15  C   UNL     1       6.069 -36.692  24.959  1.00  0.00    -0.000 C 
BRANCH  15  16
ATOM     16  C   UNL     1       4.627 -37.166  25.175  1.00  0.00    -0.000 C 
BRANCH  16  17
ATOM     17  C   UNL     1       4.547 -38.700  25.166  1.00  0.00    -0.000 C 
BRANCH  17  18
ATOM     18  C   UNL     1       5.569 -39.339  24.213  1.00  0.00    -0.000 C 
BRANCH  18  19
ATOM     19  C   UNL     1       4.907 -40.004  22.996  1.00  0.00    -0.003 C 
ATOM     20  C   UNL     1       5.794 -39.896  21.759  1.00  0.00     0.004 C 
ENDBRANCH  18  19
ENDBRANCH  17  18
ENDBRANCH  16  17
ENDBRANCH  15  16
ENDBRANCH  14  15
ENDBRANCH  13  14
ENDBRANCH  12  13
ENDBRANCH   1  12
TORSDOF 16
ENDMDL
MODEL 8
REMARK VINA RESULT:    -1.146      2.690      6.486
REMARK INTER + INTRA:          -2.950
REMARK INTER:                  -1.582
REMARK INTRA:                  -1.368
REMARK UNBOUND:                -0.732
REMARK SMILES CCCCCCCCCCCCCCCCCC(=O)[O-]
REMARK SMILES IDX 10 1 11 2 12 3 13 4 14 5 15 6 16 7 17 8 18 9 19 10 20 11
REMARK SMILES IDX 9 12 8 13 7 14 6 15 5 16 4 17 3 18 2 19 1 20
REMARK H PARENT
REMARK Flexibility Score: inf
ROOT
ATOM      1  C   UNL     1       5.401 -34.955  23.419  1.00  0.00     0.000 C 
ENDROOT
BRANCH   1   2
ATOM      2  C   UNL     1       6.086 -35.093  22.050  1.00  0.00     0.000 C 
BRANCH   2   3
ATOM      3  C   UNL     1       5.083 -35.250  20.897  1.00  0.00     0.000 C 
BRANCH   3   4
ATOM      4  C   UNL     1       5.770 -35.379  19.528  1.00  0.00     0.000 C 
BRANCH   4   5
ATOM      5  C   UNL     1       4.968 -34.655  18.441  1.00  0.00     0.000 C 
BRANCH   5   6
ATOM      6  C   UNL     1       4.649 -35.599  17.271  1.00  0.00     0.000 C 
BRANCH   6   7
ATOM      7  C   UNL     1       3.248 -36.222  17.378  1.00  0.00     0.006 C 
BRANCH   7   8
ATOM      8  C   UNL     1       3.087 -37.469  16.497  1.00  0.00     0.053 C 
BRANCH   8   9
ATOM      9  C   UNL     1       3.085 -37.089  15.050  1.00  0.00     0.041 C 
ATOM     10  O   UNL     1       2.050 -36.606  14.521  1.00  0.00    -0.550 OA
ATOM     11  O   UNL     1       4.216 -37.310  14.273  1.00  0.00    -0.550 OA
ENDBRANCH   8   9
ENDBRANCH   7   8
ENDBRANCH   6   7
ENDBRANCH   5   6
ENDBRANCH   4   5
ENDBRANCH   3   4
ENDBRANCH   2   3
ENDBRANCH   1   2
BRANCH   1  12
ATOM     12  C   UNL     1       6.121 -35.804  24.478  1.00  0.00     0.000 C 
BRANCH  12  13
ATOM     13  C   UNL     1       5.146 -36.537  25.413  1.00  0.00    -0.000 C 
BRANCH  13  14
ATOM     14  C   UNL     1       5.014 -38.029  25.077  1.00  0.00    -0.000 C 
BRANCH  14  15
ATOM     15  C   UNL     1       5.724 -38.359  23.758  1.00  0.00    -0.000 C 
BRANCH  15  16
ATOM     16  C   UNL     1       5.307 -39.739  23.236  1.00  0.00    -0.000 C 
BRANCH  16  17
ATOM     17  C   UNL     1       5.701 -39.909  21.761  1.00  0.00    -0.000 C 
BRANCH  17  18
ATOM     18  C   UNL     1       5.586 -38.599  20.964  1.00  0.00    -0.000 C 
BRANCH  18  19
ATOM     19  C   UNL     1       4.523 -38.674  19.856  1.00  0.00    -0.003 C 
ATOM     20  C   UNL     1       3.277 -37.878  20.236  1.00  0.00     0.004 C 
ENDBRANCH  18  19
ENDBRANCH  17  18
ENDBRANCH  16  17
ENDBRANCH  15  16
ENDBRANCH  14  15
ENDBRANCH  13  14
ENDBRANCH  12  13
ENDBRANCH   1  12
TORSDOF 16
ENDMDL
