MODEL 1
REMARK VINA RESULT:    -6.645      0.000      0.000
REMARK INTER + INTRA:          -6.645
REMARK INTER:                  -6.645
REMARK INTRA:                   0.000
REMARK UNBOUND:                 0.000
REMARK SMILES C[C@@H]1C(=O)CC[C@H]2[C@]1(C)CC[C@@H]1[C@@]2(C)CC[C@@]2(C)[C@H]3CC(C)(C)CC[C@]3(C)CC[C@]12C
REMARK SMILES IDX 1 1 2 2 3 3 4 4 5 5 6 6 7 7 8 8 10 9 11 10 12 11 13 12 15 13
REMARK SMILES IDX 16 14 17 15 30 16 29 17 28 18 26 19 19 20 20 21 21 22 24 23
REMARK SMILES IDX 25 24 22 25 23 26 27 27 31 28 18 29 14 30 9 31
REMARK H PARENT
REMARK Flexibility Score: inf
ROOT
ATOM      1  C   UNL     1     143.065 133.867 137.452  1.00  0.00     0.016 C 
ATOM      2  C   UNL     1     141.703 134.569 137.266  1.00  0.00     0.059 C 
ATOM      3  C   UNL     1     141.834 135.975 136.753  1.00  0.00     0.136 C 
ATOM      4  O   UNL     1     142.922 136.520 136.640  1.00  0.00    -0.299 OA
ATOM      5  C   UNL     1     140.586 136.677 136.303  1.00  0.00     0.076 C 
ATOM      6  C   UNL     1     139.388 136.363 137.226  1.00  0.00     0.012 C 
ATOM      7  C   UNL     1     139.767 135.778 138.628  1.00  0.00     0.002 C 
ATOM      8  C   UNL     1     140.660 134.463 138.466  1.00  0.00    -0.020 C 
ATOM      9  C   UNL     1     141.279 134.071 139.831  1.00  0.00     0.008 C 
ATOM     10  C   UNL     1     142.018 135.212 140.502  1.00  0.00     0.005 C 
ATOM     11  C   UNL     1     141.044 136.332 140.933  1.00  0.00     0.002 C 
ATOM     12  C   UNL     1     140.127 136.904 139.746  1.00  0.00    -0.026 C 
ATOM     13  C   UNL     1     140.730 138.222 139.130  1.00  0.00     0.008 C 
ATOM     14  C   UNL     1     141.405 139.235 140.100  1.00  0.00     0.008 C 
ATOM     15  C   UNL     1     142.455 138.572 141.042  1.00  0.00    -0.024 C 
ATOM     16  C   UNL     1     141.686 137.451 141.894  1.00  0.00    -0.024 C 
ATOM     17  C   UNL     1     142.709 136.892 142.931  1.00  0.00     0.008 C 
ATOM     18  C   UNL     1     143.253 137.950 143.949  1.00  0.00     0.007 C 
ATOM     19  C   UNL     1     143.207 139.475 143.528  1.00  0.00    -0.029 C 
ATOM     20  C   UNL     1     143.305 139.587 141.972  1.00  0.00     0.002 C 
ATOM     21  C   UNL     1     143.377 141.061 141.498  1.00  0.00     0.011 C 
ATOM     22  C   UNL     1     144.576 141.847 142.117  1.00  0.00    -0.035 C 
ATOM     23  C   UNL     1     144.670 141.643 143.657  1.00  0.00     0.007 C 
ATOM     24  C   UNL     1     144.477 140.179 144.125  1.00  0.00     0.007 C 
ATOM     25  C   UNL     1     145.913 141.431 141.451  1.00  0.00     0.011 C 
ATOM     26  C   UNL     1     144.366 143.350 141.830  1.00  0.00     0.011 C 
ATOM     27  C   UNL     1     141.962 140.219 144.124  1.00  0.00     0.011 C 
ATOM     28  C   UNL     1     140.474 137.969 142.773  1.00  0.00     0.012 C 
ATOM     29  C   UNL     1     143.562 137.984 140.075  1.00  0.00     0.012 C 
ATOM     30  C   UNL     1     138.734 137.342 140.320  1.00  0.00     0.012 C 
ATOM     31  C   UNL     1     139.723 133.263 138.108  1.00  0.00     0.012 C 
ENDROOT
TORSDOF 0
ENDMDL
MODEL 2
REMARK VINA RESULT:    -6.639      5.285      9.056
REMARK INTER + INTRA:          -6.639
REMARK INTER:                  -6.639
REMARK INTRA:                   0.000
REMARK UNBOUND:                 0.000
REMARK SMILES C[C@@H]1C(=O)CC[C@H]2[C@]1(C)CC[C@@H]1[C@@]2(C)CC[C@@]2(C)[C@H]3CC(C)(C)CC[C@]3(C)CC[C@]12C
REMARK SMILES IDX 1 1 2 2 3 3 4 4 5 5 6 6 7 7 8 8 10 9 11 10 12 11 13 12 15 13
REMARK SMILES IDX 16 14 17 15 30 16 29 17 28 18 26 19 19 20 20 21 21 22 24 23
REMARK SMILES IDX 25 24 22 25 23 26 27 27 31 28 18 29 14 30 9 31
REMARK H PARENT
REMARK Flexibility Score: inf
ROOT
ATOM      1  C   UNL     1     138.513 147.747 137.443  1.00  0.00     0.016 C 
ATOM      2  C   UNL     1     139.878 147.052 137.258  1.00  0.00     0.059 C 
ATOM      3  C   UNL     1     139.755 145.644 136.748  1.00  0.00     0.136 C 
ATOM      4  O   UNL     1     138.670 145.093 136.634  1.00  0.00    -0.299 OA
ATOM      5  C   UNL     1     141.008 144.949 136.299  1.00  0.00     0.076 C 
ATOM      6  C   UNL     1     142.204 145.272 137.221  1.00  0.00     0.012 C 
ATOM      7  C   UNL     1     141.821 145.856 138.622  1.00  0.00     0.002 C 
ATOM      8  C   UNL     1     140.921 147.166 138.458  1.00  0.00    -0.020 C 
ATOM      9  C   UNL     1     140.299 147.556 139.822  1.00  0.00     0.008 C 
ATOM     10  C   UNL     1     139.567 146.412 140.495  1.00  0.00     0.005 C 
ATOM     11  C   UNL     1     140.547 145.298 140.928  1.00  0.00     0.002 C 
ATOM     12  C   UNL     1     141.468 144.730 139.742  1.00  0.00    -0.026 C 
ATOM     13  C   UNL     1     140.872 143.407 139.127  1.00  0.00     0.008 C 
ATOM     14  C   UNL     1     140.203 142.392 140.099  1.00  0.00     0.008 C 
ATOM     15  C   UNL     1     139.149 143.050 141.040  1.00  0.00    -0.024 C 
ATOM     16  C   UNL     1     139.911 144.177 141.891  1.00  0.00    -0.024 C 
ATOM     17  C   UNL     1     138.885 144.731 142.926  1.00  0.00     0.008 C 
ATOM     18  C   UNL     1     138.347 143.672 143.946  1.00  0.00     0.007 C 
ATOM     19  C   UNL     1     138.402 142.147 143.527  1.00  0.00    -0.029 C 
ATOM     20  C   UNL     1     138.305 142.032 141.972  1.00  0.00     0.002 C 
ATOM     21  C   UNL     1     138.242 140.556 141.500  1.00  0.00     0.011 C 
ATOM     22  C   UNL     1     137.047 139.764 142.119  1.00  0.00    -0.035 C 
ATOM     23  C   UNL     1     136.951 139.970 143.659  1.00  0.00     0.007 C 
ATOM     24  C   UNL     1     137.136 141.436 144.125  1.00  0.00     0.007 C 
ATOM     25  C   UNL     1     135.708 140.172 141.452  1.00  0.00     0.011 C 
ATOM     26  C   UNL     1     137.266 138.262 141.835  1.00  0.00     0.011 C 
ATOM     27  C   UNL     1     139.652 141.411 144.125  1.00  0.00     0.011 C 
ATOM     28  C   UNL     1     141.126 143.668 142.770  1.00  0.00     0.012 C 
ATOM     29  C   UNL     1     138.039 143.630 140.072  1.00  0.00     0.012 C 
ATOM     30  C   UNL     1     142.863 144.301 140.316  1.00  0.00     0.012 C 
ATOM     31  C   UNL     1     141.850 148.371 138.099  1.00  0.00     0.012 C 
ENDROOT
TORSDOF 0
ENDMDL
MODEL 3
REMARK VINA RESULT:    -6.626      4.160      6.430
REMARK INTER + INTRA:          -6.626
REMARK INTER:                  -6.626
REMARK INTRA:                   0.000
REMARK UNBOUND:                 0.000
REMARK SMILES C[C@@H]1C(=O)CC[C@H]2[C@]1(C)CC[C@@H]1[C@@]2(C)CC[C@@]2(C)[C@H]3CC(C)(C)CC[C@]3(C)CC[C@]12C
REMARK SMILES IDX 1 1 2 2 3 3 4 4 5 5 6 6 7 7 8 8 10 9 11 10 12 11 13 12 15 13
REMARK SMILES IDX 16 14 17 15 30 16 29 17 28 18 26 19 19 20 20 21 21 22 24 23
REMARK SMILES IDX 25 24 22 25 23 26 27 27 31 28 18 29 14 30 9 31
REMARK H PARENT
REMARK Flexibility Score: inf
ROOT
ATOM      1  C   UNL     1     133.876 138.626 137.380  1.00  0.00     0.016 C 
ATOM      2  C   UNL     1     134.594 139.980 137.202  1.00  0.00     0.059 C 
ATOM      3  C   UNL     1     136.004 139.836 136.706  1.00  0.00     0.136 C 
ATOM      4  O   UNL     1     136.540 138.743 136.598  1.00  0.00    -0.299 OA
ATOM      5  C   UNL     1     136.723 141.078 136.265  1.00  0.00     0.076 C 
ATOM      6  C   UNL     1     136.410 142.278 137.184  1.00  0.00     0.012 C 
ATOM      7  C   UNL     1     135.805 141.904 138.579  1.00  0.00     0.002 C 
ATOM      8  C   UNL     1     134.484 141.025 138.402  1.00  0.00    -0.020 C 
ATOM      9  C   UNL     1     134.071 140.409 139.762  1.00  0.00     0.008 C 
ATOM     10  C   UNL     1     135.196 139.659 140.445  1.00  0.00     0.005 C 
ATOM     11  C   UNL     1     136.321 140.621 140.890  1.00  0.00     0.002 C 
ATOM     12  C   UNL     1     136.915 141.534 139.710  1.00  0.00    -0.026 C 
ATOM     13  C   UNL     1     138.234 140.918 139.108  1.00  0.00     0.008 C 
ATOM     14  C   UNL     1     139.229 140.233 140.090  1.00  0.00     0.008 C 
ATOM     15  C   UNL     1     138.545 139.189 141.024  1.00  0.00    -0.024 C 
ATOM     16  C   UNL     1     137.423 139.968 141.863  1.00  0.00    -0.024 C 
ATOM     17  C   UNL     1     136.842 138.951 142.893  1.00  0.00     0.008 C 
ATOM     18  C   UNL     1     137.882 138.396 143.923  1.00  0.00     0.007 C 
ATOM     19  C   UNL     1     139.412 138.428 143.520  1.00  0.00    -0.029 C 
ATOM     20  C   UNL     1     139.541 138.329 141.965  1.00  0.00     0.002 C 
ATOM     21  C   UNL     1     141.020 138.244 141.508  1.00  0.00     0.011 C 
ATOM     22  C   UNL     1     141.788 137.037 142.135  1.00  0.00    -0.035 C 
ATOM     23  C   UNL     1     141.565 136.943 143.673  1.00  0.00     0.007 C 
ATOM     24  C   UNL     1     140.097 137.151 144.124  1.00  0.00     0.007 C 
ATOM     25  C   UNL     1     141.366 135.704 141.464  1.00  0.00     0.011 C 
ATOM     26  C   UNL     1     143.296 137.233 141.866  1.00  0.00     0.011 C 
ATOM     27  C   UNL     1     140.161 139.666 144.125  1.00  0.00     0.011 C 
ATOM     28  C   UNL     1     137.941 141.175 142.748  1.00  0.00     0.012 C 
ATOM     29  C   UNL     1     137.958 138.088 140.049  1.00  0.00     0.012 C 
ATOM     30  C   UNL     1     137.359 142.922 140.289  1.00  0.00     0.012 C 
ATOM     31  C   UNL     1     133.297 141.972 138.031  1.00  0.00     0.012 C 
ENDROOT
TORSDOF 0
ENDMDL
MODEL 4
REMARK VINA RESULT:    -6.618      4.149      6.402
REMARK INTER + INTRA:          -6.618
REMARK INTER:                  -6.618
REMARK INTRA:                   0.000
REMARK UNBOUND:                 0.000
REMARK SMILES C[C@@H]1C(=O)CC[C@H]2[C@]1(C)CC[C@@H]1[C@@]2(C)CC[C@@]2(C)[C@H]3CC(C)(C)CC[C@]3(C)CC[C@]12C
REMARK SMILES IDX 1 1 2 2 3 3 4 4 5 5 6 6 7 7 8 8 10 9 11 10 12 11 13 12 15 13
REMARK SMILES IDX 16 14 17 15 30 16 29 17 28 18 26 19 19 20 20 21 21 22 24 23
REMARK SMILES IDX 25 24 22 25 23 26 27 27 31 28 18 29 14 30 9 31
REMARK H PARENT
REMARK Flexibility Score: inf
ROOT
ATOM      1  C   UNL     1     147.760 143.071 137.381  1.00  0.00     0.016 C 
ATOM      2  C   UNL     1     147.055 141.711 137.201  1.00  0.00     0.059 C 
ATOM      3  C   UNL     1     145.643 141.842 136.704  1.00  0.00     0.136 C 
ATOM      4  O   UNL     1     145.097 142.930 136.598  1.00  0.00    -0.299 OA
ATOM      5  C   UNL     1     144.937 140.594 136.261  1.00  0.00     0.076 C 
ATOM      6  C   UNL     1     145.261 139.395 137.178  1.00  0.00     0.012 C 
ATOM      7  C   UNL     1     145.861 139.773 138.574  1.00  0.00     0.002 C 
ATOM      8  C   UNL     1     147.174 140.665 138.399  1.00  0.00    -0.020 C 
ATOM      9  C   UNL     1     147.581 141.283 139.760  1.00  0.00     0.008 C 
ATOM     10  C   UNL     1     146.448 142.021 140.444  1.00  0.00     0.005 C 
ATOM     11  C   UNL     1     145.332 141.047 140.887  1.00  0.00     0.002 C 
ATOM     12  C   UNL     1     144.748 140.131 139.705  1.00  0.00    -0.026 C 
ATOM     13  C   UNL     1     143.423 140.735 139.104  1.00  0.00     0.008 C 
ATOM     14  C   UNL     1     142.421 141.409 140.086  1.00  0.00     0.008 C 
ATOM     15  C   UNL     1     143.094 142.458 141.022  1.00  0.00    -0.024 C 
ATOM     16  C   UNL     1     144.224 141.688 141.861  1.00  0.00    -0.024 C 
ATOM     17  C   UNL     1     144.794 142.709 142.892  1.00  0.00     0.008 C 
ATOM     18  C   UNL     1     143.748 143.252 143.923  1.00  0.00     0.007 C 
ATOM     19  C   UNL     1     142.219 143.207 143.519  1.00  0.00    -0.029 C 
ATOM     20  C   UNL     1     142.090 143.307 141.964  1.00  0.00     0.002 C 
ATOM     21  C   UNL     1     140.610 143.379 141.506  1.00  0.00     0.011 C 
ATOM     22  C   UNL     1     139.831 144.577 142.135  1.00  0.00    -0.035 C 
ATOM     23  C   UNL     1     140.052 144.670 143.673  1.00  0.00     0.007 C 
ATOM     24  C   UNL     1     141.521 144.476 144.124  1.00  0.00     0.007 C 
ATOM     25  C   UNL     1     140.240 145.915 141.466  1.00  0.00     0.011 C 
ATOM     26  C   UNL     1     138.325 144.368 141.864  1.00  0.00     0.011 C 
ATOM     27  C   UNL     1     141.481 141.961 144.121  1.00  0.00     0.011 C 
ATOM     28  C   UNL     1     143.716 140.475 142.744  1.00  0.00     0.012 C 
ATOM     29  C   UNL     1     143.671 143.566 140.049  1.00  0.00     0.012 C 
ATOM     30  C   UNL     1     144.316 138.738 140.282  1.00  0.00     0.012 C 
ATOM     31  C   UNL     1     148.370 139.730 138.027  1.00  0.00     0.012 C 
ENDROOT
TORSDOF 0
ENDMDL
MODEL 5
REMARK VINA RESULT:    -5.967      1.943      3.358
REMARK INTER + INTRA:          -5.967
REMARK INTER:                  -5.967
REMARK INTRA:                   0.000
REMARK UNBOUND:                 0.000
REMARK SMILES C[C@@H]1C(=O)CC[C@H]2[C@]1(C)CC[C@@H]1[C@@]2(C)CC[C@@]2(C)[C@H]3CC(C)(C)CC[C@]3(C)CC[C@]12C
REMARK SMILES IDX 1 1 2 2 3 3 4 4 5 5 6 6 7 7 8 8 10 9 11 10 12 11 13 12 15 13
REMARK SMILES IDX 16 14 17 15 30 16 29 17 28 18 26 19 19 20 20 21 21 22 24 23
REMARK SMILES IDX 25 24 22 25 23 26 27 27 31 28 18 29 14 30 9 31
REMARK H PARENT
REMARK Flexibility Score: inf
ROOT
ATOM      1  C   UNL     1     141.801 137.761 135.772  1.00  0.00     0.016 C 
ATOM      2  C   UNL     1     141.288 136.800 136.864  1.00  0.00     0.059 C 
ATOM      3  C   UNL     1     140.061 137.309 137.565  1.00  0.00     0.136 C 
ATOM      4  O   UNL     1     139.623 138.432 137.363  1.00  0.00    -0.299 OA
ATOM      5  C   UNL     1     139.329 136.363 138.473  1.00  0.00     0.076 C 
ATOM      6  C   UNL     1     140.301 135.483 139.287  1.00  0.00     0.012 C 
ATOM      7  C   UNL     1     141.774 136.010 139.355  1.00  0.00     0.002 C 
ATOM      8  C   UNL     1     142.365 136.219 137.886  1.00  0.00    -0.020 C 
ATOM      9  C   UNL     1     143.690 137.019 137.956  1.00  0.00     0.008 C 
ATOM     10  C   UNL     1     143.566 138.313 138.736  1.00  0.00     0.005 C 
ATOM     11  C   UNL     1     143.310 138.039 140.236  1.00  0.00     0.002 C 
ATOM     12  C   UNL     1     142.037 137.106 140.530  1.00  0.00    -0.026 C 
ATOM     13  C   UNL     1     140.760 137.958 140.882  1.00  0.00     0.008 C 
ATOM     14  C   UNL     1     140.958 139.238 141.746  1.00  0.00     0.008 C 
ATOM     15  C   UNL     1     142.077 140.176 141.203  1.00  0.00    -0.024 C 
ATOM     16  C   UNL     1     143.440 139.329 141.189  1.00  0.00    -0.024 C 
ATOM     17  C   UNL     1     144.578 140.313 140.779  1.00  0.00     0.008 C 
ATOM     18  C   UNL     1     144.794 141.512 141.764  1.00  0.00     0.007 C 
ATOM     19  C   UNL     1     143.579 141.942 142.682  1.00  0.00    -0.029 C 
ATOM     20  C   UNL     1     142.235 141.596 141.962  1.00  0.00     0.002 C 
ATOM     21  C   UNL     1     141.002 142.092 142.761  1.00  0.00     0.011 C 
ATOM     22  C   UNL     1     141.025 143.630 143.031  1.00  0.00    -0.035 C 
ATOM     23  C   UNL     1     142.402 144.102 143.581  1.00  0.00     0.007 C 
ATOM     24  C   UNL     1     143.628 143.502 142.848  1.00  0.00     0.007 C 
ATOM     25  C   UNL     1     140.676 144.423 141.745  1.00  0.00     0.011 C 
ATOM     26  C   UNL     1     139.937 143.950 144.080  1.00  0.00     0.011 C 
ATOM     27  C   UNL     1     143.681 141.335 144.125  1.00  0.00     0.011 C 
ATOM     28  C   UNL     1     143.902 138.749 142.588  1.00  0.00     0.012 C 
ATOM     29  C   UNL     1     141.586 140.610 139.762  1.00  0.00     0.012 C 
ATOM     30  C   UNL     1     142.300 136.245 141.814  1.00  0.00     0.012 C 
ATOM     31  C   UNL     1     142.785 134.826 137.313  1.00  0.00     0.012 C 
ENDROOT
TORSDOF 0
ENDMDL
MODEL 6
REMARK VINA RESULT:    -5.958      3.191      4.691
REMARK INTER + INTRA:          -5.958
REMARK INTER:                  -5.958
REMARK INTRA:                   0.000
REMARK UNBOUND:                 0.000
REMARK SMILES C[C@@H]1C(=O)CC[C@H]2[C@]1(C)CC[C@@H]1[C@@]2(C)CC[C@@]2(C)[C@H]3CC(C)(C)CC[C@]3(C)CC[C@]12C
REMARK SMILES IDX 1 1 2 2 3 3 4 4 5 5 6 6 7 7 8 8 10 9 11 10 12 11 13 12 15 13
REMARK SMILES IDX 16 14 17 15 30 16 29 17 28 18 26 19 19 20 20 21 21 22 24 23
REMARK SMILES IDX 25 24 22 25 23 26 27 27 31 28 18 29 14 30 9 31
REMARK H PARENT
REMARK Flexibility Score: inf
ROOT
ATOM      1  C   UNL     1     137.767 139.851 135.755  1.00  0.00     0.016 C 
ATOM      2  C   UNL     1     136.804 140.362 136.847  1.00  0.00     0.059 C 
ATOM      3  C   UNL     1     137.314 141.586 137.554  1.00  0.00     0.136 C 
ATOM      4  O   UNL     1     138.438 142.022 137.355  1.00  0.00    -0.299 OA
ATOM      5  C   UNL     1     136.368 142.316 138.462  1.00  0.00     0.076 C 
ATOM      6  C   UNL     1     135.484 141.343 139.271  1.00  0.00     0.012 C 
ATOM      7  C   UNL     1     136.008 139.869 139.335  1.00  0.00     0.002 C 
ATOM      8  C   UNL     1     136.219 139.282 137.864  1.00  0.00    -0.020 C 
ATOM      9  C   UNL     1     137.016 137.956 137.931  1.00  0.00     0.008 C 
ATOM     10  C   UNL     1     138.308 138.074 138.714  1.00  0.00     0.005 C 
ATOM     11  C   UNL     1     138.032 138.326 140.214  1.00  0.00     0.002 C 
ATOM     12  C   UNL     1     137.101 139.599 140.510  1.00  0.00    -0.026 C 
ATOM     13  C   UNL     1     137.955 140.873 140.869  1.00  0.00     0.008 C 
ATOM     14  C   UNL     1     139.232 140.670 141.735  1.00  0.00     0.008 C 
ATOM     15  C   UNL     1     140.169 139.550 141.190  1.00  0.00    -0.024 C 
ATOM     16  C   UNL     1     139.320 138.190 141.169  1.00  0.00    -0.024 C 
ATOM     17  C   UNL     1     140.302 137.051 140.758  1.00  0.00     0.008 C 
ATOM     18  C   UNL     1     141.498 136.830 141.744  1.00  0.00     0.007 C 
ATOM     19  C   UNL     1     141.929 138.040 142.668  1.00  0.00    -0.029 C 
ATOM     20  C   UNL     1     141.587 139.387 141.952  1.00  0.00     0.002 C 
ATOM     21  C   UNL     1     142.084 140.616 142.756  1.00  0.00     0.011 C 
ATOM     22  C   UNL     1     143.621 140.590 143.029  1.00  0.00    -0.035 C 
ATOM     23  C   UNL     1     144.090 139.210 143.576  1.00  0.00     0.007 C 
ATOM     24  C   UNL     1     143.489 137.988 142.837  1.00  0.00     0.007 C 
ATOM     25  C   UNL     1     144.418 140.942 141.746  1.00  0.00     0.011 C 
ATOM     26  C   UNL     1     143.941 141.673 144.083  1.00  0.00     0.011 C 
ATOM     27  C   UNL     1     141.319 137.935 144.109  1.00  0.00     0.011 C 
ATOM     28  C   UNL     1     138.736 137.724 142.566  1.00  0.00     0.012 C 
ATOM     29  C   UNL     1     140.607 140.046 139.752  1.00  0.00     0.012 C 
ATOM     30  C   UNL     1     136.236 139.333 141.792  1.00  0.00     0.012 C 
ATOM     31  C   UNL     1     134.826 138.867 137.286  1.00  0.00     0.012 C 
ENDROOT
TORSDOF 0
ENDMDL
MODEL 7
REMARK VINA RESULT:    -5.944      1.882      7.257
REMARK INTER + INTRA:          -5.944
REMARK INTER:                  -5.944
REMARK INTRA:                   0.000
REMARK UNBOUND:                 0.000
REMARK SMILES C[C@@H]1C(=O)CC[C@H]2[C@]1(C)CC[C@@H]1[C@@]2(C)CC[C@@]2(C)[C@H]3CC(C)(C)CC[C@]3(C)CC[C@]12C
REMARK SMILES IDX 1 1 2 2 3 3 4 4 5 5 6 6 7 7 8 8 10 9 11 10 12 11 13 12 15 13
REMARK SMILES IDX 16 14 17 15 30 16 29 17 28 18 26 19 19 20 20 21 21 22 24 23
REMARK SMILES IDX 25 24 22 25 23 26 27 27 31 28 18 29 14 30 9 31
REMARK H PARENT
REMARK Flexibility Score: inf
ROOT
ATOM      1  C   UNL     1     142.058 143.994 140.862  1.00  0.00     0.016 C 
ATOM      2  C   UNL     1     143.168 143.273 141.656  1.00  0.00     0.059 C 
ATOM      3  C   UNL     1     144.239 142.695 140.776  1.00  0.00     0.136 C 
ATOM      4  O   UNL     1     144.139 142.693 139.557  1.00  0.00    -0.299 OA
ATOM      5  C   UNL     1     145.488 142.184 141.434  1.00  0.00     0.076 C 
ATOM      6  C   UNL     1     145.180 141.450 142.756  1.00  0.00     0.012 C 
ATOM      7  C   UNL     1     143.690 141.001 142.933  1.00  0.00     0.002 C 
ATOM      8  C   UNL     1     142.705 142.250 142.788  1.00  0.00    -0.020 C 
ATOM      9  C   UNL     1     141.241 141.759 142.658  1.00  0.00     0.008 C 
ATOM     10  C   UNL     1     141.053 140.723 141.568  1.00  0.00     0.005 C 
ATOM     11  C   UNL     1     141.775 139.403 141.920  1.00  0.00     0.002 C 
ATOM     12  C   UNL     1     143.338 139.570 142.244  1.00  0.00    -0.026 C 
ATOM     13  C   UNL     1     144.230 139.250 140.985  1.00  0.00     0.008 C 
ATOM     14  C   UNL     1     143.784 138.081 140.059  1.00  0.00     0.008 C 
ATOM     15  C   UNL     1     142.289 138.178 139.628  1.00  0.00    -0.024 C 
ATOM     16  C   UNL     1     141.408 138.159 140.968  1.00  0.00    -0.024 C 
ATOM     17  C   UNL     1     139.914 138.113 140.524  1.00  0.00     0.008 C 
ATOM     18  C   UNL     1     139.515 136.846 139.695  1.00  0.00     0.007 C 
ATOM     19  C   UNL     1     140.662 136.077 138.922  1.00  0.00    -0.029 C 
ATOM     20  C   UNL     1     141.798 137.083 138.544  1.00  0.00     0.002 C 
ATOM     21  C   UNL     1     142.904 136.416 137.686  1.00  0.00     0.011 C 
ATOM     22  C   UNL     1     142.359 135.782 136.367  1.00  0.00    -0.035 C 
ATOM     23  C   UNL     1     141.101 134.902 136.622  1.00  0.00     0.007 C 
ATOM     24  C   UNL     1     140.058 135.533 137.579  1.00  0.00     0.007 C 
ATOM     25  C   UNL     1     142.028 136.879 135.322  1.00  0.00     0.011 C 
ATOM     26  C   UNL     1     143.470 134.893 135.766  1.00  0.00     0.011 C 
ATOM     27  C   UNL     1     141.181 134.829 139.716  1.00  0.00     0.011 C 
ATOM     28  C   UNL     1     141.587 136.883 141.889  1.00  0.00     0.012 C 
ATOM     29  C   UNL     1     142.182 139.534 138.818  1.00  0.00     0.012 C 
ATOM     30  C   UNL     1     143.772 138.506 143.312  1.00  0.00     0.012 C 
ATOM     31  C   UNL     1     142.723 143.061 144.125  1.00  0.00     0.012 C 
ENDROOT
TORSDOF 0
ENDMDL
MODEL 8
REMARK VINA RESULT:    -5.942      4.601      7.746
REMARK INTER + INTRA:          -5.942
REMARK INTER:                  -5.942
REMARK INTRA:                   0.000
REMARK UNBOUND:                 0.000
REMARK SMILES C[C@@H]1C(=O)CC[C@H]2[C@]1(C)CC[C@@H]1[C@@]2(C)CC[C@@]2(C)[C@H]3CC(C)(C)CC[C@]3(C)CC[C@]12C
REMARK SMILES IDX 1 1 2 2 3 3 4 4 5 5 6 6 7 7 8 8 10 9 11 10 12 11 13 12 15 13
REMARK SMILES IDX 16 14 17 15 30 16 29 17 28 18 26 19 19 20 20 21 21 22 24 23
REMARK SMILES IDX 25 24 22 25 23 26 27 27 31 28 18 29 14 30 9 31
REMARK H PARENT
REMARK Flexibility Score: inf
ROOT
ATOM      1  C   UNL     1     139.870 143.851 135.757  1.00  0.00     0.016 C 
ATOM      2  C   UNL     1     140.379 144.813 136.851  1.00  0.00     0.059 C 
ATOM      3  C   UNL     1     141.603 144.302 137.557  1.00  0.00     0.136 C 
ATOM      4  O   UNL     1     142.040 143.178 137.357  1.00  0.00    -0.299 OA
ATOM      5  C   UNL     1     142.333 145.247 138.467  1.00  0.00     0.076 C 
ATOM      6  C   UNL     1     141.359 146.130 139.277  1.00  0.00     0.012 C 
ATOM      7  C   UNL     1     139.885 145.605 139.339  1.00  0.00     0.002 C 
ATOM      8  C   UNL     1     139.299 145.396 137.868  1.00  0.00    -0.020 C 
ATOM      9  C   UNL     1     137.973 144.598 137.933  1.00  0.00     0.008 C 
ATOM     10  C   UNL     1     138.091 143.305 138.714  1.00  0.00     0.005 C 
ATOM     11  C   UNL     1     138.342 143.579 140.215  1.00  0.00     0.002 C 
ATOM     12  C   UNL     1     139.615 144.510 140.513  1.00  0.00    -0.026 C 
ATOM     13  C   UNL     1     140.889 143.656 140.871  1.00  0.00     0.008 C 
ATOM     14  C   UNL     1     140.686 142.377 141.735  1.00  0.00     0.008 C 
ATOM     15  C   UNL     1     139.567 141.440 141.188  1.00  0.00    -0.024 C 
ATOM     16  C   UNL     1     138.206 142.290 141.168  1.00  0.00    -0.024 C 
ATOM     17  C   UNL     1     137.068 141.307 140.754  1.00  0.00     0.008 C 
ATOM     18  C   UNL     1     136.847 140.110 141.739  1.00  0.00     0.007 C 
ATOM     19  C   UNL     1     138.057 139.678 142.663  1.00  0.00    -0.029 C 
ATOM     20  C   UNL     1     139.404 140.022 141.948  1.00  0.00     0.002 C 
ATOM     21  C   UNL     1     140.633 139.524 142.751  1.00  0.00     0.011 C 
ATOM     22  C   UNL     1     140.607 137.986 143.023  1.00  0.00    -0.035 C 
ATOM     23  C   UNL     1     139.227 137.517 143.568  1.00  0.00     0.007 C 
ATOM     24  C   UNL     1     138.005 138.118 142.830  1.00  0.00     0.007 C 
ATOM     25  C   UNL     1     140.960 137.192 141.739  1.00  0.00     0.011 C 
ATOM     26  C   UNL     1     141.690 137.665 144.076  1.00  0.00     0.011 C 
ATOM     27  C   UNL     1     137.950 140.286 144.105  1.00  0.00     0.011 C 
ATOM     28  C   UNL     1     137.740 142.871 142.565  1.00  0.00     0.012 C 
ATOM     29  C   UNL     1     140.064 141.005 139.749  1.00  0.00     0.012 C 
ATOM     30  C   UNL     1     139.348 145.373 141.795  1.00  0.00     0.012 C 
ATOM     31  C   UNL     1     138.884 146.789 137.292  1.00  0.00     0.012 C 
ENDROOT
TORSDOF 0
ENDMDL
MODEL 9
REMARK VINA RESULT:    -5.908      4.560      7.358
REMARK INTER + INTRA:          -5.908
REMARK INTER:                  -5.908
REMARK INTRA:                   0.000
REMARK UNBOUND:                 0.000
REMARK SMILES C[C@@H]1C(=O)CC[C@H]2[C@]1(C)CC[C@@H]1[C@@]2(C)CC[C@@]2(C)[C@H]3CC(C)(C)CC[C@]3(C)CC[C@]12C
REMARK SMILES IDX 1 1 2 2 3 3 4 4 5 5 6 6 7 7 8 8 10 9 11 10 12 11 13 12 15 13
REMARK SMILES IDX 16 14 17 15 30 16 29 17 28 18 26 19 19 20 20 21 21 22 24 23
REMARK SMILES IDX 25 24 22 25 23 26 27 27 31 28 18 29 14 30 9 31
REMARK H PARENT
REMARK Flexibility Score: inf
ROOT
ATOM      1  C   UNL     1     137.645 142.093 140.851  1.00  0.00     0.016 C 
ATOM      2  C   UNL     1     138.376 143.179 141.667  1.00  0.00     0.059 C 
ATOM      3  C   UNL     1     138.961 144.264 140.809  1.00  0.00     0.136 C 
ATOM      4  O   UNL     1     138.959 144.191 139.589  1.00  0.00    -0.299 OA
ATOM      5  C   UNL     1     139.483 145.494 141.493  1.00  0.00     0.076 C 
ATOM      6  C   UNL     1     140.218 145.151 142.806  1.00  0.00     0.012 C 
ATOM      7  C   UNL     1     140.655 143.655 142.950  1.00  0.00     0.002 C 
ATOM      8  C   UNL     1     139.398 142.683 142.786  1.00  0.00    -0.020 C 
ATOM      9  C   UNL     1     139.877 141.219 142.623  1.00  0.00     0.008 C 
ATOM     10  C   UNL     1     140.909 141.046 141.526  1.00  0.00     0.005 C 
ATOM     11  C   UNL     1     142.236 141.749 141.890  1.00  0.00     0.002 C 
ATOM     12  C   UNL     1     142.082 143.306 142.249  1.00  0.00    -0.026 C 
ATOM     13  C   UNL     1     142.406 144.223 141.009  1.00  0.00     0.008 C 
ATOM     14  C   UNL     1     143.569 143.788 140.070  1.00  0.00     0.008 C 
ATOM     15  C   UNL     1     143.459 142.304 139.607  1.00  0.00    -0.024 C 
ATOM     16  C   UNL     1     143.475 141.394 140.927  1.00  0.00    -0.024 C 
ATOM     17  C   UNL     1     143.507 139.909 140.451  1.00  0.00     0.008 C 
ATOM     18  C   UNL     1     144.769 139.518 139.610  1.00  0.00     0.007 C 
ATOM     19  C   UNL     1     145.545 140.676 138.860  1.00  0.00    -0.029 C 
ATOM     20  C   UNL     1     144.548 141.827 138.509  1.00  0.00     0.002 C 
ATOM     21  C   UNL     1     145.222 142.947 137.674  1.00  0.00     0.011 C 
ATOM     22  C   UNL     1     145.848 142.426 136.342  1.00  0.00    -0.035 C 
ATOM     23  C   UNL     1     146.718 141.156 136.568  1.00  0.00     0.007 C 
ATOM     24  C   UNL     1     146.081 140.097 137.502  1.00  0.00     0.007 C 
ATOM     25  C   UNL     1     144.746 142.127 135.293  1.00  0.00     0.011 C 
ATOM     26  C   UNL     1     146.744 143.543 135.763  1.00  0.00     0.011 C 
ATOM     27  C   UNL     1     146.799 141.167 139.662  1.00  0.00     0.011 C 
ATOM     28  C   UNL     1     144.754 141.542 141.848  1.00  0.00     0.012 C 
ATOM     29  C   UNL     1     142.100 142.226 138.799  1.00  0.00     0.012 C 
ATOM     30  C   UNL     1     143.152 143.708 143.323  1.00  0.00     0.012 C 
ATOM     31  C   UNL     1     138.591 142.678 144.125  1.00  0.00     0.012 C 
ENDROOT
TORSDOF 0
ENDMDL
