MODEL 1
REMARK VINA RESULT:    -4.389      0.000      0.000
REMARK INTER + INTRA:         -10.125
REMARK INTER:                  -8.237
REMARK INTRA:                  -1.888
REMARK UNBOUND:                -1.888
REMARK SMILES CCCCCCCCC=CCCCCCCCC(=O)[O-]
REMARK SMILES IDX 10 1 9 2 11 3 12 4 13 5 14 6 15 7 16 8 17 9 18 10 19 11
REMARK SMILES IDX 20 12 8 13 7 14 6 15 5 16 4 17 3 18 2 19 1 20
REMARK H PARENT
REMARK Flexibility Score: inf
ROOT
ATOM      1  C   UNL     1      97.679 -67.504   3.827  1.00  0.00    -0.031 C 
ATOM      2  C   UNL     1      98.545 -68.528   3.948  1.00  0.00    -0.031 C 
ENDROOT
BRANCH   1   3
ATOM      3  C   UNL     1      97.929 -66.094   4.309  1.00  0.00     0.027 C 
BRANCH   3   4
ATOM      4  C   UNL     1      97.262 -65.061   3.391  1.00  0.00     0.004 C 
BRANCH   4   5
ATOM      5  C   UNL     1      97.948 -64.983   2.016  1.00  0.00     0.000 C 
BRANCH   5   6
ATOM      6  C   UNL     1      99.485 -64.994   2.109  1.00  0.00     0.000 C 
BRANCH   6   7
ATOM      7  C   UNL     1     100.183 -66.026   1.206  1.00  0.00     0.000 C 
BRANCH   7   8
ATOM      8  C   UNL     1      99.196 -66.978   0.508  1.00  0.00     0.006 C 
BRANCH   8   9
ATOM      9  C   UNL     1      99.817 -68.354   0.230  1.00  0.00     0.053 C 
BRANCH   9  10
ATOM     10  C   UNL     1      98.793 -69.338  -0.250  1.00  0.00     0.041 C 
ATOM     11  O   UNL     1      98.281 -69.211  -1.394  1.00  0.00    -0.550 OA
ATOM     12  O   UNL     1      98.431 -70.413   0.551  1.00  0.00    -0.550 OA
ENDBRANCH   9  10
ENDBRANCH   8   9
ENDBRANCH   7   8
ENDBRANCH   6   7
ENDBRANCH   5   6
ENDBRANCH   4   5
ENDBRANCH   3   4
ENDBRANCH   1   3
BRANCH   2  13
ATOM     13  C   UNL     1      99.925 -68.424   4.543  1.00  0.00     0.027 C 
BRANCH  13  14
ATOM     14  C   UNL     1     100.239 -69.636   5.428  1.00  0.00     0.004 C 
BRANCH  14  15
ATOM     15  C   UNL     1     100.989 -69.211   6.694  1.00  0.00     0.000 C 
BRANCH  15  16
ATOM     16  C   UNL     1     100.924 -67.691   6.890  1.00  0.00     0.000 C 
BRANCH  16  17
ATOM     17  C   UNL     1     100.974 -67.327   8.381  1.00  0.00    -0.000 C 
BRANCH  17  18
ATOM     18  C   UNL     1     100.900 -68.561   9.294  1.00  0.00    -0.000 C 
BRANCH  18  19
ATOM     19  C   UNL     1     100.299 -68.243  10.671  1.00  0.00    -0.003 C 
ATOM     20  C   UNL     1     100.098 -66.740  10.848  1.00  0.00     0.004 C 
ENDBRANCH  18  19
ENDBRANCH  17  18
ENDBRANCH  16  17
ENDBRANCH  15  16
ENDBRANCH  14  15
ENDBRANCH  13  14
ENDBRANCH   2  13
TORSDOF 15
ENDMDL
MODEL 2
REMARK VINA RESULT:    -4.144      1.227      1.626
REMARK INTER + INTRA:          -9.666
REMARK INTER:                  -8.029
REMARK INTRA:                  -1.636
REMARK UNBOUND:                -1.888
REMARK SMILES CCCCCCCCC=CCCCCCCCC(=O)[O-]
REMARK SMILES IDX 10 1 9 2 11 3 12 4 13 5 14 6 15 7 16 8 17 9 18 10 19 11
REMARK SMILES IDX 20 12 8 13 7 14 6 15 5 16 4 17 3 18 2 19 1 20
REMARK H PARENT
REMARK Flexibility Score: inf
ROOT
ATOM      1  C   UNL     1      97.751 -67.581   3.626  1.00  0.00    -0.031 C 
ATOM      2  C   UNL     1      98.516 -68.647   3.929  1.00  0.00    -0.031 C 
ENDROOT
BRANCH   1   3
ATOM      3  C   UNL     1      98.143 -66.139   3.847  1.00  0.00     0.027 C 
BRANCH   3   4
ATOM      4  C   UNL     1      98.500 -65.446   2.526  1.00  0.00     0.004 C 
BRANCH   4   5
ATOM      5  C   UNL     1     100.001 -65.555   2.203  1.00  0.00     0.000 C 
BRANCH   5   6
ATOM      6  C   UNL     1     100.286 -66.411   0.955  1.00  0.00     0.000 C 
BRANCH   6   7
ATOM      7  C   UNL     1      99.054 -67.101   0.344  1.00  0.00     0.000 C 
BRANCH   7   8
ATOM      8  C   UNL     1      99.312 -68.574  -0.020  1.00  0.00     0.006 C 
BRANCH   8   9
ATOM      9  C   UNL     1      98.304 -69.100  -1.052  1.00  0.00     0.053 C 
BRANCH   9  10
ATOM     10  C   UNL     1      98.202 -68.194  -2.241  1.00  0.00     0.041 C 
ATOM     11  O   UNL     1      97.133 -67.569  -2.472  1.00  0.00    -0.550 OA
ATOM     12  O   UNL     1      99.300 -68.012  -3.072  1.00  0.00    -0.550 OA
ENDBRANCH   9  10
ENDBRANCH   8   9
ENDBRANCH   7   8
ENDBRANCH   6   7
ENDBRANCH   5   6
ENDBRANCH   4   5
ENDBRANCH   3   4
ENDBRANCH   1   3
BRANCH   2  13
ATOM     13  C   UNL     1      99.910 -68.574   4.496  1.00  0.00     0.027 C 
BRANCH  13  14
ATOM     14  C   UNL     1     100.077 -69.538   5.677  1.00  0.00     0.004 C 
BRANCH  14  15
ATOM     15  C   UNL     1     101.209 -69.079   6.602  1.00  0.00     0.000 C 
BRANCH  15  16
ATOM     16  C   UNL     1     101.021 -67.616   7.022  1.00  0.00     0.000 C 
BRANCH  16  17
ATOM     17  C   UNL     1     101.151 -67.461   8.544  1.00  0.00    -0.000 C 
BRANCH  17  18
ATOM     18  C   UNL     1     100.759 -68.737   9.305  1.00  0.00    -0.000 C 
BRANCH  18  19
ATOM     19  C   UNL     1     100.514 -68.482  10.800  1.00  0.00    -0.003 C 
ATOM     20  C   UNL     1     100.032 -67.054  11.041  1.00  0.00     0.004 C 
ENDBRANCH  18  19
ENDBRANCH  17  18
ENDBRANCH  16  17
ENDBRANCH  15  16
ENDBRANCH  14  15
ENDBRANCH  13  14
ENDBRANCH   2  13
TORSDOF 15
ENDMDL
MODEL 3
REMARK VINA RESULT:    -3.979      1.059      2.176
REMARK INTER + INTRA:          -9.357
REMARK INTER:                  -7.663
REMARK INTRA:                  -1.693
REMARK UNBOUND:                -1.888
REMARK SMILES CCCCCCCCC=CCCCCCCCC(=O)[O-]
REMARK SMILES IDX 10 1 9 2 11 3 12 4 13 5 14 6 15 7 16 8 17 9 18 10 19 11
REMARK SMILES IDX 20 12 8 13 7 14 6 15 5 16 4 17 3 18 2 19 1 20
REMARK H PARENT
REMARK Flexibility Score: inf
ROOT
ATOM      1  C   UNL     1      99.544 -69.200   5.202  1.00  0.00    -0.031 C 
ATOM      2  C   UNL     1     100.577 -68.771   5.952  1.00  0.00    -0.031 C 
ENDROOT
BRANCH   1   3
ATOM      3  C   UNL     1      99.144 -68.624   3.863  1.00  0.00     0.027 C 
BRANCH   3   4
ATOM      4  C   UNL     1      97.819 -67.858   3.955  1.00  0.00     0.004 C 
BRANCH   4   5
ATOM      5  C   UNL     1      98.002 -66.353   3.697  1.00  0.00     0.000 C 
BRANCH   5   6
ATOM      6  C   UNL     1      99.037 -66.054   2.596  1.00  0.00     0.000 C 
BRANCH   6   7
ATOM      7  C   UNL     1      98.498 -66.138   1.157  1.00  0.00     0.000 C 
BRANCH   7   8
ATOM      8  C   UNL     1      99.572 -66.561   0.139  1.00  0.00     0.006 C 
BRANCH   8   9
ATOM      9  C   UNL     1      99.996 -68.026   0.319  1.00  0.00     0.053 C 
BRANCH   9  10
ATOM     10  C   UNL     1      98.942 -68.972  -0.169  1.00  0.00     0.041 C 
ATOM     11  O   UNL     1      98.413 -68.803  -1.300  1.00  0.00    -0.550 OA
ATOM     12  O   UNL     1      98.570 -70.061   0.609  1.00  0.00    -0.550 OA
ENDBRANCH   9  10
ENDBRANCH   8   9
ENDBRANCH   7   8
ENDBRANCH   6   7
ENDBRANCH   5   6
ENDBRANCH   4   5
ENDBRANCH   3   4
ENDBRANCH   1   3
BRANCH   2  13
ATOM     13  C   UNL     1     101.532 -67.675   5.556  1.00  0.00     0.027 C 
BRANCH  13  14
ATOM     14  C   UNL     1     101.211 -66.369   6.293  1.00  0.00     0.004 C 
BRANCH  14  15
ATOM     15  C   UNL     1     100.941 -66.630   7.778  1.00  0.00     0.000 C 
BRANCH  15  16
ATOM     16  C   UNL     1     100.532 -65.340   8.500  1.00  0.00     0.000 C 
BRANCH  16  17
ATOM     17  C   UNL     1     100.329 -65.591  10.001  1.00  0.00    -0.000 C 
BRANCH  17  18
ATOM     18  C   UNL     1     100.138 -67.080  10.331  1.00  0.00    -0.000 C 
BRANCH  18  19
ATOM     19  C   UNL     1     101.230 -67.624  11.264  1.00  0.00    -0.003 C 
ATOM     20  C   UNL     1     101.305 -69.147  11.191  1.00  0.00     0.004 C 
ENDBRANCH  18  19
ENDBRANCH  17  18
ENDBRANCH  16  17
ENDBRANCH  15  16
ENDBRANCH  14  15
ENDBRANCH  13  14
ENDBRANCH   2  13
TORSDOF 15
ENDMDL
MODEL 4
REMARK VINA RESULT:    -3.942      3.666      7.714
REMARK INTER + INTRA:          -9.287
REMARK INTER:                  -7.029
REMARK INTRA:                  -2.258
REMARK UNBOUND:                -1.888
REMARK SMILES CCCCCCCCC=CCCCCCCCC(=O)[O-]
REMARK SMILES IDX 10 1 9 2 11 3 12 4 13 5 14 6 15 7 16 8 17 9 18 10 19 11
REMARK SMILES IDX 20 12 8 13 7 14 6 15 5 16 4 17 3 18 2 19 1 20
REMARK H PARENT
REMARK Flexibility Score: inf
ROOT
ATOM      1  C   UNL     1      97.634 -67.688   3.890  1.00  0.00    -0.031 C 
ATOM      2  C   UNL     1      97.739 -66.347   3.950  1.00  0.00    -0.031 C 
ENDROOT
BRANCH   1   3
ATOM      3  C   UNL     1      98.788 -68.641   3.681  1.00  0.00     0.027 C 
BRANCH   3   4
ATOM      4  C   UNL     1      99.430 -69.046   5.014  1.00  0.00     0.004 C 
BRANCH   4   5
ATOM      5  C   UNL     1     100.966 -69.029   4.944  1.00  0.00     0.000 C 
BRANCH   5   6
ATOM      6  C   UNL     1     101.574 -67.693   5.410  1.00  0.00     0.000 C 
BRANCH   6   7
ATOM      7  C   UNL     1     100.947 -67.103   6.685  1.00  0.00     0.000 C 
BRANCH   7   8
ATOM      8  C   UNL     1     101.690 -67.518   7.967  1.00  0.00     0.006 C 
BRANCH   8   9
ATOM      9  C   UNL     1     100.960 -68.637   8.723  1.00  0.00     0.053 C 
BRANCH   9  10
ATOM     10  C   UNL     1     100.405 -68.154  10.029  1.00  0.00     0.041 C 
ATOM     11  O   UNL     1     100.124 -66.937  10.185  1.00  0.00    -0.550 OA
ATOM     12  O   UNL     1     100.165 -69.055  11.058  1.00  0.00    -0.550 OA
ENDBRANCH   9  10
ENDBRANCH   8   9
ENDBRANCH   7   8
ENDBRANCH   6   7
ENDBRANCH   5   6
ENDBRANCH   4   5
ENDBRANCH   3   4
ENDBRANCH   1   3
BRANCH   2  13
ATOM     13  C   UNL     1      99.032 -65.580   3.865  1.00  0.00     0.027 C 
BRANCH  13  14
ATOM     14  C   UNL     1      99.405 -65.286   2.406  1.00  0.00     0.004 C 
BRANCH  14  15
ATOM     15  C   UNL     1     100.716 -65.981   2.025  1.00  0.00     0.000 C 
BRANCH  15  16
ATOM     16  C   UNL     1     100.554 -66.797   0.737  1.00  0.00     0.000 C 
BRANCH  16  17
ATOM     17  C   UNL     1      99.079 -67.143   0.488  1.00  0.00    -0.000 C 
BRANCH  17  18
ATOM     18  C   UNL     1      98.780 -67.431  -0.991  1.00  0.00    -0.000 C 
BRANCH  18  19
ATOM     19  C   UNL     1      98.636 -68.932  -1.284  1.00  0.00    -0.003 C 
ATOM     20  C   UNL     1      98.390 -69.721  -0.000  1.00  0.00     0.004 C 
ENDBRANCH  18  19
ENDBRANCH  17  18
ENDBRANCH  16  17
ENDBRANCH  15  16
ENDBRANCH  14  15
ENDBRANCH  13  14
ENDBRANCH   2  13
TORSDOF 15
ENDMDL
MODEL 5
REMARK VINA RESULT:    -3.904      1.250      2.656
REMARK INTER + INTRA:          -9.215
REMARK INTER:                  -7.277
REMARK INTRA:                  -1.938
REMARK UNBOUND:                -1.888
REMARK SMILES CCCCCCCCC=CCCCCCCCC(=O)[O-]
REMARK SMILES IDX 10 1 9 2 11 3 12 4 13 5 14 6 15 7 16 8 17 9 18 10 19 11
REMARK SMILES IDX 20 12 8 13 7 14 6 15 5 16 4 17 3 18 2 19 1 20
REMARK H PARENT
REMARK Flexibility Score: inf
ROOT
ATOM      1  C   UNL     1     100.528 -67.480   4.795  1.00  0.00    -0.031 C 
ATOM      2  C   UNL     1     101.397 -67.665   5.809  1.00  0.00    -0.031 C 
ENDROOT
BRANCH   1   3
ATOM      3  C   UNL     1      99.570 -68.525   4.272  1.00  0.00     0.027 C 
BRANCH   3   4
ATOM      4  C   UNL     1      98.153 -67.958   4.116  1.00  0.00     0.004 C 
BRANCH   4   5
ATOM      5  C   UNL     1      98.138 -66.420   4.153  1.00  0.00     0.000 C 
BRANCH   5   6
ATOM      6  C   UNL     1      97.775 -65.790   2.796  1.00  0.00     0.000 C 
BRANCH   6   7
ATOM      7  C   UNL     1      98.929 -65.057   2.089  1.00  0.00     0.000 C 
BRANCH   7   8
ATOM      8  C   UNL     1      99.802 -65.994   1.237  1.00  0.00     0.006 C 
BRANCH   8   9
ATOM      9  C   UNL     1      98.979 -67.101   0.564  1.00  0.00     0.053 C 
BRANCH   9  10
ATOM     10  C   UNL     1      99.742 -68.388   0.482  1.00  0.00     0.041 C 
ATOM     11  O   UNL     1      99.128 -69.482   0.373  1.00  0.00    -0.550 OA
ATOM     12  O   UNL     1     101.131 -68.375   0.490  1.00  0.00    -0.550 OA
ENDBRANCH   9  10
ENDBRANCH   8   9
ENDBRANCH   7   8
ENDBRANCH   6   7
ENDBRANCH   5   6
ENDBRANCH   4   5
ENDBRANCH   3   4
ENDBRANCH   1   3
BRANCH   2  13
ATOM     13  C   UNL     1     101.521 -68.930   6.616  1.00  0.00     0.027 C 
BRANCH  13  14
ATOM     14  C   UNL     1     100.565 -68.916   7.816  1.00  0.00     0.004 C 
BRANCH  14  15
ATOM     15  C   UNL     1     101.326 -68.652   9.120  1.00  0.00     0.000 C 
BRANCH  15  16
ATOM     16  C   UNL     1     100.390 -68.738  10.332  1.00  0.00     0.000 C 
BRANCH  16  17
ATOM     17  C   UNL     1     100.591 -67.536  11.267  1.00  0.00    -0.000 C 
BRANCH  17  18
ATOM     18  C   UNL     1     101.206 -66.324  10.550  1.00  0.00    -0.000 C 
BRANCH  18  19
ATOM     19  C   UNL     1     100.144 -65.396   9.942  1.00  0.00    -0.003 C 
ATOM     20  C   UNL     1     100.495 -65.026   8.504  1.00  0.00     0.004 C 
ENDBRANCH  18  19
ENDBRANCH  17  18
ENDBRANCH  16  17
ENDBRANCH  15  16
ENDBRANCH  14  15
ENDBRANCH  13  14
ENDBRANCH   2  13
TORSDOF 15
ENDMDL
MODEL 6
REMARK VINA RESULT:    -3.867      3.843      8.522
REMARK INTER + INTRA:          -9.146
REMARK INTER:                  -7.696
REMARK INTRA:                  -1.450
REMARK UNBOUND:                -1.888
REMARK SMILES CCCCCCCCC=CCCCCCCCC(=O)[O-]
REMARK SMILES IDX 10 1 9 2 11 3 12 4 13 5 14 6 15 7 16 8 17 9 18 10 19 11
REMARK SMILES IDX 20 12 8 13 7 14 6 15 5 16 4 17 3 18 2 19 1 20
REMARK H PARENT
REMARK Flexibility Score: inf
ROOT
ATOM      1  C   UNL     1      97.608 -67.585   3.771  1.00  0.00    -0.031 C 
ATOM      2  C   UNL     1      97.608 -66.369   3.191  1.00  0.00    -0.031 C 
ENDROOT
BRANCH   1   3
ATOM      3  C   UNL     1      98.730 -68.592   3.679  1.00  0.00     0.027 C 
BRANCH   3   4
ATOM      4  C   UNL     1      99.796 -68.344   4.754  1.00  0.00     0.004 C 
BRANCH   4   5
ATOM      5  C   UNL     1     100.081 -69.606   5.587  1.00  0.00     0.000 C 
BRANCH   5   6
ATOM      6  C   UNL     1     101.556 -69.723   6.014  1.00  0.00     0.000 C 
BRANCH   6   7
ATOM      7  C   UNL     1     101.968 -68.813   7.185  1.00  0.00     0.000 C 
BRANCH   7   8
ATOM      8  C   UNL     1     100.883 -68.705   8.271  1.00  0.00     0.006 C 
BRANCH   8   9
ATOM      9  C   UNL     1     101.301 -67.774   9.417  1.00  0.00     0.053 C 
BRANCH   9  10
ATOM     10  C   UNL     1     100.414 -67.934  10.614  1.00  0.00     0.041 C 
ATOM     11  O   UNL     1     100.274 -69.065  11.151  1.00  0.00    -0.550 OA
ATOM     12  O   UNL     1      99.772 -66.829  11.158  1.00  0.00    -0.550 OA
ENDBRANCH   9  10
ENDBRANCH   8   9
ENDBRANCH   7   8
ENDBRANCH   6   7
ENDBRANCH   5   6
ENDBRANCH   4   5
ENDBRANCH   3   4
ENDBRANCH   1   3
BRANCH   2  13
ATOM     13  C   UNL     1      98.750 -65.797   2.392  1.00  0.00     0.027 C 
BRANCH  13  14
ATOM     14  C   UNL     1      98.658 -66.215   0.920  1.00  0.00     0.004 C 
BRANCH  14  15
ATOM     15  C   UNL     1     100.047 -66.517   0.348  1.00  0.00     0.000 C 
BRANCH  15  16
ATOM     16  C   UNL     1     100.172 -67.994  -0.048  1.00  0.00     0.000 C 
BRANCH  16  17
ATOM     17  C   UNL     1      98.799 -68.681  -0.047  1.00  0.00    -0.000 C 
BRANCH  17  18
ATOM     18  C   UNL     1      98.367 -69.143  -1.447  1.00  0.00    -0.000 C 
BRANCH  18  19
ATOM     19  C   UNL     1      97.958 -67.975  -2.356  1.00  0.00    -0.003 C 
ATOM     20  C   UNL     1      98.936 -67.813  -3.517  1.00  0.00     0.004 C 
ENDBRANCH  18  19
ENDBRANCH  17  18
ENDBRANCH  16  17
ENDBRANCH  15  16
ENDBRANCH  14  15
ENDBRANCH  13  14
ENDBRANCH   2  13
TORSDOF 15
ENDMDL
MODEL 7
REMARK VINA RESULT:    -3.810      1.591      2.203
REMARK INTER + INTRA:          -9.039
REMARK INTER:                  -7.852
REMARK INTRA:                  -1.187
REMARK UNBOUND:                -1.888
REMARK SMILES CCCCCCCCC=CCCCCCCCC(=O)[O-]
REMARK SMILES IDX 10 1 9 2 11 3 12 4 13 5 14 6 15 7 16 8 17 9 18 10 19 11
REMARK SMILES IDX 20 12 8 13 7 14 6 15 5 16 4 17 3 18 2 19 1 20
REMARK H PARENT
REMARK Flexibility Score: inf
ROOT
ATOM      1  C   UNL     1      99.211 -68.311   4.138  1.00  0.00    -0.031 C 
ATOM      2  C   UNL     1      99.577 -69.026   5.219  1.00  0.00    -0.031 C 
ENDROOT
BRANCH   1   3
ATOM      3  C   UNL     1      99.994 -68.224   2.849  1.00  0.00     0.027 C 
BRANCH   3   4
ATOM      4  C   UNL     1      99.064 -68.196   1.629  1.00  0.00     0.004 C 
BRANCH   4   5
ATOM      5  C   UNL     1      98.956 -66.789   1.017  1.00  0.00     0.000 C 
BRANCH   5   6
ATOM      6  C   UNL     1     100.290 -66.282   0.437  1.00  0.00     0.000 C 
BRANCH   6   7
ATOM      7  C   UNL     1     100.380 -66.298  -1.099  1.00  0.00     0.000 C 
BRANCH   7   8
ATOM      8  C   UNL     1     100.494 -67.719  -1.678  1.00  0.00     0.006 C 
BRANCH   8   9
ATOM      9  C   UNL     1      99.456 -67.982  -2.778  1.00  0.00     0.053 C 
BRANCH   9  10
ATOM     10  C   UNL     1      98.126 -68.366  -2.205  1.00  0.00     0.041 C 
ATOM     11  O   UNL     1      97.110 -67.657  -2.433  1.00  0.00    -0.550 OA
ATOM     12  O   UNL     1      98.002 -69.525  -1.450  1.00  0.00    -0.550 OA
ENDBRANCH   9  10
ENDBRANCH   8   9
ENDBRANCH   7   8
ENDBRANCH   6   7
ENDBRANCH   5   6
ENDBRANCH   4   5
ENDBRANCH   3   4
ENDBRANCH   1   3
BRANCH   2  13
ATOM     13  C   UNL     1     100.805 -69.894   5.302  1.00  0.00     0.027 C 
BRANCH  13  14
ATOM     14  C   UNL     1     101.741 -69.421   6.422  1.00  0.00     0.004 C 
BRANCH  14  15
ATOM     15  C   UNL     1     101.057 -68.369   7.300  1.00  0.00     0.000 C 
BRANCH  15  16
ATOM     16  C   UNL     1     102.042 -67.769   8.311  1.00  0.00     0.000 C 
BRANCH  16  17
ATOM     17  C   UNL     1     101.976 -68.514   9.651  1.00  0.00    -0.000 C 
BRANCH  17  18
ATOM     18  C   UNL     1     100.534 -68.753  10.125  1.00  0.00    -0.000 C 
BRANCH  18  19
ATOM     19  C   UNL     1     100.137 -67.841  11.295  1.00  0.00    -0.003 C 
ATOM     20  C   UNL     1      99.997 -66.391  10.837  1.00  0.00     0.004 C 
ENDBRANCH  18  19
ENDBRANCH  17  18
ENDBRANCH  16  17
ENDBRANCH  15  16
ENDBRANCH  14  15
ENDBRANCH  13  14
ENDBRANCH   2  13
TORSDOF 15
ENDMDL
MODEL 8
REMARK VINA RESULT:    -3.761      4.152      8.314
REMARK INTER + INTRA:          -8.948
REMARK INTER:                  -6.921
REMARK INTRA:                  -2.027
REMARK UNBOUND:                -1.888
REMARK SMILES CCCCCCCCC=CCCCCCCCC(=O)[O-]
REMARK SMILES IDX 10 1 9 2 11 3 12 4 13 5 14 6 15 7 16 8 17 9 18 10 19 11
REMARK SMILES IDX 20 12 8 13 7 14 6 15 5 16 4 17 3 18 2 19 1 20
REMARK H PARENT
REMARK Flexibility Score: inf
ROOT
ATOM      1  C   UNL     1      98.674 -68.578   3.737  1.00  0.00    -0.031 C 
ATOM      2  C   UNL     1      97.926 -67.467   3.593  1.00  0.00    -0.031 C 
ENDROOT
BRANCH   1   3
ATOM      3  C   UNL     1     100.036 -68.629   4.391  1.00  0.00     0.027 C 
BRANCH   3   4
ATOM      4  C   UNL     1     100.111 -69.741   5.445  1.00  0.00     0.004 C 
BRANCH   4   5
ATOM      5  C   UNL     1     100.794 -69.266   6.739  1.00  0.00     0.000 C 
BRANCH   5   6
ATOM      6  C   UNL     1     100.839 -67.732   6.865  1.00  0.00     0.000 C 
BRANCH   6   7
ATOM      7  C   UNL     1     101.313 -67.205   8.231  1.00  0.00     0.000 C 
BRANCH   7   8
ATOM      8  C   UNL     1     101.555 -68.328   9.255  1.00  0.00     0.006 C 
BRANCH   8   9
ATOM      9  C   UNL     1     100.563 -68.268  10.426  1.00  0.00     0.053 C 
BRANCH   9  10
ATOM     10  C   UNL     1     101.231 -68.566  11.734  1.00  0.00     0.041 C 
ATOM     11  O   UNL     1     101.433 -69.759  12.084  1.00  0.00    -0.550 OA
ATOM     12  O   UNL     1     101.661 -67.527  12.548  1.00  0.00    -0.550 OA
ENDBRANCH   9  10
ENDBRANCH   8   9
ENDBRANCH   7   8
ENDBRANCH   6   7
ENDBRANCH   5   6
ENDBRANCH   4   5
ENDBRANCH   3   4
ENDBRANCH   1   3
BRANCH   2  13
ATOM     13  C   UNL     1      98.306 -66.101   4.102  1.00  0.00     0.027 C 
BRANCH  13  14
ATOM     14  C   UNL     1      98.758 -65.190   2.954  1.00  0.00     0.004 C 
BRANCH  14  15
ATOM     15  C   UNL     1     100.247 -65.384   2.653  1.00  0.00     0.000 C 
BRANCH  15  16
ATOM     16  C   UNL     1     100.460 -65.895   1.223  1.00  0.00     0.000 C 
BRANCH  16  17
ATOM     17  C   UNL     1      99.148 -65.858   0.426  1.00  0.00    -0.000 C 
BRANCH  17  18
ATOM     18  C   UNL     1      98.942 -67.115  -0.434  1.00  0.00    -0.000 C 
BRANCH  18  19
ATOM     19  C   UNL     1      99.612 -68.359   0.168  1.00  0.00    -0.003 C 
ATOM     20  C   UNL     1      98.661 -69.553   0.160  1.00  0.00     0.004 C 
ENDBRANCH  18  19
ENDBRANCH  17  18
ENDBRANCH  16  17
ENDBRANCH  15  16
ENDBRANCH  14  15
ENDBRANCH  13  14
ENDBRANCH   2  13
TORSDOF 15
ENDMDL
MODEL 9
REMARK VINA RESULT:    -3.629      2.025      3.017
REMARK INTER + INTRA:          -8.699
REMARK INTER:                  -7.212
REMARK INTRA:                  -1.486
REMARK UNBOUND:                -1.888
REMARK SMILES CCCCCCCCC=CCCCCCCCC(=O)[O-]
REMARK SMILES IDX 10 1 9 2 11 3 12 4 13 5 14 6 15 7 16 8 17 9 18 10 19 11
REMARK SMILES IDX 20 12 8 13 7 14 6 15 5 16 4 17 3 18 2 19 1 20
REMARK H PARENT
REMARK Flexibility Score: inf
ROOT
ATOM      1  C   UNL     1      98.032 -67.779   2.971  1.00  0.00    -0.031 C 
ATOM      2  C   UNL     1      98.408 -67.699   4.261  1.00  0.00    -0.031 C 
ENDROOT
BRANCH   1   3
ATOM      3  C   UNL     1      98.764 -67.144   1.811  1.00  0.00     0.027 C 
BRANCH   3   4
ATOM      4  C   UNL     1      99.739 -68.130   1.156  1.00  0.00     0.004 C 
BRANCH   4   5
ATOM      5  C   UNL     1     101.136 -67.517   0.959  1.00  0.00     0.000 C 
BRANCH   5   6
ATOM      6  C   UNL     1     101.677 -67.699  -0.471  1.00  0.00     0.000 C 
BRANCH   6   7
ATOM      7  C   UNL     1     100.776 -67.135  -1.584  1.00  0.00     0.000 C 
BRANCH   7   8
ATOM      8  C   UNL     1     100.220 -68.225  -2.516  1.00  0.00     0.006 C 
BRANCH   8   9
ATOM      9  C   UNL     1      98.687 -68.290  -2.482  1.00  0.00     0.053 C 
BRANCH   9  10
ATOM     10  C   UNL     1      98.074 -67.542  -3.627  1.00  0.00     0.041 C 
ATOM     11  O   UNL     1      96.902 -67.090  -3.533  1.00  0.00    -0.550 OA
ATOM     12  O   UNL     1      98.810 -67.313  -4.782  1.00  0.00    -0.550 OA
ENDBRANCH   9  10
ENDBRANCH   8   9
ENDBRANCH   7   8
ENDBRANCH   6   7
ENDBRANCH   5   6
ENDBRANCH   4   5
ENDBRANCH   3   4
ENDBRANCH   1   3
BRANCH   2  13
ATOM     13  C   UNL     1      99.648 -67.000   4.755  1.00  0.00     0.027 C 
BRANCH  13  14
ATOM     14  C   UNL     1     100.833 -67.972   4.840  1.00  0.00     0.004 C 
BRANCH  14  15
ATOM     15  C   UNL     1     100.354 -69.395   5.143  1.00  0.00     0.000 C 
BRANCH  15  16
ATOM     16  C   UNL     1     100.266 -69.637   6.655  1.00  0.00     0.000 C 
BRANCH  16  17
ATOM     17  C   UNL     1     101.414 -68.932   7.392  1.00  0.00    -0.000 C 
BRANCH  17  18
ATOM     18  C   UNL     1     100.922 -68.059   8.557  1.00  0.00    -0.000 C 
BRANCH  18  19
ATOM     19  C   UNL     1     101.250 -68.666   9.929  1.00  0.00    -0.003 C 
ATOM     20  C   UNL     1     100.230 -68.232  10.979  1.00  0.00     0.004 C 
ENDBRANCH  18  19
ENDBRANCH  17  18
ENDBRANCH  16  17
ENDBRANCH  15  16
ENDBRANCH  14  15
ENDBRANCH  13  14
ENDBRANCH   2  13
TORSDOF 15
ENDMDL
