MODEL 1
REMARK VINA RESULT:    -5.787      0.000      0.000
REMARK INTER + INTRA:          -7.069
REMARK INTER:                  -6.802
REMARK INTRA:                  -0.267
REMARK UNBOUND:                -0.267
REMARK SMILES O=c1cc(-c2ccc(O)c(O)c2)oc2cc(O)cc(O)c12
REMARK SMILES IDX 4 1 3 2 2 3 1 4 21 5 19 6 18 7 16 8 15 9 14 10 13 11 5 12
REMARK SMILES IDX 6 13 7 14 8 15 12 16 10 17 9 18 11 20 20 22 17 24
REMARK H PARENT 9 19 11 21 20 23 17 25
REMARK Flexibility Score: inf
ROOT
ATOM      1  C   UNL     1      -1.842   9.183 -10.493  1.00  0.00     0.138 A 
ATOM      2  C   UNL     1      -1.620   8.172  -9.547  1.00  0.00     0.100 A 
ATOM      3  C   UNL     1      -0.314   7.793  -9.236  1.00  0.00     0.197 A 
ATOM      4  O   UNL     1      -0.145   6.926  -8.340  1.00  0.00    -0.289 OA
ATOM      5  C   UNL     1       0.774   8.409  -9.900  1.00  0.00     0.107 A 
ATOM      6  C   UNL     1       2.146   8.074  -9.693  1.00  0.00     0.134 A 
ATOM      7  C   UNL     1       3.143   8.831 -10.320  1.00  0.00     0.093 A 
ATOM      8  C   UNL     1       2.817   9.870 -11.191  1.00  0.00     0.123 A 
ATOM      9  C   UNL     1       1.478  10.171 -11.443  1.00  0.00     0.094 A 
ATOM     10  C   UNL     1       0.462   9.456 -10.806  1.00  0.00     0.146 A 
ATOM     11  O   UNL     1      -0.802   9.784 -11.061  1.00  0.00    -0.456 OA
ENDROOT
BRANCH   1  12
ATOM     12  C   UNL     1      -3.211   9.625 -10.861  1.00  0.00     0.021 A 
ATOM     13  C   UNL     1      -3.963   8.859 -11.765  1.00  0.00     0.016 A 
ATOM     14  C   UNL     1      -5.254   9.249 -12.123  1.00  0.00     0.051 A 
ATOM     15  C   UNL     1      -5.829  10.403 -11.580  1.00  0.00     0.157 A 
ATOM     16  C   UNL     1      -3.793  10.778 -10.302  1.00  0.00     0.062 A 
ATOM     17  C   UNL     1      -5.090  11.175 -10.652  1.00  0.00     0.158 A 
BRANCH  15  18
ATOM     18  O   UNL     1      -7.122  10.740 -11.982  1.00  0.00    -0.504 OA
ATOM     19  H   UNL     1      -7.815  10.067 -12.280  1.00  0.00     0.293 HD
ENDBRANCH  15  18
BRANCH  17  20
ATOM     20  O   UNL     1      -5.602  12.329 -10.056  1.00  0.00    -0.504 OA
ATOM     21  H   UNL     1      -6.545  12.663 -10.191  1.00  0.00     0.293 HD
ENDBRANCH  17  20
ENDBRANCH   1  12
BRANCH   6  22
ATOM     22  O   UNL     1       2.579   7.000  -8.909  1.00  0.00    -0.507 OA
ATOM     23  H   UNL     1       2.309   6.038  -9.048  1.00  0.00     0.293 HD
ENDBRANCH   6  22
BRANCH   8  24
ATOM     24  O   UNL     1       3.836  10.592 -11.810  1.00  0.00    -0.508 OA
ATOM     25  H   UNL     1       4.594  10.128 -12.298  1.00  0.00     0.293 HD
ENDBRANCH   8  24
TORSDOF 5
ENDMDL
MODEL 2
REMARK VINA RESULT:    -5.479      2.345      7.752
REMARK INTER + INTRA:          -6.707
REMARK INTER:                  -6.400
REMARK INTRA:                  -0.306
REMARK UNBOUND:                -0.267
REMARK SMILES O=c1cc(-c2ccc(O)c(O)c2)oc2cc(O)cc(O)c12
REMARK SMILES IDX 4 1 3 2 2 3 1 4 21 5 19 6 18 7 16 8 15 9 14 10 13 11 5 12
REMARK SMILES IDX 6 13 7 14 8 15 12 16 10 17 9 18 11 20 20 22 17 24
REMARK H PARENT 9 19 11 21 20 23 17 25
REMARK Flexibility Score: inf
ROOT
ATOM      1  C   UNL     1       1.929   9.978 -11.450  1.00  0.00     0.138 A 
ATOM      2  C   UNL     1       1.081  11.025 -11.839  1.00  0.00     0.100 A 
ATOM      3  C   UNL     1      -0.296  10.904 -11.651  1.00  0.00     0.197 A 
ATOM      4  O   UNL     1      -1.024  11.884 -11.953  1.00  0.00    -0.289 OA
ATOM      5  C   UNL     1      -0.828   9.713 -11.101  1.00  0.00     0.107 A 
ATOM      6  C   UNL     1      -2.220   9.462 -10.902  1.00  0.00     0.134 A 
ATOM      7  C   UNL     1      -2.622   8.295 -10.242  1.00  0.00     0.093 A 
ATOM      8  C   UNL     1      -1.690   7.344  -9.827  1.00  0.00     0.123 A 
ATOM      9  C   UNL     1      -0.332   7.554 -10.064  1.00  0.00     0.094 A 
ATOM     10  C   UNL     1       0.104   8.725 -10.690  1.00  0.00     0.146 A 
ATOM     11  O   UNL     1       1.408   8.894 -10.885  1.00  0.00    -0.456 OA
ENDROOT
BRANCH   1  12
ATOM     12  C   UNL     1       3.402  10.055 -11.627  1.00  0.00     0.021 A 
ATOM     13  C   UNL     1       4.037  11.305 -11.588  1.00  0.00     0.016 A 
ATOM     14  C   UNL     1       5.420  11.403 -11.745  1.00  0.00     0.051 A 
ATOM     15  C   UNL     1       6.201  10.259 -11.933  1.00  0.00     0.157 A 
ATOM     16  C   UNL     1       4.187   8.900 -11.801  1.00  0.00     0.062 A 
ATOM     17  C   UNL     1       5.576   8.989 -11.957  1.00  0.00     0.158 A 
BRANCH  15  18
ATOM     18  O   UNL     1       7.578  10.426 -12.089  1.00  0.00    -0.504 OA
ATOM     19  H   UNL     1       8.267   9.758 -11.774  1.00  0.00     0.293 HD
ENDBRANCH  15  18
BRANCH  17  20
ATOM     20  O   UNL     1       6.291   7.801 -12.125  1.00  0.00    -0.504 OA
ATOM     21  H   UNL     1       5.864   6.910 -12.331  1.00  0.00     0.293 HD
ENDBRANCH  17  20
ENDBRANCH   1  12
BRANCH   6  22
ATOM     22  O   UNL     1      -3.239  10.307 -11.354  1.00  0.00    -0.507 OA
ATOM     23  H   UNL     1      -3.500  10.430 -12.320  1.00  0.00     0.293 HD
ENDBRANCH   6  22
BRANCH   8  24
ATOM     24  O   UNL     1      -2.129   6.187  -9.186  1.00  0.00    -0.508 OA
ATOM     25  H   UNL     1      -3.104   6.054  -8.942  1.00  0.00     0.293 HD
ENDBRANCH   8  24
TORSDOF 5
ENDMDL
MODEL 3
REMARK VINA RESULT:    -5.391      1.882      7.208
REMARK INTER + INTRA:          -6.604
REMARK INTER:                  -6.317
REMARK INTRA:                  -0.287
REMARK UNBOUND:                -0.267
REMARK SMILES O=c1cc(-c2ccc(O)c(O)c2)oc2cc(O)cc(O)c12
REMARK SMILES IDX 4 1 3 2 2 3 1 4 21 5 19 6 18 7 16 8 15 9 14 10 13 11 5 12
REMARK SMILES IDX 6 13 7 14 8 15 12 16 10 17 9 18 11 20 20 22 17 24
REMARK H PARENT 9 19 11 21 20 23 17 25
REMARK Flexibility Score: inf
ROOT
ATOM      1  C   UNL     1       1.664   8.998 -10.905  1.00  0.00     0.138 A 
ATOM      2  C   UNL     1       1.509   7.746 -10.294  1.00  0.00     0.100 A 
ATOM      3  C   UNL     1       0.228   7.273 -10.004  1.00  0.00     0.197 A 
ATOM      4  O   UNL     1       0.118   6.120  -9.513  1.00  0.00    -0.289 OA
ATOM      5  C   UNL     1      -0.900   8.075 -10.299  1.00  0.00     0.107 A 
ATOM      6  C   UNL     1      -2.251   7.714 -10.010  1.00  0.00     0.134 A 
ATOM      7  C   UNL     1      -3.295   8.535 -10.453  1.00  0.00     0.093 A 
ATOM      8  C   UNL     1      -3.036   9.732 -11.121  1.00  0.00     0.123 A 
ATOM      9  C   UNL     1      -1.717  10.121 -11.360  1.00  0.00     0.094 A 
ATOM     10  C   UNL     1      -0.656   9.307 -10.961  1.00  0.00     0.146 A 
ATOM     11  O   UNL     1       0.586   9.706 -11.222  1.00  0.00    -0.456 OA
ENDROOT
BRANCH   1  12
ATOM     12  C   UNL     1       3.003   9.548 -11.235  1.00  0.00     0.021 A 
ATOM     13  C   UNL     1       3.202  10.937 -11.217  1.00  0.00     0.016 A 
ATOM     14  C   UNL     1       4.453  11.478 -11.516  1.00  0.00     0.051 A 
ATOM     15  C   UNL     1       5.535  10.649 -11.830  1.00  0.00     0.157 A 
ATOM     16  C   UNL     1       4.094   8.710 -11.536  1.00  0.00     0.062 A 
ATOM     17  C   UNL     1       5.354   9.246 -11.834  1.00  0.00     0.158 A 
BRANCH  15  18
ATOM     18  O   UNL     1       6.757  11.254 -12.125  1.00  0.00    -0.504 OA
ATOM     19  H   UNL     1       7.022  12.177 -11.810  1.00  0.00     0.293 HD
ENDBRANCH  15  18
BRANCH  17  20
ATOM     20  O   UNL     1       6.389   8.354 -12.122  1.00  0.00    -0.504 OA
ATOM     21  H   UNL     1       7.248   8.297 -11.594  1.00  0.00     0.293 HD
ENDBRANCH  17  20
ENDBRANCH   1  12
BRANCH   6  22
ATOM     22  O   UNL     1      -2.617   6.582  -9.275  1.00  0.00    -0.507 OA
ATOM     23  H   UNL     1      -1.971   5.953  -8.824  1.00  0.00     0.293 HD
ENDBRANCH   6  22
BRANCH   8  24
ATOM     24  O   UNL     1      -4.099  10.533 -11.533  1.00  0.00    -0.508 OA
ATOM     25  H   UNL     1      -4.014  11.159 -12.326  1.00  0.00     0.293 HD
ENDBRANCH   8  24
TORSDOF 5
ENDMDL
MODEL 4
REMARK VINA RESULT:    -5.358     14.721     16.423
REMARK INTER + INTRA:          -6.565
REMARK INTER:                  -6.247
REMARK INTRA:                  -0.318
REMARK UNBOUND:                -0.267
REMARK SMILES O=c1cc(-c2ccc(O)c(O)c2)oc2cc(O)cc(O)c12
REMARK SMILES IDX 4 1 3 2 2 3 1 4 21 5 19 6 18 7 16 8 15 9 14 10 13 11 5 12
REMARK SMILES IDX 6 13 7 14 8 15 12 16 10 17 9 18 11 20 20 22 17 24
REMARK H PARENT 9 19 11 21 20 23 17 25
REMARK Flexibility Score: inf
ROOT
ATOM      1  C   UNL     1      -4.161  -5.236  -5.767  1.00  0.00     0.138 A 
ATOM      2  C   UNL     1      -5.509  -5.466  -6.076  1.00  0.00     0.100 A 
ATOM      3  C   UNL     1      -5.921  -5.470  -7.409  1.00  0.00     0.197 A 
ATOM      4  O   UNL     1      -7.124  -5.741  -7.658  1.00  0.00    -0.289 OA
ATOM      5  C   UNL     1      -4.982  -5.210  -8.435  1.00  0.00     0.107 A 
ATOM      6  C   UNL     1      -5.295  -5.148  -9.827  1.00  0.00     0.134 A 
ATOM      7  C   UNL     1      -4.263  -4.998 -10.760  1.00  0.00     0.093 A 
ATOM      8  C   UNL     1      -2.938  -4.849 -10.352  1.00  0.00     0.123 A 
ATOM      9  C   UNL     1      -2.627  -4.854  -8.992  1.00  0.00     0.094 A 
ATOM     10  C   UNL     1      -3.630  -5.035  -8.037  1.00  0.00     0.146 A 
ATOM     11  O   UNL     1      -3.290  -5.049  -6.752  1.00  0.00    -0.456 OA
ENDROOT
BRANCH   1  12
ATOM     12  C   UNL     1      -3.670  -5.221  -4.365  1.00  0.00     0.021 A 
ATOM     13  C   UNL     1      -4.542  -5.577  -3.325  1.00  0.00     0.016 A 
ATOM     14  C   UNL     1      -4.103  -5.577  -2.000  1.00  0.00     0.051 A 
ATOM     15  C   UNL     1      -2.785  -5.234  -1.683  1.00  0.00     0.157 A 
ATOM     16  C   UNL     1      -2.339  -4.890  -4.051  1.00  0.00     0.062 A 
ATOM     17  C   UNL     1      -1.889  -4.891  -2.724  1.00  0.00     0.158 A 
BRANCH  15  18
ATOM     18  O   UNL     1      -2.411  -5.248  -0.339  1.00  0.00    -0.504 OA
ATOM     19  H   UNL     1      -2.925  -4.783   0.395  1.00  0.00     0.293 HD
ENDBRANCH  15  18
BRANCH  17  20
ATOM     20  O   UNL     1      -0.555  -4.552  -2.488  1.00  0.00    -0.504 OA
ATOM     21  H   UNL     1       0.227  -4.974  -2.967  1.00  0.00     0.293 HD
ENDBRANCH  17  20
ENDBRANCH   1  12
BRANCH   6  22
ATOM     22  O   UNL     1      -6.596  -5.201 -10.338  1.00  0.00    -0.507 OA
ATOM     23  H   UNL     1      -7.365  -5.693  -9.908  1.00  0.00     0.293 HD
ENDBRANCH   6  22
BRANCH   8  24
ATOM     24  O   UNL     1      -1.938  -4.687 -11.309  1.00  0.00    -0.508 OA
ATOM     25  H   UNL     1      -0.957  -4.668 -11.052  1.00  0.00     0.293 HD
ENDBRANCH   8  24
TORSDOF 5
ENDMDL
MODEL 5
REMARK VINA RESULT:    -5.200      1.927      6.842
REMARK INTER + INTRA:          -6.379
REMARK INTER:                  -6.074
REMARK INTRA:                  -0.305
REMARK UNBOUND:                -0.267
REMARK SMILES O=c1cc(-c2ccc(O)c(O)c2)oc2cc(O)cc(O)c12
REMARK SMILES IDX 4 1 3 2 2 3 1 4 21 5 19 6 18 7 16 8 15 9 14 10 13 11 5 12
REMARK SMILES IDX 6 13 7 14 8 15 12 16 10 17 9 18 11 20 20 22 17 24
REMARK H PARENT 9 19 11 21 20 23 17 25
REMARK Flexibility Score: inf
ROOT
ATOM      1  C   UNL     1      -0.495   9.413 -11.235  1.00  0.00     0.138 A 
ATOM      2  C   UNL     1      -1.399   8.384 -10.931  1.00  0.00     0.100 A 
ATOM      3  C   UNL     1      -2.758   8.674 -10.807  1.00  0.00     0.197 A 
ATOM      4  O   UNL     1      -3.552   7.722 -10.595  1.00  0.00    -0.289 OA
ATOM      5  C   UNL     1      -3.208  10.008 -10.956  1.00  0.00     0.107 A 
ATOM      6  C   UNL     1      -4.565  10.428 -10.810  1.00  0.00     0.134 A 
ATOM      7  C   UNL     1      -4.911  11.755 -11.096  1.00  0.00     0.093 A 
ATOM      8  C   UNL     1      -3.943  12.689 -11.463  1.00  0.00     0.123 A 
ATOM      9  C   UNL     1      -2.605  12.301 -11.556  1.00  0.00     0.094 A 
ATOM     10  C   UNL     1      -2.234  10.978 -11.310  1.00  0.00     0.146 A 
ATOM     11  O   UNL     1      -0.951  10.646 -11.424  1.00  0.00    -0.456 OA
ENDROOT
BRANCH   1  12
ATOM     12  C   UNL     1       0.961   9.159 -11.378  1.00  0.00     0.021 A 
ATOM     13  C   UNL     1       1.400   7.921 -11.872  1.00  0.00     0.016 A 
ATOM     14  C   UNL     1       2.763   7.660 -12.022  1.00  0.00     0.051 A 
ATOM     15  C   UNL     1       3.717   8.629 -11.694  1.00  0.00     0.157 A 
ATOM     16  C   UNL     1       1.918  10.141 -11.060  1.00  0.00     0.062 A 
ATOM     17  C   UNL     1       3.288   9.888 -11.211  1.00  0.00     0.158 A 
BRANCH  15  18
ATOM     18  O   UNL     1       5.064   8.303 -11.862  1.00  0.00    -0.504 OA
ATOM     19  H   UNL     1       5.396   7.576 -12.479  1.00  0.00     0.293 HD
ENDBRANCH  15  18
BRANCH  17  20
ATOM     20  O   UNL     1       4.179  10.910 -10.877  1.00  0.00    -0.504 OA
ATOM     21  H   UNL     1       5.183  10.803 -10.870  1.00  0.00     0.293 HD
ENDBRANCH  17  20
ENDBRANCH   1  12
BRANCH   6  22
ATOM     22  O   UNL     1      -5.598   9.596 -10.367  1.00  0.00    -0.507 OA
ATOM     23  H   UNL     1      -5.872   9.480  -9.403  1.00  0.00     0.293 HD
ENDBRANCH   6  22
BRANCH   8  24
ATOM     24  O   UNL     1      -4.321  14.004 -11.725  1.00  0.00    -0.508 OA
ATOM     25  H   UNL     1      -5.298  14.272 -11.786  1.00  0.00     0.293 HD
ENDBRANCH   8  24
TORSDOF 5
ENDMDL
MODEL 6
REMARK VINA RESULT:    -5.199      2.233      4.093
REMARK INTER + INTRA:          -6.378
REMARK INTER:                  -6.067
REMARK INTRA:                  -0.312
REMARK UNBOUND:                -0.267
REMARK SMILES O=c1cc(-c2ccc(O)c(O)c2)oc2cc(O)cc(O)c12
REMARK SMILES IDX 4 1 3 2 2 3 1 4 21 5 19 6 18 7 16 8 15 9 14 10 13 11 5 12
REMARK SMILES IDX 6 13 7 14 8 15 12 16 10 17 9 18 11 20 20 22 17 24
REMARK H PARENT 9 19 11 21 20 23 17 25
REMARK Flexibility Score: inf
ROOT
ATOM      1  C   UNL     1       0.502  10.176 -11.289  1.00  0.00     0.138 A 
ATOM      2  C   UNL     1       0.778  11.551 -11.303  1.00  0.00     0.100 A 
ATOM      3  C   UNL     1       2.094  11.990 -11.453  1.00  0.00     0.197 A 
ATOM      4  O   UNL     1       2.302  13.228 -11.524  1.00  0.00    -0.289 OA
ATOM      5  C   UNL     1       3.142  11.044 -11.556  1.00  0.00     0.107 A 
ATOM      6  C   UNL     1       4.526  11.376 -11.671  1.00  0.00     0.134 A 
ATOM      7  C   UNL     1       5.464  10.358 -11.884  1.00  0.00     0.093 A 
ATOM      8  C   UNL     1       5.077   9.019 -11.927  1.00  0.00     0.123 A 
ATOM      9  C   UNL     1       3.733   8.680 -11.762  1.00  0.00     0.094 A 
ATOM     10  C   UNL     1       2.770   9.675 -11.582  1.00  0.00     0.146 A 
ATOM     11  O   UNL     1       1.498   9.311 -11.443  1.00  0.00    -0.456 OA
ENDROOT
BRANCH   1  12
ATOM     12  C   UNL     1      -0.880   9.655 -11.133  1.00  0.00     0.021 A 
ATOM     13  C   UNL     1      -1.968  10.482 -11.451  1.00  0.00     0.016 A 
ATOM     14  C   UNL     1      -3.277  10.014 -11.319  1.00  0.00     0.051 A 
ATOM     15  C   UNL     1      -3.529   8.711 -10.877  1.00  0.00     0.157 A 
ATOM     16  C   UNL     1      -1.130   8.339 -10.703  1.00  0.00     0.062 A 
ATOM     17  C   UNL     1      -2.440   7.860 -10.570  1.00  0.00     0.158 A 
BRANCH  15  18
ATOM     18  O   UNL     1      -4.860   8.307 -10.762  1.00  0.00    -0.504 OA
ATOM     19  H   UNL     1      -5.496   8.229 -11.542  1.00  0.00     0.293 HD
ENDBRANCH  15  18
BRANCH  17  20
ATOM     20  O   UNL     1      -2.612   6.543 -10.139  1.00  0.00    -0.504 OA
ATOM     21  H   UNL     1      -2.812   6.283  -9.184  1.00  0.00     0.293 HD
ENDBRANCH  17  20
ENDBRANCH   1  12
BRANCH   6  22
ATOM     22  O   UNL     1       5.031  12.675 -11.557  1.00  0.00    -0.507 OA
ATOM     23  H   UNL     1       4.970  13.382 -12.274  1.00  0.00     0.293 HD
ENDBRANCH   6  22
BRANCH   8  24
ATOM     24  O   UNL     1       6.040   8.031 -12.125  1.00  0.00    -0.508 OA
ATOM     25  H   UNL     1       6.882   8.213 -12.660  1.00  0.00     0.293 HD
ENDBRANCH   8  24
TORSDOF 5
ENDMDL
MODEL 7
REMARK VINA RESULT:    -5.167      2.135      6.655
REMARK INTER + INTRA:          -6.340
REMARK INTER:                  -6.075
REMARK INTRA:                  -0.265
REMARK UNBOUND:                -0.267
REMARK SMILES O=c1cc(-c2ccc(O)c(O)c2)oc2cc(O)cc(O)c12
REMARK SMILES IDX 4 1 3 2 2 3 1 4 21 5 19 6 18 7 16 8 15 9 14 10 13 11 5 12
REMARK SMILES IDX 6 13 7 14 8 15 12 16 10 17 9 18 11 20 20 22 17 24
REMARK H PARENT 9 19 11 21 20 23 17 25
REMARK Flexibility Score: inf
ROOT
ATOM      1  C   UNL     1       1.366   9.798 -10.260  1.00  0.00     0.138 A 
ATOM      2  C   UNL     1       1.505   8.558  -9.622  1.00  0.00     0.100 A 
ATOM      3  C   UNL     1       0.406   7.703  -9.528  1.00  0.00     0.197 A 
ATOM      4  O   UNL     1       0.576   6.572  -9.005  1.00  0.00    -0.289 OA
ATOM      5  C   UNL     1      -0.847   8.109 -10.048  1.00  0.00     0.107 A 
ATOM      6  C   UNL     1      -2.046   7.338  -9.972  1.00  0.00     0.134 A 
ATOM      7  C   UNL     1      -3.199   7.790 -10.625  1.00  0.00     0.093 A 
ATOM      8  C   UNL     1      -3.214   9.011 -11.298  1.00  0.00     0.123 A 
ATOM      9  C   UNL     1      -2.063   9.798 -11.332  1.00  0.00     0.094 A 
ATOM     10  C   UNL     1      -0.887   9.359 -10.720  1.00  0.00     0.146 A 
ATOM     11  O   UNL     1       0.193  10.132 -10.788  1.00  0.00    -0.456 OA
ENDROOT
BRANCH   1  12
ATOM     12  C   UNL     1       2.503  10.746 -10.387  1.00  0.00     0.021 A 
ATOM     13  C   UNL     1       3.399  10.607 -11.457  1.00  0.00     0.016 A 
ATOM     14  C   UNL     1       4.472  11.488 -11.603  1.00  0.00     0.051 A 
ATOM     15  C   UNL     1       4.668  12.532 -10.693  1.00  0.00     0.157 A 
ATOM     16  C   UNL     1       2.689  11.804  -9.479  1.00  0.00     0.062 A 
ATOM     17  C   UNL     1       3.761  12.695  -9.619  1.00  0.00     0.158 A 
BRANCH  15  18
ATOM     18  O   UNL     1       5.763  13.375 -10.892  1.00  0.00    -0.504 OA
ATOM     19  H   UNL     1       6.725  13.086 -10.785  1.00  0.00     0.293 HD
ENDBRANCH  15  18
BRANCH  17  20
ATOM     20  O   UNL     1       3.882  13.722  -8.680  1.00  0.00    -0.504 OA
ATOM     21  H   UNL     1       4.206  14.652  -8.900  1.00  0.00     0.293 HD
ENDBRANCH  17  20
ENDBRANCH   1  12
BRANCH   6  22
ATOM     22  O   UNL     1      -2.163   6.144  -9.254  1.00  0.00    -0.507 OA
ATOM     23  H   UNL     1      -1.395   5.653  -8.822  1.00  0.00     0.293 HD
ENDBRANCH   6  22
BRANCH   8  24
ATOM     24  O   UNL     1      -4.385   9.437 -11.923  1.00  0.00    -0.508 OA
ATOM     25  H   UNL     1      -5.105   8.780 -12.201  1.00  0.00     0.293 HD
ENDBRANCH   8  24
TORSDOF 5
ENDMDL
MODEL 8
REMARK VINA RESULT:    -5.114     16.041     17.862
REMARK INTER + INTRA:          -6.279
REMARK INTER:                  -5.984
REMARK INTRA:                  -0.295
REMARK UNBOUND:                -0.267
REMARK SMILES O=c1cc(-c2ccc(O)c(O)c2)oc2cc(O)cc(O)c12
REMARK SMILES IDX 4 1 3 2 2 3 1 4 21 5 19 6 18 7 16 8 15 9 14 10 13 11 5 12
REMARK SMILES IDX 6 13 7 14 8 15 12 16 10 17 9 18 11 20 20 22 17 24
REMARK H PARENT 9 19 11 21 20 23 17 25
REMARK Flexibility Score: inf
ROOT
ATOM      1  C   UNL     1      -1.232  11.460   5.656  1.00  0.00     0.138 A 
ATOM      2  C   UNL     1      -2.358  12.177   5.228  1.00  0.00     0.100 A 
ATOM      3  C   UNL     1      -3.609  11.560   5.228  1.00  0.00     0.197 A 
ATOM      4  O   UNL     1      -4.610  12.247   4.898  1.00  0.00    -0.289 OA
ATOM      5  C   UNL     1      -3.726  10.207   5.629  1.00  0.00     0.107 A 
ATOM      6  C   UNL     1      -4.945   9.463   5.631  1.00  0.00     0.134 A 
ATOM      7  C   UNL     1      -4.960   8.166   6.160  1.00  0.00     0.093 A 
ATOM      8  C   UNL     1      -3.792   7.566   6.630  1.00  0.00     0.123 A 
ATOM      9  C   UNL     1      -2.586   8.265   6.583  1.00  0.00     0.094 A 
ATOM     10  C   UNL     1      -2.544   9.573   6.093  1.00  0.00     0.146 A 
ATOM     11  O   UNL     1      -1.377  10.210   6.080  1.00  0.00    -0.456 OA
ENDROOT
BRANCH   1  12
ATOM     12  C   UNL     1       0.123  12.069   5.675  1.00  0.00     0.021 A 
ATOM     13  C   UNL     1       0.540  12.858   4.592  1.00  0.00     0.016 A 
ATOM     14  C   UNL     1       1.806  13.446   4.589  1.00  0.00     0.051 A 
ATOM     15  C   UNL     1       2.679  13.271   5.668  1.00  0.00     0.157 A 
ATOM     16  C   UNL     1       0.994  11.903   6.769  1.00  0.00     0.062 A 
ATOM     17  C   UNL     1       2.265  12.492   6.775  1.00  0.00     0.158 A 
BRANCH  15  18
ATOM     18  O   UNL     1       3.932  13.881   5.600  1.00  0.00    -0.504 OA
ATOM     19  H   UNL     1       4.807  13.385   5.687  1.00  0.00     0.293 HD
ENDBRANCH  15  18
BRANCH  17  20
ATOM     20  O   UNL     1       3.073  12.285   7.894  1.00  0.00    -0.504 OA
ATOM     21  H   UNL     1       3.027  11.465   8.480  1.00  0.00     0.293 HD
ENDBRANCH  17  20
ENDBRANCH   1  12
BRANCH   6  22
ATOM     22  O   UNL     1      -6.151   9.937   5.107  1.00  0.00    -0.507 OA
ATOM     23  H   UNL     1      -6.290  10.860   4.725  1.00  0.00     0.293 HD
ENDBRANCH   6  22
BRANCH   8  24
ATOM     24  O   UNL     1      -3.843   6.268   7.135  1.00  0.00    -0.508 OA
ATOM     25  H   UNL     1      -3.483   5.481   6.607  1.00  0.00     0.293 HD
ENDBRANCH   8  24
TORSDOF 5
ENDMDL
MODEL 9
REMARK VINA RESULT:    -5.003      1.600      2.111
REMARK INTER + INTRA:          -6.147
REMARK INTER:                  -5.830
REMARK INTRA:                  -0.318
REMARK UNBOUND:                -0.267
REMARK SMILES O=c1cc(-c2ccc(O)c(O)c2)oc2cc(O)cc(O)c12
REMARK SMILES IDX 4 1 3 2 2 3 1 4 21 5 19 6 18 7 16 8 15 9 14 10 13 11 5 12
REMARK SMILES IDX 6 13 7 14 8 15 12 16 10 17 9 18 11 20 20 22 17 24
REMARK H PARENT 9 19 11 21 20 23 17 25
REMARK Flexibility Score: inf
ROOT
ATOM      1  C   UNL     1      -0.594   9.697 -11.147  1.00  0.00     0.138 A 
ATOM      2  C   UNL     1      -0.003   8.439 -10.965  1.00  0.00     0.100 A 
ATOM      3  C   UNL     1       1.382   8.305 -11.069  1.00  0.00     0.197 A 
ATOM      4  O   UNL     1       1.888   7.177 -10.840  1.00  0.00    -0.289 OA
ATOM      5  C   UNL     1       2.174   9.433 -11.390  1.00  0.00     0.107 A 
ATOM      6  C   UNL     1       3.592   9.407 -11.562  1.00  0.00     0.134 A 
ATOM      7  C   UNL     1       4.284  10.608 -11.763  1.00  0.00     0.093 A 
ATOM      8  C   UNL     1       3.606  11.823 -11.857  1.00  0.00     0.123 A 
ATOM      9  C   UNL     1       2.216  11.853 -11.743  1.00  0.00     0.094 A 
ATOM     10  C   UNL     1       1.500  10.677 -11.509  1.00  0.00     0.146 A 
ATOM     11  O   UNL     1       0.178  10.750 -11.392  1.00  0.00    -0.456 OA
ENDROOT
BRANCH   1  12
ATOM     12  C   UNL     1      -2.063   9.895 -11.047  1.00  0.00     0.021 A 
ATOM     13  C   UNL     1      -2.872   8.840 -10.598  1.00  0.00     0.016 A 
ATOM     14  C   UNL     1      -4.254   9.002 -10.490  1.00  0.00     0.051 A 
ATOM     15  C   UNL     1      -4.858  10.221 -10.814  1.00  0.00     0.157 A 
ATOM     16  C   UNL     1      -2.667  11.127 -11.360  1.00  0.00     0.062 A 
ATOM     17  C   UNL     1      -4.053  11.300 -11.251  1.00  0.00     0.158 A 
BRANCH  15  18
ATOM     18  O   UNL     1      -6.245  10.316 -10.689  1.00  0.00    -0.504 OA
ATOM     19  H   UNL     1      -6.717  10.616  -9.847  1.00  0.00     0.293 HD
ENDBRANCH  15  18
BRANCH  17  20
ATOM     20  O   UNL     1      -4.581  12.550 -11.577  1.00  0.00    -0.504 OA
ATOM     21  H   UNL     1      -5.558  12.717 -11.771  1.00  0.00     0.293 HD
ENDBRANCH  17  20
ENDBRANCH   1  12
BRANCH   6  22
ATOM     22  O   UNL     1       4.357   8.237 -11.571  1.00  0.00    -0.507 OA
ATOM     23  H   UNL     1       4.062   7.352 -11.185  1.00  0.00     0.293 HD
ENDBRANCH   6  22
BRANCH   8  24
ATOM     24  O   UNL     1       4.327  12.996 -12.073  1.00  0.00    -0.508 OA
ATOM     25  H   UNL     1       3.867  13.858 -12.345  1.00  0.00     0.293 HD
ENDBRANCH   8  24
TORSDOF 5
ENDMDL
