MODEL 1
REMARK VINA RESULT:    -8.177      0.000      0.000
REMARK INTER + INTRA:         -13.021
REMARK INTER:                 -12.001
REMARK INTRA:                  -1.020
REMARK UNBOUND:                -1.020
REMARK SMILES Cc1cc2c(C(C)C)c(O)c(O)c(C=O)c2c(O)c1-c1c(C)cc2c(C(C)C)c(O)c(O)c(C=O)c2c1O
REMARK SMILES IDX 1 1 2 2 3 3 4 4 16 5 13 6 11 7 9 8 5 9 17 10 19 11 20 12
REMARK SMILES IDX 37 13 21 14 36 15 23 16 22 17 24 18 33 19 25 20 31 21 29 22
REMARK SMILES IDX 38 23 34 25 35 26 26 27 27 28 28 29 32 30 30 32 18 34 6 36
REMARK SMILES IDX 7 37 8 38 14 39 15 40 10 41 12 43
REMARK H PARENT 38 24 32 31 30 33 18 35 10 42 12 44
REMARK Flexibility Score: inf
ROOT
ATOM      1  C   UNL     1     -14.930   8.949 -28.275  1.00  0.00     0.045 C 
ATOM      2  C   UNL     1     -13.997   7.783 -28.481  1.00  0.00    -0.039 A 
ATOM      3  C   UNL     1     -14.379   6.742 -29.334  1.00  0.00     0.013 A 
ATOM      4  C   UNL     1     -13.539   5.629 -29.565  1.00  0.00    -0.006 A 
ATOM      5  C   UNL     1     -12.342   5.519 -28.806  1.00  0.00     0.039 A 
ATOM      6  C   UNL     1     -11.680   4.264 -28.746  1.00  0.00     0.072 A 
ATOM      7  C   UNL     1     -12.081   3.215 -29.593  1.00  0.00     0.169 A 
ATOM      8  C   UNL     1     -13.179   3.382 -30.464  1.00  0.00     0.162 A 
ATOM      9  C   UNL     1     -13.880   4.612 -30.505  1.00  0.00     0.008 A 
ATOM     10  C   UNL     1     -11.860   6.675 -28.130  1.00  0.00     0.132 A 
ATOM     11  C   UNL     1     -12.709   7.773 -27.919  1.00  0.00     0.031 A 
ENDROOT
BRANCH  11  12
ATOM     12  C   UNL     1     -12.212   8.937 -27.142  1.00  0.00     0.031 A 
ATOM     13  C   UNL     1     -12.266   8.927 -25.732  1.00  0.00     0.132 A 
ATOM     14  C   UNL     1     -11.668  10.041 -27.815  1.00  0.00    -0.039 A 
ATOM     15  C   UNL     1     -11.782  10.041 -24.979  1.00  0.00     0.039 A 
ATOM     16  C   UNL     1     -11.125  11.095 -27.081  1.00  0.00     0.013 A 
ATOM     17  C   UNL     1     -11.598  10.076 -29.324  1.00  0.00     0.045 C 
ATOM     18  C   UNL     1     -11.147  11.121 -25.671  1.00  0.00    -0.006 A 
ATOM     19  C   UNL     1     -11.888  10.097 -23.557  1.00  0.00     0.072 A 
ATOM     20  C   UNL     1     -10.545  12.195 -24.936  1.00  0.00     0.008 A 
ATOM     21  C   UNL     1     -11.316  11.172 -22.850  1.00  0.00     0.169 A 
ATOM     22  C   UNL     1     -10.627  12.183 -23.525  1.00  0.00     0.162 A 
BRANCH  13  23
ATOM     23  O   UNL     1     -12.775   7.797 -25.081  1.00  0.00    -0.507 OA
ATOM     24  H   UNL     1     -12.481   6.848 -25.277  1.00  0.00     0.293 HD
ENDBRANCH  13  23
BRANCH  19  25
ATOM     25  C   UNL     1     -12.634   9.078 -22.790  1.00  0.00     0.264 C 
ATOM     26  O   UNL     1     -12.031   8.279 -22.026  1.00  0.00    -0.298 OA
ENDBRANCH  19  25
BRANCH  20  27
ATOM     27  C   UNL     1      -9.777  13.362 -25.597  1.00  0.00     0.017 C 
ATOM     28  C   UNL     1     -10.491  14.709 -25.406  1.00  0.00     0.012 C 
ATOM     29  C   UNL     1      -8.277  13.408 -25.233  1.00  0.00     0.012 C 
ENDBRANCH  20  27
BRANCH  21  30
ATOM     30  O   UNL     1     -11.436  11.282 -21.458  1.00  0.00    -0.504 OA
ATOM     31  H   UNL     1     -11.558  12.156 -20.965  1.00  0.00     0.293 HD
ENDBRANCH  21  30
BRANCH  22  32
ATOM     32  O   UNL     1     -10.025  13.204 -22.781  1.00  0.00    -0.504 OA
ATOM     33  H   UNL     1      -9.942  13.181 -21.771  1.00  0.00     0.293 HD
ENDBRANCH  22  32
ENDBRANCH  11  12
BRANCH  10  34
ATOM     34  O   UNL     1     -10.527   6.800 -27.727  1.00  0.00    -0.507 OA
ATOM     35  H   UNL     1      -9.861   7.392 -28.207  1.00  0.00     0.293 HD
ENDBRANCH  10  34
BRANCH   9  36
ATOM     36  C   UNL     1     -14.990   4.831 -31.549  1.00  0.00     0.017 C 
ATOM     37  C   UNL     1     -16.113   3.801 -31.379  1.00  0.00     0.012 C 
ATOM     38  C   UNL     1     -14.477   4.869 -33.001  1.00  0.00     0.012 C 
ENDBRANCH   9  36
BRANCH   6  39
ATOM     39  C   UNL     1     -10.698   3.933 -27.685  1.00  0.00     0.264 C 
ATOM     40  O   UNL     1     -11.035   3.921 -26.471  1.00  0.00    -0.298 OA
ENDBRANCH   6  39
BRANCH   8  41
ATOM     41  O   UNL     1     -13.627   2.329 -31.267  1.00  0.00    -0.504 OA
ATOM     42  H   UNL     1     -14.363   2.392 -31.953  1.00  0.00     0.293 HD
ENDBRANCH   8  41
BRANCH   7  43
ATOM     43  O   UNL     1     -11.370   2.010 -29.528  1.00  0.00    -0.504 OA
ATOM     44  H   UNL     1     -11.701   1.122 -29.873  1.00  0.00     0.293 HD
ENDBRANCH   7  43
TORSDOF 11
ENDMDL
MODEL 2
REMARK VINA RESULT:    -8.140      2.137      9.302
REMARK INTER + INTRA:         -12.967
REMARK INTER:                 -12.063
REMARK INTRA:                  -0.904
REMARK UNBOUND:                -1.020
REMARK SMILES Cc1cc2c(C(C)C)c(O)c(O)c(C=O)c2c(O)c1-c1c(C)cc2c(C(C)C)c(O)c(O)c(C=O)c2c1O
REMARK SMILES IDX 1 1 2 2 3 3 4 4 16 5 13 6 11 7 9 8 5 9 17 10 19 11 20 12
REMARK SMILES IDX 37 13 21 14 36 15 23 16 22 17 24 18 33 19 25 20 31 21 29 22
REMARK SMILES IDX 38 23 34 25 35 26 26 27 27 28 28 29 32 30 30 32 18 34 6 36
REMARK SMILES IDX 7 37 8 38 14 39 15 40 10 41 12 43
REMARK H PARENT 38 24 32 31 30 33 18 35 10 42 12 44
REMARK Flexibility Score: inf
ROOT
ATOM      1  C   UNL     1     -13.919   5.619 -24.837  1.00  0.00     0.045 C 
ATOM      2  C   UNL     1     -13.173   6.878 -25.200  1.00  0.00    -0.039 A 
ATOM      3  C   UNL     1     -12.844   7.793 -24.195  1.00  0.00     0.013 A 
ATOM      4  C   UNL     1     -12.141   8.985 -24.481  1.00  0.00    -0.006 A 
ATOM      5  C   UNL     1     -11.885   9.306 -25.841  1.00  0.00     0.039 A 
ATOM      6  C   UNL     1     -11.521  10.637 -26.176  1.00  0.00     0.072 A 
ATOM      7  C   UNL     1     -11.209  11.558 -25.160  1.00  0.00     0.169 A 
ATOM      8  C   UNL     1     -11.314  11.186 -23.803  1.00  0.00     0.162 A 
ATOM      9  C   UNL     1     -11.720   9.875 -23.450  1.00  0.00     0.008 A 
ATOM     10  C   UNL     1     -12.013   8.276 -26.816  1.00  0.00     0.132 A 
ATOM     11  C   UNL     1     -12.707   7.097 -26.507  1.00  0.00     0.031 A 
ENDROOT
BRANCH  11  12
ATOM     12  C   UNL     1     -12.898   6.068 -27.563  1.00  0.00     0.031 A 
ATOM     13  C   UNL     1     -14.074   6.058 -28.341  1.00  0.00     0.132 A 
ATOM     14  C   UNL     1     -11.893   5.119 -27.796  1.00  0.00    -0.039 A 
ATOM     15  C   UNL     1     -14.260   5.075 -29.363  1.00  0.00     0.039 A 
ATOM     16  C   UNL     1     -12.038   4.208 -28.843  1.00  0.00     0.013 A 
ATOM     17  C   UNL     1     -10.624   5.109 -26.977  1.00  0.00     0.045 C 
ATOM     18  C   UNL     1     -13.191   4.169 -29.654  1.00  0.00    -0.006 A 
ATOM     19  C   UNL     1     -15.467   4.990 -30.119  1.00  0.00     0.072 A 
ATOM     20  C   UNL     1     -13.300   3.253 -30.751  1.00  0.00     0.008 A 
ATOM     21  C   UNL     1     -15.570   4.065 -31.177  1.00  0.00     0.169 A 
ATOM     22  C   UNL     1     -14.493   3.238 -31.508  1.00  0.00     0.162 A 
BRANCH  13  23
ATOM     23  O   UNL     1     -15.045   7.041 -28.118  1.00  0.00    -0.507 OA
ATOM     24  H   UNL     1     -15.870   6.906 -27.547  1.00  0.00     0.293 HD
ENDBRANCH  13  23
BRANCH  19  25
ATOM     25  C   UNL     1     -16.651   5.810 -29.795  1.00  0.00     0.264 C 
ATOM     26  O   UNL     1     -17.801   5.297 -29.768  1.00  0.00    -0.298 OA
ENDBRANCH  19  25
BRANCH  20  27
ATOM     27  C   UNL     1     -12.170   2.292 -31.181  1.00  0.00     0.017 C 
ATOM     28  C   UNL     1     -12.259   0.933 -30.469  1.00  0.00     0.012 C 
ATOM     29  C   UNL     1     -12.002   2.169 -32.711  1.00  0.00     0.012 C 
ENDBRANCH  20  27
BRANCH  21  30
ATOM     30  O   UNL     1     -16.753   3.923 -31.915  1.00  0.00    -0.504 OA
ATOM     31  H   UNL     1     -17.578   3.444 -31.580  1.00  0.00     0.293 HD
ENDBRANCH  21  30
BRANCH  22  32
ATOM     32  O   UNL     1     -14.617   2.373 -32.602  1.00  0.00    -0.504 OA
ATOM     33  H   UNL     1     -15.497   2.193 -33.071  1.00  0.00     0.293 HD
ENDBRANCH  22  32
ENDBRANCH  11  12
BRANCH  10  34
ATOM     34  O   UNL     1     -11.396   8.357 -28.068  1.00  0.00    -0.507 OA
ATOM     35  H   UNL     1     -11.209   9.237 -28.533  1.00  0.00     0.293 HD
ENDBRANCH  10  34
BRANCH   9  36
ATOM     36  C   UNL     1     -11.704   9.437 -21.974  1.00  0.00     0.017 C 
ATOM     37  C   UNL     1     -12.760  10.199 -21.164  1.00  0.00     0.012 C 
ATOM     38  C   UNL     1     -10.315   9.528 -21.314  1.00  0.00     0.012 C 
ENDBRANCH   9  36
BRANCH   6  39
ATOM     39  C   UNL     1     -11.640  11.172 -27.555  1.00  0.00     0.264 C 
ATOM     40  O   UNL     1     -10.621  11.330 -28.278  1.00  0.00    -0.298 OA
ENDBRANCH   6  39
BRANCH   8  41
ATOM     41  O   UNL     1     -11.067  12.109 -22.782  1.00  0.00    -0.504 OA
ATOM     42  H   UNL     1     -11.761  12.476 -22.150  1.00  0.00     0.293 HD
ENDBRANCH   8  41
BRANCH   7  43
ATOM     43  O   UNL     1     -10.814  12.848 -25.541  1.00  0.00    -0.504 OA
ATOM     44  H   UNL     1     -11.422  13.545 -25.943  1.00  0.00     0.293 HD
ENDBRANCH   7  43
TORSDOF 11
ENDMDL
MODEL 3
REMARK VINA RESULT:    -7.809      1.592      3.030
REMARK INTER + INTRA:         -12.482
REMARK INTER:                 -11.300
REMARK INTRA:                  -1.182
REMARK UNBOUND:                -1.020
REMARK SMILES Cc1cc2c(C(C)C)c(O)c(O)c(C=O)c2c(O)c1-c1c(C)cc2c(C(C)C)c(O)c(O)c(C=O)c2c1O
REMARK SMILES IDX 1 1 2 2 3 3 4 4 16 5 13 6 11 7 9 8 5 9 17 10 19 11 20 12
REMARK SMILES IDX 37 13 21 14 36 15 23 16 22 17 24 18 33 19 25 20 31 21 29 22
REMARK SMILES IDX 38 23 34 25 35 26 26 27 27 28 28 29 32 30 30 32 18 34 6 36
REMARK SMILES IDX 7 37 8 38 14 39 15 40 10 41 12 43
REMARK H PARENT 38 24 32 31 30 33 18 35 10 42 12 44
REMARK Flexibility Score: inf
ROOT
ATOM      1  C   UNL     1     -15.542   8.192 -27.009  1.00  0.00     0.045 C 
ATOM      2  C   UNL     1     -14.618   7.177 -27.635  1.00  0.00    -0.039 A 
ATOM      3  C   UNL     1     -15.079   6.395 -28.698  1.00  0.00     0.013 A 
ATOM      4  C   UNL     1     -14.251   5.434 -29.323  1.00  0.00    -0.006 A 
ATOM      5  C   UNL     1     -12.971   5.180 -28.761  1.00  0.00     0.039 A 
ATOM      6  C   UNL     1     -12.283   3.993 -29.127  1.00  0.00     0.072 A 
ATOM      7  C   UNL     1     -12.761   3.201 -30.185  1.00  0.00     0.169 A 
ATOM      8  C   UNL     1     -13.958   3.545 -30.850  1.00  0.00     0.162 A 
ATOM      9  C   UNL     1     -14.682   4.700 -30.467  1.00  0.00     0.008 A 
ATOM     10  C   UNL     1     -12.434   6.128 -27.843  1.00  0.00     0.132 A 
ATOM     11  C   UNL     1     -13.272   7.079 -27.242  1.00  0.00     0.031 A 
ENDROOT
BRANCH  11  12
ATOM     12  C   UNL     1     -12.708   8.007 -26.228  1.00  0.00     0.031 A 
ATOM     13  C   UNL     1     -12.156   9.243 -26.624  1.00  0.00     0.132 A 
ATOM     14  C   UNL     1     -12.745   7.657 -24.871  1.00  0.00    -0.039 A 
ATOM     15  C   UNL     1     -11.619  10.143 -25.652  1.00  0.00     0.039 A 
ATOM     16  C   UNL     1     -12.292   8.566 -23.915  1.00  0.00     0.013 A 
ATOM     17  C   UNL     1     -13.331   6.340 -24.421  1.00  0.00     0.045 C 
ATOM     18  C   UNL     1     -11.744   9.818 -24.264  1.00  0.00    -0.006 A 
ATOM     19  C   UNL     1     -10.988  11.368 -26.022  1.00  0.00     0.072 A 
ATOM     20  C   UNL     1     -11.324  10.754 -23.262  1.00  0.00     0.008 A 
ATOM     21  C   UNL     1     -10.556  12.266 -25.027  1.00  0.00     0.169 A 
ATOM     22  C   UNL     1     -10.753  11.979 -23.674  1.00  0.00     0.162 A 
BRANCH  13  23
ATOM     23  O   UNL     1     -12.168   9.589 -27.981  1.00  0.00    -0.507 OA
ATOM     24  H   UNL     1     -11.941  10.510 -28.334  1.00  0.00     0.293 HD
ENDBRANCH  13  23
BRANCH  19  25
ATOM     25  C   UNL     1     -10.718  11.712 -27.433  1.00  0.00     0.264 C 
ATOM     26  O   UNL     1     -11.365  12.628 -28.007  1.00  0.00    -0.298 OA
ENDBRANCH  19  25
BRANCH  20  27
ATOM     27  C   UNL     1     -11.489  10.517 -21.744  1.00  0.00     0.017 C 
ATOM     28  C   UNL     1     -12.965  10.467 -21.320  1.00  0.00     0.012 C 
ATOM     29  C   UNL     1     -10.657   9.334 -21.203  1.00  0.00     0.012 C 
ENDBRANCH  20  27
BRANCH  21  30
ATOM     30  O   UNL     1      -9.894  13.458 -25.351  1.00  0.00    -0.504 OA
ATOM     31  H   UNL     1      -9.471  14.077 -24.673  1.00  0.00     0.293 HD
ENDBRANCH  21  30
BRANCH  22  32
ATOM     32  O   UNL     1     -10.359  12.923 -22.718  1.00  0.00    -0.504 OA
ATOM     33  H   UNL     1     -10.805  13.015 -21.812  1.00  0.00     0.293 HD
ENDBRANCH  22  32
ENDBRANCH  11  12
BRANCH  10  34
ATOM     34  O   UNL     1     -11.065   6.204 -27.569  1.00  0.00    -0.507 OA
ATOM     35  H   UNL     1     -10.592   5.561 -26.947  1.00  0.00     0.293 HD
ENDBRANCH  10  34
BRANCH   9  36
ATOM     36  C   UNL     1     -15.913   5.141 -31.280  1.00  0.00     0.017 C 
ATOM     37  C   UNL     1     -16.963   4.026 -31.335  1.00  0.00     0.012 C 
ATOM     38  C   UNL     1     -15.571   5.662 -32.689  1.00  0.00     0.012 C 
ENDBRANCH   9  36
BRANCH   6  39
ATOM     39  C   UNL     1     -11.175   3.433 -28.315  1.00  0.00     0.264 C 
ATOM     40  O   UNL     1     -11.316   3.230 -27.080  1.00  0.00    -0.298 OA
ENDBRANCH   6  39
BRANCH   8  41
ATOM     41  O   UNL     1     -14.478   2.733 -31.862  1.00  0.00    -0.504 OA
ATOM     42  H   UNL     1     -15.106   1.957 -31.721  1.00  0.00     0.293 HD
ENDBRANCH   8  41
BRANCH   7  43
ATOM     43  O   UNL     1     -12.025   2.062 -30.539  1.00  0.00    -0.504 OA
ATOM     44  H   UNL     1     -12.423   1.177 -30.814  1.00  0.00     0.293 HD
ENDBRANCH   7  43
TORSDOF 11
ENDMDL
MODEL 4
REMARK VINA RESULT:    -7.766      1.837      8.946
REMARK INTER + INTRA:         -12.418
REMARK INTER:                 -11.365
REMARK INTRA:                  -1.053
REMARK UNBOUND:                -1.020
REMARK SMILES Cc1cc2c(C(C)C)c(O)c(O)c(C=O)c2c(O)c1-c1c(C)cc2c(C(C)C)c(O)c(O)c(C=O)c2c1O
REMARK SMILES IDX 1 1 2 2 3 3 4 4 16 5 13 6 11 7 9 8 5 9 17 10 19 11 20 12
REMARK SMILES IDX 37 13 21 14 36 15 23 16 22 17 24 18 33 19 25 20 31 21 29 22
REMARK SMILES IDX 38 23 34 25 35 26 26 27 27 28 28 29 32 30 30 32 18 34 6 36
REMARK SMILES IDX 7 37 8 38 14 39 15 40 10 41 12 43
REMARK H PARENT 38 24 32 31 30 33 18 35 10 42 12 44
REMARK Flexibility Score: inf
ROOT
ATOM      1  C   UNL     1     -11.394   9.623 -29.388  1.00  0.00     0.045 C 
ATOM      2  C   UNL     1     -11.573   9.648 -27.891  1.00  0.00    -0.039 A 
ATOM      3  C   UNL     1     -11.152  10.769 -27.169  1.00  0.00     0.013 A 
ATOM      4  C   UNL     1     -11.302  10.844 -25.765  1.00  0.00    -0.006 A 
ATOM      5  C   UNL     1     -11.772   9.694 -25.075  1.00  0.00     0.039 A 
ATOM      6  C   UNL     1     -11.587   9.612 -23.670  1.00  0.00     0.072 A 
ATOM      7  C   UNL     1     -11.145  10.738 -22.952  1.00  0.00     0.169 A 
ATOM      8  C   UNL     1     -10.827  11.935 -23.628  1.00  0.00     0.162 A 
ATOM      9  C   UNL     1     -10.963  12.021 -25.035  1.00  0.00     0.008 A 
ATOM     10  C   UNL     1     -12.405   8.664 -25.828  1.00  0.00     0.132 A 
ATOM     11  C   UNL     1     -12.251   8.615 -27.222  1.00  0.00     0.031 A 
ENDROOT
BRANCH  11  12
ATOM     12  C   UNL     1     -12.853   7.487 -27.980  1.00  0.00     0.031 A 
ATOM     13  C   UNL     1     -14.218   7.517 -28.334  1.00  0.00     0.132 A 
ATOM     14  C   UNL     1     -12.053   6.400 -28.360  1.00  0.00    -0.039 A 
ATOM     15  C   UNL     1     -14.801   6.439 -29.070  1.00  0.00     0.039 A 
ATOM     16  C   UNL     1     -12.601   5.385 -29.144  1.00  0.00     0.013 A 
ATOM     17  C   UNL     1     -10.589   6.344 -27.993  1.00  0.00     0.045 C 
ATOM     18  C   UNL     1     -13.956   5.380 -29.532  1.00  0.00    -0.006 A 
ATOM     19  C   UNL     1     -16.193   6.402 -29.383  1.00  0.00     0.072 A 
ATOM     20  C   UNL     1     -14.487   4.347 -30.373  1.00  0.00     0.008 A 
ATOM     21  C   UNL     1     -16.705   5.366 -30.188  1.00  0.00     0.169 A 
ATOM     22  C   UNL     1     -15.861   4.378 -30.702  1.00  0.00     0.162 A 
BRANCH  13  23
ATOM     23  O   UNL     1     -14.987   8.632 -27.981  1.00  0.00    -0.507 OA
ATOM     24  H   UNL     1     -14.677   9.591 -28.081  1.00  0.00     0.293 HD
ENDBRANCH  13  23
BRANCH  19  25
ATOM     25  C   UNL     1     -17.141   7.396 -28.841  1.00  0.00     0.264 C 
ATOM     26  O   UNL     1     -17.645   8.277 -29.587  1.00  0.00    -0.298 OA
ENDBRANCH  19  25
BRANCH  20  27
ATOM     27  C   UNL     1     -13.635   3.208 -30.974  1.00  0.00     0.017 C 
ATOM     28  C   UNL     1     -13.153   3.532 -32.397  1.00  0.00     0.012 C 
ATOM     29  C   UNL     1     -12.506   2.714 -30.045  1.00  0.00     0.012 C 
ENDBRANCH  20  27
BRANCH  21  30
ATOM     30  O   UNL     1     -18.072   5.273 -30.481  1.00  0.00    -0.504 OA
ATOM     31  H   UNL     1     -18.476   5.478 -31.385  1.00  0.00     0.293 HD
ENDBRANCH  21  30
BRANCH  22  32
ATOM     32  O   UNL     1     -16.401   3.398 -31.543  1.00  0.00    -0.504 OA
ATOM     33  H   UNL     1     -17.322   2.998 -31.410  1.00  0.00     0.293 HD
ENDBRANCH  22  32
ENDBRANCH  11  12
BRANCH  10  34
ATOM     34  O   UNL     1     -13.257   7.727 -25.236  1.00  0.00    -0.507 OA
ATOM     35  H   UNL     1     -13.783   7.918 -24.393  1.00  0.00     0.293 HD
ENDBRANCH  10  34
BRANCH   9  36
ATOM     36  C   UNL     1     -10.741  13.367 -25.749  1.00  0.00     0.017 C 
ATOM     37  C   UNL     1      -9.249  13.713 -25.815  1.00  0.00     0.012 C 
ATOM     38  C   UNL     1     -11.562  14.526 -25.155  1.00  0.00     0.012 C 
ENDBRANCH   9  36
BRANCH   6  39
ATOM     39  C   UNL     1     -11.650   8.327 -22.933  1.00  0.00     0.264 C 
ATOM     40  O   UNL     1     -12.641   8.043 -22.208  1.00  0.00    -0.298 OA
ENDBRANCH   6  39
BRANCH   8  41
ATOM     41  O   UNL     1     -10.329  13.042 -22.934  1.00  0.00    -0.504 OA
ATOM     42  H   UNL     1      -9.969  13.882 -23.360  1.00  0.00     0.293 HD
ENDBRANCH   8  41
BRANCH   7  43
ATOM     43  O   UNL     1     -11.018  10.622 -21.561  1.00  0.00    -0.504 OA
ATOM     44  H   UNL     1     -11.324  11.311 -20.892  1.00  0.00     0.293 HD
ENDBRANCH   7  43
TORSDOF 11
ENDMDL
MODEL 5
REMARK VINA RESULT:    -7.665      4.382     10.103
REMARK INTER + INTRA:         -12.269
REMARK INTER:                 -10.738
REMARK INTRA:                  -1.532
REMARK UNBOUND:                -1.020
REMARK SMILES Cc1cc2c(C(C)C)c(O)c(O)c(C=O)c2c(O)c1-c1c(C)cc2c(C(C)C)c(O)c(O)c(C=O)c2c1O
REMARK SMILES IDX 1 1 2 2 3 3 4 4 16 5 13 6 11 7 9 8 5 9 17 10 19 11 20 12
REMARK SMILES IDX 37 13 21 14 36 15 23 16 22 17 24 18 33 19 25 20 31 21 29 22
REMARK SMILES IDX 38 23 34 25 35 26 26 27 27 28 28 29 32 30 30 32 18 34 6 36
REMARK SMILES IDX 7 37 8 38 14 39 15 40 10 41 12 43
REMARK H PARENT 38 24 32 31 30 33 18 35 10 42 12 44
REMARK Flexibility Score: inf
ROOT
ATOM      1  C   UNL     1     -14.713   8.464 -30.890  1.00  0.00     0.045 C 
ATOM      2  C   UNL     1     -14.273   7.030 -30.748  1.00  0.00    -0.039 A 
ATOM      3  C   UNL     1     -13.478   6.662 -29.657  1.00  0.00     0.013 A 
ATOM      4  C   UNL     1     -13.043   5.330 -29.475  1.00  0.00    -0.006 A 
ATOM      5  C   UNL     1     -13.319   4.384 -30.500  1.00  0.00     0.039 A 
ATOM      6  C   UNL     1     -12.595   3.163 -30.521  1.00  0.00     0.072 A 
ATOM      7  C   UNL     1     -11.783   2.807 -29.429  1.00  0.00     0.169 A 
ATOM      8  C   UNL     1     -11.635   3.686 -28.335  1.00  0.00     0.162 A 
ATOM      9  C   UNL     1     -12.313   4.929 -28.318  1.00  0.00     0.008 A 
ATOM     10  C   UNL     1     -14.309   4.708 -31.471  1.00  0.00     0.132 A 
ATOM     11  C   UNL     1     -14.733   6.036 -31.628  1.00  0.00     0.031 A 
ENDROOT
BRANCH  11  12
ATOM     12  C   UNL     1     -15.708   6.365 -32.700  1.00  0.00     0.031 A 
ATOM     13  C   UNL     1     -15.258   6.668 -34.002  1.00  0.00     0.132 A 
ATOM     14  C   UNL     1     -17.081   6.354 -32.417  1.00  0.00    -0.039 A 
ATOM     15  C   UNL     1     -16.192   6.978 -35.039  1.00  0.00     0.039 A 
ATOM     16  C   UNL     1     -17.997   6.580 -33.445  1.00  0.00     0.013 A 
ATOM     17  C   UNL     1     -17.589   6.032 -31.031  1.00  0.00     0.045 C 
ATOM     18  C   UNL     1     -17.593   6.874 -34.763  1.00  0.00    -0.006 A 
ATOM     19  C   UNL     1     -15.770   7.359 -36.348  1.00  0.00     0.072 A 
ATOM     20  C   UNL     1     -18.551   7.061 -35.813  1.00  0.00     0.008 A 
ATOM     21  C   UNL     1     -16.725   7.567 -37.363  1.00  0.00     0.169 A 
ATOM     22  C   UNL     1     -18.086   7.386 -37.107  1.00  0.00     0.162 A 
BRANCH  13  23
ATOM     23  O   UNL     1     -13.885   6.632 -34.272  1.00  0.00    -0.507 OA
ATOM     24  H   UNL     1     -13.206   6.148 -33.697  1.00  0.00     0.293 HD
ENDBRANCH  13  23
BRANCH  19  25
ATOM     25  C   UNL     1     -14.349   7.601 -36.670  1.00  0.00     0.264 C 
ATOM     26  O   UNL     1     -13.699   6.779 -37.369  1.00  0.00    -0.298 OA
ENDBRANCH  19  25
BRANCH  20  27
ATOM     27  C   UNL     1     -20.075   6.897 -35.622  1.00  0.00     0.017 C 
ATOM     28  C   UNL     1     -20.455   5.479 -35.168  1.00  0.00     0.012 C 
ATOM     29  C   UNL     1     -20.721   8.007 -34.765  1.00  0.00     0.012 C 
ENDBRANCH  20  27
BRANCH  21  30
ATOM     30  O   UNL     1     -16.351   7.983 -38.647  1.00  0.00    -0.504 OA
ATOM     31  H   UNL     1     -17.004   8.176 -39.395  1.00  0.00     0.293 HD
ENDBRANCH  21  30
BRANCH  22  32
ATOM     32  O   UNL     1     -18.998   7.548 -38.157  1.00  0.00    -0.504 OA
ATOM     33  H   UNL     1     -19.077   8.401 -38.698  1.00  0.00     0.293 HD
ENDBRANCH  22  32
ENDBRANCH  11  12
BRANCH  10  34
ATOM     34  O   UNL     1     -14.948   3.728 -32.236  1.00  0.00    -0.507 OA
ATOM     35  H   UNL     1     -14.838   3.657 -33.240  1.00  0.00     0.293 HD
ENDBRANCH  10  34
BRANCH   9  36
ATOM     36  C   UNL     1     -12.251   5.822 -27.065  1.00  0.00     0.017 C 
ATOM     37  C   UNL     1     -13.652   6.055 -26.488  1.00  0.00     0.012 C 
ATOM     38  C   UNL     1     -11.505   7.151 -27.287  1.00  0.00     0.012 C 
ENDBRANCH   9  36
BRANCH   6  39
ATOM     39  C   UNL     1     -12.497   2.317 -31.736  1.00  0.00     0.264 C 
ATOM     40  O   UNL     1     -13.105   1.216 -31.810  1.00  0.00    -0.298 OA
ENDBRANCH   6  39
BRANCH   8  41
ATOM     41  O   UNL     1     -10.783   3.373 -27.271  1.00  0.00    -0.504 OA
ATOM     42  H   UNL     1      -9.781   3.278 -27.336  1.00  0.00     0.293 HD
ENDBRANCH   8  41
BRANCH   7  43
ATOM     43  O   UNL     1     -11.122   1.573 -29.477  1.00  0.00    -0.504 OA
ATOM     44  H   UNL     1     -10.333   1.360 -30.068  1.00  0.00     0.293 HD
ENDBRANCH   7  43
TORSDOF 11
ENDMDL
MODEL 6
REMARK VINA RESULT:    -7.636      4.547      8.772
REMARK INTER + INTRA:         -12.227
REMARK INTER:                 -10.680
REMARK INTRA:                  -1.547
REMARK UNBOUND:                -1.020
REMARK SMILES Cc1cc2c(C(C)C)c(O)c(O)c(C=O)c2c(O)c1-c1c(C)cc2c(C(C)C)c(O)c(O)c(C=O)c2c1O
REMARK SMILES IDX 1 1 2 2 3 3 4 4 16 5 13 6 11 7 9 8 5 9 17 10 19 11 20 12
REMARK SMILES IDX 37 13 21 14 36 15 23 16 22 17 24 18 33 19 25 20 31 21 29 22
REMARK SMILES IDX 38 23 34 25 35 26 26 27 27 28 28 29 32 30 30 32 18 34 6 36
REMARK SMILES IDX 7 37 8 38 14 39 15 40 10 41 12 43
REMARK H PARENT 38 24 32 31 30 33 18 35 10 42 12 44
REMARK Flexibility Score: inf
ROOT
ATOM      1  C   UNL     1     -17.881   5.046 -31.712  1.00  0.00     0.045 C 
ATOM      2  C   UNL     1     -17.325   5.680 -32.963  1.00  0.00    -0.039 A 
ATOM      3  C   UNL     1     -18.204   6.094 -33.969  1.00  0.00     0.013 A 
ATOM      4  C   UNL     1     -17.734   6.698 -35.158  1.00  0.00    -0.006 A 
ATOM      5  C   UNL     1     -16.331   6.758 -35.375  1.00  0.00     0.039 A 
ATOM      6  C   UNL     1     -15.849   7.014 -36.685  1.00  0.00     0.072 A 
ATOM      7  C   UNL     1     -16.739   7.412 -37.698  1.00  0.00     0.169 A 
ATOM      8  C   UNL     1     -18.123   7.504 -37.435  1.00  0.00     0.162 A 
ATOM      9  C   UNL     1     -18.627   7.209 -36.145  1.00  0.00     0.008 A 
ATOM     10  C   UNL     1     -15.464   6.552 -34.263  1.00  0.00     0.132 A 
ATOM     11  C   UNL     1     -15.954   5.959 -33.090  1.00  0.00     0.031 A 
ENDROOT
BRANCH  11  12
ATOM     12  C   UNL     1     -15.016   5.680 -31.971  1.00  0.00     0.031 A 
ATOM     13  C   UNL     1     -14.348   4.440 -31.897  1.00  0.00     0.132 A 
ATOM     14  C   UNL     1     -14.782   6.663 -30.999  1.00  0.00    -0.039 A 
ATOM     15  C   UNL     1     -13.439   4.168 -30.827  1.00  0.00     0.039 A 
ATOM     16  C   UNL     1     -13.839   6.429 -29.999  1.00  0.00     0.013 A 
ATOM     17  C   UNL     1     -15.485   7.999 -31.057  1.00  0.00     0.045 C 
ATOM     18  C   UNL     1     -13.138   5.210 -29.893  1.00  0.00    -0.006 A 
ATOM     19  C   UNL     1     -12.802   2.900 -30.680  1.00  0.00     0.072 A 
ATOM     20  C   UNL     1     -12.142   5.008 -28.882  1.00  0.00     0.008 A 
ATOM     21  C   UNL     1     -11.845   2.707 -29.665  1.00  0.00     0.169 A 
ATOM     22  C   UNL     1     -11.497   3.753 -28.805  1.00  0.00     0.162 A 
BRANCH  13  23
ATOM     23  O   UNL     1     -14.566   3.489 -32.901  1.00  0.00    -0.507 OA
ATOM     24  H   UNL     1     -14.254   2.528 -32.851  1.00  0.00     0.293 HD
ENDBRANCH  13  23
BRANCH  19  25
ATOM     25  C   UNL     1     -13.153   1.746 -31.532  1.00  0.00     0.264 C 
ATOM     26  O   UNL     1     -12.357   1.335 -32.418  1.00  0.00    -0.298 OA
ENDBRANCH  19  25
BRANCH  20  27
ATOM     27  C   UNL     1     -11.703   6.099 -27.880  1.00  0.00     0.017 C 
ATOM     28  C   UNL     1     -11.029   7.291 -28.578  1.00  0.00     0.012 C 
ATOM     29  C   UNL     1     -12.808   6.517 -26.887  1.00  0.00     0.012 C 
ENDBRANCH  20  27
BRANCH  21  30
ATOM     30  O   UNL     1     -11.230   1.465 -29.463  1.00  0.00    -0.504 OA
ATOM     31  H   UNL     1     -11.390   0.874 -28.658  1.00  0.00     0.293 HD
ENDBRANCH  21  30
BRANCH  22  32
ATOM     32  O   UNL     1     -10.501   3.536 -27.846  1.00  0.00    -0.504 OA
ATOM     33  H   UNL     1      -9.617   3.088 -28.055  1.00  0.00     0.293 HD
ENDBRANCH  22  32
ENDBRANCH  11  12
BRANCH  10  34
ATOM     34  O   UNL     1     -14.138   6.995 -34.262  1.00  0.00    -0.507 OA
ATOM     35  H   UNL     1     -13.633   7.213 -33.412  1.00  0.00     0.293 HD
ENDBRANCH  10  34
BRANCH   9  36
ATOM     36  C   UNL     1     -20.118   7.438 -35.831  1.00  0.00     0.017 C 
ATOM     37  C   UNL     1     -20.287   8.365 -34.622  1.00  0.00     0.012 C 
ATOM     38  C   UNL     1     -20.922   6.135 -35.659  1.00  0.00     0.012 C 
ENDBRANCH   9  36
BRANCH   6  39
ATOM     39  C   UNL     1     -14.461   6.690 -37.099  1.00  0.00     0.264 C 
ATOM     40  O   UNL     1     -13.596   7.597 -37.230  1.00  0.00    -0.298 OA
ENDBRANCH   6  39
BRANCH   8  41
ATOM     41  O   UNL     1     -19.027   7.839 -38.447  1.00  0.00    -0.504 OA
ATOM     42  H   UNL     1     -19.182   7.307 -39.289  1.00  0.00     0.293 HD
ENDBRANCH   8  41
BRANCH   7  43
ATOM     43  O   UNL     1     -16.211   7.694 -38.964  1.00  0.00    -0.504 OA
ATOM     44  H   UNL     1     -16.739   7.706 -39.823  1.00  0.00     0.293 HD
ENDBRANCH   7  43
TORSDOF 11
ENDMDL
MODEL 7
REMARK VINA RESULT:    -7.617      1.758      3.266
REMARK INTER + INTRA:         -12.199
REMARK INTER:                 -10.939
REMARK INTRA:                  -1.260
REMARK UNBOUND:                -1.020
REMARK SMILES Cc1cc2c(C(C)C)c(O)c(O)c(C=O)c2c(O)c1-c1c(C)cc2c(C(C)C)c(O)c(O)c(C=O)c2c1O
REMARK SMILES IDX 1 1 2 2 3 3 4 4 16 5 13 6 11 7 9 8 5 9 17 10 19 11 20 12
REMARK SMILES IDX 37 13 21 14 36 15 23 16 22 17 24 18 33 19 25 20 31 21 29 22
REMARK SMILES IDX 38 23 34 25 35 26 26 27 27 28 28 29 32 30 30 32 18 34 6 36
REMARK SMILES IDX 7 37 8 38 14 39 15 40 10 41 12 43
REMARK H PARENT 38 24 32 31 30 33 18 35 10 42 12 44
REMARK Flexibility Score: inf
ROOT
ATOM      1  C   UNL     1     -10.011   5.767 -27.614  1.00  0.00     0.045 C 
ATOM      2  C   UNL     1     -11.360   5.565 -28.256  1.00  0.00    -0.039 A 
ATOM      3  C   UNL     1     -11.578   4.438 -29.054  1.00  0.00     0.013 A 
ATOM      4  C   UNL     1     -12.825   4.200 -29.674  1.00  0.00    -0.006 A 
ATOM      5  C   UNL     1     -13.827   5.204 -29.580  1.00  0.00     0.039 A 
ATOM      6  C   UNL     1     -14.928   5.162 -30.476  1.00  0.00     0.072 A 
ATOM      7  C   UNL     1     -15.131   4.034 -31.289  1.00  0.00     0.169 A 
ATOM      8  C   UNL     1     -14.212   2.962 -31.265  1.00  0.00     0.162 A 
ATOM      9  C   UNL     1     -13.084   3.006 -30.410  1.00  0.00     0.008 A 
ATOM     10  C   UNL     1     -13.679   6.217 -28.590  1.00  0.00     0.132 A 
ATOM     11  C   UNL     1     -12.433   6.430 -27.981  1.00  0.00     0.031 A 
ENDROOT
BRANCH  11  12
ATOM     12  C   UNL     1     -12.280   7.544 -27.010  1.00  0.00     0.031 A 
ATOM     13  C   UNL     1     -12.530   7.332 -25.638  1.00  0.00     0.132 A 
ATOM     14  C   UNL     1     -11.866   8.806 -27.461  1.00  0.00    -0.039 A 
ATOM     15  C   UNL     1     -12.376   8.398 -24.699  1.00  0.00     0.039 A 
ATOM     16  C   UNL     1     -11.641   9.826 -26.537  1.00  0.00     0.013 A 
ATOM     17  C   UNL     1     -11.591   9.059 -28.925  1.00  0.00     0.045 C 
ATOM     18  C   UNL     1     -11.865   9.655 -25.155  1.00  0.00    -0.006 A 
ATOM     19  C   UNL     1     -12.690   8.239 -23.316  1.00  0.00     0.072 A 
ATOM     20  C   UNL     1     -11.587  10.704 -24.219  1.00  0.00     0.008 A 
ATOM     21  C   UNL     1     -12.436   9.288 -22.411  1.00  0.00     0.169 A 
ATOM     22  C   UNL     1     -11.863  10.485 -22.850  1.00  0.00     0.162 A 
BRANCH  13  23
ATOM     23  O   UNL     1     -12.902   6.053 -25.206  1.00  0.00    -0.507 OA
ATOM     24  H   UNL     1     -12.926   5.236 -25.803  1.00  0.00     0.293 HD
ENDBRANCH  13  23
BRANCH  19  25
ATOM     25  C   UNL     1     -13.330   7.013 -22.797  1.00  0.00     0.264 C 
ATOM     26  O   UNL     1     -14.583   6.940 -22.687  1.00  0.00    -0.298 OA
ENDBRANCH  19  25
BRANCH  20  27
ATOM     27  C   UNL     1     -10.968  12.064 -24.613  1.00  0.00     0.017 C 
ATOM     28  C   UNL     1     -12.001  13.201 -24.590  1.00  0.00     0.012 C 
ATOM     29  C   UNL     1      -9.668  12.403 -23.853  1.00  0.00     0.012 C 
ENDBRANCH  20  27
BRANCH  21  30
ATOM     30  O   UNL     1     -12.770   9.184 -21.054  1.00  0.00    -0.504 OA
ATOM     31  H   UNL     1     -12.137   9.396 -20.295  1.00  0.00     0.293 HD
ENDBRANCH  21  30
BRANCH  22  32
ATOM     32  O   UNL     1     -11.576  11.482 -21.911  1.00  0.00    -0.504 OA
ATOM     33  H   UNL     1     -12.264  12.150 -21.582  1.00  0.00     0.293 HD
ENDBRANCH  22  32
ENDBRANCH  11  12
BRANCH  10  34
ATOM     34  O   UNL     1     -14.762   6.974 -28.133  1.00  0.00    -0.507 OA
ATOM     35  H   UNL     1     -15.523   7.264 -28.735  1.00  0.00     0.293 HD
ENDBRANCH  10  34
BRANCH   9  36
ATOM     36  C   UNL     1     -12.160   1.780 -30.292  1.00  0.00     0.017 C 
ATOM     37  C   UNL     1     -11.975   1.372 -28.826  1.00  0.00     0.012 C 
ATOM     38  C   UNL     1     -10.805   1.954 -31.003  1.00  0.00     0.012 C 
ENDBRANCH   9  36
BRANCH   6  39
ATOM     39  C   UNL     1     -15.780   6.347 -30.744  1.00  0.00     0.264 C 
ATOM     40  O   UNL     1     -16.940   6.433 -30.261  1.00  0.00    -0.298 OA
ENDBRANCH   6  39
BRANCH   8  41
ATOM     41  O   UNL     1     -14.368   1.862 -32.112  1.00  0.00    -0.504 OA
ATOM     42  H   UNL     1     -15.201   1.299 -32.189  1.00  0.00     0.293 HD
ENDBRANCH   8  41
BRANCH   7  43
ATOM     43  O   UNL     1     -16.254   4.021 -32.127  1.00  0.00    -0.504 OA
ATOM     44  H   UNL     1     -17.203   4.177 -31.825  1.00  0.00     0.293 HD
ENDBRANCH   7  43
TORSDOF 11
ENDMDL
MODEL 8
REMARK VINA RESULT:    -7.489      1.263      8.829
REMARK INTER + INTRA:         -12.011
REMARK INTER:                 -10.693
REMARK INTRA:                  -1.318
REMARK UNBOUND:                -1.020
REMARK SMILES Cc1cc2c(C(C)C)c(O)c(O)c(C=O)c2c(O)c1-c1c(C)cc2c(C(C)C)c(O)c(O)c(C=O)c2c1O
REMARK SMILES IDX 1 1 2 2 3 3 4 4 16 5 13 6 11 7 9 8 5 9 17 10 19 11 20 12
REMARK SMILES IDX 37 13 21 14 36 15 23 16 22 17 24 18 33 19 25 20 31 21 29 22
REMARK SMILES IDX 38 23 34 25 35 26 26 27 27 28 28 29 32 30 30 32 18 34 6 36
REMARK SMILES IDX 7 37 8 38 14 39 15 40 10 41 12 43
REMARK H PARENT 38 24 32 31 30 33 18 35 10 42 12 44
REMARK Flexibility Score: inf
ROOT
ATOM      1  C   UNL     1     -11.119   9.746 -28.765  1.00  0.00     0.045 C 
ATOM      2  C   UNL     1     -11.858   9.744 -27.451  1.00  0.00    -0.039 A 
ATOM      3  C   UNL     1     -11.735  10.842 -26.594  1.00  0.00     0.013 A 
ATOM      4  C   UNL     1     -12.411  10.892 -25.354  1.00  0.00    -0.006 A 
ATOM      5  C   UNL     1     -13.122   9.737 -24.927  1.00  0.00     0.039 A 
ATOM      6  C   UNL     1     -13.491   9.624 -23.561  1.00  0.00     0.072 A 
ATOM      7  C   UNL     1     -13.347  10.726 -22.699  1.00  0.00     0.169 A 
ATOM      8  C   UNL     1     -12.781  11.930 -23.170  1.00  0.00     0.162 A 
ATOM      9  C   UNL     1     -12.365  12.046 -24.518  1.00  0.00     0.008 A 
ATOM     10  C   UNL     1     -13.429   8.736 -25.892  1.00  0.00     0.132 A 
ATOM     11  C   UNL     1     -12.752   8.711 -27.121  1.00  0.00     0.031 A 
ENDROOT
BRANCH  11  12
ATOM     12  C   UNL     1     -13.030   7.612 -28.081  1.00  0.00     0.031 A 
ATOM     13  C   UNL     1     -12.351   6.381 -27.969  1.00  0.00     0.132 A 
ATOM     14  C   UNL     1     -13.986   7.797 -29.090  1.00  0.00    -0.039 A 
ATOM     15  C   UNL     1     -12.619   5.317 -28.885  1.00  0.00     0.039 A 
ATOM     16  C   UNL     1     -14.305   6.735 -29.937  1.00  0.00     0.013 A 
ATOM     17  C   UNL     1     -14.727   9.105 -29.232  1.00  0.00     0.045 C 
ATOM     18  C   UNL     1     -13.661   5.483 -29.853  1.00  0.00    -0.006 A 
ATOM     19  C   UNL     1     -11.900   4.085 -28.846  1.00  0.00     0.072 A 
ATOM     20  C   UNL     1     -14.035   4.394 -30.706  1.00  0.00     0.008 A 
ATOM     21  C   UNL     1     -12.261   3.032 -29.709  1.00  0.00     0.169 A 
ATOM     22  C   UNL     1     -13.331   3.173 -30.596  1.00  0.00     0.162 A 
BRANCH  13  23
ATOM     23  O   UNL     1     -11.431   6.205 -26.928  1.00  0.00    -0.507 OA
ATOM     24  H   UNL     1     -10.568   5.683 -27.014  1.00  0.00     0.293 HD
ENDBRANCH  13  23
BRANCH  19  25
ATOM     25  C   UNL     1     -10.738   3.888 -27.957  1.00  0.00     0.264 C 
ATOM     26  O   UNL     1     -10.897   3.515 -26.764  1.00  0.00    -0.298 OA
ENDBRANCH  19  25
BRANCH  20  27
ATOM     27  C   UNL     1     -15.193   4.461 -31.726  1.00  0.00     0.017 C 
ATOM     28  C   UNL     1     -16.568   4.506 -31.041  1.00  0.00     0.012 C 
ATOM     29  C   UNL     1     -15.012   5.549 -32.806  1.00  0.00     0.012 C 
ENDBRANCH  20  27
BRANCH  21  30
ATOM     30  O   UNL     1     -11.552   1.824 -29.729  1.00  0.00    -0.504 OA
ATOM     31  H   UNL     1     -11.953   0.924 -29.502  1.00  0.00     0.293 HD
ENDBRANCH  21  30
BRANCH  22  32
ATOM     32  O   UNL     1     -13.693   2.083 -31.398  1.00  0.00    -0.504 OA
ATOM     33  H   UNL     1     -14.043   2.182 -32.344  1.00  0.00     0.293 HD
ENDBRANCH  22  32
ENDBRANCH  11  12
BRANCH  10  34
ATOM     34  O   UNL     1     -14.453   7.804 -25.696  1.00  0.00    -0.507 OA
ATOM     35  H   UNL     1     -14.296   6.804 -25.716  1.00  0.00     0.293 HD
ENDBRANCH  10  34
BRANCH   9  36
ATOM     36  C   UNL     1     -11.872  13.402 -25.057  1.00  0.00     0.017 C 
ATOM     37  C   UNL     1     -12.741  13.876 -26.227  1.00  0.00     0.012 C 
ATOM     38  C   UNL     1     -10.376  13.415 -25.425  1.00  0.00     0.012 C 
ENDBRANCH   9  36
BRANCH   6  39
ATOM     39  C   UNL     1     -13.846   8.325 -22.938  1.00  0.00     0.264 C 
ATOM     40  O   UNL     1     -15.050   8.010 -22.739  1.00  0.00    -0.298 OA
ENDBRANCH   6  39
BRANCH   8  41
ATOM     41  O   UNL     1     -12.575  13.012 -22.309  1.00  0.00    -0.504 OA
ATOM     42  H   UNL     1     -13.215  13.315 -21.591  1.00  0.00     0.293 HD
ENDBRANCH   8  41
BRANCH   7  43
ATOM     43  O   UNL     1     -13.765  10.579 -21.370  1.00  0.00    -0.504 OA
ATOM     44  H   UNL     1     -13.626   9.754 -20.806  1.00  0.00     0.293 HD
ENDBRANCH   7  43
TORSDOF 11
ENDMDL
MODEL 9
REMARK VINA RESULT:    -7.485      1.815      3.151
REMARK INTER + INTRA:         -12.006
REMARK INTER:                 -10.959
REMARK INTRA:                  -1.046
REMARK UNBOUND:                -1.020
REMARK SMILES Cc1cc2c(C(C)C)c(O)c(O)c(C=O)c2c(O)c1-c1c(C)cc2c(C(C)C)c(O)c(O)c(C=O)c2c1O
REMARK SMILES IDX 1 1 2 2 3 3 4 4 16 5 13 6 11 7 9 8 5 9 17 10 19 11 20 12
REMARK SMILES IDX 37 13 21 14 36 15 23 16 22 17 24 18 33 19 25 20 31 21 29 22
REMARK SMILES IDX 38 23 34 25 35 26 26 27 27 28 28 29 32 30 30 32 18 34 6 36
REMARK SMILES IDX 7 37 8 38 14 39 15 40 10 41 12 43
REMARK H PARENT 38 24 32 31 30 33 18 35 10 42 12 44
REMARK Flexibility Score: inf
ROOT
ATOM      1  C   UNL     1     -10.632   7.402 -28.705  1.00  0.00     0.045 C 
ATOM      2  C   UNL     1     -12.116   7.141 -28.748  1.00  0.00    -0.039 A 
ATOM      3  C   UNL     1     -12.600   6.057 -29.486  1.00  0.00     0.013 A 
ATOM      4  C   UNL     1     -13.982   5.766 -29.554  1.00  0.00    -0.006 A 
ATOM      5  C   UNL     1     -14.893   6.682 -28.962  1.00  0.00     0.039 A 
ATOM      6  C   UNL     1     -16.265   6.617 -29.323  1.00  0.00     0.072 A 
ATOM      7  C   UNL     1     -16.742   5.533 -30.081  1.00  0.00     0.169 A 
ATOM      8  C   UNL     1     -15.854   4.536 -30.538  1.00  0.00     0.162 A 
ATOM      9  C   UNL     1     -14.475   4.609 -30.225  1.00  0.00     0.008 A 
ATOM     10  C   UNL     1     -14.387   7.635 -28.032  1.00  0.00     0.132 A 
ATOM     11  C   UNL     1     -13.011   7.901 -27.975  1.00  0.00     0.031 A 
ENDROOT
BRANCH  11  12
ATOM     12  C   UNL     1     -12.512   8.956 -27.055  1.00  0.00     0.031 A 
ATOM     13  C   UNL     1     -12.249   8.654 -25.703  1.00  0.00     0.132 A 
ATOM     14  C   UNL     1     -12.284  10.251 -27.543  1.00  0.00    -0.039 A 
ATOM     15  C   UNL     1     -11.762   9.663 -24.815  1.00  0.00     0.039 A 
ATOM     16  C   UNL     1     -11.736  11.216 -26.698  1.00  0.00     0.013 A 
ATOM     17  C   UNL     1     -12.557  10.599 -28.987  1.00  0.00     0.045 C 
ATOM     18  C   UNL     1     -11.446  10.956 -25.343  1.00  0.00    -0.006 A 
ATOM     19  C   UNL     1     -11.554   9.412 -23.426  1.00  0.00     0.072 A 
ATOM     20  C   UNL     1     -10.844  11.951 -24.505  1.00  0.00     0.008 A 
ATOM     21  C   UNL     1     -10.987  10.409 -22.608  1.00  0.00     0.169 A 
ATOM     22  C   UNL     1     -10.607  11.641 -23.146  1.00  0.00     0.162 A 
BRANCH  13  23
ATOM     23  O   UNL     1     -12.445   7.344 -25.249  1.00  0.00    -0.507 OA
ATOM     24  H   UNL     1     -13.209   7.059 -24.651  1.00  0.00     0.293 HD
ENDBRANCH  13  23
BRANCH  19  25
ATOM     25  C   UNL     1     -11.969   8.145 -22.791  1.00  0.00     0.264 C 
ATOM     26  O   UNL     1     -13.038   8.077 -22.129  1.00  0.00    -0.298 OA
ENDBRANCH  19  25
BRANCH  20  27
ATOM     27  C   UNL     1     -10.404  13.344 -25.007  1.00  0.00     0.017 C 
ATOM     28  C   UNL     1      -9.215  13.263 -25.977  1.00  0.00     0.012 C 
ATOM     29  C   UNL     1     -11.565  14.213 -25.534  1.00  0.00     0.012 C 
ENDBRANCH  20  27
BRANCH  21  30
ATOM     30  O   UNL     1     -10.807  10.215 -21.232  1.00  0.00    -0.504 OA
ATOM     31  H   UNL     1     -11.433  10.568 -20.521  1.00  0.00     0.293 HD
ENDBRANCH  21  30
BRANCH  22  32
ATOM     32  O   UNL     1      -9.995  12.584 -22.312  1.00  0.00    -0.504 OA
ATOM     33  H   UNL     1      -9.177  13.118 -22.583  1.00  0.00     0.293 HD
ENDBRANCH  22  32
ENDBRANCH  11  12
BRANCH  10  34
ATOM     34  O   UNL     1     -15.211   8.274 -27.100  1.00  0.00    -0.507 OA
ATOM     35  H   UNL     1     -15.107   9.250 -26.854  1.00  0.00     0.293 HD
ENDBRANCH  10  34
BRANCH   9  36
ATOM     36  C   UNL     1     -13.536   3.452 -30.614  1.00  0.00     0.017 C 
ATOM     37  C   UNL     1     -12.367   3.340 -29.629  1.00  0.00     0.012 C 
ATOM     38  C   UNL     1     -13.041   3.518 -32.071  1.00  0.00     0.012 C 
ENDBRANCH   9  36
BRANCH   6  39
ATOM     39  C   UNL     1     -17.200   7.748 -29.104  1.00  0.00     0.264 C 
ATOM     40  O   UNL     1     -18.051   7.715 -28.176  1.00  0.00    -0.298 OA
ENDBRANCH   6  39
BRANCH   8  41
ATOM     41  O   UNL     1     -16.304   3.486 -31.344  1.00  0.00    -0.504 OA
ATOM     42  H   UNL     1     -16.871   2.713 -31.030  1.00  0.00     0.293 HD
ENDBRANCH   8  41
BRANCH   7  43
ATOM     43  O   UNL     1     -18.111   5.491 -30.377  1.00  0.00    -0.504 OA
ATOM     44  H   UNL     1     -18.507   5.565 -31.301  1.00  0.00     0.293 HD
ENDBRANCH   7  43
TORSDOF 11
ENDMDL
