MODEL 1
REMARK VINA RESULT:    -3.270      0.000      0.000
REMARK INTER + INTRA:          -5.281
REMARK INTER:                  -4.799
REMARK INTRA:                  -0.481
REMARK UNBOUND:                -0.481
REMARK SMILES O=C([O-])CCCCCCCC(=O)[O-]
REMARK SMILES IDX 7 1 6 2 5 3 4 4 2 5 1 6 3 7 8 8 9 9 10 10 11 11 12 12 13 13
REMARK H PARENT
REMARK Flexibility Score: inf
ROOT
ATOM      1  C   UNL     1      15.871  -6.752   5.463  1.00  0.00     0.000 C 
ENDROOT
BRANCH   1   2
ATOM      2  C   UNL     1      15.474  -7.806   6.510  1.00  0.00     0.000 C 
BRANCH   2   3
ATOM      3  C   UNL     1      13.986  -8.190   6.430  1.00  0.00     0.006 C 
BRANCH   3   4
ATOM      4  C   UNL     1      13.365  -7.823   5.075  1.00  0.00     0.053 C 
BRANCH   4   5
ATOM      5  C   UNL     1      11.930  -7.418   5.217  1.00  0.00     0.041 C 
ATOM      6  O   UNL     1      11.299  -7.676   6.277  1.00  0.00    -0.550 OA
ATOM      7  O   UNL     1      11.298  -6.728   4.191  1.00  0.00    -0.550 OA
ENDBRANCH   4   5
ENDBRANCH   3   4
ENDBRANCH   2   3
ENDBRANCH   1   2
BRANCH   1   8
ATOM      8  C   UNL     1      17.070  -7.195   4.607  1.00  0.00     0.000 C 
BRANCH   8   9
ATOM      9  C   UNL     1      18.085  -8.043   5.397  1.00  0.00     0.006 C 
BRANCH   9  10
ATOM     10  C   UNL     1      19.082  -7.224   6.231  1.00  0.00     0.053 C 
BRANCH  10  11
ATOM     11  C   UNL     1      18.965  -7.517   7.694  1.00  0.00     0.041 C 
ATOM     12  O   UNL     1      19.484  -8.558   8.176  1.00  0.00    -0.550 OA
ATOM     13  O   UNL     1      18.255  -6.656   8.522  1.00  0.00    -0.550 OA
ENDBRANCH  10  11
ENDBRANCH   9  10
ENDBRANCH   8   9
ENDBRANCH   1   8
TORSDOF 8
ENDMDL
MODEL 2
REMARK VINA RESULT:    -3.226      0.438      6.305
REMARK INTER + INTRA:          -5.216
REMARK INTER:                  -4.712
REMARK INTRA:                  -0.504
REMARK UNBOUND:                -0.481
REMARK SMILES O=C([O-])CCCCCCCC(=O)[O-]
REMARK SMILES IDX 7 1 6 2 5 3 4 4 2 5 1 6 3 7 8 8 9 9 10 10 11 11 12 12 13 13
REMARK H PARENT
REMARK Flexibility Score: inf
ROOT
ATOM      1  C   UNL     1      15.934  -6.767   5.417  1.00  0.00     0.000 C 
ENDROOT
BRANCH   1   2
ATOM      2  C   UNL     1      17.409  -6.981   5.036  1.00  0.00     0.000 C 
BRANCH   2   3
ATOM      3  C   UNL     1      17.973  -8.310   5.568  1.00  0.00     0.006 C 
BRANCH   3   4
ATOM      4  C   UNL     1      19.343  -8.130   6.237  1.00  0.00     0.053 C 
BRANCH   4   5
ATOM      5  C   UNL     1      19.224  -8.053   7.728  1.00  0.00     0.041 C 
ATOM      6  O   UNL     1      19.697  -8.970   8.451  1.00  0.00    -0.550 OA
ATOM      7  O   UNL     1      18.618  -6.953   8.321  1.00  0.00    -0.550 OA
ENDBRANCH   4   5
ENDBRANCH   3   4
ENDBRANCH   2   3
ENDBRANCH   1   2
BRANCH   1   8
ATOM      8  C   UNL     1      15.515  -7.602   6.640  1.00  0.00     0.000 C 
BRANCH   8   9
ATOM      9  C   UNL     1      14.091  -8.175   6.509  1.00  0.00     0.006 C 
BRANCH   9  10
ATOM     10  C   UNL     1      13.396  -7.848   5.178  1.00  0.00     0.053 C 
BRANCH  10  11
ATOM     11  C   UNL     1      11.948  -7.518   5.367  1.00  0.00     0.041 C 
ATOM     12  O   UNL     1      11.365  -7.813   6.444  1.00  0.00    -0.550 OA
ATOM     13  O   UNL     1      11.232  -6.915   4.340  1.00  0.00    -0.550 OA
ENDBRANCH  10  11
ENDBRANCH   9  10
ENDBRANCH   8   9
ENDBRANCH   1   8
TORSDOF 8
ENDMDL
MODEL 3
REMARK VINA RESULT:    -3.132      3.082      7.669
REMARK INTER + INTRA:          -5.079
REMARK INTER:                  -4.780
REMARK INTRA:                  -0.299
REMARK UNBOUND:                -0.481
REMARK SMILES O=C([O-])CCCCCCCC(=O)[O-]
REMARK SMILES IDX 7 1 6 2 5 3 4 4 2 5 1 6 3 7 8 8 9 9 10 10 11 11 12 12 13 13
REMARK H PARENT
REMARK Flexibility Score: inf
ROOT
ATOM      1  C   UNL     1      11.237  -7.829   5.971  1.00  0.00     0.000 C 
ENDROOT
BRANCH   1   2
ATOM      2  C   UNL     1      12.724  -7.907   5.588  1.00  0.00     0.000 C 
BRANCH   2   3
ATOM      3  C   UNL     1      13.624  -8.286   6.776  1.00  0.00     0.006 C 
BRANCH   3   4
ATOM      4  C   UNL     1      15.095  -8.438   6.363  1.00  0.00     0.053 C 
BRANCH   4   5
ATOM      5  C   UNL     1      15.829  -7.135   6.446  1.00  0.00     0.041 C 
ATOM      6  O   UNL     1      16.022  -6.448   5.407  1.00  0.00    -0.550 OA
ATOM      7  O   UNL     1      16.272  -6.663   7.675  1.00  0.00    -0.550 OA
ENDBRANCH   4   5
ENDBRANCH   3   4
ENDBRANCH   2   3
ENDBRANCH   1   2
BRANCH   1   8
ATOM      8  C   UNL     1      10.316  -8.401   4.880  1.00  0.00     0.000 C 
BRANCH   8   9
ATOM      9  C   UNL     1       9.034  -9.033   5.454  1.00  0.00     0.006 C 
BRANCH   9  10
ATOM     10  C   UNL     1       9.030  -9.180   6.983  1.00  0.00     0.053 C 
BRANCH  10  11
ATOM     11  C   UNL     1       7.678  -8.919   7.570  1.00  0.00     0.041 C 
ATOM     12  O   UNL     1       7.313  -9.520   8.615  1.00  0.00    -0.550 OA
ATOM     13  O   UNL     1       6.805  -8.037   6.944  1.00  0.00    -0.550 OA
ENDBRANCH  10  11
ENDBRANCH   9  10
ENDBRANCH   8   9
ENDBRANCH   1   8
TORSDOF 8
ENDMDL
MODEL 4
REMARK VINA RESULT:    -3.123      2.973      4.518
REMARK INTER + INTRA:          -5.066
REMARK INTER:                  -4.769
REMARK INTRA:                  -0.296
REMARK UNBOUND:                -0.481
REMARK SMILES O=C([O-])CCCCCCCC(=O)[O-]
REMARK SMILES IDX 7 1 6 2 5 3 4 4 2 5 1 6 3 7 8 8 9 9 10 10 11 11 12 12 13 13
REMARK H PARENT
REMARK Flexibility Score: inf
ROOT
ATOM      1  C   UNL     1      11.459  -7.832   6.228  1.00  0.00     0.000 C 
ENDROOT
BRANCH   1   2
ATOM      2  C   UNL     1      10.419  -7.661   5.108  1.00  0.00     0.000 C 
BRANCH   2   3
ATOM      3  C   UNL     1       9.186  -8.561   5.300  1.00  0.00     0.006 C 
BRANCH   3   4
ATOM      4  C   UNL     1       9.061  -9.073   6.742  1.00  0.00     0.053 C 
BRANCH   4   5
ATOM      5  C   UNL     1       7.697  -8.812   7.303  1.00  0.00     0.041 C 
ATOM      6  O   UNL     1       7.382  -9.258   8.439  1.00  0.00    -0.550 OA
ATOM      7  O   UNL     1       6.784  -8.050   6.586  1.00  0.00    -0.550 OA
ENDBRANCH   4   5
ENDBRANCH   3   4
ENDBRANCH   2   3
ENDBRANCH   1   2
BRANCH   1   8
ATOM      8  C   UNL     1      12.898  -7.909   5.689  1.00  0.00     0.000 C 
BRANCH   8   9
ATOM      9  C   UNL     1      13.870  -8.577   6.680  1.00  0.00     0.006 C 
BRANCH   9  10
ATOM     10  C   UNL     1      15.347  -8.502   6.265  1.00  0.00     0.053 C 
BRANCH  10  11
ATOM     11  C   UNL     1      15.898  -7.116   6.391  1.00  0.00     0.041 C 
ATOM     12  O   UNL     1      16.040  -6.395   5.368  1.00  0.00    -0.550 OA
ATOM     13  O   UNL     1      16.286  -6.631   7.634  1.00  0.00    -0.550 OA
ENDBRANCH  10  11
ENDBRANCH   9  10
ENDBRANCH   8   9
ENDBRANCH   1   8
TORSDOF 8
ENDMDL
MODEL 5
REMARK VINA RESULT:    -3.018      2.495      2.811
REMARK INTER + INTRA:          -4.911
REMARK INTER:                  -4.683
REMARK INTRA:                  -0.228
REMARK UNBOUND:                -0.481
REMARK SMILES O=C([O-])CCCCCCCC(=O)[O-]
REMARK SMILES IDX 7 1 6 2 5 3 4 4 2 5 1 6 3 7 8 8 9 9 10 10 11 11 12 12 13 13
REMARK H PARENT
REMARK Flexibility Score: inf
ROOT
ATOM      1  C   UNL     1      17.326  -7.151   6.939  1.00  0.00     0.000 C 
ENDROOT
BRANCH   1   2
ATOM      2  C   UNL     1      15.982  -6.961   6.217  1.00  0.00     0.000 C 
BRANCH   2   3
ATOM      3  C   UNL     1      15.199  -8.277   6.063  1.00  0.00     0.006 C 
BRANCH   3   4
ATOM      4  C   UNL     1      13.870  -8.253   6.831  1.00  0.00     0.053 C 
BRANCH   4   5
ATOM      5  C   UNL     1      12.716  -7.944   5.927  1.00  0.00     0.041 C 
ATOM      6  O   UNL     1      11.535  -8.150   6.313  1.00  0.00    -0.550 OA
ATOM      7  O   UNL     1      12.944  -7.399   4.670  1.00  0.00    -0.550 OA
ENDBRANCH   4   5
ENDBRANCH   3   4
ENDBRANCH   2   3
ENDBRANCH   1   2
BRANCH   1   8
ATOM      8  C   UNL     1      18.369  -7.868   6.065  1.00  0.00     0.000 C 
BRANCH   8   9
ATOM      9  C   UNL     1      19.679  -7.069   5.925  1.00  0.00     0.006 C 
BRANCH   9  10
ATOM     10  C   UNL     1      19.772  -6.225   4.644  1.00  0.00     0.053 C 
BRANCH  10  11
ATOM     11  C   UNL     1      21.035  -5.423   4.590  1.00  0.00     0.041 C 
ATOM     12  O   UNL     1      22.152  -5.990   4.720  1.00  0.00    -0.550 OA
ATOM     13  O   UNL     1      20.978  -4.044   4.429  1.00  0.00    -0.550 OA
ENDBRANCH  10  11
ENDBRANCH   9  10
ENDBRANCH   8   9
ENDBRANCH   1   8
TORSDOF 8
ENDMDL
MODEL 6
REMARK VINA RESULT:    -3.004      1.819      2.693
REMARK INTER + INTRA:          -4.891
REMARK INTER:                  -4.303
REMARK INTRA:                  -0.588
REMARK UNBOUND:                -0.481
REMARK SMILES O=C([O-])CCCCCCCC(=O)[O-]
REMARK SMILES IDX 7 1 6 2 5 3 4 4 2 5 1 6 3 7 8 8 9 9 10 10 11 11 12 12 13 13
REMARK H PARENT
REMARK Flexibility Score: inf
ROOT
ATOM      1  C   UNL     1      17.820  -7.263   4.109  1.00  0.00     0.000 C 
ENDROOT
BRANCH   1   2
ATOM      2  C   UNL     1      16.569  -6.383   3.954  1.00  0.00     0.000 C 
BRANCH   2   3
ATOM      3  C   UNL     1      15.341  -6.965   4.676  1.00  0.00     0.006 C 
BRANCH   3   4
ATOM      4  C   UNL     1      15.695  -7.526   6.060  1.00  0.00     0.053 C 
BRANCH   4   5
ATOM      5  C   UNL     1      14.729  -8.589   6.488  1.00  0.00     0.041 C 
ATOM      6  O   UNL     1      15.063  -9.803   6.448  1.00  0.00    -0.550 OA
ATOM      7  O   UNL     1      13.473  -8.237   6.962  1.00  0.00    -0.550 OA
ENDBRANCH   4   5
ENDBRANCH   3   4
ENDBRANCH   2   3
ENDBRANCH   1   2
BRANCH   1   8
ATOM      8  C   UNL     1      19.090  -6.438   4.386  1.00  0.00     0.000 C 
BRANCH   8   9
ATOM      9  C   UNL     1      19.993  -7.078   5.457  1.00  0.00     0.006 C 
BRANCH   9  10
ATOM     10  C   UNL     1      19.363  -8.277   6.184  1.00  0.00     0.053 C 
BRANCH  10  11
ATOM     11  C   UNL     1      19.244  -8.042   7.658  1.00  0.00     0.041 C 
ATOM     12  O   UNL     1      18.704  -6.989   8.091  1.00  0.00    -0.550 OA
ATOM     13  O   UNL     1      19.761  -8.968   8.555  1.00  0.00    -0.550 OA
ENDBRANCH  10  11
ENDBRANCH   9  10
ENDBRANCH   8   9
ENDBRANCH   1   8
TORSDOF 8
ENDMDL
MODEL 7
REMARK VINA RESULT:    -2.995      3.250      7.662
REMARK INTER + INTRA:          -4.877
REMARK INTER:                  -4.490
REMARK INTRA:                  -0.387
REMARK UNBOUND:                -0.481
REMARK SMILES O=C([O-])CCCCCCCC(=O)[O-]
REMARK SMILES IDX 7 1 6 2 5 3 4 4 2 5 1 6 3 7 8 8 9 9 10 10 11 11 12 12 13 13
REMARK H PARENT
REMARK Flexibility Score: inf
ROOT
ATOM      1  C   UNL     1      10.617  -7.177   5.004  1.00  0.00     0.000 C 
ENDROOT
BRANCH   1   2
ATOM      2  C   UNL     1      11.978  -7.225   4.291  1.00  0.00     0.000 C 
BRANCH   2   3
ATOM      3  C   UNL     1      12.923  -8.282   4.889  1.00  0.00     0.006 C 
BRANCH   3   4
ATOM      4  C   UNL     1      14.328  -7.721   5.150  1.00  0.00     0.053 C 
BRANCH   4   5
ATOM      5  C   UNL     1      14.700  -7.818   6.598  1.00  0.00     0.041 C 
ATOM      6  O   UNL     1      14.009  -8.517   7.386  1.00  0.00    -0.550 OA
ATOM      7  O   UNL     1      15.830  -7.163   7.071  1.00  0.00    -0.550 OA
ENDBRANCH   4   5
ENDBRANCH   3   4
ENDBRANCH   2   3
ENDBRANCH   1   2
BRANCH   1   8
ATOM      8  C   UNL     1      10.471  -8.274   6.072  1.00  0.00     0.000 C 
BRANCH   8   9
ATOM      9  C   UNL     1       9.114  -9.000   6.000  1.00  0.00     0.006 C 
BRANCH   9  10
ATOM     10  C   UNL     1       8.772  -9.829   7.247  1.00  0.00     0.053 C 
BRANCH  10  11
ATOM     11  C   UNL     1       7.597  -9.272   7.988  1.00  0.00     0.041 C 
ATOM     12  O   UNL     1       7.117  -8.153   7.667  1.00  0.00    -0.550 OA
ATOM     13  O   UNL     1       7.052  -9.972   9.058  1.00  0.00    -0.550 OA
ENDBRANCH  10  11
ENDBRANCH   9  10
ENDBRANCH   8   9
ENDBRANCH   1   8
TORSDOF 8
ENDMDL
MODEL 8
REMARK VINA RESULT:    -2.975      1.472      6.389
REMARK INTER + INTRA:          -4.848
REMARK INTER:                  -4.422
REMARK INTRA:                  -0.426
REMARK UNBOUND:                -0.481
REMARK SMILES O=C([O-])CCCCCCCC(=O)[O-]
REMARK SMILES IDX 7 1 6 2 5 3 4 4 2 5 1 6 3 7 8 8 9 9 10 10 11 11 12 12 13 13
REMARK H PARENT
REMARK Flexibility Score: inf
ROOT
ATOM      1  C   UNL     1      15.870  -6.750   6.114  1.00  0.00     0.000 C 
ENDROOT
BRANCH   1   2
ATOM      2  C   UNL     1      16.396  -6.614   4.675  1.00  0.00     0.000 C 
BRANCH   2   3
ATOM      3  C   UNL     1      17.552  -7.583   4.371  1.00  0.00     0.006 C 
BRANCH   3   4
ATOM      4  C   UNL     1      18.871  -6.845   4.107  1.00  0.00     0.053 C 
BRANCH   4   5
ATOM      5  C   UNL     1      19.639  -6.617   5.374  1.00  0.00     0.041 C 
ATOM      6  O   UNL     1      19.427  -7.339   6.384  1.00  0.00    -0.550 OA
ATOM      7  O   UNL     1      20.611  -5.626   5.428  1.00  0.00    -0.550 OA
ENDBRANCH   4   5
ENDBRANCH   3   4
ENDBRANCH   2   3
ENDBRANCH   1   2
BRANCH   1   8
ATOM      8  C   UNL     1      15.419  -8.183   6.444  1.00  0.00     0.000 C 
BRANCH   8   9
ATOM      9  C   UNL     1      13.889  -8.310   6.573  1.00  0.00     0.006 C 
BRANCH   9  10
ATOM     10  C   UNL     1      13.133  -8.251   5.236  1.00  0.00     0.053 C 
BRANCH  10  11
ATOM     11  C   UNL     1      11.823  -7.539   5.363  1.00  0.00     0.041 C 
ATOM     12  O   UNL     1      11.151  -7.630   6.424  1.00  0.00    -0.550 OA
ATOM     13  O   UNL     1      11.326  -6.800   4.296  1.00  0.00    -0.550 OA
ENDBRANCH  10  11
ENDBRANCH   9  10
ENDBRANCH   8   9
ENDBRANCH   1   8
TORSDOF 8
ENDMDL
MODEL 9
REMARK VINA RESULT:    -2.960      1.348      5.855
REMARK INTER + INTRA:          -4.826
REMARK INTER:                  -4.411
REMARK INTRA:                  -0.416
REMARK UNBOUND:                -0.481
REMARK SMILES O=C([O-])CCCCCCCC(=O)[O-]
REMARK SMILES IDX 7 1 6 2 5 3 4 4 2 5 1 6 3 7 8 8 9 9 10 10 11 11 12 12 13 13
REMARK H PARENT
REMARK Flexibility Score: inf
ROOT
ATOM      1  C   UNL     1      17.348  -7.423   4.703  1.00  0.00     0.000 C 
ENDROOT
BRANCH   1   2
ATOM      2  C   UNL     1      18.687  -6.680   4.567  1.00  0.00     0.000 C 
BRANCH   2   3
ATOM      3  C   UNL     1      19.670  -7.014   5.703  1.00  0.00     0.006 C 
BRANCH   3   4
ATOM      4  C   UNL     1      19.265  -8.283   6.465  1.00  0.00     0.053 C 
BRANCH   4   5
ATOM      5  C   UNL     1      19.217  -8.047   7.944  1.00  0.00     0.041 C 
ATOM      6  O   UNL     1      19.710  -8.892   8.738  1.00  0.00    -0.550 OA
ATOM      7  O   UNL     1      18.657  -6.879   8.444  1.00  0.00    -0.550 OA
ENDBRANCH   4   5
ENDBRANCH   3   4
ENDBRANCH   2   3
ENDBRANCH   1   2
BRANCH   1   8
ATOM      8  C   UNL     1      16.137  -6.484   4.578  1.00  0.00     0.000 C 
BRANCH   8   9
ATOM      9  C   UNL     1      14.871  -7.207   4.080  1.00  0.00     0.006 C 
BRANCH   9  10
ATOM     10  C   UNL     1      14.517  -8.479   4.867  1.00  0.00     0.053 C 
BRANCH  10  11
ATOM     11  C   UNL     1      13.673  -8.181   6.067  1.00  0.00     0.041 C 
ATOM     12  O   UNL     1      12.472  -7.828   5.925  1.00  0.00    -0.550 OA
ATOM     13  O   UNL     1      14.221  -8.261   7.341  1.00  0.00    -0.550 OA
ENDBRANCH  10  11
ENDBRANCH   9  10
ENDBRANCH   8   9
ENDBRANCH   1   8
TORSDOF 8
ENDMDL
