MODEL 1
REMARK VINA RESULT:    -4.277      0.000      0.000
REMARK INTER + INTRA:          -7.477
REMARK INTER:                  -6.777
REMARK INTRA:                  -0.700
REMARK UNBOUND:                -0.700
REMARK SMILES CCCCCCCCCCCC(=O)[O-]
REMARK SMILES IDX 7 1 8 2 9 3 10 4 11 5 12 6 13 7 14 8 6 9 5 10 4 11 3 12 2 13
REMARK SMILES IDX 1 14
REMARK H PARENT
REMARK Flexibility Score: inf
ROOT
ATOM      1  C   UNL     1      -5.123  -4.258  -3.216  1.00  0.00     0.000 C 
ENDROOT
BRANCH   1   2
ATOM      2  C   UNL     1      -5.379  -3.382  -4.452  1.00  0.00     0.000 C 
BRANCH   2   3
ATOM      3  C   UNL     1      -4.356  -3.681  -5.557  1.00  0.00     0.000 C 
BRANCH   3   4
ATOM      4  C   UNL     1      -4.079  -2.463  -6.453  1.00  0.00     0.006 C 
BRANCH   4   5
ATOM      5  C   UNL     1      -4.051  -1.145  -5.667  1.00  0.00     0.053 C 
BRANCH   5   6
ATOM      6  C   UNL     1      -5.130  -0.228  -6.150  1.00  0.00     0.041 C 
ATOM      7  O   UNL     1      -6.236  -0.696  -6.529  1.00  0.00    -0.550 OA
ATOM      8  O   UNL     1      -4.898   1.140  -6.227  1.00  0.00    -0.550 OA
ENDBRANCH   5   6
ENDBRANCH   4   5
ENDBRANCH   3   4
ENDBRANCH   2   3
ENDBRANCH   1   2
BRANCH   1   9
ATOM      9  C   UNL     1      -4.021  -3.690  -2.306  1.00  0.00     0.000 C 
BRANCH   9  10
ATOM     10  C   UNL     1      -4.347  -3.847  -0.813  1.00  0.00    -0.000 C 
BRANCH  10  11
ATOM     11  C   UNL     1      -5.060  -2.600  -0.274  1.00  0.00    -0.000 C 
BRANCH  11  12
ATOM     12  C   UNL     1      -6.251  -2.990   0.615  1.00  0.00    -0.000 C 
BRANCH  12  13
ATOM     13  C   UNL     1      -7.588  -2.948  -0.139  1.00  0.00    -0.003 C 
ATOM     14  C   UNL     1      -8.513  -4.107   0.231  1.00  0.00     0.004 C 
ENDBRANCH  12  13
ENDBRANCH  11  12
ENDBRANCH  10  11
ENDBRANCH   9  10
ENDBRANCH   1   9
TORSDOF 10
ENDMDL
MODEL 2
REMARK VINA RESULT:    -4.222      1.545      2.903
REMARK INTER + INTRA:          -7.390
REMARK INTER:                  -6.561
REMARK INTRA:                  -0.829
REMARK UNBOUND:                -0.700
REMARK SMILES CCCCCCCCCCCC(=O)[O-]
REMARK SMILES IDX 7 1 8 2 9 3 10 4 11 5 12 6 13 7 14 8 6 9 5 10 4 11 3 12 2 13
REMARK SMILES IDX 1 14
REMARK H PARENT
REMARK Flexibility Score: inf
ROOT
ATOM      1  C   UNL     1      -5.107  -3.512  -0.687  1.00  0.00     0.000 C 
ENDROOT
BRANCH   1   2
ATOM      2  C   UNL     1      -5.615  -3.991  -2.056  1.00  0.00     0.000 C 
BRANCH   2   3
ATOM      3  C   UNL     1      -4.632  -3.604  -3.170  1.00  0.00     0.000 C 
BRANCH   3   4
ATOM      4  C   UNL     1      -5.307  -3.506  -4.548  1.00  0.00     0.006 C 
BRANCH   4   5
ATOM      5  C   UNL     1      -4.294  -3.423  -5.698  1.00  0.00     0.053 C 
BRANCH   5   6
ATOM      6  C   UNL     1      -4.127  -2.005  -6.145  1.00  0.00     0.041 C 
ATOM      7  O   UNL     1      -3.002  -1.447  -6.070  1.00  0.00    -0.550 OA
ATOM      8  O   UNL     1      -5.225  -1.284  -6.597  1.00  0.00    -0.550 OA
ENDBRANCH   5   6
ENDBRANCH   4   5
ENDBRANCH   3   4
ENDBRANCH   2   3
ENDBRANCH   1   2
BRANCH   1   9
ATOM      9  C   UNL     1      -6.235  -2.967   0.205  1.00  0.00     0.000 C 
BRANCH   9  10
ATOM     10  C   UNL     1      -7.621  -3.106  -0.442  1.00  0.00    -0.000 C 
BRANCH  10  11
ATOM     11  C   UNL     1      -8.520  -4.036   0.383  1.00  0.00    -0.000 C 
BRANCH  11  12
ATOM     12  C   UNL     1      -7.695  -4.842   1.397  1.00  0.00    -0.000 C 
BRANCH  12  13
ATOM     13  C   UNL     1      -7.797  -6.357   1.171  1.00  0.00    -0.003 C 
ATOM     14  C   UNL     1      -7.260  -6.789  -0.193  1.00  0.00     0.004 C 
ENDBRANCH  12  13
ENDBRANCH  11  12
ENDBRANCH  10  11
ENDBRANCH   9  10
ENDBRANCH   1   9
TORSDOF 10
ENDMDL
MODEL 3
REMARK VINA RESULT:    -4.164      1.196      2.009
REMARK INTER + INTRA:          -7.299
REMARK INTER:                  -6.565
REMARK INTRA:                  -0.734
REMARK UNBOUND:                -0.700
REMARK SMILES CCCCCCCCCCCC(=O)[O-]
REMARK SMILES IDX 7 1 8 2 9 3 10 4 11 5 12 6 13 7 14 8 6 9 5 10 4 11 3 12 2 13
REMARK SMILES IDX 1 14
REMARK H PARENT
REMARK Flexibility Score: inf
ROOT
ATOM      1  C   UNL     1      -5.342  -3.979  -1.759  1.00  0.00     0.000 C 
ENDROOT
BRANCH   1   2
ATOM      2  C   UNL     1      -4.426  -3.705  -2.961  1.00  0.00     0.000 C 
BRANCH   2   3
ATOM      3  C   UNL     1      -5.198  -3.839  -4.281  1.00  0.00     0.000 C 
BRANCH   3   4
ATOM      4  C   UNL     1      -4.349  -3.465  -5.506  1.00  0.00     0.006 C 
BRANCH   4   5
ATOM      5  C   UNL     1      -3.568  -2.159  -5.307  1.00  0.00     0.053 C 
BRANCH   5   6
ATOM      6  C   UNL     1      -4.094  -1.093  -6.215  1.00  0.00     0.041 C 
ATOM      7  O   UNL     1      -5.317  -1.062  -6.513  1.00  0.00    -0.550 OA
ATOM      8  O   UNL     1      -3.226  -0.162  -6.773  1.00  0.00    -0.550 OA
ENDBRANCH   5   6
ENDBRANCH   4   5
ENDBRANCH   3   4
ENDBRANCH   2   3
ENDBRANCH   1   2
BRANCH   1   9
ATOM      9  C   UNL     1      -5.160  -2.952  -0.629  1.00  0.00     0.000 C 
BRANCH   9  10
ATOM     10  C   UNL     1      -6.264  -3.043   0.437  1.00  0.00    -0.000 C 
BRANCH  10  11
ATOM     11  C   UNL     1      -7.654  -3.037  -0.211  1.00  0.00    -0.000 C 
BRANCH  11  12
ATOM     12  C   UNL     1      -8.521  -4.180   0.338  1.00  0.00    -0.000 C 
BRANCH  12  13
ATOM     13  C   UNL     1      -7.684  -5.340   0.897  1.00  0.00    -0.003 C 
ATOM     14  C   UNL     1      -7.579  -6.515  -0.074  1.00  0.00     0.004 C 
ENDBRANCH  12  13
ENDBRANCH  11  12
ENDBRANCH  10  11
ENDBRANCH   9  10
ENDBRANCH   1   9
TORSDOF 10
ENDMDL
MODEL 4
REMARK VINA RESULT:    -4.109      1.200      1.540
REMARK INTER + INTRA:          -7.212
REMARK INTER:                  -6.587
REMARK INTRA:                  -0.625
REMARK UNBOUND:                -0.700
REMARK SMILES CCCCCCCCCCCC(=O)[O-]
REMARK SMILES IDX 7 1 8 2 9 3 10 4 11 5 12 6 13 7 14 8 6 9 5 10 4 11 3 12 2 13
REMARK SMILES IDX 1 14
REMARK H PARENT
REMARK Flexibility Score: inf
ROOT
ATOM      1  C   UNL     1      -4.071  -4.250  -4.160  1.00  0.00     0.000 C 
ENDROOT
BRANCH   1   2
ATOM      2  C   UNL     1      -4.110  -3.424  -5.455  1.00  0.00     0.000 C 
BRANCH   2   3
ATOM      3  C   UNL     1      -5.248  -2.394  -5.415  1.00  0.00     0.000 C 
BRANCH   3   4
ATOM      4  C   UNL     1      -5.146  -1.353  -6.540  1.00  0.00     0.006 C 
BRANCH   4   5
ATOM      5  C   UNL     1      -3.937  -0.422  -6.377  1.00  0.00     0.053 C 
BRANCH   5   6
ATOM      6  C   UNL     1      -4.216   0.619  -5.340  1.00  0.00     0.041 C 
ATOM      7  O   UNL     1      -5.190   1.405  -5.478  1.00  0.00    -0.550 OA
ATOM      8  O   UNL     1      -3.373   0.754  -4.244  1.00  0.00    -0.550 OA
ENDBRANCH   5   6
ENDBRANCH   4   5
ENDBRANCH   3   4
ENDBRANCH   2   3
ENDBRANCH   1   2
BRANCH   1   9
ATOM      9  C   UNL     1      -5.054  -3.731  -3.097  1.00  0.00     0.000 C 
BRANCH   9  10
ATOM     10  C   UNL     1      -4.343  -3.090  -1.896  1.00  0.00    -0.000 C 
BRANCH  10  11
ATOM     11  C   UNL     1      -5.222  -3.153  -0.640  1.00  0.00    -0.000 C 
BRANCH  11  12
ATOM     12  C   UNL     1      -6.531  -3.905  -0.923  1.00  0.00    -0.000 C 
BRANCH  12  13
ATOM     13  C   UNL     1      -7.752  -3.225  -0.284  1.00  0.00    -0.003 C 
ATOM     14  C   UNL     1      -8.563  -4.174   0.597  1.00  0.00     0.004 C 
ENDBRANCH  12  13
ENDBRANCH  11  12
ENDBRANCH  10  11
ENDBRANCH   9  10
ENDBRANCH   1   9
TORSDOF 10
ENDMDL
MODEL 5
REMARK VINA RESULT:    -4.086      1.217      1.683
REMARK INTER + INTRA:          -7.176
REMARK INTER:                  -6.384
REMARK INTRA:                  -0.792
REMARK UNBOUND:                -0.700
REMARK SMILES CCCCCCCCCCCC(=O)[O-]
REMARK SMILES IDX 7 1 8 2 9 3 10 4 11 5 12 6 13 7 14 8 6 9 5 10 4 11 3 12 2 13
REMARK SMILES IDX 1 14
REMARK H PARENT
REMARK Flexibility Score: inf
ROOT
ATOM      1  C   UNL     1      -2.612  -2.799  -2.925  1.00  0.00     0.000 C 
ENDROOT
BRANCH   1   2
ATOM      2  C   UNL     1      -2.911  -3.913  -3.939  1.00  0.00     0.000 C 
BRANCH   2   3
ATOM      3  C   UNL     1      -4.411  -4.240  -3.968  1.00  0.00     0.000 C 
BRANCH   3   4
ATOM      4  C   UNL     1      -5.209  -3.285  -4.869  1.00  0.00     0.006 C 
BRANCH   4   5
ATOM      5  C   UNL     1      -4.428  -2.861  -6.120  1.00  0.00     0.053 C 
BRANCH   5   6
ATOM      6  C   UNL     1      -4.634  -1.405  -6.396  1.00  0.00     0.041 C 
ATOM      7  O   UNL     1      -5.799  -0.936  -6.482  1.00  0.00    -0.550 OA
ATOM      8  O   UNL     1      -3.541  -0.575  -6.608  1.00  0.00    -0.550 OA
ENDBRANCH   5   6
ENDBRANCH   4   5
ENDBRANCH   3   4
ENDBRANCH   2   3
ENDBRANCH   1   2
BRANCH   1   9
ATOM      9  C   UNL     1      -3.020  -3.178  -1.492  1.00  0.00     0.000 C 
BRANCH   9  10
ATOM     10  C   UNL     1      -4.036  -2.196  -0.886  1.00  0.00    -0.000 C 
BRANCH  10  11
ATOM     11  C   UNL     1      -5.015  -2.924   0.043  1.00  0.00    -0.000 C 
BRANCH  11  12
ATOM     12  C   UNL     1      -6.221  -3.463  -0.743  1.00  0.00    -0.000 C 
BRANCH  12  13
ATOM     13  C   UNL     1      -7.563  -3.037  -0.131  1.00  0.00    -0.003 C 
ATOM     14  C   UNL     1      -8.476  -4.222   0.179  1.00  0.00     0.004 C 
ENDBRANCH  12  13
ENDBRANCH  11  12
ENDBRANCH  10  11
ENDBRANCH   9  10
ENDBRANCH   1   9
TORSDOF 10
ENDMDL
MODEL 6
REMARK VINA RESULT:    -4.040      5.258      9.807
REMARK INTER + INTRA:          -7.103
REMARK INTER:                  -6.371
REMARK INTRA:                  -0.732
REMARK UNBOUND:                -0.700
REMARK SMILES CCCCCCCCCCCC(=O)[O-]
REMARK SMILES IDX 7 1 8 2 9 3 10 4 11 5 12 6 13 7 14 8 6 9 5 10 4 11 3 12 2 13
REMARK SMILES IDX 1 14
REMARK H PARENT
REMARK Flexibility Score: inf
ROOT
ATOM      1  C   UNL     1      -1.957   3.406  -7.564  1.00  0.00     0.000 C 
ENDROOT
BRANCH   1   2
ATOM      2  C   UNL     1      -3.461   3.442  -7.876  1.00  0.00     0.000 C 
BRANCH   2   3
ATOM      3  C   UNL     1      -4.291   3.307  -6.591  1.00  0.00     0.000 C 
BRANCH   3   4
ATOM      4  C   UNL     1      -3.833   2.134  -5.710  1.00  0.00     0.006 C 
BRANCH   4   5
ATOM      5  C   UNL     1      -4.777   0.927  -5.795  1.00  0.00     0.053 C 
BRANCH   5   6
ATOM      6  C   UNL     1      -4.091  -0.227  -6.453  1.00  0.00     0.041 C 
ATOM      7  O   UNL     1      -4.714  -1.303  -6.654  1.00  0.00    -0.550 OA
ATOM      8  O   UNL     1      -2.750  -0.133  -6.802  1.00  0.00    -0.550 OA
ENDBRANCH   5   6
ENDBRANCH   4   5
ENDBRANCH   3   4
ENDBRANCH   2   3
ENDBRANCH   1   2
BRANCH   1   9
ATOM      9  C   UNL     1      -1.087   3.579  -8.819  1.00  0.00     0.000 C 
BRANCH   9  10
ATOM     10  C   UNL     1      -1.920   3.699 -10.105  1.00  0.00    -0.000 C 
BRANCH  10  11
ATOM     11  C   UNL     1      -1.459   2.680 -11.154  1.00  0.00    -0.000 C 
BRANCH  11  12
ATOM     12  C   UNL     1      -2.269   2.821 -12.452  1.00  0.00    -0.000 C 
BRANCH  12  13
ATOM     13  C   UNL     1      -3.660   3.428 -12.215  1.00  0.00    -0.003 C 
ATOM     14  C   UNL     1      -4.111   4.338 -13.357  1.00  0.00     0.004 C 
ENDBRANCH  12  13
ENDBRANCH  11  12
ENDBRANCH  10  11
ENDBRANCH   9  10
ENDBRANCH   1   9
TORSDOF 10
ENDMDL
MODEL 7
REMARK VINA RESULT:    -4.031      3.139      4.396
REMARK INTER + INTRA:          -7.088
REMARK INTER:                  -5.729
REMARK INTRA:                  -1.359
REMARK UNBOUND:                -0.700
REMARK SMILES CCCCCCCCCCCC(=O)[O-]
REMARK SMILES IDX 7 1 8 2 9 3 10 4 11 5 12 6 13 7 14 8 6 9 5 10 4 11 3 12 2 13
REMARK SMILES IDX 1 14
REMARK H PARENT
REMARK Flexibility Score: inf
ROOT
ATOM      1  C   UNL     1      -4.152  -2.680  -6.516  1.00  0.00     0.000 C 
ENDROOT
BRANCH   1   2
ATOM      2  C   UNL     1      -4.074  -1.146  -6.489  1.00  0.00     0.000 C 
BRANCH   2   3
ATOM      3  C   UNL     1      -5.449  -0.532  -6.188  1.00  0.00     0.000 C 
BRANCH   3   4
ATOM      4  C   UNL     1      -5.418   1.004  -6.155  1.00  0.00     0.006 C 
BRANCH   4   5
ATOM      5  C   UNL     1      -4.336   1.553  -5.216  1.00  0.00     0.053 C 
BRANCH   5   6
ATOM      6  C   UNL     1      -3.423   2.479  -5.956  1.00  0.00     0.041 C 
ATOM      7  O   UNL     1      -3.856   3.575  -6.399  1.00  0.00    -0.550 OA
ATOM      8  O   UNL     1      -2.106   2.109  -6.201  1.00  0.00    -0.550 OA
ENDBRANCH   5   6
ENDBRANCH   4   5
ENDBRANCH   3   4
ENDBRANCH   2   3
ENDBRANCH   1   2
BRANCH   1   9
ATOM      9  C   UNL     1      -4.746  -3.266  -5.225  1.00  0.00     0.000 C 
BRANCH   9  10
ATOM     10  C   UNL     1      -3.761  -4.183  -4.483  1.00  0.00    -0.000 C 
BRANCH  10  11
ATOM     11  C   UNL     1      -2.805  -3.366  -3.606  1.00  0.00    -0.000 C 
BRANCH  11  12
ATOM     12  C   UNL     1      -3.555  -2.243  -2.873  1.00  0.00    -0.000 C 
BRANCH  12  13
ATOM     13  C   UNL     1      -2.841  -0.887  -2.983  1.00  0.00    -0.003 C 
ATOM     14  C   UNL     1      -1.591  -0.947  -3.859  1.00  0.00     0.004 C 
ENDBRANCH  12  13
ENDBRANCH  11  12
ENDBRANCH  10  11
ENDBRANCH   9  10
ENDBRANCH   1   9
TORSDOF 10
ENDMDL
MODEL 8
REMARK VINA RESULT:    -3.950      3.183      5.869
REMARK INTER + INTRA:          -6.959
REMARK INTER:                  -5.716
REMARK INTRA:                  -1.243
REMARK UNBOUND:                -0.700
REMARK SMILES CCCCCCCCCCCC(=O)[O-]
REMARK SMILES IDX 7 1 8 2 9 3 10 4 11 5 12 6 13 7 14 8 6 9 5 10 4 11 3 12 2 13
REMARK SMILES IDX 1 14
REMARK H PARENT
REMARK Flexibility Score: inf
ROOT
ATOM      1  C   UNL     1      -5.126  -3.464  -5.117  1.00  0.00     0.000 C 
ENDROOT
BRANCH   1   2
ATOM      2  C   UNL     1      -4.474  -4.123  -3.892  1.00  0.00     0.000 C 
BRANCH   2   3
ATOM      3  C   UNL     1      -5.349  -3.945  -2.643  1.00  0.00     0.000 C 
BRANCH   3   4
ATOM      4  C   UNL     1      -4.521  -3.801  -1.356  1.00  0.00     0.006 C 
BRANCH   4   5
ATOM      5  C   UNL     1      -5.066  -2.712  -0.421  1.00  0.00     0.053 C 
BRANCH   5   6
ATOM      6  C   UNL     1      -6.286  -3.199   0.293  1.00  0.00     0.041 C 
ATOM      7  O   UNL     1      -6.183  -4.056   1.210  1.00  0.00    -0.550 OA
ATOM      8  O   UNL     1      -7.543  -2.745  -0.086  1.00  0.00    -0.550 OA
ENDBRANCH   5   6
ENDBRANCH   4   5
ENDBRANCH   3   4
ENDBRANCH   2   3
ENDBRANCH   1   2
BRANCH   1   9
ATOM      9  C   UNL     1      -4.106  -2.751  -6.020  1.00  0.00     0.000 C 
BRANCH   9  10
ATOM     10  C   UNL     1      -4.593  -1.372  -6.490  1.00  0.00    -0.000 C 
BRANCH  10  11
ATOM     11  C   UNL     1      -4.336  -0.305  -5.418  1.00  0.00    -0.000 C 
BRANCH  11  12
ATOM     12  C   UNL     1      -2.959  -0.501  -4.766  1.00  0.00    -0.000 C 
BRANCH  12  13
ATOM     13  C   UNL     1      -3.043  -0.633  -3.238  1.00  0.00    -0.003 C 
ATOM     14  C   UNL     1      -1.948  -1.529  -2.660  1.00  0.00     0.004 C 
ENDBRANCH  12  13
ENDBRANCH  11  12
ENDBRANCH  10  11
ENDBRANCH   9  10
ENDBRANCH   1   9
TORSDOF 10
ENDMDL
MODEL 9
REMARK VINA RESULT:    -3.929     13.081     14.832
REMARK INTER + INTRA:          -6.926
REMARK INTER:                  -5.520
REMARK INTRA:                  -1.406
REMARK UNBOUND:                -0.700
REMARK SMILES CCCCCCCCCCCC(=O)[O-]
REMARK SMILES IDX 7 1 8 2 9 3 10 4 11 5 12 6 13 7 14 8 6 9 5 10 4 11 3 12 2 13
REMARK SMILES IDX 1 14
REMARK H PARENT
REMARK Flexibility Score: inf
ROOT
ATOM      1  C   UNL     1     -16.757  -1.514 -10.145  1.00  0.00     0.000 C 
ENDROOT
BRANCH   1   2
ATOM      2  C   UNL     1     -17.195  -0.456  -9.121  1.00  0.00     0.000 C 
BRANCH   2   3
ATOM      3  C   UNL     1     -16.203   0.715  -9.083  1.00  0.00     0.000 C 
BRANCH   3   4
ATOM      4  C   UNL     1     -16.756   1.937  -8.334  1.00  0.00     0.006 C 
BRANCH   4   5
ATOM      5  C   UNL     1     -18.264   2.129  -8.548  1.00  0.00     0.053 C 
BRANCH   5   6
ATOM      6  C   UNL     1     -18.968   2.230  -7.232  1.00  0.00     0.041 C 
ATOM      7  O   UNL     1     -19.227   1.190  -6.571  1.00  0.00    -0.550 OA
ATOM      8  O   UNL     1     -19.383   3.468  -6.757  1.00  0.00    -0.550 OA
ENDBRANCH   5   6
ENDBRANCH   4   5
ENDBRANCH   3   4
ENDBRANCH   2   3
ENDBRANCH   1   2
BRANCH   1   9
ATOM      9  C   UNL     1     -15.247  -1.474 -10.429  1.00  0.00     0.000 C 
BRANCH   9  10
ATOM     10  C   UNL     1     -14.926  -1.478 -11.931  1.00  0.00    -0.000 C 
BRANCH  10  11
ATOM     11  C   UNL     1     -16.187  -1.205 -12.762  1.00  0.00    -0.000 C 
BRANCH  11  12
ATOM     12  C   UNL     1     -16.071   0.130 -13.514  1.00  0.00    -0.000 C 
BRANCH  12  13
ATOM     13  C   UNL     1     -16.464   1.333 -12.644  1.00  0.00    -0.003 C 
ATOM     14  C   UNL     1     -17.957   1.367 -12.321  1.00  0.00     0.004 C 
ENDBRANCH  12  13
ENDBRANCH  11  12
ENDBRANCH  10  11
ENDBRANCH   9  10
ENDBRANCH   1   9
TORSDOF 10
ENDMDL
