MODEL 1
REMARK VINA RESULT:    -3.562      0.000      0.000
REMARK INTER + INTRA:          -4.560
REMARK INTER:                  -4.395
REMARK INTRA:                  -0.165
REMARK UNBOUND:                -0.165
REMARK SMILES CCCCCC(=O)[O-]
REMARK SMILES IDX 4 1 5 2 6 3 7 4 8 5 3 6 2 7 1 8
REMARK H PARENT
REMARK Flexibility Score: inf
ROOT
ATOM      1  C   UNL     1      52.777 -49.335  -9.101  1.00  0.00     0.006 C 
ENDROOT
BRANCH   1   2
ATOM      2  C   UNL     1      51.753 -49.828  -8.074  1.00  0.00     0.053 C 
BRANCH   2   3
ATOM      3  C   UNL     1      51.432 -51.271  -8.305  1.00  0.00     0.041 C 
ATOM      4  O   UNL     1      51.028 -51.990  -7.353  1.00  0.00    -0.550 OA
ATOM      5  O   UNL     1      51.531 -51.809  -9.581  1.00  0.00    -0.550 OA
ENDBRANCH   2   3
ENDBRANCH   1   2
BRANCH   1   6
ATOM      6  C   UNL     1      52.211 -48.177  -9.931  1.00  0.00     0.000 C 
BRANCH   6   7
ATOM      7  C   UNL     1      50.921 -47.633  -9.307  1.00  0.00    -0.003 C 
ATOM      8  C   UNL     1      49.851 -47.399 -10.370  1.00  0.00     0.004 C 
ENDBRANCH   6   7
ENDBRANCH   1   6
TORSDOF 4
ENDMDL
MODEL 2
REMARK VINA RESULT:    -3.552      2.008      3.106
REMARK INTER + INTRA:          -4.547
REMARK INTER:                  -4.399
REMARK INTRA:                  -0.148
REMARK UNBOUND:                -0.165
REMARK SMILES CCCCCC(=O)[O-]
REMARK SMILES IDX 4 1 5 2 6 3 7 4 8 5 3 6 2 7 1 8
REMARK H PARENT
REMARK Flexibility Score: inf
ROOT
ATOM      1  C   UNL     1      52.166 -51.781  -8.820  1.00  0.00     0.006 C 
ENDROOT
BRANCH   1   2
ATOM      2  C   UNL     1      53.216 -51.189  -9.764  1.00  0.00     0.053 C 
BRANCH   2   3
ATOM      3  C   UNL     1      52.771 -51.313 -11.188  1.00  0.00     0.041 C 
ATOM      4  O   UNL     1      53.582 -51.691 -12.074  1.00  0.00    -0.550 OA
ATOM      5  O   UNL     1      51.449 -51.058 -11.527  1.00  0.00    -0.550 OA
ENDBRANCH   2   3
ENDBRANCH   1   2
BRANCH   1   6
ATOM      6  C   UNL     1      51.376 -50.674  -8.112  1.00  0.00     0.000 C 
BRANCH   6   7
ATOM      7  C   UNL     1      52.106 -49.330  -8.210  1.00  0.00    -0.003 C 
ATOM      8  C   UNL     1      51.258 -48.294  -8.943  1.00  0.00     0.004 C 
ENDBRANCH   6   7
ENDBRANCH   1   6
TORSDOF 4
ENDMDL
MODEL 3
REMARK VINA RESULT:    -3.481      2.788      3.840
REMARK INTER + INTRA:          -4.459
REMARK INTER:                  -4.362
REMARK INTRA:                  -0.097
REMARK UNBOUND:                -0.165
REMARK SMILES CCCCCC(=O)[O-]
REMARK SMILES IDX 4 1 5 2 6 3 7 4 8 5 3 6 2 7 1 8
REMARK H PARENT
REMARK Flexibility Score: inf
ROOT
ATOM      1  C   UNL     1      52.991 -50.121  -9.154  1.00  0.00     0.006 C 
ENDROOT
BRANCH   1   2
ATOM      2  C   UNL     1      53.147 -51.312 -10.104  1.00  0.00     0.053 C 
BRANCH   2   3
ATOM      3  C   UNL     1      52.797 -50.915 -11.504  1.00  0.00     0.041 C 
ATOM      4  O   UNL     1      53.220 -51.592 -12.479  1.00  0.00    -0.550 OA
ATOM      5  O   UNL     1      51.963 -49.828 -11.731  1.00  0.00    -0.550 OA
ENDBRANCH   2   3
ENDBRANCH   1   2
BRANCH   1   6
ATOM      6  C   UNL     1      51.650 -50.182  -8.412  1.00  0.00     0.000 C 
BRANCH   6   7
ATOM      7  C   UNL     1      51.174 -51.630  -8.255  1.00  0.00    -0.003 C 
ATOM      8  C   UNL     1      50.624 -51.880  -6.853  1.00  0.00     0.004 C 
ENDBRANCH   6   7
ENDBRANCH   1   6
TORSDOF 4
ENDMDL
MODEL 4
REMARK VINA RESULT:    -3.480      0.706      1.393
REMARK INTER + INTRA:          -4.458
REMARK INTER:                  -4.296
REMARK INTRA:                  -0.162
REMARK UNBOUND:                -0.165
REMARK SMILES CCCCCC(=O)[O-]
REMARK SMILES IDX 4 1 5 2 6 3 7 4 8 5 3 6 2 7 1 8
REMARK H PARENT
REMARK Flexibility Score: inf
ROOT
ATOM      1  C   UNL     1      52.833 -49.222  -8.463  1.00  0.00     0.006 C 
ENDROOT
BRANCH   1   2
ATOM      2  C   UNL     1      53.079 -50.673  -8.888  1.00  0.00     0.053 C 
BRANCH   2   3
ATOM      3  C   UNL     1      51.782 -51.409  -9.015  1.00  0.00     0.041 C 
ATOM      4  O   UNL     1      51.413 -51.853 -10.134  1.00  0.00    -0.550 OA
ATOM      5  O   UNL     1      51.004 -51.647  -7.889  1.00  0.00    -0.550 OA
ENDBRANCH   2   3
ENDBRANCH   1   2
BRANCH   1   6
ATOM      6  C   UNL     1      52.313 -48.385  -9.638  1.00  0.00     0.000 C 
BRANCH   6   7
ATOM      7  C   UNL     1      51.002 -47.680  -9.273  1.00  0.00    -0.003 C 
ATOM      8  C   UNL     1      50.032 -47.678 -10.450  1.00  0.00     0.004 C 
ENDBRANCH   6   7
ENDBRANCH   1   6
TORSDOF 4
ENDMDL
MODEL 5
REMARK VINA RESULT:    -3.453      2.350      4.021
REMARK INTER + INTRA:          -4.425
REMARK INTER:                  -4.181
REMARK INTRA:                  -0.244
REMARK UNBOUND:                -0.165
REMARK SMILES CCCCCC(=O)[O-]
REMARK SMILES IDX 4 1 5 2 6 3 7 4 8 5 3 6 2 7 1 8
REMARK H PARENT
REMARK Flexibility Score: inf
ROOT
ATOM      1  C   UNL     1      52.164 -49.387  -8.260  1.00  0.00     0.006 C 
ENDROOT
BRANCH   1   2
ATOM      2  C   UNL     1      51.325 -48.330  -8.984  1.00  0.00     0.053 C 
BRANCH   2   3
ATOM      3  C   UNL     1      51.875 -48.069 -10.351  1.00  0.00     0.041 C 
ATOM      4  O   UNL     1      52.335 -46.933 -10.642  1.00  0.00    -0.550 OA
ATOM      5  O   UNL     1      51.925 -49.093 -11.287  1.00  0.00    -0.550 OA
ENDBRANCH   2   3
ENDBRANCH   1   2
BRANCH   1   6
ATOM      6  C   UNL     1      51.391 -50.704  -8.124  1.00  0.00     0.000 C 
BRANCH   6   7
ATOM      7  C   UNL     1      52.104 -51.839  -8.869  1.00  0.00    -0.003 C 
ATOM      8  C   UNL     1      53.572 -51.502  -9.112  1.00  0.00     0.004 C 
ENDBRANCH   6   7
ENDBRANCH   1   6
TORSDOF 4
ENDMDL
MODEL 6
REMARK VINA RESULT:    -3.440      2.258      3.642
REMARK INTER + INTRA:          -4.410
REMARK INTER:                  -4.193
REMARK INTRA:                  -0.216
REMARK UNBOUND:                -0.165
REMARK SMILES CCCCCC(=O)[O-]
REMARK SMILES IDX 4 1 5 2 6 3 7 4 8 5 3 6 2 7 1 8
REMARK H PARENT
REMARK Flexibility Score: inf
ROOT
ATOM      1  C   UNL     1      52.494 -49.440  -8.395  1.00  0.00     0.006 C 
ENDROOT
BRANCH   1   2
ATOM      2  C   UNL     1      52.487 -48.424  -9.541  1.00  0.00     0.053 C 
BRANCH   2   3
ATOM      3  C   UNL     1      51.234 -48.554 -10.349  1.00  0.00     0.041 C 
ATOM      4  O   UNL     1      50.214 -47.880 -10.048  1.00  0.00    -0.550 OA
ATOM      5  O   UNL     1      51.209 -49.380 -11.465  1.00  0.00    -0.550 OA
ENDBRANCH   2   3
ENDBRANCH   1   2
BRANCH   1   6
ATOM      6  C   UNL     1      53.170 -50.747  -8.824  1.00  0.00     0.000 C 
BRANCH   6   7
ATOM      7  C   UNL     1      52.211 -51.934  -8.683  1.00  0.00    -0.003 C 
ATOM      8  C   UNL     1      51.029 -51.584  -7.783  1.00  0.00     0.004 C 
ENDBRANCH   6   7
ENDBRANCH   1   6
TORSDOF 4
ENDMDL
MODEL 7
REMARK VINA RESULT:    -3.431      1.630      1.917
REMARK INTER + INTRA:          -4.397
REMARK INTER:                  -4.263
REMARK INTRA:                  -0.134
REMARK UNBOUND:                -0.165
REMARK SMILES CCCCCC(=O)[O-]
REMARK SMILES IDX 4 1 5 2 6 3 7 4 8 5 3 6 2 7 1 8
REMARK H PARENT
REMARK Flexibility Score: inf
ROOT
ATOM      1  C   UNL     1      51.752 -49.863  -8.184  1.00  0.00     0.006 C 
ENDROOT
BRANCH   1   2
ATOM      2  C   UNL     1      51.781 -51.201  -8.929  1.00  0.00     0.053 C 
BRANCH   2   3
ATOM      3  C   UNL     1      53.116 -51.414  -9.572  1.00  0.00     0.041 C 
ATOM      4  O   UNL     1      54.121 -51.694  -8.867  1.00  0.00    -0.550 OA
ATOM      5  O   UNL     1      53.239 -51.352 -10.954  1.00  0.00    -0.550 OA
ENDBRANCH   2   3
ENDBRANCH   1   2
BRANCH   1   6
ATOM      6  C   UNL     1      52.200 -48.715  -9.096  1.00  0.00     0.000 C 
BRANCH   6   7
ATOM      7  C   UNL     1      51.061 -48.271 -10.020  1.00  0.00    -0.003 C 
ATOM      8  C   UNL     1      50.531 -46.897  -9.621  1.00  0.00     0.004 C 
ENDBRANCH   6   7
ENDBRANCH   1   6
TORSDOF 4
ENDMDL
MODEL 8
REMARK VINA RESULT:    -3.349      2.580      3.924
REMARK INTER + INTRA:          -4.296
REMARK INTER:                  -4.145
REMARK INTRA:                  -0.151
REMARK UNBOUND:                -0.165
REMARK SMILES CCCCCC(=O)[O-]
REMARK SMILES IDX 4 1 5 2 6 3 7 4 8 5 3 6 2 7 1 8
REMARK H PARENT
REMARK Flexibility Score: inf
ROOT
ATOM      1  C   UNL     1      52.754 -48.969  -9.274  1.00  0.00     0.006 C 
ENDROOT
BRANCH   1   2
ATOM      2  C   UNL     1      51.367 -48.374  -9.018  1.00  0.00     0.053 C 
BRANCH   2   3
ATOM      3  C   UNL     1      50.732 -47.950 -10.305  1.00  0.00     0.041 C 
ATOM      4  O   UNL     1      51.306 -48.183 -11.401  1.00  0.00    -0.550 OA
ATOM      5  O   UNL     1      49.483 -47.343 -10.297  1.00  0.00    -0.550 OA
ENDBRANCH   2   3
ENDBRANCH   1   2
BRANCH   1   6
ATOM      6  C   UNL     1      52.897 -50.342  -8.606  1.00  0.00     0.000 C 
BRANCH   6   7
ATOM      7  C   UNL     1      51.710 -51.248  -8.952  1.00  0.00    -0.003 C 
ATOM      8  C   UNL     1      51.057 -51.806  -7.691  1.00  0.00     0.004 C 
ENDBRANCH   6   7
ENDBRANCH   1   6
TORSDOF 4
ENDMDL
MODEL 9
REMARK VINA RESULT:    -2.965      2.213      3.277
REMARK INTER + INTRA:          -3.823
REMARK INTER:                  -3.607
REMARK INTRA:                  -0.215
REMARK UNBOUND:                -0.165
REMARK SMILES CCCCCC(=O)[O-]
REMARK SMILES IDX 4 1 5 2 6 3 7 4 8 5 3 6 2 7 1 8
REMARK H PARENT
REMARK Flexibility Score: inf
ROOT
ATOM      1  C   UNL     1      51.329 -48.901 -10.439  1.00  0.00     0.006 C 
ENDROOT
BRANCH   1   2
ATOM      2  C   UNL     1      51.940 -49.317 -11.780  1.00  0.00     0.053 C 
BRANCH   2   3
ATOM      3  C   UNL     1      52.049 -50.807 -11.868  1.00  0.00     0.041 C 
ATOM      4  O   UNL     1      53.141 -51.378 -11.608  1.00  0.00    -0.550 OA
ATOM      5  O   UNL     1      50.932 -51.568 -12.187  1.00  0.00    -0.550 OA
ENDBRANCH   2   3
ENDBRANCH   1   2
BRANCH   1   6
ATOM      6  C   UNL     1      52.414 -48.721  -9.372  1.00  0.00     0.000 C 
BRANCH   6   7
ATOM      7  C   UNL     1      51.966 -49.306  -8.028  1.00  0.00    -0.003 C 
ATOM      8  C   UNL     1      51.416 -50.719  -8.198  1.00  0.00     0.004 C 
ENDBRANCH   6   7
ENDBRANCH   1   6
TORSDOF 4
ENDMDL
