MODEL 1
REMARK VINA RESULT:    -5.116      0.000      0.000
REMARK INTER + INTRA:          -5.942
REMARK INTER:                  -5.714
REMARK INTRA:                  -0.228
REMARK UNBOUND:                -0.228
REMARK SMILES O=C([O-])c1ccccc1C(=O)[O-]
REMARK SMILES IDX 4 1 9 2 5 3 8 4 6 5 7 6 2 7 1 8 3 9 10 10 11 11 12 12
REMARK H PARENT
REMARK Flexibility Score: inf
ROOT
ATOM      1  C   UNL     1       8.301 -19.103 -10.192  1.00  0.00     0.006 A 
ATOM      2  C   UNL     1       9.366 -18.721 -11.054  1.00  0.00     0.006 A 
ATOM      3  C   UNL     1       8.515 -19.114  -8.801  1.00  0.00     0.010 A 
ATOM      4  C   UNL     1      10.586 -18.304 -10.489  1.00  0.00     0.010 A 
ATOM      5  C   UNL     1       9.740 -18.717  -8.264  1.00  0.00     0.001 A 
ATOM      6  C   UNL     1      10.770 -18.302  -9.106  1.00  0.00     0.001 A 
ENDROOT
BRANCH   1   7
ATOM      7  C   UNL     1       6.943 -19.419 -10.693  1.00  0.00     0.072 C 
ATOM      8  O   UNL     1       6.569 -20.617 -10.795  1.00  0.00    -0.545 OA
ATOM      9  O   UNL     1       6.045 -18.404 -10.995  1.00  0.00    -0.545 OA
ENDBRANCH   1   7
BRANCH   2  10
ATOM     10  C   UNL     1       9.273 -18.815 -12.529  1.00  0.00     0.072 C 
ATOM     11  O   UNL     1       9.546 -19.898 -13.113  1.00  0.00    -0.545 OA
ATOM     12  O   UNL     1       8.823 -17.736 -13.281  1.00  0.00    -0.545 OA
ENDBRANCH   2  10
TORSDOF 2
ENDMDL
MODEL 2
REMARK VINA RESULT:    -5.114      0.048      2.860
REMARK INTER + INTRA:          -5.940
REMARK INTER:                  -5.712
REMARK INTRA:                  -0.228
REMARK UNBOUND:                -0.228
REMARK SMILES O=C([O-])c1ccccc1C(=O)[O-]
REMARK SMILES IDX 4 1 9 2 5 3 8 4 6 5 7 6 2 7 1 8 3 9 10 10 11 11 12 12
REMARK H PARENT
REMARK Flexibility Score: inf
ROOT
ATOM      1  C   UNL     1       9.392 -18.707 -11.042  1.00  0.00     0.006 A 
ATOM      2  C   UNL     1       8.332 -19.075 -10.169  1.00  0.00     0.006 A 
ATOM      3  C   UNL     1      10.619 -18.289 -10.493  1.00  0.00     0.010 A 
ATOM      4  C   UNL     1       8.559 -19.071  -8.779  1.00  0.00     0.010 A 
ATOM      5  C   UNL     1      10.814 -18.272  -9.111  1.00  0.00     0.001 A 
ATOM      6  C   UNL     1       9.790 -18.673  -8.257  1.00  0.00     0.001 A 
ENDROOT
BRANCH   1   7
ATOM      7  C   UNL     1       9.287 -18.817 -12.515  1.00  0.00     0.072 C 
ATOM      8  O   UNL     1       9.562 -19.904 -13.091  1.00  0.00    -0.545 OA
ATOM      9  O   UNL     1       8.826 -17.750 -13.275  1.00  0.00    -0.545 OA
ENDBRANCH   1   7
BRANCH   2  10
ATOM     10  C   UNL     1       6.970 -19.391 -10.655  1.00  0.00     0.072 C 
ATOM     11  O   UNL     1       6.588 -20.589 -10.736  1.00  0.00    -0.545 OA
ATOM     12  O   UNL     1       6.074 -18.375 -10.966  1.00  0.00    -0.545 OA
ENDBRANCH   2  10
TORSDOF 2
ENDMDL
MODEL 3
REMARK VINA RESULT:    -4.786      1.781      3.439
REMARK INTER + INTRA:          -5.574
REMARK INTER:                  -5.614
REMARK INTRA:                   0.041
REMARK UNBOUND:                -0.228
REMARK SMILES O=C([O-])c1ccccc1C(=O)[O-]
REMARK SMILES IDX 4 1 9 2 5 3 8 4 6 5 7 6 2 7 1 8 3 9 10 10 11 11 12 12
REMARK H PARENT
REMARK Flexibility Score: inf
ROOT
ATOM      1  C   UNL     1       8.097 -19.112 -11.469  1.00  0.00     0.006 A 
ATOM      2  C   UNL     1       8.561 -18.826 -10.156  1.00  0.00     0.006 A 
ATOM      3  C   UNL     1       6.761 -19.519 -11.650  1.00  0.00     0.010 A 
ATOM      4  C   UNL     1       7.656 -18.896  -9.080  1.00  0.00     0.010 A 
ATOM      5  C   UNL     1       5.887 -19.602 -10.566  1.00  0.00     0.001 A 
ATOM      6  C   UNL     1       6.330 -19.280  -9.286  1.00  0.00     0.001 A 
ENDROOT
BRANCH   1   7
ATOM      7  C   UNL     1       8.941 -18.928 -12.672  1.00  0.00     0.072 C 
ATOM      8  O   UNL     1       9.701 -19.854 -13.061  1.00  0.00    -0.545 OA
ATOM      9  O   UNL     1       8.861 -17.762 -13.422  1.00  0.00    -0.545 OA
ENDBRANCH   1   7
BRANCH   2  10
ATOM     10  C   UNL     1       9.981 -18.529  -9.858  1.00  0.00     0.072 C 
ATOM     11  O   UNL     1      10.610 -19.223  -9.015  1.00  0.00    -0.545 OA
ATOM     12  O   UNL     1      10.656 -17.528 -10.547  1.00  0.00    -0.545 OA
ENDBRANCH   2  10
TORSDOF 2
ENDMDL
MODEL 4
REMARK VINA RESULT:    -4.749      2.192      3.390
REMARK INTER + INTRA:          -5.532
REMARK INTER:                  -5.435
REMARK INTRA:                  -0.097
REMARK UNBOUND:                -0.228
REMARK SMILES O=C([O-])c1ccccc1C(=O)[O-]
REMARK SMILES IDX 4 1 9 2 5 3 8 4 6 5 7 6 2 7 1 8 3 9 10 10 11 11 12 12
REMARK H PARENT
REMARK Flexibility Score: inf
ROOT
ATOM      1  C   UNL     1       8.803 -18.371 -11.731  1.00  0.00     0.006 A 
ATOM      2  C   UNL     1      10.008 -18.095 -11.028  1.00  0.00     0.006 A 
ATOM      3  C   UNL     1       8.734 -18.089 -13.108  1.00  0.00     0.010 A 
ATOM      4  C   UNL     1      11.119 -17.607 -11.741  1.00  0.00     0.010 A 
ATOM      5  C   UNL     1       9.841 -17.584 -13.791  1.00  0.00     0.001 A 
ATOM      6  C   UNL     1      11.035 -17.355 -13.111  1.00  0.00     0.001 A 
ENDROOT
BRANCH   1   7
ATOM      7  C   UNL     1       7.634 -19.016 -11.089  1.00  0.00     0.072 C 
ATOM      8  O   UNL     1       7.301 -20.187 -11.412  1.00  0.00    -0.545 OA
ATOM      9  O   UNL     1       6.931 -18.368 -10.082  1.00  0.00    -0.545 OA
ENDBRANCH   1   7
BRANCH   2  10
ATOM     10  C   UNL     1      10.124 -18.229  -9.557  1.00  0.00     0.072 C 
ATOM     11  O   UNL     1       9.964 -17.223  -8.816  1.00  0.00    -0.545 OA
ATOM     12  O   UNL     1      10.343 -19.471  -8.973  1.00  0.00    -0.545 OA
ENDBRANCH   2  10
TORSDOF 2
ENDMDL
MODEL 5
REMARK VINA RESULT:    -4.742      2.191      3.822
REMARK INTER + INTRA:          -5.525
REMARK INTER:                  -5.415
REMARK INTRA:                  -0.109
REMARK UNBOUND:                -0.228
REMARK SMILES O=C([O-])c1ccccc1C(=O)[O-]
REMARK SMILES IDX 4 1 9 2 5 3 8 4 6 5 7 6 2 7 1 8 3 9 10 10 11 11 12 12
REMARK H PARENT
REMARK Flexibility Score: inf
ROOT
ATOM      1  C   UNL     1      10.012 -18.099 -11.036  1.00  0.00     0.006 A 
ATOM      2  C   UNL     1       8.796 -18.364 -11.724  1.00  0.00     0.006 A 
ATOM      3  C   UNL     1      11.117 -17.611 -11.759  1.00  0.00     0.010 A 
ATOM      4  C   UNL     1       8.711 -18.071 -13.098  1.00  0.00     0.010 A 
ATOM      5  C   UNL     1      11.016 -17.348 -13.125  1.00  0.00     0.001 A 
ATOM      6  C   UNL     1       9.812 -17.567 -13.791  1.00  0.00     0.001 A 
ENDROOT
BRANCH   1   7
ATOM      7  C   UNL     1      10.146 -18.244  -9.568  1.00  0.00     0.072 C 
ATOM      8  O   UNL     1      10.001 -17.244  -8.816  1.00  0.00    -0.545 OA
ATOM      9  O   UNL     1      10.369 -19.491  -8.996  1.00  0.00    -0.545 OA
ENDBRANCH   1   7
BRANCH   2  10
ATOM     10  C   UNL     1       7.633 -19.008 -11.072  1.00  0.00     0.072 C 
ATOM     11  O   UNL     1       7.306 -20.185 -11.379  1.00  0.00    -0.545 OA
ATOM     12  O   UNL     1       6.928 -18.351 -10.070  1.00  0.00    -0.545 OA
ENDBRANCH   2  10
TORSDOF 2
ENDMDL
MODEL 6
REMARK VINA RESULT:    -4.649      1.833      3.101
REMARK INTER + INTRA:          -5.420
REMARK INTER:                  -5.305
REMARK INTRA:                  -0.115
REMARK UNBOUND:                -0.228
REMARK SMILES O=C([O-])c1ccccc1C(=O)[O-]
REMARK SMILES IDX 4 1 9 2 5 3 8 4 6 5 7 6 2 7 1 8 3 9 10 10 11 11 12 12
REMARK H PARENT
REMARK Flexibility Score: inf
ROOT
ATOM      1  C   UNL     1       8.479 -18.924 -10.016  1.00  0.00     0.006 A 
ATOM      2  C   UNL     1       8.090 -19.127 -11.369  1.00  0.00     0.006 A 
ATOM      3  C   UNL     1       7.534 -19.130  -8.993  1.00  0.00     0.010 A 
ATOM      4  C   UNL     1       6.789 -19.589 -11.644  1.00  0.00     0.010 A 
ATOM      5  C   UNL     1       6.243 -19.567  -9.291  1.00  0.00     0.001 A 
ATOM      6  C   UNL     1       5.875 -19.807 -10.613  1.00  0.00     0.001 A 
ENDROOT
BRANCH   1   7
ATOM      7  C   UNL     1       9.865 -18.576  -9.628  1.00  0.00     0.072 C 
ATOM      8  O   UNL     1      10.632 -19.458  -9.158  1.00  0.00    -0.545 OA
ATOM      9  O   UNL     1      10.359 -17.294  -9.833  1.00  0.00    -0.545 OA
ENDBRANCH   1   7
BRANCH   2  10
ATOM     10  C   UNL     1       8.973 -18.800 -12.511  1.00  0.00     0.072 C 
ATOM     11  O   UNL     1       9.914 -19.577 -12.828  1.00  0.00    -0.545 OA
ATOM     12  O   UNL     1       8.740 -17.671 -13.288  1.00  0.00    -0.545 OA
ENDBRANCH   2  10
TORSDOF 2
ENDMDL
MODEL 7
REMARK VINA RESULT:    -4.582     12.576     14.193
REMARK INTER + INTRA:          -5.346
REMARK INTER:                  -5.119
REMARK INTRA:                  -0.227
REMARK UNBOUND:                -0.228
REMARK SMILES O=C([O-])c1ccccc1C(=O)[O-]
REMARK SMILES IDX 4 1 9 2 5 3 8 4 6 5 7 6 2 7 1 8 3 9 10 10 11 11 12 12
REMARK H PARENT
REMARK Flexibility Score: inf
ROOT
ATOM      1  C   UNL     1      18.577 -10.782  -5.241  1.00  0.00     0.006 A 
ATOM      2  C   UNL     1      17.359 -11.368  -4.802  1.00  0.00     0.006 A 
ATOM      3  C   UNL     1      18.605 -10.100  -6.473  1.00  0.00     0.010 A 
ATOM      4  C   UNL     1      16.199 -11.198  -5.581  1.00  0.00     0.010 A 
ATOM      5  C   UNL     1      17.448  -9.963  -7.239  1.00  0.00     0.001 A 
ATOM      6  C   UNL     1      16.245 -10.501  -6.789  1.00  0.00     0.001 A 
ENDROOT
BRANCH   1   7
ATOM      7  C   UNL     1      19.809 -10.790  -4.419  1.00  0.00     0.072 C 
ATOM      8  O   UNL     1      20.012  -9.881  -3.571  1.00  0.00    -0.545 OA
ATOM      9  O   UNL     1      20.725 -11.830  -4.524  1.00  0.00    -0.545 OA
ENDBRANCH   1   7
BRANCH   2  10
ATOM     10  C   UNL     1      17.272 -12.219  -3.593  1.00  0.00     0.072 C 
ATOM     11  O   UNL     1      17.396 -13.470  -3.689  1.00  0.00    -0.545 OA
ATOM     12  O   UNL     1      17.119 -11.650  -2.335  1.00  0.00    -0.545 OA
ENDBRANCH   2  10
TORSDOF 2
ENDMDL
MODEL 8
REMARK VINA RESULT:    -4.579     12.570     13.924
REMARK INTER + INTRA:          -5.342
REMARK INTER:                  -5.118
REMARK INTRA:                  -0.225
REMARK UNBOUND:                -0.228
REMARK SMILES O=C([O-])c1ccccc1C(=O)[O-]
REMARK SMILES IDX 4 1 9 2 5 3 8 4 6 5 7 6 2 7 1 8 3 9 10 10 11 11 12 12
REMARK H PARENT
REMARK Flexibility Score: inf
ROOT
ATOM      1  C   UNL     1      17.351 -11.355  -4.805  1.00  0.00     0.006 A 
ATOM      2  C   UNL     1      18.545 -10.756  -5.293  1.00  0.00     0.006 A 
ATOM      3  C   UNL     1      16.166 -11.230  -5.555  1.00  0.00     0.010 A 
ATOM      4  C   UNL     1      18.524 -10.107  -6.541  1.00  0.00     0.010 A 
ATOM      5  C   UNL     1      16.164 -10.563  -6.781  1.00  0.00     0.001 A 
ATOM      6  C   UNL     1      17.343 -10.013  -7.278  1.00  0.00     0.001 A 
ENDROOT
BRANCH   1   7
ATOM      7  C   UNL     1      17.316 -12.176  -3.573  1.00  0.00     0.072 C 
ATOM      8  O   UNL     1      17.451 -13.426  -3.640  1.00  0.00    -0.545 OA
ATOM      9  O   UNL     1      17.197 -11.576  -2.325  1.00  0.00    -0.545 OA
ENDBRANCH   1   7
BRANCH   2  10
ATOM     10  C   UNL     1      19.799 -10.718  -4.505  1.00  0.00     0.072 C 
ATOM     11  O   UNL     1      20.001  -9.787  -3.681  1.00  0.00    -0.545 OA
ATOM     12  O   UNL     1      20.737 -11.738  -4.615  1.00  0.00    -0.545 OA
ENDBRANCH   2  10
TORSDOF 2
ENDMDL
MODEL 9
REMARK VINA RESULT:    -4.472      3.831      4.651
REMARK INTER + INTRA:          -5.223
REMARK INTER:                  -5.427
REMARK INTRA:                   0.204
REMARK UNBOUND:                -0.228
REMARK SMILES O=C([O-])c1ccccc1C(=O)[O-]
REMARK SMILES IDX 4 1 9 2 5 3 8 4 6 5 7 6 2 7 1 8 3 9 10 10 11 11 12 12
REMARK H PARENT
REMARK Flexibility Score: inf
ROOT
ATOM      1  C   UNL     1       9.954 -18.967  -8.054  1.00  0.00     0.006 A 
ATOM      2  C   UNL     1      11.130 -18.360  -8.575  1.00  0.00     0.006 A 
ATOM      3  C   UNL     1       8.849 -19.162  -8.903  1.00  0.00     0.010 A 
ATOM      4  C   UNL     1      11.179 -18.028  -9.942  1.00  0.00     0.010 A 
ATOM      5  C   UNL     1       8.913 -18.806 -10.251  1.00  0.00     0.001 A 
ATOM      6  C   UNL     1      10.079 -18.250 -10.771  1.00  0.00     0.001 A 
ENDROOT
BRANCH   1   7
ATOM      7  C   UNL     1       9.867 -19.475  -6.665  1.00  0.00     0.072 C 
ATOM      8  O   UNL     1      10.312 -18.787  -5.709  1.00  0.00    -0.545 OA
ATOM      9  O   UNL     1       9.239 -20.684  -6.390  1.00  0.00    -0.545 OA
ENDBRANCH   1   7
BRANCH   2  10
ATOM     10  C   UNL     1      12.283 -17.990  -7.723  1.00  0.00     0.072 C 
ATOM     11  O   UNL     1      13.181 -18.837  -7.470  1.00  0.00    -0.545 OA
ATOM     12  O   UNL     1      12.426 -16.692  -7.246  1.00  0.00    -0.545 OA
ENDBRANCH   2  10
TORSDOF 2
ENDMDL
