MODEL 1
REMARK VINA RESULT:    -5.638      0.000      0.000
REMARK INTER + INTRA:          -6.597
REMARK INTER:                  -6.462
REMARK INTRA:                  -0.136
REMARK UNBOUND:                -0.136
REMARK SMILES O=C([O-])C=Cc1ccc(O)cc1
REMARK SMILES IDX 6 1 7 2 12 3 8 4 11 5 9 6 5 7 4 8 2 9 1 10 3 11 10 12
REMARK H PARENT 10 13
REMARK Flexibility Score: inf
ROOT
ATOM      1  C   UNL     1      31.333   8.768 105.717  1.00  0.00    -0.025 A 
ATOM      2  C   UNL     1      30.750   7.940 104.736  1.00  0.00     0.012 A 
ATOM      3  C   UNL     1      31.747   8.193 106.931  1.00  0.00     0.012 A 
ATOM      4  C   UNL     1      30.566   6.576 104.980  1.00  0.00     0.047 A 
ATOM      5  C   UNL     1      31.559   6.829 107.172  1.00  0.00     0.047 A 
ATOM      6  C   UNL     1      30.966   6.016 106.197  1.00  0.00     0.115 A 
ENDROOT
BRANCH   1   7
ATOM      7  C   UNL     1      31.564  10.218 105.505  1.00  0.00     0.010 C 
ATOM      8  C   UNL     1      30.578  11.119 105.380  1.00  0.00     0.025 C 
BRANCH   8   9
ATOM      9  C   UNL     1      30.845  12.554 105.182  1.00  0.00     0.064 C 
ATOM     10  O   UNL     1      29.914  13.401 105.216  1.00  0.00    -0.545 OA
ATOM     11  O   UNL     1      32.147  12.980 104.955  1.00  0.00    -0.545 OA
ENDBRANCH   8   9
ENDBRANCH   1   7
BRANCH   6  12
ATOM     12  O   UNL     1      30.774   4.656 106.426  1.00  0.00    -0.508 OA
ATOM     13  H   UNL     1      30.026   4.143 105.973  1.00  0.00     0.293 HD
ENDBRANCH   6  12
TORSDOF 3
ENDMDL
MODEL 2
REMARK VINA RESULT:    -5.602      0.186      1.410
REMARK INTER + INTRA:          -6.557
REMARK INTER:                  -6.417
REMARK INTRA:                  -0.140
REMARK UNBOUND:                -0.136
REMARK SMILES O=C([O-])C=Cc1ccc(O)cc1
REMARK SMILES IDX 6 1 7 2 12 3 8 4 11 5 9 6 5 7 4 8 2 9 1 10 3 11 10 12
REMARK H PARENT 10 13
REMARK Flexibility Score: inf
ROOT
ATOM      1  C   UNL     1      31.333   8.709 105.784  1.00  0.00    -0.025 A 
ATOM      2  C   UNL     1      31.748   8.126 106.999  1.00  0.00     0.012 A 
ATOM      3  C   UNL     1      30.736   7.891 104.809  1.00  0.00     0.012 A 
ATOM      4  C   UNL     1      31.589   6.753 107.215  1.00  0.00     0.047 A 
ATOM      5  C   UNL     1      30.580   6.519 105.029  1.00  0.00     0.047 A 
ATOM      6  C   UNL     1      31.008   5.946 106.233  1.00  0.00     0.115 A 
ENDROOT
BRANCH   1   7
ATOM      7  C   UNL     1      31.466  10.160 105.508  1.00  0.00     0.010 C 
ATOM      8  C   UNL     1      30.427  11.006 105.450  1.00  0.00     0.025 C 
BRANCH   8   9
ATOM      9  C   UNL     1      30.598  12.444 105.184  1.00  0.00     0.064 C 
ATOM     10  O   UNL     1      29.605  13.213 105.093  1.00  0.00    -0.545 OA
ATOM     11  O   UNL     1      31.877  12.963 105.034  1.00  0.00    -0.545 OA
ENDBRANCH   8   9
ENDBRANCH   1   7
BRANCH   6  12
ATOM     12  O   UNL     1      30.859   4.580 106.463  1.00  0.00    -0.508 OA
ATOM     13  H   UNL     1      31.520   4.065 107.033  1.00  0.00     0.293 HD
ENDBRANCH   6  12
TORSDOF 3
ENDMDL
MODEL 3
REMARK VINA RESULT:    -5.157      1.344      2.401
REMARK INTER + INTRA:          -6.046
REMARK INTER:                  -5.910
REMARK INTRA:                  -0.136
REMARK UNBOUND:                -0.136
REMARK SMILES O=C([O-])C=Cc1ccc(O)cc1
REMARK SMILES IDX 6 1 7 2 12 3 8 4 11 5 9 6 5 7 4 8 2 9 1 10 3 11 10 12
REMARK H PARENT 10 13
REMARK Flexibility Score: inf
ROOT
ATOM      1  C   UNL     1      31.723   8.786 105.751  1.00  0.00    -0.025 A 
ATOM      2  C   UNL     1      32.055   8.128 106.953  1.00  0.00     0.012 A 
ATOM      3  C   UNL     1      30.937   8.110 104.802  1.00  0.00     0.012 A 
ATOM      4  C   UNL     1      31.628   6.816 107.182  1.00  0.00     0.047 A 
ATOM      5  C   UNL     1      30.514   6.798 105.034  1.00  0.00     0.047 A 
ATOM      6  C   UNL     1      30.861   6.146 106.225  1.00  0.00     0.115 A 
ENDROOT
BRANCH   1   7
ATOM      7  C   UNL     1      32.138  10.181 105.463  1.00  0.00     0.010 C 
ATOM      8  C   UNL     1      33.412  10.558 105.282  1.00  0.00     0.025 C 
BRANCH   8   9
ATOM      9  C   UNL     1      33.786  11.951 104.986  1.00  0.00     0.064 C 
ATOM     10  O   UNL     1      34.981  12.270 104.752  1.00  0.00    -0.545 OA
ATOM     11  O   UNL     1      32.802  12.931 104.964  1.00  0.00    -0.545 OA
ENDBRANCH   8   9
ENDBRANCH   1   7
BRANCH   6  12
ATOM     12  O   UNL     1      30.446   4.839 106.467  1.00  0.00    -0.508 OA
ATOM     13  H   UNL     1      31.001   4.044 106.172  1.00  0.00     0.293 HD
ENDBRANCH   6  12
TORSDOF 3
ENDMDL
MODEL 4
REMARK VINA RESULT:    -5.046      3.301      3.957
REMARK INTER + INTRA:          -5.920
REMARK INTER:                  -5.779
REMARK INTRA:                  -0.141
REMARK UNBOUND:                -0.136
REMARK SMILES O=C([O-])C=Cc1ccc(O)cc1
REMARK SMILES IDX 6 1 7 2 12 3 8 4 11 5 9 6 5 7 4 8 2 9 1 10 3 11 10 12
REMARK H PARENT 10 13
REMARK Flexibility Score: inf
ROOT
ATOM      1  C   UNL     1      33.082   7.747 107.669  1.00  0.00    -0.025 A 
ATOM      2  C   UNL     1      33.226   6.437 108.171  1.00  0.00     0.012 A 
ATOM      3  C   UNL     1      32.014   8.026 106.799  1.00  0.00     0.012 A 
ATOM      4  C   UNL     1      32.335   5.430 107.786  1.00  0.00     0.047 A 
ATOM      5  C   UNL     1      31.127   7.016 106.416  1.00  0.00     0.047 A 
ATOM      6  C   UNL     1      31.286   5.714 106.907  1.00  0.00     0.115 A 
ENDROOT
BRANCH   1   7
ATOM      7  C   UNL     1      33.990   8.855 108.055  1.00  0.00     0.010 C 
ATOM      8  C   UNL     1      34.760   9.524 107.185  1.00  0.00     0.025 C 
BRANCH   8   9
ATOM      9  C   UNL     1      35.642  10.627 107.602  1.00  0.00     0.064 C 
ATOM     10  O   UNL     1      35.532  11.156 108.740  1.00  0.00    -0.545 OA
ATOM     11  O   UNL     1      36.613  11.093 106.725  1.00  0.00    -0.545 OA
ENDBRANCH   8   9
ENDBRANCH   1   7
BRANCH   6  12
ATOM     12  O   UNL     1      30.408   4.700 106.532  1.00  0.00    -0.508 OA
ATOM     13  H   UNL     1      29.673   4.380 107.152  1.00  0.00     0.293 HD
ENDBRANCH   6  12
TORSDOF 3
ENDMDL
MODEL 5
REMARK VINA RESULT:    -4.676      3.766      5.277
REMARK INTER + INTRA:          -5.496
REMARK INTER:                  -5.357
REMARK INTRA:                  -0.138
REMARK UNBOUND:                -0.136
REMARK SMILES O=C([O-])C=Cc1ccc(O)cc1
REMARK SMILES IDX 6 1 7 2 12 3 8 4 11 5 9 6 5 7 4 8 2 9 1 10 3 11 10 12
REMARK H PARENT 10 13
REMARK Flexibility Score: inf
ROOT
ATOM      1  C   UNL     1      32.167  12.262 105.034  1.00  0.00    -0.025 A 
ATOM      2  C   UNL     1      31.293  13.359 105.187  1.00  0.00     0.012 A 
ATOM      3  C   UNL     1      31.645  10.961 105.137  1.00  0.00     0.012 A 
ATOM      4  C   UNL     1      29.938  13.150 105.462  1.00  0.00     0.047 A 
ATOM      5  C   UNL     1      30.290  10.758 105.414  1.00  0.00     0.047 A 
ATOM      6  C   UNL     1      29.433  11.852 105.579  1.00  0.00     0.115 A 
ENDROOT
BRANCH   1   7
ATOM      7  C   UNL     1      33.609  12.426 104.728  1.00  0.00     0.010 C 
ATOM      8  C   UNL     1      34.594  12.020 105.543  1.00  0.00     0.025 C 
BRANCH   8   9
ATOM      9  C   UNL     1      36.016  12.189 105.201  1.00  0.00     0.064 C 
ATOM     10  O   UNL     1      36.482  13.315 104.882  1.00  0.00    -0.545 OA
ATOM     11  O   UNL     1      36.860  11.087 105.232  1.00  0.00    -0.545 OA
ENDBRANCH   8   9
ENDBRANCH   1   7
BRANCH   6  12
ATOM     12  O   UNL     1      28.081  11.662 105.855  1.00  0.00    -0.508 OA
ATOM     13  H   UNL     1      27.775  11.120 106.655  1.00  0.00     0.293 HD
ENDBRANCH   6  12
TORSDOF 3
ENDMDL
MODEL 6
REMARK VINA RESULT:    -4.622      1.214      5.781
REMARK INTER + INTRA:          -5.433
REMARK INTER:                  -5.291
REMARK INTRA:                  -0.142
REMARK UNBOUND:                -0.136
REMARK SMILES O=C([O-])C=Cc1ccc(O)cc1
REMARK SMILES IDX 6 1 7 2 12 3 8 4 11 5 9 6 5 7 4 8 2 9 1 10 3 11 10 12
REMARK H PARENT 10 13
REMARK Flexibility Score: inf
ROOT
ATOM      1  C   UNL     1      31.636   9.693 105.499  1.00  0.00    -0.025 A 
ATOM      2  C   UNL     1      30.600  10.641 105.374  1.00  0.00     0.012 A 
ATOM      3  C   UNL     1      32.969  10.128 105.396  1.00  0.00     0.012 A 
ATOM      4  C   UNL     1      30.897  11.985 105.127  1.00  0.00     0.047 A 
ATOM      5  C   UNL     1      33.261  11.473 105.147  1.00  0.00     0.047 A 
ATOM      6  C   UNL     1      32.225  12.405 105.010  1.00  0.00     0.115 A 
ENDROOT
BRANCH   1   7
ATOM      7  C   UNL     1      31.378   8.258 105.774  1.00  0.00     0.010 C 
ATOM      8  C   UNL     1      31.777   7.630 106.889  1.00  0.00     0.025 C 
BRANCH   8   9
ATOM      9  C   UNL     1      31.493   6.206 107.134  1.00  0.00     0.064 C 
ATOM     10  O   UNL     1      30.938   5.491 106.258  1.00  0.00    -0.545 OA
ATOM     11  O   UNL     1      31.843   5.641 108.353  1.00  0.00    -0.545 OA
ENDBRANCH   8   9
ENDBRANCH   1   7
BRANCH   6  12
ATOM     12  O   UNL     1      32.503  13.747 104.762  1.00  0.00    -0.508 OA
ATOM     13  H   UNL     1      32.347  14.459 105.466  1.00  0.00     0.293 HD
ENDBRANCH   6  12
TORSDOF 3
ENDMDL
MODEL 7
REMARK VINA RESULT:    -4.498      4.072      6.689
REMARK INTER + INTRA:          -5.291
REMARK INTER:                  -5.154
REMARK INTRA:                  -0.137
REMARK UNBOUND:                -0.136
REMARK SMILES O=C([O-])C=Cc1ccc(O)cc1
REMARK SMILES IDX 6 1 7 2 12 3 8 4 11 5 9 6 5 7 4 8 2 9 1 10 3 11 10 12
REMARK H PARENT 10 13
REMARK Flexibility Score: inf
ROOT
ATOM      1  C   UNL     1      35.137   9.733 107.496  1.00  0.00    -0.025 A 
ATOM      2  C   UNL     1      35.533   9.713 106.143  1.00  0.00     0.012 A 
ATOM      3  C   UNL     1      35.501  10.833 108.292  1.00  0.00     0.012 A 
ATOM      4  C   UNL     1      36.297  10.757 105.614  1.00  0.00     0.047 A 
ATOM      5  C   UNL     1      36.266  11.875 107.759  1.00  0.00     0.047 A 
ATOM      6  C   UNL     1      36.668  11.839 106.418  1.00  0.00     0.115 A 
ENDROOT
BRANCH   1   7
ATOM      7  C   UNL     1      34.315   8.658 108.105  1.00  0.00     0.010 C 
ATOM      8  C   UNL     1      33.156   8.224 107.590  1.00  0.00     0.025 C 
BRANCH   8   9
ATOM      9  C   UNL     1      32.373   7.146 108.216  1.00  0.00     0.064 C 
ATOM     10  O   UNL     1      31.301   7.390 108.830  1.00  0.00    -0.545 OA
ATOM     11  O   UNL     1      32.823   5.835 108.126  1.00  0.00    -0.545 OA
ENDBRANCH   8   9
ENDBRANCH   1   7
BRANCH   6  12
ATOM     12  O   UNL     1      37.430  12.871 105.876  1.00  0.00    -0.508 OA
ATOM     13  H   UNL     1      37.048  13.800 105.747  1.00  0.00     0.293 HD
ENDBRANCH   6  12
TORSDOF 3
ENDMDL
MODEL 8
REMARK VINA RESULT:    -4.490      2.354      2.918
REMARK INTER + INTRA:          -5.282
REMARK INTER:                  -5.129
REMARK INTRA:                  -0.153
REMARK UNBOUND:                -0.136
REMARK SMILES O=C([O-])C=Cc1ccc(O)cc1
REMARK SMILES IDX 6 1 7 2 12 3 8 4 11 5 9 6 5 7 4 8 2 9 1 10 3 11 10 12
REMARK H PARENT 10 13
REMARK Flexibility Score: inf
ROOT
ATOM      1  C   UNL     1      32.846   8.911 106.442  1.00  0.00    -0.025 A 
ATOM      2  C   UNL     1      31.655   8.187 106.226  1.00  0.00     0.012 A 
ATOM      3  C   UNL     1      33.696   8.520 107.491  1.00  0.00     0.012 A 
ATOM      4  C   UNL     1      31.318   7.116 107.059  1.00  0.00     0.047 A 
ATOM      5  C   UNL     1      33.353   7.450 108.322  1.00  0.00     0.047 A 
ATOM      6  C   UNL     1      32.162   6.746 108.110  1.00  0.00     0.115 A 
ENDROOT
BRANCH   1   7
ATOM      7  C   UNL     1      33.258  10.046 105.580  1.00  0.00     0.010 C 
ATOM      8  C   UNL     1      34.397  10.734 105.749  1.00  0.00     0.025 C 
BRANCH   8   9
ATOM      9  C   UNL     1      34.780  11.849 104.866  1.00  0.00     0.064 C 
ATOM     10  O   UNL     1      33.924  12.672 104.445  1.00  0.00    -0.545 OA
ATOM     11  O   UNL     1      36.109  11.996 104.492  1.00  0.00    -0.545 OA
ENDBRANCH   8   9
ENDBRANCH   1   7
BRANCH   6  12
ATOM     12  O   UNL     1      31.810   5.678 108.932  1.00  0.00    -0.508 OA
ATOM     13  H   UNL     1      31.398   5.827 109.846  1.00  0.00     0.293 HD
ENDBRANCH   6  12
TORSDOF 3
ENDMDL
MODEL 9
REMARK VINA RESULT:    -4.357      3.852      4.554
REMARK INTER + INTRA:          -5.129
REMARK INTER:                  -4.993
REMARK INTRA:                  -0.136
REMARK UNBOUND:                -0.136
REMARK SMILES O=C([O-])C=Cc1ccc(O)cc1
REMARK SMILES IDX 6 1 7 2 12 3 8 4 11 5 9 6 5 7 4 8 2 9 1 10 3 11 10 12
REMARK H PARENT 10 13
REMARK Flexibility Score: inf
ROOT
ATOM      1  C   UNL     1      34.357   9.634 106.573  1.00  0.00    -0.025 A 
ATOM      2  C   UNL     1      33.208   9.627 105.755  1.00  0.00     0.012 A 
ATOM      3  C   UNL     1      34.375   8.828 107.724  1.00  0.00     0.012 A 
ATOM      4  C   UNL     1      32.099   8.850 106.102  1.00  0.00     0.047 A 
ATOM      5  C   UNL     1      33.262   8.055 108.068  1.00  0.00     0.047 A 
ATOM      6  C   UNL     1      32.120   8.065 107.258  1.00  0.00     0.115 A 
ENDROOT
BRANCH   1   7
ATOM      7  C   UNL     1      35.567  10.428 106.245  1.00  0.00     0.010 C 
ATOM      8  C   UNL     1      35.962  11.504 106.940  1.00  0.00     0.025 C 
BRANCH   8   9
ATOM      9  C   UNL     1      37.176  12.262 106.593  1.00  0.00     0.064 C 
ATOM     10  O   UNL     1      38.302  11.941 107.058  1.00  0.00    -0.545 OA
ATOM     11  O   UNL     1      37.078  13.350 105.736  1.00  0.00    -0.545 OA
ENDBRANCH   8   9
ENDBRANCH   1   7
BRANCH   6  12
ATOM     12  O   UNL     1      31.005   7.299 107.590  1.00  0.00    -0.508 OA
ATOM     13  H   UNL     1      30.663   6.568 106.976  1.00  0.00     0.293 HD
ENDBRANCH   6  12
TORSDOF 3
ENDMDL
