MODEL 1
REMARK VINA RESULT:    12.012      0.000      0.000
REMARK INTER + INTRA:          18.507
REMARK INTER:                  18.332
REMARK INTRA:                   0.175
REMARK UNBOUND:                 0.175
REMARK SMILES O=C([O-])CCCCCCCCC(=O)[O-]
REMARK SMILES IDX 7 1 6 2 5 3 4 4 2 5 1 6 3 7 8 8 9 9 10 10 11 11 12 12 13 13
REMARK SMILES IDX 14 14
REMARK H PARENT
REMARK Flexibility Score: inf
ROOT
ATOM      1  C   UNL     1      -3.755  -8.953  24.640  1.00  0.00     0.000 C 
ENDROOT
BRANCH   1   2
ATOM      2  C   UNL     1      -5.097  -8.657  25.327  1.00  0.00     0.000 C 
BRANCH   2   3
ATOM      3  C   UNL     1      -6.104  -9.812  25.183  1.00  0.00     0.006 C 
BRANCH   3   4
ATOM      4  C   UNL     1      -5.845 -10.650  23.923  1.00  0.00     0.053 C 
BRANCH   4   5
ATOM      5  C   UNL     1      -6.551 -11.970  23.979  1.00  0.00     0.041 C 
ATOM      6  O   UNL     1      -7.109 -12.435  22.951  1.00  0.00    -0.550 OA
ATOM      7  O   UNL     1      -6.567 -12.700  25.161  1.00  0.00    -0.550 OA
ENDBRANCH   4   5
ENDBRANCH   3   4
ENDBRANCH   2   3
ENDBRANCH   1   2
BRANCH   1   8
ATOM      8  C   UNL     1      -3.186  -7.735  23.898  1.00  0.00     0.000 C 
BRANCH   8   9
ATOM      9  C   UNL     1      -1.720  -7.969  23.502  1.00  0.00     0.000 C 
BRANCH   9  10
ATOM     10  C   UNL     1      -1.058  -9.092  24.317  1.00  0.00     0.006 C 
BRANCH  10  11
ATOM     11  C   UNL     1      -1.102  -8.831  25.828  1.00  0.00     0.053 C 
BRANCH  11  12
ATOM     12  C   UNL     1       0.227  -8.347  26.314  1.00  0.00     0.041 C 
ATOM     13  O   UNL     1       0.932  -9.077  27.060  1.00  0.00    -0.550 OA
ATOM     14  O   UNL     1       0.666  -7.072  25.985  1.00  0.00    -0.550 OA
ENDBRANCH  11  12
ENDBRANCH  10  11
ENDBRANCH   9  10
ENDBRANCH   8   9
ENDBRANCH   1   8
TORSDOF 9
ENDMDL
MODEL 2
REMARK VINA RESULT:    12.090      0.199      6.778
REMARK INTER + INTRA:          18.626
REMARK INTER:                  18.495
REMARK INTRA:                   0.131
REMARK UNBOUND:                 0.175
REMARK SMILES O=C([O-])CCCCCCCCC(=O)[O-]
REMARK SMILES IDX 7 1 6 2 5 3 4 4 2 5 1 6 3 7 8 8 9 9 10 10 11 11 12 12 13 13
REMARK SMILES IDX 14 14
REMARK H PARENT
REMARK Flexibility Score: inf
ROOT
ATOM      1  C   UNL     1      -3.122  -7.738  23.942  1.00  0.00     0.000 C 
ENDROOT
BRANCH   1   2
ATOM      2  C   UNL     1      -1.639  -7.996  23.632  1.00  0.00     0.000 C 
BRANCH   2   3
ATOM      3  C   UNL     1      -1.059  -9.165  24.446  1.00  0.00     0.006 C 
BRANCH   3   4
ATOM      4  C   UNL     1      -1.056  -8.874  25.953  1.00  0.00     0.053 C 
BRANCH   4   5
ATOM      5  C   UNL     1       0.272  -8.359  26.417  1.00  0.00     0.041 C 
ATOM      6  O   UNL     1       1.050  -9.105  27.068  1.00  0.00    -0.550 OA
ATOM      7  O   UNL     1       0.662  -7.062  26.105  1.00  0.00    -0.550 OA
ENDBRANCH   4   5
ENDBRANCH   3   4
ENDBRANCH   2   3
ENDBRANCH   1   2
BRANCH   1   8
ATOM      8  C   UNL     1      -3.773  -8.885  24.729  1.00  0.00     0.000 C 
BRANCH   8   9
ATOM      9  C   UNL     1      -5.275  -8.633  24.927  1.00  0.00     0.000 C 
BRANCH   9  10
ATOM     10  C   UNL     1      -6.094  -9.933  24.976  1.00  0.00     0.006 C 
BRANCH  10  11
ATOM     11  C   UNL     1      -5.853 -10.830  23.754  1.00  0.00     0.053 C 
BRANCH  11  12
ATOM     12  C   UNL     1      -6.591 -12.122  23.902  1.00  0.00     0.041 C 
ATOM     13  O   UNL     1      -7.326 -12.542  22.969  1.00  0.00    -0.550 OA
ATOM     14  O   UNL     1      -6.508 -12.839  25.088  1.00  0.00    -0.550 OA
ENDBRANCH  11  12
ENDBRANCH  10  11
ENDBRANCH   9  10
ENDBRANCH   8   9
ENDBRANCH   1   8
TORSDOF 9
ENDMDL
MODEL 3
REMARK VINA RESULT:    12.453     14.242     16.093
REMARK INTER + INTRA:          19.180
REMARK INTER:                  18.669
REMARK INTRA:                   0.511
REMARK UNBOUND:                 0.175
REMARK SMILES O=C([O-])CCCCCCCCC(=O)[O-]
REMARK SMILES IDX 7 1 6 2 5 3 4 4 2 5 1 6 3 7 8 8 9 9 10 10 11 11 12 12 13 13
REMARK SMILES IDX 14 14
REMARK H PARENT
REMARK Flexibility Score: inf
ROOT
ATOM      1  C   UNL     1       5.032 -16.741  14.233  1.00  0.00     0.000 C 
ENDROOT
BRANCH   1   2
ATOM      2  C   UNL     1       4.750 -17.599  15.477  1.00  0.00     0.000 C 
BRANCH   2   3
ATOM      3  C   UNL     1       5.123 -16.882  16.787  1.00  0.00     0.006 C 
BRANCH   3   4
ATOM      4  C   UNL     1       3.960 -16.047  17.340  1.00  0.00     0.053 C 
BRANCH   4   5
ATOM      5  C   UNL     1       4.049 -15.887  18.827  1.00  0.00     0.041 C 
ATOM      6  O   UNL     1       4.686 -14.921  19.324  1.00  0.00    -0.550 OA
ATOM      7  O   UNL     1       3.404 -16.789  19.664  1.00  0.00    -0.550 OA
ENDBRANCH   4   5
ENDBRANCH   3   4
ENDBRANCH   2   3
ENDBRANCH   1   2
BRANCH   1   8
ATOM      8  C   UNL     1       5.083 -17.570  12.940  1.00  0.00     0.000 C 
BRANCH   8   9
ATOM      9  C   UNL     1       3.844 -18.469  12.816  1.00  0.00     0.000 C 
BRANCH   9  10
ATOM     10  C   UNL     1       4.186 -19.886  12.326  1.00  0.00     0.006 C 
BRANCH  10  11
ATOM     11  C   UNL     1       3.099 -20.476  11.418  1.00  0.00     0.053 C 
BRANCH  11  12
ATOM     12  C   UNL     1       1.742 -20.049  11.883  1.00  0.00     0.041 C 
ATOM     13  O   UNL     1       0.876 -20.913  12.184  1.00  0.00    -0.550 OA
ATOM     14  O   UNL     1       1.417 -18.701  11.934  1.00  0.00    -0.550 OA
ENDBRANCH  11  12
ENDBRANCH  10  11
ENDBRANCH   9  10
ENDBRANCH   8   9
ENDBRANCH   1   8
TORSDOF 9
ENDMDL
MODEL 4
REMARK VINA RESULT:    13.000     14.300     15.309
REMARK INTER + INTRA:          20.015
REMARK INTER:                  20.447
REMARK INTRA:                  -0.432
REMARK UNBOUND:                 0.175
REMARK SMILES O=C([O-])CCCCCCCCC(=O)[O-]
REMARK SMILES IDX 7 1 6 2 5 3 4 4 2 5 1 6 3 7 8 8 9 9 10 10 11 11 12 12 13 13
REMARK SMILES IDX 14 14
REMARK H PARENT
REMARK Flexibility Score: inf
ROOT
ATOM      1  C   UNL     1       4.526 -17.471  13.007  1.00  0.00     0.000 C 
ENDROOT
BRANCH   1   2
ATOM      2  C   UNL     1       5.125 -18.847  12.677  1.00  0.00     0.000 C 
BRANCH   2   3
ATOM      3  C   UNL     1       4.118 -19.779  11.980  1.00  0.00     0.006 C 
BRANCH   3   4
ATOM      4  C   UNL     1       2.813 -19.920  12.777  1.00  0.00     0.053 C 
BRANCH   4   5
ATOM      5  C   UNL     1       1.646 -20.216  11.886  1.00  0.00     0.041 C 
ATOM      6  O   UNL     1       1.568 -19.687  10.746  1.00  0.00    -0.550 OA
ATOM      7  O   UNL     1       0.659 -21.100  12.303  1.00  0.00    -0.550 OA
ENDBRANCH   4   5
ENDBRANCH   3   4
ENDBRANCH   2   3
ENDBRANCH   1   2
BRANCH   1   8
ATOM      8  C   UNL     1       5.108 -16.863  14.292  1.00  0.00     0.000 C 
BRANCH   8   9
ATOM      9  C   UNL     1       4.791 -17.744  15.509  1.00  0.00     0.000 C 
BRANCH   9  10
ATOM     10  C   UNL     1       5.125 -17.056  16.842  1.00  0.00     0.006 C 
BRANCH  10  11
ATOM     11  C   UNL     1       4.086 -15.999  17.240  1.00  0.00     0.053 C 
BRANCH  11  12
ATOM     12  C   UNL     1       4.001 -15.884  18.729  1.00  0.00     0.041 C 
ATOM     13  O   UNL     1       3.382 -16.754  19.396  1.00  0.00    -0.550 OA
ATOM     14  O   UNL     1       4.561 -14.790  19.375  1.00  0.00    -0.550 OA
ENDBRANCH  11  12
ENDBRANCH  10  11
ENDBRANCH   9  10
ENDBRANCH   8   9
ENDBRANCH   1   8
TORSDOF 9
ENDMDL
MODEL 5
REMARK VINA RESULT:    13.455      4.054      5.965
REMARK INTER + INTRA:          20.709
REMARK INTER:                  21.042
REMARK INTRA:                  -0.333
REMARK UNBOUND:                 0.175
REMARK SMILES O=C([O-])CCCCCCCCC(=O)[O-]
REMARK SMILES IDX 7 1 6 2 5 3 4 4 2 5 1 6 3 7 8 8 9 9 10 10 11 11 12 12 13 13
REMARK SMILES IDX 14 14
REMARK H PARENT
REMARK Flexibility Score: inf
ROOT
ATOM      1  C   UNL     1      -5.346 -13.925  25.284  1.00  0.00     0.000 C 
ENDROOT
BRANCH   1   2
ATOM      2  C   UNL     1      -5.054 -14.676  26.593  1.00  0.00     0.000 C 
BRANCH   2   3
ATOM      3  C   UNL     1      -5.089 -16.204  26.419  1.00  0.00     0.006 C 
BRANCH   3   4
ATOM      4  C   UNL     1      -4.306 -16.663  25.181  1.00  0.00     0.053 C 
BRANCH   4   5
ATOM      5  C   UNL     1      -4.982 -17.806  24.488  1.00  0.00     0.041 C 
ATOM      6  O   UNL     1      -5.460 -18.761  25.156  1.00  0.00    -0.550 OA
ATOM      7  O   UNL     1      -5.110 -17.803  23.104  1.00  0.00    -0.550 OA
ENDBRANCH   4   5
ENDBRANCH   3   4
ENDBRANCH   2   3
ENDBRANCH   1   2
BRANCH   1   8
ATOM      8  C   UNL     1      -6.495 -12.915  25.423  1.00  0.00     0.000 C 
BRANCH   8   9
ATOM      9  C   UNL     1      -6.715 -12.150  24.109  1.00  0.00     0.000 C 
BRANCH   9  10
ATOM     10  C   UNL     1      -5.711 -11.003  23.915  1.00  0.00     0.006 C 
BRANCH  10  11
ATOM     11  C   UNL     1      -6.204  -9.679  24.515  1.00  0.00     0.053 C 
BRANCH  11  12
ATOM     12  C   UNL     1      -5.150  -9.078  25.390  1.00  0.00     0.041 C 
ATOM     13  O   UNL     1      -5.380  -8.880  26.613  1.00  0.00    -0.550 OA
ATOM     14  O   UNL     1      -3.932  -8.691  24.847  1.00  0.00    -0.550 OA
ENDBRANCH  11  12
ENDBRANCH  10  11
ENDBRANCH   9  10
ENDBRANCH   8   9
ENDBRANCH   1   8
TORSDOF 9
ENDMDL
MODEL 6
REMARK VINA RESULT:    13.511      4.069      7.475
REMARK INTER + INTRA:          20.794
REMARK INTER:                  21.108
REMARK INTRA:                  -0.313
REMARK UNBOUND:                 0.175
REMARK SMILES O=C([O-])CCCCCCCCC(=O)[O-]
REMARK SMILES IDX 7 1 6 2 5 3 4 4 2 5 1 6 3 7 8 8 9 9 10 10 11 11 12 12 13 13
REMARK SMILES IDX 14 14
REMARK H PARENT
REMARK Flexibility Score: inf
ROOT
ATOM      1  C   UNL     1      -6.405 -12.898  25.396  1.00  0.00     0.000 C 
ENDROOT
BRANCH   1   2
ATOM      2  C   UNL     1      -6.708 -12.106  24.114  1.00  0.00     0.000 C 
BRANCH   2   3
ATOM      3  C   UNL     1      -5.720 -10.949  23.885  1.00  0.00     0.006 C 
BRANCH   3   4
ATOM      4  C   UNL     1      -6.199  -9.643  24.535  1.00  0.00     0.053 C 
BRANCH   4   5
ATOM      5  C   UNL     1      -5.151  -9.047  25.423  1.00  0.00     0.041 C 
ATOM      6  O   UNL     1      -5.385  -8.862  26.646  1.00  0.00    -0.550 OA
ATOM      7  O   UNL     1      -3.903  -8.721  24.904  1.00  0.00    -0.550 OA
ENDBRANCH   4   5
ENDBRANCH   3   4
ENDBRANCH   2   3
ENDBRANCH   1   2
BRANCH   1   8
ATOM      8  C   UNL     1      -5.326 -13.972  25.189  1.00  0.00     0.000 C 
BRANCH   8   9
ATOM      9  C   UNL     1      -5.044 -14.725  26.498  1.00  0.00     0.000 C 
BRANCH   9  10
ATOM     10  C   UNL     1      -5.167 -16.249  26.344  1.00  0.00     0.006 C 
BRANCH  10  11
ATOM     11  C   UNL     1      -4.264 -16.806  25.235  1.00  0.00     0.053 C 
BRANCH  11  12
ATOM     12  C   UNL     1      -4.997 -17.834  24.432  1.00  0.00     0.041 C 
ATOM     13  O   UNL     1      -5.486 -18.848  24.997  1.00  0.00    -0.550 OA
ATOM     14  O   UNL     1      -5.095 -17.700  23.054  1.00  0.00    -0.550 OA
ENDBRANCH  11  12
ENDBRANCH  10  11
ENDBRANCH   9  10
ENDBRANCH   8   9
ENDBRANCH   1   8
TORSDOF 9
ENDMDL
MODEL 7
REMARK VINA RESULT:    13.810      3.769      7.292
REMARK INTER + INTRA:          21.250
REMARK INTER:                  21.466
REMARK INTRA:                  -0.216
REMARK UNBOUND:                 0.175
REMARK SMILES O=C([O-])CCCCCCCCC(=O)[O-]
REMARK SMILES IDX 7 1 6 2 5 3 4 4 2 5 1 6 3 7 8 8 9 9 10 10 11 11 12 12 13 13
REMARK SMILES IDX 14 14
REMARK H PARENT
REMARK Flexibility Score: inf
ROOT
ATOM      1  C   UNL     1      -6.274 -12.096  24.454  1.00  0.00     0.000 C 
ENDROOT
BRANCH   1   2
ATOM      2  C   UNL     1      -6.309 -10.676  25.039  1.00  0.00     0.000 C 
BRANCH   2   3
ATOM      3  C   UNL     1      -5.498  -9.671  24.203  1.00  0.00     0.006 C 
BRANCH   3   4
ATOM      4  C   UNL     1      -4.589  -8.794  25.077  1.00  0.00     0.053 C 
BRANCH   4   5
ATOM      5  C   UNL     1      -3.346  -8.384  24.349  1.00  0.00     0.041 C 
ATOM      6  O   UNL     1      -3.379  -7.438  23.518  1.00  0.00    -0.550 OA
ATOM      7  O   UNL     1      -2.143  -9.029  24.609  1.00  0.00    -0.550 OA
ENDBRANCH   4   5
ENDBRANCH   3   4
ENDBRANCH   2   3
ENDBRANCH   1   2
BRANCH   1   8
ATOM      8  C   UNL     1      -6.412 -13.185  25.530  1.00  0.00     0.000 C 
BRANCH   8   9
ATOM      9  C   UNL     1      -5.103 -13.974  25.682  1.00  0.00     0.000 C 
BRANCH   9  10
ATOM     10  C   UNL     1      -5.335 -15.426  26.131  1.00  0.00     0.006 C 
BRANCH  10  11
ATOM     11  C   UNL     1      -4.266 -16.388  25.595  1.00  0.00     0.053 C 
BRANCH  11  12
ATOM     12  C   UNL     1      -4.907 -17.592  24.982  1.00  0.00     0.041 C 
ATOM     13  O   UNL     1      -5.423 -18.477  25.715  1.00  0.00    -0.550 OA
ATOM     14  O   UNL     1      -4.891 -17.763  23.604  1.00  0.00    -0.550 OA
ENDBRANCH  11  12
ENDBRANCH  10  11
ENDBRANCH   9  10
ENDBRANCH   8   9
ENDBRANCH   1   8
TORSDOF 9
ENDMDL
MODEL 8
REMARK VINA RESULT:    13.866      3.668      5.194
REMARK INTER + INTRA:          21.337
REMARK INTER:                  21.575
REMARK INTRA:                  -0.238
REMARK UNBOUND:                 0.175
REMARK SMILES O=C([O-])CCCCCCCCC(=O)[O-]
REMARK SMILES IDX 7 1 6 2 5 3 4 4 2 5 1 6 3 7 8 8 9 9 10 10 11 11 12 12 13 13
REMARK SMILES IDX 14 14
REMARK H PARENT
REMARK Flexibility Score: inf
ROOT
ATOM      1  C   UNL     1      -6.492 -13.114  25.260  1.00  0.00     0.000 C 
ENDROOT
BRANCH   1   2
ATOM      2  C   UNL     1      -5.162 -13.756  25.686  1.00  0.00     0.000 C 
BRANCH   2   3
ATOM      3  C   UNL     1      -5.334 -15.206  26.172  1.00  0.00     0.006 C 
BRANCH   3   4
ATOM      4  C   UNL     1      -4.243 -16.134  25.619  1.00  0.00     0.053 C 
BRANCH   4   5
ATOM      5  C   UNL     1      -4.814 -17.420  25.106  1.00  0.00     0.041 C 
ATOM      6  O   UNL     1      -5.357 -18.234  25.898  1.00  0.00    -0.550 OA
ATOM      7  O   UNL     1      -4.772 -17.706  23.747  1.00  0.00    -0.550 OA
ENDBRANCH   4   5
ENDBRANCH   3   4
ENDBRANCH   2   3
ENDBRANCH   1   2
BRANCH   1   8
ATOM      8  C   UNL     1      -6.303 -11.969  24.253  1.00  0.00     0.000 C 
BRANCH   8   9
ATOM      9  C   UNL     1      -6.236 -10.613  24.971  1.00  0.00     0.000 C 
BRANCH   9  10
ATOM     10  C   UNL     1      -5.408  -9.573  24.199  1.00  0.00     0.006 C 
BRANCH  10  11
ATOM     11  C   UNL     1      -4.481  -8.760  25.112  1.00  0.00     0.053 C 
BRANCH  11  12
ATOM     12  C   UNL     1      -3.242  -8.360  24.375  1.00  0.00     0.041 C 
ATOM     13  O   UNL     1      -3.286  -7.439  23.517  1.00  0.00    -0.550 OA
ATOM     14  O   UNL     1      -2.051  -9.037  24.598  1.00  0.00    -0.550 OA
ENDBRANCH  11  12
ENDBRANCH  10  11
ENDBRANCH   9  10
ENDBRANCH   8   9
ENDBRANCH   1   8
TORSDOF 9
ENDMDL
