MODEL 1
REMARK VINA RESULT:    -7.881      0.000      0.000
REMARK INTER + INTRA:         -10.096
REMARK INTER:                  -9.724
REMARK INTRA:                  -0.372
REMARK UNBOUND:                -0.372
REMARK SMILES Oc1cc(O)c2cc(O)c(-c3cc(O)c(O)c(O)c3)[o+]c2c1
REMARK SMILES IDX 10 1 20 2 21 3 22 4 2 5 3 6 4 7 6 8 7 9 8 10 11 11 12 12
REMARK SMILES IDX 13 13 19 14 15 15 17 16 14 17 16 19 18 21 9 23 1 25 5 27
REMARK H PARENT 14 18 16 20 18 22 9 24 1 26 5 28
REMARK Flexibility Score: inf
ROOT
ATOM      1  C   UNL     1      22.879  19.849 -15.801  1.00  0.00     0.402 A 
ATOM      2  O   UNL     1      23.599  20.919 -15.478  1.00  0.00    -0.202 OA
ATOM      3  C   UNL     1      23.185  22.166 -15.678  1.00  0.00     0.368 A 
ATOM      4  C   UNL     1      24.016  23.227 -15.308  1.00  0.00     0.162 A 
ATOM      5  C   UNL     1      23.605  24.548 -15.511  1.00  0.00     0.128 A 
ATOM      6  C   UNL     1      22.361  24.808 -16.088  1.00  0.00     0.093 A 
ATOM      7  C   UNL     1      21.510  23.763 -16.467  1.00  0.00     0.136 A 
ATOM      8  C   UNL     1      21.920  22.420 -16.262  1.00  0.00     0.125 A 
ATOM      9  C   UNL     1      21.128  21.311 -16.599  1.00  0.00     0.078 A 
ATOM     10  C   UNL     1      21.599  20.016 -16.361  1.00  0.00     0.223 A 
ENDROOT
BRANCH   1  11
ATOM     11  C   UNL     1      23.455  18.511 -15.535  1.00  0.00     0.091 A 
ATOM     12  C   UNL     1      23.448  18.003 -14.227  1.00  0.00     0.068 A 
ATOM     13  C   UNL     1      24.003  16.752 -13.944  1.00  0.00     0.162 A 
ATOM     14  C   UNL     1      24.062  17.759 -16.556  1.00  0.00     0.068 A 
ATOM     15  C   UNL     1      24.589  15.994 -14.972  1.00  0.00     0.200 A 
ATOM     16  C   UNL     1      24.621  16.505 -16.281  1.00  0.00     0.162 A 
BRANCH  13  17
ATOM     17  O   UNL     1      23.962  16.277 -12.633  1.00  0.00    -0.504 OA
ATOM     18  H   UNL     1      23.874  16.898 -11.837  1.00  0.00     0.293 HD
ENDBRANCH  13  17
BRANCH  15  19
ATOM     19  O   UNL     1      25.138  14.744 -14.681  1.00  0.00    -0.502 OA
ATOM     20  H   UNL     1      24.908  13.916 -15.217  1.00  0.00     0.293 HD
ENDBRANCH  15  19
BRANCH  16  21
ATOM     21  O   UNL     1      25.216  15.765 -17.304  1.00  0.00    -0.504 OA
ATOM     22  H   UNL     1      24.722  15.555 -18.163  1.00  0.00     0.293 HD
ENDBRANCH  16  21
ENDBRANCH   1  11
BRANCH  10  23
ATOM     23  O   UNL     1      20.792  18.915 -16.650  1.00  0.00    -0.500 OA
ATOM     24  H   UNL     1      19.858  18.825 -16.271  1.00  0.00     0.294 HD
ENDBRANCH  10  23
BRANCH   5  25
ATOM     25  O   UNL     1      24.428  25.610 -15.144  1.00  0.00    -0.507 OA
ATOM     26  H   UNL     1      25.277  25.824 -15.655  1.00  0.00     0.293 HD
ENDBRANCH   5  25
BRANCH   7  27
ATOM     27  O   UNL     1      20.282  24.109 -17.041  1.00  0.00    -0.507 OA
ATOM     28  H   UNL     1      19.754  23.511 -17.660  1.00  0.00     0.293 HD
ENDBRANCH   7  27
TORSDOF 7
ENDMDL
MODEL 2
REMARK VINA RESULT:    -7.875      0.063      1.795
REMARK INTER + INTRA:         -10.088
REMARK INTER:                  -9.744
REMARK INTRA:                  -0.344
REMARK UNBOUND:                -0.372
REMARK SMILES Oc1cc(O)c2cc(O)c(-c3cc(O)c(O)c(O)c3)[o+]c2c1
REMARK SMILES IDX 10 1 20 2 21 3 22 4 2 5 3 6 4 7 6 8 7 9 8 10 11 11 12 12
REMARK SMILES IDX 13 13 19 14 15 15 17 16 14 17 16 19 18 21 9 23 1 25 5 27
REMARK H PARENT 14 18 16 20 18 22 9 24 1 26 5 28
REMARK Flexibility Score: inf
ROOT
ATOM      1  C   UNL     1      22.919  19.867 -15.745  1.00  0.00     0.402 A 
ATOM      2  O   UNL     1      23.633  20.944 -15.430  1.00  0.00    -0.202 OA
ATOM      3  C   UNL     1      23.214  22.186 -15.645  1.00  0.00     0.368 A 
ATOM      4  C   UNL     1      24.038  23.255 -15.283  1.00  0.00     0.162 A 
ATOM      5  C   UNL     1      23.623  24.572 -15.501  1.00  0.00     0.128 A 
ATOM      6  C   UNL     1      22.380  24.821 -16.086  1.00  0.00     0.093 A 
ATOM      7  C   UNL     1      21.535  23.768 -16.459  1.00  0.00     0.136 A 
ATOM      8  C   UNL     1      21.951  22.429 -16.237  1.00  0.00     0.125 A 
ATOM      9  C   UNL     1      21.166  21.312 -16.567  1.00  0.00     0.078 A 
ATOM     10  C   UNL     1      21.641  20.022 -16.313  1.00  0.00     0.223 A 
ENDROOT
BRANCH   1  11
ATOM     11  C   UNL     1      23.500  18.534 -15.463  1.00  0.00     0.091 A 
ATOM     12  C   UNL     1      24.035  17.777 -16.516  1.00  0.00     0.068 A 
ATOM     13  C   UNL     1      24.571  16.507 -16.282  1.00  0.00     0.162 A 
ATOM     14  C   UNL     1      23.475  17.984 -14.169  1.00  0.00     0.068 A 
ATOM     15  C   UNL     1      24.564  15.970 -14.984  1.00  0.00     0.200 A 
ATOM     16  C   UNL     1      24.009  16.711 -13.926  1.00  0.00     0.162 A 
BRANCH  13  17
ATOM     17  O   UNL     1      25.107  15.794 -17.353  1.00  0.00    -0.504 OA
ATOM     18  H   UNL     1      24.792  14.860 -17.592  1.00  0.00     0.293 HD
ENDBRANCH  13  17
BRANCH  15  19
ATOM     19  O   UNL     1      25.104  14.703 -14.758  1.00  0.00    -0.502 OA
ATOM     20  H   UNL     1      25.880  14.343 -15.301  1.00  0.00     0.293 HD
ENDBRANCH  15  19
BRANCH  16  21
ATOM     21  O   UNL     1      23.984  16.178 -12.638  1.00  0.00    -0.504 OA
ATOM     22  H   UNL     1      24.427  15.292 -12.421  1.00  0.00     0.293 HD
ENDBRANCH  16  21
ENDBRANCH   1  11
BRANCH  10  23
ATOM     23  O   UNL     1      20.841  18.914 -16.594  1.00  0.00    -0.500 OA
ATOM     24  H   UNL     1      19.896  18.836 -16.238  1.00  0.00     0.294 HD
ENDBRANCH  10  23
BRANCH   5  25
ATOM     25  O   UNL     1      24.439  25.642 -15.142  1.00  0.00    -0.507 OA
ATOM     26  H   UNL     1      24.085  26.591 -15.105  1.00  0.00     0.293 HD
ENDBRANCH   5  25
BRANCH   7  27
ATOM     27  O   UNL     1      20.309  24.101 -17.041  1.00  0.00    -0.507 OA
ATOM     28  H   UNL     1      19.831  23.536 -17.728  1.00  0.00     0.293 HD
ENDBRANCH   7  27
TORSDOF 7
ENDMDL
MODEL 3
REMARK VINA RESULT:    -7.688      1.557      1.627
REMARK INTER + INTRA:          -9.858
REMARK INTER:                 -10.069
REMARK INTRA:                   0.211
REMARK UNBOUND:                -0.372
REMARK SMILES Oc1cc(O)c2cc(O)c(-c3cc(O)c(O)c(O)c3)[o+]c2c1
REMARK SMILES IDX 10 1 20 2 21 3 22 4 2 5 3 6 4 7 6 8 7 9 8 10 11 11 12 12
REMARK SMILES IDX 13 13 19 14 15 15 17 16 14 17 16 19 18 21 9 23 1 25 5 27
REMARK H PARENT 14 18 16 20 18 22 9 24 1 26 5 28
REMARK Flexibility Score: inf
ROOT
ATOM      1  C   UNL     1      23.956  20.062 -16.014  1.00  0.00     0.402 A 
ATOM      2  O   UNL     1      24.446  21.250 -15.675  1.00  0.00    -0.202 OA
ATOM      3  C   UNL     1      23.752  22.380 -15.763  1.00  0.00     0.368 A 
ATOM      4  C   UNL     1      24.356  23.582 -15.385  1.00  0.00     0.162 A 
ATOM      5  C   UNL     1      23.648  24.784 -15.471  1.00  0.00     0.128 A 
ATOM      6  C   UNL     1      22.333  24.785 -15.939  1.00  0.00     0.093 A 
ATOM      7  C   UNL     1      21.704  23.594 -16.324  1.00  0.00     0.136 A 
ATOM      8  C   UNL     1      22.417  22.370 -16.236  1.00  0.00     0.125 A 
ATOM      9  C   UNL     1      21.864  21.128 -16.588  1.00  0.00     0.078 A 
ATOM     10  C   UNL     1      22.628  19.963 -16.469  1.00  0.00     0.223 A 
ENDROOT
BRANCH   1  11
ATOM     11  C   UNL     1      24.833  18.877 -15.879  1.00  0.00     0.091 A 
ATOM     12  C   UNL     1      25.919  18.919 -14.991  1.00  0.00     0.068 A 
ATOM     13  C   UNL     1      26.775  17.823 -14.858  1.00  0.00     0.162 A 
ATOM     14  C   UNL     1      24.637  17.727 -16.664  1.00  0.00     0.068 A 
ATOM     15  C   UNL     1      26.563  16.667 -15.629  1.00  0.00     0.200 A 
ATOM     16  C   UNL     1      25.491  16.624 -16.537  1.00  0.00     0.162 A 
BRANCH  13  17
ATOM     17  O   UNL     1      27.834  17.900 -13.954  1.00  0.00    -0.504 OA
ATOM     18  H   UNL     1      28.371  17.085 -13.680  1.00  0.00     0.293 HD
ENDBRANCH  13  17
BRANCH  15  19
ATOM     19  O   UNL     1      27.420  15.575 -15.487  1.00  0.00    -0.502 OA
ATOM     20  H   UNL     1      28.391  15.683 -15.214  1.00  0.00     0.293 HD
ENDBRANCH  15  19
BRANCH  16  21
ATOM     21  O   UNL     1      25.283  15.486 -17.317  1.00  0.00    -0.504 OA
ATOM     22  H   UNL     1      25.946  15.202 -18.029  1.00  0.00     0.293 HD
ENDBRANCH  16  21
ENDBRANCH   1  11
BRANCH  10  23
ATOM     23  O   UNL     1      22.062  18.723 -16.771  1.00  0.00    -0.500 OA
ATOM     24  H   UNL     1      21.509  18.212 -16.094  1.00  0.00     0.294 HD
ENDBRANCH  10  23
BRANCH   5  25
ATOM     25  O   UNL     1      24.244  25.986 -15.096  1.00  0.00    -0.507 OA
ATOM     26  H   UNL     1      24.700  26.094 -14.197  1.00  0.00     0.293 HD
ENDBRANCH   5  25
BRANCH   7  27
ATOM     27  O   UNL     1      20.387  23.681 -16.784  1.00  0.00    -0.507 OA
ATOM     28  H   UNL     1      19.662  23.012 -16.568  1.00  0.00     0.293 HD
ENDBRANCH   7  27
TORSDOF 7
ENDMDL
MODEL 4
REMARK VINA RESULT:    -7.673      1.219      7.214
REMARK INTER + INTRA:          -9.839
REMARK INTER:                  -9.457
REMARK INTRA:                  -0.382
REMARK UNBOUND:                -0.372
REMARK SMILES Oc1cc(O)c2cc(O)c(-c3cc(O)c(O)c(O)c3)[o+]c2c1
REMARK SMILES IDX 10 1 20 2 21 3 22 4 2 5 3 6 4 7 6 8 7 9 8 10 11 11 12 12
REMARK SMILES IDX 13 13 19 14 15 15 17 16 14 17 16 19 18 21 9 23 1 25 5 27
REMARK H PARENT 14 18 16 20 18 22 9 24 1 26 5 28
REMARK Flexibility Score: inf
ROOT
ATOM      1  C   UNL     1      23.266  20.276 -14.794  1.00  0.00     0.402 A 
ATOM      2  O   UNL     1      23.844  19.462 -15.672  1.00  0.00    -0.202 OA
ATOM      3  C   UNL     1      24.192  18.211 -15.390  1.00  0.00     0.368 A 
ATOM      4  C   UNL     1      24.798  17.433 -16.380  1.00  0.00     0.162 A 
ATOM      5  C   UNL     1      25.177  16.115 -16.109  1.00  0.00     0.128 A 
ATOM      6  C   UNL     1      24.951  15.574 -14.842  1.00  0.00     0.093 A 
ATOM      7  C   UNL     1      24.346  16.332 -13.831  1.00  0.00     0.136 A 
ATOM      8  C   UNL     1      23.957  17.670 -14.103  1.00  0.00     0.125 A 
ATOM      9  C   UNL     1      23.333  18.499 -13.156  1.00  0.00     0.078 A 
ATOM     10  C   UNL     1      22.974  19.806 -13.500  1.00  0.00     0.223 A 
ENDROOT
BRANCH   1  11
ATOM     11  C   UNL     1      22.933  21.652 -15.227  1.00  0.00     0.091 A 
ATOM     12  C   UNL     1      21.689  21.906 -15.823  1.00  0.00     0.068 A 
ATOM     13  C   UNL     1      21.356  23.192 -16.260  1.00  0.00     0.162 A 
ATOM     14  C   UNL     1      23.860  22.702 -15.106  1.00  0.00     0.068 A 
ATOM     15  C   UNL     1      22.277  24.243 -16.118  1.00  0.00     0.200 A 
ATOM     16  C   UNL     1      23.535  23.993 -15.542  1.00  0.00     0.162 A 
BRANCH  13  17
ATOM     17  O   UNL     1      20.103  23.405 -16.834  1.00  0.00    -0.504 OA
ATOM     18  H   UNL     1      19.367  22.710 -16.798  1.00  0.00     0.293 HD
ENDBRANCH  13  17
BRANCH  15  19
ATOM     19  O   UNL     1      21.935  25.524 -16.554  1.00  0.00    -0.502 OA
ATOM     20  H   UNL     1      21.015  25.918 -16.400  1.00  0.00     0.293 HD
ENDBRANCH  15  19
BRANCH  16  21
ATOM     21  O   UNL     1      24.461  25.028 -15.412  1.00  0.00    -0.504 OA
ATOM     22  H   UNL     1      25.420  24.925 -15.720  1.00  0.00     0.293 HD
ENDBRANCH  16  21
ENDBRANCH   1  11
BRANCH  10  23
ATOM     23  O   UNL     1      22.309  20.614 -12.576  1.00  0.00    -0.500 OA
ATOM     24  H   UNL     1      22.378  20.450 -11.579  1.00  0.00     0.294 HD
ENDBRANCH  10  23
BRANCH   5  25
ATOM     25  O   UNL     1      25.781  15.334 -17.091  1.00  0.00    -0.507 OA
ATOM     26  H   UNL     1      26.575  15.671 -17.623  1.00  0.00     0.293 HD
ENDBRANCH   5  25
BRANCH   7  27
ATOM     27  O   UNL     1      24.159  15.718 -12.590  1.00  0.00    -0.507 OA
ATOM     28  H   UNL     1      24.864  15.662 -11.869  1.00  0.00     0.293 HD
ENDBRANCH   7  27
TORSDOF 7
ENDMDL
MODEL 5
REMARK VINA RESULT:    -7.649      1.188      7.199
REMARK INTER + INTRA:          -9.809
REMARK INTER:                  -9.429
REMARK INTRA:                  -0.380
REMARK UNBOUND:                -0.372
REMARK SMILES Oc1cc(O)c2cc(O)c(-c3cc(O)c(O)c(O)c3)[o+]c2c1
REMARK SMILES IDX 10 1 20 2 21 3 22 4 2 5 3 6 4 7 6 8 7 9 8 10 11 11 12 12
REMARK SMILES IDX 13 13 19 14 15 15 17 16 14 17 16 19 18 21 9 23 1 25 5 27
REMARK H PARENT 14 18 16 20 18 22 9 24 1 26 5 28
REMARK Flexibility Score: inf
ROOT
ATOM      1  C   UNL     1      23.203  20.327 -14.888  1.00  0.00     0.402 A 
ATOM      2  O   UNL     1      23.776  19.499 -15.757  1.00  0.00    -0.202 OA
ATOM      3  C   UNL     1      24.146  18.260 -15.451  1.00  0.00     0.368 A 
ATOM      4  C   UNL     1      24.744  17.466 -16.434  1.00  0.00     0.162 A 
ATOM      5  C   UNL     1      25.145  16.160 -16.138  1.00  0.00     0.128 A 
ATOM      6  C   UNL     1      24.950  15.647 -14.854  1.00  0.00     0.093 A 
ATOM      7  C   UNL     1      24.353  16.422 -13.851  1.00  0.00     0.136 A 
ATOM      8  C   UNL     1      23.941  17.748 -14.147  1.00  0.00     0.125 A 
ATOM      9  C   UNL     1      23.324  18.591 -13.210  1.00  0.00     0.078 A 
ATOM     10  C   UNL     1      22.941  19.885 -13.578  1.00  0.00     0.223 A 
ENDROOT
BRANCH   1  11
ATOM     11  C   UNL     1      22.844  21.687 -15.347  1.00  0.00     0.091 A 
ATOM     12  C   UNL     1      23.763  22.736 -15.188  1.00  0.00     0.068 A 
ATOM     13  C   UNL     1      23.443  24.034 -15.594  1.00  0.00     0.162 A 
ATOM     14  C   UNL     1      21.577  21.967 -15.889  1.00  0.00     0.068 A 
ATOM     15  C   UNL     1      22.184  24.305 -16.155  1.00  0.00     0.200 A 
ATOM     16  C   UNL     1      21.248  23.266 -16.297  1.00  0.00     0.162 A 
BRANCH  13  17
ATOM     17  O   UNL     1      24.391  25.044 -15.431  1.00  0.00    -0.504 OA
ATOM     18  H   UNL     1      24.575  25.733 -16.152  1.00  0.00     0.293 HD
ENDBRANCH  13  17
BRANCH  15  19
ATOM     19  O   UNL     1      21.874  25.603 -16.561  1.00  0.00    -0.502 OA
ATOM     20  H   UNL     1      22.313  26.418 -16.147  1.00  0.00     0.293 HD
ENDBRANCH  15  19
BRANCH  16  21
ATOM     21  O   UNL     1      19.990  23.531 -16.839  1.00  0.00    -0.504 OA
ATOM     22  H   UNL     1      19.823  23.492 -17.838  1.00  0.00     0.293 HD
ENDBRANCH  16  21
ENDBRANCH   1  11
BRANCH  10  23
ATOM     23  O   UNL     1      22.282  20.706 -12.661  1.00  0.00    -0.500 OA
ATOM     24  H   UNL     1      22.355  20.555 -11.663  1.00  0.00     0.294 HD
ENDBRANCH  10  23
BRANCH   5  25
ATOM     25  O   UNL     1      25.741  15.364 -17.112  1.00  0.00    -0.507 OA
ATOM     26  H   UNL     1      26.698  15.516 -17.410  1.00  0.00     0.293 HD
ENDBRANCH   5  25
BRANCH   7  27
ATOM     27  O   UNL     1      24.197  15.836 -12.592  1.00  0.00    -0.507 OA
ATOM     28  H   UNL     1      24.089  16.353 -11.731  1.00  0.00     0.293 HD
ENDBRANCH   7  27
TORSDOF 7
ENDMDL
MODEL 6
REMARK VINA RESULT:    -7.609      2.445      2.721
REMARK INTER + INTRA:          -9.759
REMARK INTER:                  -9.566
REMARK INTRA:                  -0.193
REMARK UNBOUND:                -0.372
REMARK SMILES Oc1cc(O)c2cc(O)c(-c3cc(O)c(O)c(O)c3)[o+]c2c1
REMARK SMILES IDX 10 1 20 2 21 3 22 4 2 5 3 6 4 7 6 8 7 9 8 10 11 11 12 12
REMARK SMILES IDX 13 13 19 14 15 15 17 16 14 17 16 19 18 21 9 23 1 25 5 27
REMARK H PARENT 14 18 16 20 18 22 9 24 1 26 5 28
REMARK Flexibility Score: inf
ROOT
ATOM      1  C   UNL     1      24.919  20.402 -16.540  1.00  0.00     0.402 A 
ATOM      2  O   UNL     1      24.372  21.042 -15.511  1.00  0.00    -0.202 OA
ATOM      3  C   UNL     1      23.774  22.223 -15.620  1.00  0.00     0.368 A 
ATOM      4  C   UNL     1      23.231  22.820 -14.479  1.00  0.00     0.162 A 
ATOM      5  C   UNL     1      22.598  24.063 -14.565  1.00  0.00     0.128 A 
ATOM      6  C   UNL     1      22.512  24.715 -15.797  1.00  0.00     0.093 A 
ATOM      7  C   UNL     1      23.048  24.139 -16.956  1.00  0.00     0.136 A 
ATOM      8  C   UNL     1      23.688  22.875 -16.874  1.00  0.00     0.125 A 
ATOM      9  C   UNL     1      24.242  22.218 -17.984  1.00  0.00     0.078 A 
ATOM     10  C   UNL     1      24.853  20.970 -17.826  1.00  0.00     0.223 A 
ENDROOT
BRANCH   1  11
ATOM     11  C   UNL     1      25.565  19.094 -16.288  1.00  0.00     0.091 A 
ATOM     12  C   UNL     1      26.711  19.033 -15.481  1.00  0.00     0.068 A 
ATOM     13  C   UNL     1      27.354  17.815 -15.243  1.00  0.00     0.162 A 
ATOM     14  C   UNL     1      25.089  17.915 -16.888  1.00  0.00     0.068 A 
ATOM     15  C   UNL     1      26.862  16.635 -15.827  1.00  0.00     0.200 A 
ATOM     16  C   UNL     1      25.728  16.689 -16.656  1.00  0.00     0.162 A 
BRANCH  13  17
ATOM     17  O   UNL     1      28.481  17.795 -14.423  1.00  0.00    -0.504 OA
ATOM     18  H   UNL     1      29.090  18.600 -14.323  1.00  0.00     0.293 HD
ENDBRANCH  13  17
BRANCH  15  19
ATOM     19  O   UNL     1      27.507  15.422 -15.582  1.00  0.00    -0.502 OA
ATOM     20  H   UNL     1      28.286  15.101 -16.145  1.00  0.00     0.293 HD
ENDBRANCH  15  19
BRANCH  16  21
ATOM     21  O   UNL     1      25.243  15.525 -17.252  1.00  0.00    -0.504 OA
ATOM     22  H   UNL     1      25.182  14.652 -16.740  1.00  0.00     0.293 HD
ENDBRANCH  16  21
ENDBRANCH   1  11
BRANCH  10  23
ATOM     23  O   UNL     1      25.360  20.293 -18.936  1.00  0.00    -0.500 OA
ATOM     24  H   UNL     1      26.353  20.139 -19.058  1.00  0.00     0.294 HD
ENDBRANCH  10  23
BRANCH   5  25
ATOM     25  O   UNL     1      22.055  24.663 -13.432  1.00  0.00    -0.507 OA
ATOM     26  H   UNL     1      21.485  25.499 -13.495  1.00  0.00     0.293 HD
ENDBRANCH   5  25
BRANCH   7  27
ATOM     27  O   UNL     1      22.921  24.857 -18.149  1.00  0.00    -0.507 OA
ATOM     28  H   UNL     1      22.796  25.857 -18.202  1.00  0.00     0.293 HD
ENDBRANCH   7  27
TORSDOF 7
ENDMDL
MODEL 7
REMARK VINA RESULT:    -7.428      1.686      7.059
REMARK INTER + INTRA:          -9.537
REMARK INTER:                  -9.258
REMARK INTRA:                  -0.279
REMARK UNBOUND:                -0.372
REMARK SMILES Oc1cc(O)c2cc(O)c(-c3cc(O)c(O)c(O)c3)[o+]c2c1
REMARK SMILES IDX 10 1 20 2 21 3 22 4 2 5 3 6 4 7 6 8 7 9 8 10 11 11 12 12
REMARK SMILES IDX 13 13 19 14 15 15 17 16 14 17 16 19 18 21 9 23 1 25 5 27
REMARK H PARENT 14 18 16 20 18 22 9 24 1 26 5 28
REMARK Flexibility Score: inf
ROOT
ATOM      1  C   UNL     1      23.899  20.105 -16.496  1.00  0.00     0.402 A 
ATOM      2  O   UNL     1      24.585  19.723 -15.422  1.00  0.00    -0.202 OA
ATOM      3  C   UNL     1      25.149  18.526 -15.303  1.00  0.00     0.368 A 
ATOM      4  C   UNL     1      25.847  18.215 -14.134  1.00  0.00     0.162 A 
ATOM      5  C   UNL     1      26.448  16.962 -13.982  1.00  0.00     0.128 A 
ATOM      6  C   UNL     1      26.347  16.015 -15.002  1.00  0.00     0.093 A 
ATOM      7  C   UNL     1      25.653  16.301 -16.185  1.00  0.00     0.136 A 
ATOM      8  C   UNL     1      25.044  17.573 -16.345  1.00  0.00     0.125 A 
ATOM      9  C   UNL     1      24.339  17.951 -17.500  1.00  0.00     0.078 A 
ATOM     10  C   UNL     1      23.771  19.225 -17.587  1.00  0.00     0.223 A 
ENDROOT
BRANCH   1  11
ATOM     11  C   UNL     1      23.310  21.463 -16.505  1.00  0.00     0.091 A 
ATOM     12  C   UNL     1      24.155  22.583 -16.464  1.00  0.00     0.068 A 
ATOM     13  C   UNL     1      23.626  23.877 -16.450  1.00  0.00     0.162 A 
ATOM     14  C   UNL     1      21.918  21.658 -16.495  1.00  0.00     0.068 A 
ATOM     15  C   UNL     1      22.234  24.066 -16.463  1.00  0.00     0.200 A 
ATOM     16  C   UNL     1      21.379  22.951 -16.481  1.00  0.00     0.162 A 
BRANCH  13  17
ATOM     17  O   UNL     1      24.500  24.963 -16.425  1.00  0.00    -0.504 OA
ATOM     18  H   UNL     1      25.493  24.860 -16.599  1.00  0.00     0.293 HD
ENDBRANCH  13  17
BRANCH  15  19
ATOM     19  O   UNL     1      21.714  25.362 -16.453  1.00  0.00    -0.502 OA
ATOM     20  H   UNL     1      21.374  25.813 -17.294  1.00  0.00     0.293 HD
ENDBRANCH  15  19
BRANCH  16  21
ATOM     21  O   UNL     1      19.996  23.132 -16.478  1.00  0.00    -0.504 OA
ATOM     22  H   UNL     1      19.559  23.893 -16.984  1.00  0.00     0.293 HD
ENDBRANCH  16  21
ENDBRANCH   1  11
BRANCH  10  23
ATOM     23  O   UNL     1      23.114  19.619 -18.753  1.00  0.00    -0.500 OA
ATOM     24  H   UNL     1      23.469  20.366 -19.338  1.00  0.00     0.294 HD
ENDBRANCH  10  23
BRANCH   5  25
ATOM     25  O   UNL     1      27.145  16.646 -12.818  1.00  0.00    -0.507 OA
ATOM     26  H   UNL     1      26.898  15.843 -12.253  1.00  0.00     0.293 HD
ENDBRANCH   5  25
BRANCH   7  27
ATOM     27  O   UNL     1      25.596  15.297 -17.157  1.00  0.00    -0.507 OA
ATOM     28  H   UNL     1      25.997  14.377 -17.050  1.00  0.00     0.293 HD
ENDBRANCH   7  27
TORSDOF 7
ENDMDL
MODEL 8
REMARK VINA RESULT:    -7.369      2.058      7.220
REMARK INTER + INTRA:          -9.464
REMARK INTER:                  -9.080
REMARK INTRA:                  -0.383
REMARK UNBOUND:                -0.372
REMARK SMILES Oc1cc(O)c2cc(O)c(-c3cc(O)c(O)c(O)c3)[o+]c2c1
REMARK SMILES IDX 10 1 20 2 21 3 22 4 2 5 3 6 4 7 6 8 7 9 8 10 11 11 12 12
REMARK SMILES IDX 13 13 19 14 15 15 17 16 14 17 16 19 18 21 9 23 1 25 5 27
REMARK H PARENT 14 18 16 20 18 22 9 24 1 26 5 28
REMARK Flexibility Score: inf
ROOT
ATOM      1  C   UNL     1      24.305  20.623 -14.882  1.00  0.00     0.402 A 
ATOM      2  O   UNL     1      24.177  20.238 -13.616  1.00  0.00    -0.202 OA
ATOM      3  C   UNL     1      24.729  19.131 -13.130  1.00  0.00     0.368 A 
ATOM      4  C   UNL     1      24.535  18.807 -11.785  1.00  0.00     0.162 A 
ATOM      5  C   UNL     1      25.102  17.647 -11.249  1.00  0.00     0.128 A 
ATOM      6  C   UNL     1      25.862  16.805 -12.063  1.00  0.00     0.093 A 
ATOM      7  C   UNL     1      26.071  17.106 -13.415  1.00  0.00     0.136 A 
ATOM      8  C   UNL     1      25.501  18.284 -13.963  1.00  0.00     0.125 A 
ATOM      9  C   UNL     1      25.668  18.672 -15.302  1.00  0.00     0.078 A 
ATOM     10  C   UNL     1      25.079  19.851 -15.769  1.00  0.00     0.223 A 
ENDROOT
BRANCH   1  11
ATOM     11  C   UNL     1      23.635  21.874 -15.305  1.00  0.00     0.091 A 
ATOM     12  C   UNL     1      24.303  23.099 -15.161  1.00  0.00     0.068 A 
ATOM     13  C   UNL     1      23.687  24.297 -15.532  1.00  0.00     0.162 A 
ATOM     14  C   UNL     1      22.317  21.869 -15.796  1.00  0.00     0.068 A 
ATOM     15  C   UNL     1      22.378  24.285 -16.043  1.00  0.00     0.200 A 
ATOM     16  C   UNL     1      21.692  23.065 -16.170  1.00  0.00     0.162 A 
BRANCH  13  17
ATOM     17  O   UNL     1      24.392  25.491 -15.386  1.00  0.00    -0.504 OA
ATOM     18  H   UNL     1      25.338  25.519 -15.024  1.00  0.00     0.293 HD
ENDBRANCH  13  17
BRANCH  15  19
ATOM     19  O   UNL     1      21.772  25.486 -16.415  1.00  0.00    -0.502 OA
ATOM     20  H   UNL     1      20.969  25.516 -17.033  1.00  0.00     0.293 HD
ENDBRANCH  15  19
BRANCH  16  21
ATOM     21  O   UNL     1      20.386  23.047 -16.662  1.00  0.00    -0.504 OA
ATOM     22  H   UNL     1      19.835  23.894 -16.736  1.00  0.00     0.293 HD
ENDBRANCH  16  21
ENDBRANCH   1  11
BRANCH  10  23
ATOM     23  O   UNL     1      25.286  20.263 -17.086  1.00  0.00    -0.500 OA
ATOM     24  H   UNL     1      25.077  19.659 -17.872  1.00  0.00     0.294 HD
ENDBRANCH  10  23
BRANCH   5  25
ATOM     25  O   UNL     1      24.913  17.319  -9.909  1.00  0.00    -0.507 OA
ATOM     26  H   UNL     1      24.013  17.432  -9.457  1.00  0.00     0.293 HD
ENDBRANCH   5  25
BRANCH   7  27
ATOM     27  O   UNL     1      26.842  16.211 -14.162  1.00  0.00    -0.507 OA
ATOM     28  H   UNL     1      27.023  16.301 -15.151  1.00  0.00     0.293 HD
ENDBRANCH   7  27
TORSDOF 7
ENDMDL
MODEL 9
REMARK VINA RESULT:    -7.351      1.638      7.040
REMARK INTER + INTRA:          -9.441
REMARK INTER:                  -9.187
REMARK INTRA:                  -0.254
REMARK UNBOUND:                -0.372
REMARK SMILES Oc1cc(O)c2cc(O)c(-c3cc(O)c(O)c(O)c3)[o+]c2c1
REMARK SMILES IDX 10 1 20 2 21 3 22 4 2 5 3 6 4 7 6 8 7 9 8 10 11 11 12 12
REMARK SMILES IDX 13 13 19 14 15 15 17 16 14 17 16 19 18 21 9 23 1 25 5 27
REMARK H PARENT 14 18 16 20 18 22 9 24 1 26 5 28
REMARK Flexibility Score: inf
ROOT
ATOM      1  C   UNL     1      23.937  20.127 -16.383  1.00  0.00     0.402 A 
ATOM      2  O   UNL     1      24.559  19.688 -15.292  1.00  0.00    -0.202 OA
ATOM      3  C   UNL     1      25.096  18.477 -15.195  1.00  0.00     0.368 A 
ATOM      4  C   UNL     1      25.727  18.105 -14.005  1.00  0.00     0.162 A 
ATOM      5  C   UNL     1      26.299  16.835 -13.876  1.00  0.00     0.128 A 
ATOM      6  C   UNL     1      26.236  15.934 -14.940  1.00  0.00     0.093 A 
ATOM      7  C   UNL     1      25.610  16.281 -16.143  1.00  0.00     0.136 A 
ATOM      8  C   UNL     1      25.031  17.570 -16.281  1.00  0.00     0.125 A 
ATOM      9  C   UNL     1      24.395  18.009 -17.453  1.00  0.00     0.078 A 
ATOM     10  C   UNL     1      23.852  19.296 -17.515  1.00  0.00     0.223 A 
ENDROOT
BRANCH   1  11
ATOM     11  C   UNL     1      23.371  21.495 -16.364  1.00  0.00     0.091 A 
ATOM     12  C   UNL     1      21.981  21.668 -16.441  1.00  0.00     0.068 A 
ATOM     13  C   UNL     1      21.420  22.949 -16.447  1.00  0.00     0.162 A 
ATOM     14  C   UNL     1      24.200  22.630 -16.329  1.00  0.00     0.068 A 
ATOM     15  C   UNL     1      22.252  24.080 -16.390  1.00  0.00     0.200 A 
ATOM     16  C   UNL     1      23.647  23.917 -16.336  1.00  0.00     0.162 A 
BRANCH  13  17
ATOM     17  O   UNL     1      20.033  23.077 -16.510  1.00  0.00    -0.504 OA
ATOM     18  H   UNL     1      19.411  22.290 -16.368  1.00  0.00     0.293 HD
ENDBRANCH  13  17
BRANCH  15  19
ATOM     19  O   UNL     1      21.684  25.355 -16.392  1.00  0.00    -0.502 OA
ATOM     20  H   UNL     1      21.465  25.850 -15.535  1.00  0.00     0.293 HD
ENDBRANCH  15  19
BRANCH  16  21
ATOM     21  O   UNL     1      24.479  25.035 -16.294  1.00  0.00    -0.504 OA
ATOM     22  H   UNL     1      24.108  25.968 -16.153  1.00  0.00     0.293 HD
ENDBRANCH  16  21
ENDBRANCH   1  11
BRANCH  10  23
ATOM     23  O   UNL     1      23.264  19.750 -18.696  1.00  0.00    -0.500 OA
ATOM     24  H   UNL     1      23.152  19.147 -19.502  1.00  0.00     0.294 HD
ENDBRANCH  10  23
BRANCH   5  25
ATOM     25  O   UNL     1      26.929  16.459 -12.692  1.00  0.00    -0.507 OA
ATOM     26  H   UNL     1      27.456  17.123 -12.137  1.00  0.00     0.293 HD
ENDBRANCH   5  25
BRANCH   7  27
ATOM     27  O   UNL     1      25.588  15.320 -17.158  1.00  0.00    -0.507 OA
ATOM     28  H   UNL     1      24.865  15.247 -17.859  1.00  0.00     0.293 HD
ENDBRANCH   7  27
TORSDOF 7
ENDMDL
