MODEL 1
REMARK VINA RESULT:    -5.217      0.000      0.000
REMARK INTER + INTRA:          -5.868
REMARK INTER:                  -5.827
REMARK INTRA:                  -0.041
REMARK UNBOUND:                -0.041
REMARK SMILES O=C([O-])c1ccc(O)c(O)c1
REMARK SMILES IDX 4 1 11 2 5 3 9 4 6 5 7 6 2 7 1 8 3 9 10 10 8 12
REMARK H PARENT 10 11 8 13
REMARK Flexibility Score: inf
ROOT
ATOM      1  C   UNL     1       9.803   9.536  13.504  1.00  0.00     0.001 A 
ATOM      2  C   UNL     1       9.552   9.419  14.883  1.00  0.00     0.060 A 
ATOM      3  C   UNL     1      10.962  10.204  13.076  1.00  0.00     0.014 A 
ATOM      4  C   UNL     1      10.445   9.961  15.819  1.00  0.00     0.158 A 
ATOM      5  C   UNL     1      11.852  10.743  14.007  1.00  0.00     0.051 A 
ATOM      6  C   UNL     1      11.601  10.626  15.378  1.00  0.00     0.157 A 
ENDROOT
BRANCH   1   7
ATOM      7  C   UNL     1       8.862   8.965  12.514  1.00  0.00     0.072 C 
ATOM      8  O   UNL     1       7.618   9.036  12.698  1.00  0.00    -0.545 OA
ATOM      9  O   UNL     1       9.339   8.340  11.368  1.00  0.00    -0.545 OA
ENDBRANCH   1   7
BRANCH   4  10
ATOM     10  O   UNL     1      10.189   9.840  17.185  1.00  0.00    -0.504 OA
ATOM     11  H   UNL     1       9.465   9.225  17.536  1.00  0.00     0.293 HD
ENDBRANCH   4  10
BRANCH   6  12
ATOM     12  O   UNL     1      12.508  11.176  16.283  1.00  0.00    -0.504 OA
ATOM     13  H   UNL     1      13.502  10.987  16.231  1.00  0.00     0.293 HD
ENDBRANCH   6  12
TORSDOF 3
ENDMDL
MODEL 2
REMARK VINA RESULT:    -5.193      2.000      3.488
REMARK INTER + INTRA:          -5.841
REMARK INTER:                  -5.802
REMARK INTRA:                  -0.038
REMARK UNBOUND:                -0.041
REMARK SMILES O=C([O-])c1ccc(O)c(O)c1
REMARK SMILES IDX 4 1 11 2 5 3 9 4 6 5 7 6 2 7 1 8 3 9 10 10 8 12
REMARK H PARENT 10 11 8 13
REMARK Flexibility Score: inf
ROOT
ATOM      1  C   UNL     1      10.756   9.822  13.282  1.00  0.00     0.001 A 
ATOM      2  C   UNL     1      10.489  10.531  14.467  1.00  0.00     0.060 A 
ATOM      3  C   UNL     1       9.708   9.131  12.651  1.00  0.00     0.014 A 
ATOM      4  C   UNL     1       9.197  10.550  15.012  1.00  0.00     0.158 A 
ATOM      5  C   UNL     1       8.420   9.149  13.192  1.00  0.00     0.051 A 
ATOM      6  C   UNL     1       8.158   9.855  14.370  1.00  0.00     0.157 A 
ENDROOT
BRANCH   1   7
ATOM      7  C   UNL     1      12.119   9.800  12.705  1.00  0.00     0.072 C 
ATOM      8  O   UNL     1      12.316  10.163  11.515  1.00  0.00    -0.545 OA
ATOM      9  O   UNL     1      13.200   9.378  13.469  1.00  0.00    -0.545 OA
ENDBRANCH   1   7
BRANCH   4  10
ATOM     10  O   UNL     1       8.941  11.257  16.187  1.00  0.00    -0.504 OA
ATOM     11  H   UNL     1       8.835  10.785  17.077  1.00  0.00     0.293 HD
ENDBRANCH   4  10
BRANCH   6  12
ATOM     12  O   UNL     1       6.862   9.855  14.886  1.00  0.00    -0.504 OA
ATOM     13  H   UNL     1       6.674   9.686  15.867  1.00  0.00     0.293 HD
ENDBRANCH   6  12
TORSDOF 3
ENDMDL
MODEL 3
REMARK VINA RESULT:    -5.157      1.670      4.145
REMARK INTER + INTRA:          -5.801
REMARK INTER:                  -5.756
REMARK INTRA:                  -0.045
REMARK UNBOUND:                -0.041
REMARK SMILES O=C([O-])c1ccc(O)c(O)c1
REMARK SMILES IDX 4 1 11 2 5 3 9 4 6 5 7 6 2 7 1 8 3 9 10 10 8 12
REMARK H PARENT 10 11 8 13
REMARK Flexibility Score: inf
ROOT
ATOM      1  C   UNL     1      10.832   9.828  13.790  1.00  0.00     0.001 A 
ATOM      2  C   UNL     1       9.967   9.316  12.806  1.00  0.00     0.060 A 
ATOM      3  C   UNL     1      10.296  10.236  15.023  1.00  0.00     0.014 A 
ATOM      4  C   UNL     1       8.590   9.213  13.049  1.00  0.00     0.158 A 
ATOM      5  C   UNL     1       8.924  10.134  15.266  1.00  0.00     0.051 A 
ATOM      6  C   UNL     1       8.067   9.624  14.287  1.00  0.00     0.157 A 
ENDROOT
BRANCH   1   7
ATOM      7  C   UNL     1      12.286   9.937  13.535  1.00  0.00     0.072 C 
ATOM      8  O   UNL     1      12.772   9.574  12.431  1.00  0.00    -0.545 OA
ATOM      9  O   UNL     1      13.136  10.441  14.512  1.00  0.00    -0.545 OA
ENDBRANCH   1   7
BRANCH   4  10
ATOM     10  O   UNL     1       7.740   8.703  12.068  1.00  0.00    -0.504 OA
ATOM     11  H   UNL     1       6.952   8.112  12.304  1.00  0.00     0.293 HD
ENDBRANCH   4  10
BRANCH   6  12
ATOM     12  O   UNL     1       6.703   9.535  14.559  1.00  0.00    -0.504 OA
ATOM     13  H   UNL     1       6.020  10.113  14.085  1.00  0.00     0.293 HD
ENDBRANCH   6  12
TORSDOF 3
ENDMDL
MODEL 4
REMARK VINA RESULT:    -5.091      1.502      4.191
REMARK INTER + INTRA:          -5.726
REMARK INTER:                  -5.687
REMARK INTRA:                  -0.039
REMARK UNBOUND:                -0.041
REMARK SMILES O=C([O-])c1ccc(O)c(O)c1
REMARK SMILES IDX 4 1 11 2 5 3 9 4 6 5 7 6 2 7 1 8 3 9 10 10 8 12
REMARK H PARENT 10 11 8 13
REMARK Flexibility Score: inf
ROOT
ATOM      1  C   UNL     1      10.914  10.493  14.202  1.00  0.00     0.001 A 
ATOM      2  C   UNL     1       9.662  10.379  14.832  1.00  0.00     0.060 A 
ATOM      3  C   UNL     1      11.073   9.979  12.904  1.00  0.00     0.014 A 
ATOM      4  C   UNL     1       8.586   9.763  14.177  1.00  0.00     0.158 A 
ATOM      5  C   UNL     1      10.003   9.365  12.250  1.00  0.00     0.051 A 
ATOM      6  C   UNL     1       8.759   9.253  12.879  1.00  0.00     0.157 A 
ENDROOT
BRANCH   1   7
ATOM      7  C   UNL     1      12.051  11.144  14.892  1.00  0.00     0.072 C 
ATOM      8  O   UNL     1      13.176  10.580  14.943  1.00  0.00    -0.545 OA
ATOM      9  O   UNL     1      11.891  12.385  15.495  1.00  0.00    -0.545 OA
ENDBRANCH   1   7
BRANCH   4  10
ATOM     10  O   UNL     1       7.348   9.655  14.809  1.00  0.00    -0.504 OA
ATOM     11  H   UNL     1       6.923  10.444  15.282  1.00  0.00     0.293 HD
ENDBRANCH   4  10
BRANCH   6  12
ATOM     12  O   UNL     1       7.709   8.635  12.201  1.00  0.00    -0.504 OA
ATOM     13  H   UNL     1       7.452   8.894  11.256  1.00  0.00     0.293 HD
ENDBRANCH   6  12
TORSDOF 3
ENDMDL
MODEL 5
REMARK VINA RESULT:    -5.082      2.459      3.772
REMARK INTER + INTRA:          -5.717
REMARK INTER:                  -5.679
REMARK INTRA:                  -0.038
REMARK UNBOUND:                -0.041
REMARK SMILES O=C([O-])c1ccc(O)c(O)c1
REMARK SMILES IDX 4 1 11 2 5 3 9 4 6 5 7 6 2 7 1 8 3 9 10 10 8 12
REMARK H PARENT 10 11 8 13
REMARK Flexibility Score: inf
ROOT
ATOM      1  C   UNL     1      12.736   9.825  13.802  1.00  0.00     0.001 A 
ATOM      2  C   UNL     1      13.028  10.889  14.674  1.00  0.00     0.060 A 
ATOM      3  C   UNL     1      11.394   9.464  13.593  1.00  0.00     0.014 A 
ATOM      4  C   UNL     1      11.998  11.582  15.326  1.00  0.00     0.158 A 
ATOM      5  C   UNL     1      10.367  10.153  14.242  1.00  0.00     0.051 A 
ATOM      6  C   UNL     1      10.660  11.211  15.108  1.00  0.00     0.157 A 
ENDROOT
BRANCH   1   7
ATOM      7  C   UNL     1      13.822   9.093  13.113  1.00  0.00     0.072 C 
ATOM      8  O   UNL     1      13.850   9.023  11.856  1.00  0.00    -0.545 OA
ATOM      9  O   UNL     1      14.827   8.471  13.844  1.00  0.00    -0.545 OA
ENDBRANCH   1   7
BRANCH   4  10
ATOM     10  O   UNL     1      12.297  12.636  16.188  1.00  0.00    -0.504 OA
ATOM     11  H   UNL     1      11.876  13.551  16.074  1.00  0.00     0.293 HD
ENDBRANCH   4  10
BRANCH   6  12
ATOM     12  O   UNL     1       9.613  11.879  15.741  1.00  0.00    -0.504 OA
ATOM     13  H   UNL     1       8.947  11.398  16.333  1.00  0.00     0.293 HD
ENDBRANCH   6  12
TORSDOF 3
ENDMDL
MODEL 6
REMARK VINA RESULT:    -5.009      1.462      1.878
REMARK INTER + INTRA:          -5.635
REMARK INTER:                  -5.592
REMARK INTRA:                  -0.044
REMARK UNBOUND:                -0.041
REMARK SMILES O=C([O-])c1ccc(O)c(O)c1
REMARK SMILES IDX 4 1 11 2 5 3 9 4 6 5 7 6 2 7 1 8 3 9 10 10 8 12
REMARK H PARENT 10 11 8 13
REMARK Flexibility Score: inf
ROOT
ATOM      1  C   UNL     1      10.056   9.996  14.110  1.00  0.00     0.001 A 
ATOM      2  C   UNL     1      10.453  10.945  15.069  1.00  0.00     0.060 A 
ATOM      3  C   UNL     1      11.042   9.303  13.388  1.00  0.00     0.014 A 
ATOM      4  C   UNL     1      11.812  11.197  15.304  1.00  0.00     0.158 A 
ATOM      5  C   UNL     1      12.397   9.553  13.621  1.00  0.00     0.051 A 
ATOM      6  C   UNL     1      12.788  10.497  14.575  1.00  0.00     0.157 A 
ENDROOT
BRANCH   1   7
ATOM      7  C   UNL     1       8.622   9.728  13.861  1.00  0.00     0.072 C 
ATOM      8  O   UNL     1       7.749  10.089  14.694  1.00  0.00    -0.545 OA
ATOM      9  O   UNL     1       8.219   9.072  12.704  1.00  0.00    -0.545 OA
ENDBRANCH   1   7
BRANCH   4  10
ATOM     10  O   UNL     1      12.197  12.140  16.257  1.00  0.00    -0.504 OA
ATOM     11  H   UNL     1      13.043  12.027  16.803  1.00  0.00     0.293 HD
ENDBRANCH   4  10
BRANCH   6  12
ATOM     12  O   UNL     1      14.148  10.725  14.785  1.00  0.00    -0.504 OA
ATOM     13  H   UNL     1      14.541  10.816  15.714  1.00  0.00     0.293 HD
ENDBRANCH   6  12
TORSDOF 3
ENDMDL
MODEL 7
REMARK VINA RESULT:    -4.992      1.863      2.878
REMARK INTER + INTRA:          -5.616
REMARK INTER:                  -5.575
REMARK INTRA:                  -0.041
REMARK UNBOUND:                -0.041
REMARK SMILES O=C([O-])c1ccc(O)c(O)c1
REMARK SMILES IDX 4 1 11 2 5 3 9 4 6 5 7 6 2 7 1 8 3 9 10 10 8 12
REMARK H PARENT 10 11 8 13
REMARK Flexibility Score: inf
ROOT
ATOM      1  C   UNL     1      11.384  10.559  12.875  1.00  0.00     0.001 A 
ATOM      2  C   UNL     1      11.967  11.392  13.847  1.00  0.00     0.060 A 
ATOM      3  C   UNL     1      10.483   9.562  13.285  1.00  0.00     0.014 A 
ATOM      4  C   UNL     1      11.656  11.232  15.205  1.00  0.00     0.158 A 
ATOM      5  C   UNL     1      10.172   9.401  14.637  1.00  0.00     0.051 A 
ATOM      6  C   UNL     1      10.753  10.230  15.600  1.00  0.00     0.157 A 
ENDROOT
BRANCH   1   7
ATOM      7  C   UNL     1      11.711  10.727  11.442  1.00  0.00     0.072 C 
ATOM      8  O   UNL     1      11.857  11.876  10.948  1.00  0.00    -0.545 OA
ATOM      9  O   UNL     1      11.860   9.617  10.619  1.00  0.00    -0.545 OA
ENDBRANCH   1   7
BRANCH   4  10
ATOM     10  O   UNL     1      12.238  12.063  16.161  1.00  0.00    -0.504 OA
ATOM     11  H   UNL     1      11.709  12.416  16.950  1.00  0.00     0.293 HD
ENDBRANCH   4  10
BRANCH   6  12
ATOM     12  O   UNL     1      10.423  10.045  16.943  1.00  0.00    -0.504 OA
ATOM     13  H   UNL     1       9.463   9.959  17.254  1.00  0.00     0.293 HD
ENDBRANCH   6  12
TORSDOF 3
ENDMDL
MODEL 8
REMARK VINA RESULT:    -4.984      2.292      3.632
REMARK INTER + INTRA:          -5.608
REMARK INTER:                  -5.568
REMARK INTRA:                  -0.040
REMARK UNBOUND:                -0.041
REMARK SMILES O=C([O-])c1ccc(O)c(O)c1
REMARK SMILES IDX 4 1 11 2 5 3 9 4 6 5 7 6 2 7 1 8 3 9 10 10 8 12
REMARK H PARENT 10 11 8 13
REMARK Flexibility Score: inf
ROOT
ATOM      1  C   UNL     1      12.451  10.267  14.164  1.00  0.00     0.001 A 
ATOM      2  C   UNL     1      11.385   9.369  14.355  1.00  0.00     0.060 A 
ATOM      3  C   UNL     1      12.300  11.602  14.576  1.00  0.00     0.014 A 
ATOM      4  C   UNL     1      10.188   9.798  14.948  1.00  0.00     0.158 A 
ATOM      5  C   UNL     1      11.109  12.030  15.167  1.00  0.00     0.051 A 
ATOM      6  C   UNL     1      10.051  11.136  15.356  1.00  0.00     0.157 A 
ENDROOT
BRANCH   1   7
ATOM      7  C   UNL     1      13.714   9.817  13.538  1.00  0.00     0.072 C 
ATOM      8  O   UNL     1      14.826  10.141  14.034  1.00  0.00    -0.545 OA
ATOM      9  O   UNL     1      13.692   9.031  12.392  1.00  0.00    -0.545 OA
ENDBRANCH   1   7
BRANCH   4  10
ATOM     10  O   UNL     1       9.137   8.901  15.134  1.00  0.00    -0.504 OA
ATOM     11  H   UNL     1       9.069   8.045  14.598  1.00  0.00     0.293 HD
ENDBRANCH   4  10
BRANCH   6  12
ATOM     12  O   UNL     1       8.875  11.593  15.948  1.00  0.00    -0.504 OA
ATOM     13  H   UNL     1       8.079  10.985  16.103  1.00  0.00     0.293 HD
ENDBRANCH   6  12
TORSDOF 3
ENDMDL
MODEL 9
REMARK VINA RESULT:    -4.945     17.157     17.567
REMARK INTER + INTRA:          -5.564
REMARK INTER:                  -5.526
REMARK INTRA:                  -0.038
REMARK UNBOUND:                -0.041
REMARK SMILES O=C([O-])c1ccc(O)c(O)c1
REMARK SMILES IDX 4 1 11 2 5 3 9 4 6 5 7 6 2 7 1 8 3 9 10 10 8 12
REMARK H PARENT 10 11 8 13
REMARK Flexibility Score: inf
ROOT
ATOM      1  C   UNL     1      17.372  -6.414  15.766  1.00  0.00     0.001 A 
ATOM      2  C   UNL     1      17.287  -5.397  16.734  1.00  0.00     0.060 A 
ATOM      3  C   UNL     1      16.211  -7.124  15.419  1.00  0.00     0.014 A 
ATOM      4  C   UNL     1      16.061  -5.095  17.346  1.00  0.00     0.158 A 
ATOM      5  C   UNL     1      14.990  -6.824  16.028  1.00  0.00     0.051 A 
ATOM      6  C   UNL     1      14.908  -5.813  16.990  1.00  0.00     0.157 A 
ENDROOT
BRANCH   1   7
ATOM      7  C   UNL     1      18.664  -6.734  15.118  1.00  0.00     0.072 C 
ATOM      8  O   UNL     1      19.651  -7.104  15.808  1.00  0.00    -0.545 OA
ATOM      9  O   UNL     1      18.807  -6.629  13.740  1.00  0.00    -0.545 OA
ENDBRANCH   1   7
BRANCH   4  10
ATOM     10  O   UNL     1      15.986  -4.085  18.304  1.00  0.00    -0.504 OA
ATOM     11  H   UNL     1      16.794  -3.526  18.550  1.00  0.00     0.293 HD
ENDBRANCH   4  10
BRANCH   6  12
ATOM     12  O   UNL     1      13.675  -5.537  17.580  1.00  0.00    -0.504 OA
ATOM     13  H   UNL     1      12.909  -5.125  17.059  1.00  0.00     0.293 HD
ENDBRANCH   6  12
TORSDOF 3
ENDMDL
