MODEL 1
REMARK VINA RESULT:    -3.611      0.000      0.000
REMARK INTER + INTRA:          -4.258
REMARK INTER:                  -4.033
REMARK INTRA:                  -0.225
REMARK UNBOUND:                -0.225
REMARK SMILES O=C([O-])c1ccccc1C(=O)[O-]
REMARK SMILES IDX 4 1 9 2 5 3 8 4 6 5 7 6 2 7 1 8 3 9 10 10 11 11 12 12
REMARK H PARENT
REMARK Flexibility Score: inf
ROOT
ATOM      1  C   UNL     1      33.259  39.685  38.747  1.00  0.00     0.006 A 
ATOM      2  C   UNL     1      34.150  40.465  37.959  1.00  0.00     0.006 A 
ATOM      3  C   UNL     1      33.775  38.921  39.810  1.00  0.00     0.010 A 
ATOM      4  C   UNL     1      35.513  40.502  38.303  1.00  0.00     0.010 A 
ATOM      5  C   UNL     1      35.135  38.955  40.119  1.00  0.00     0.001 A 
ATOM      6  C   UNL     1      36.000  39.753  39.375  1.00  0.00     0.001 A 
ENDROOT
BRANCH   1   7
ATOM      7  C   UNL     1      31.791  39.697  38.544  1.00  0.00     0.072 C 
ATOM      8  O   UNL     1      31.067  40.500  39.190  1.00  0.00    -0.545 OA
ATOM      9  O   UNL     1      31.201  38.872  37.593  1.00  0.00    -0.545 OA
ENDBRANCH   1   7
BRANCH   2  10
ATOM     10  C   UNL     1      33.724  41.191  36.740  1.00  0.00     0.072 C 
ATOM     11  O   UNL     1      33.469  42.424  36.781  1.00  0.00    -0.545 OA
ATOM     12  O   UNL     1      33.534  40.502  35.548  1.00  0.00    -0.545 OA
ENDBRANCH   2  10
TORSDOF 2
ENDMDL
MODEL 2
REMARK VINA RESULT:    -3.530      2.487      3.687
REMARK INTER + INTRA:          -4.168
REMARK INTER:                  -3.957
REMARK INTRA:                  -0.211
REMARK UNBOUND:                -0.225
REMARK SMILES O=C([O-])c1ccccc1C(=O)[O-]
REMARK SMILES IDX 4 1 9 2 5 3 8 4 6 5 7 6 2 7 1 8 3 9 10 10 11 11 12 12
REMARK H PARENT
REMARK Flexibility Score: inf
ROOT
ATOM      1  C   UNL     1      34.308  39.502  36.940  1.00  0.00     0.006 A 
ATOM      2  C   UNL     1      35.048  40.262  37.888  1.00  0.00     0.006 A 
ATOM      3  C   UNL     1      34.129  40.015  35.642  1.00  0.00     0.010 A 
ATOM      4  C   UNL     1      35.634  41.475  37.484  1.00  0.00     0.010 A 
ATOM      5  C   UNL     1      34.700  41.233  35.270  1.00  0.00     0.001 A 
ATOM      6  C   UNL     1      35.462  41.955  36.186  1.00  0.00     0.001 A 
ENDROOT
BRANCH   1   7
ATOM      7  C   UNL     1      33.775  38.152  37.237  1.00  0.00     0.072 C 
ATOM      8  O   UNL     1      34.471  37.129  37.000  1.00  0.00    -0.545 OA
ATOM      9  O   UNL     1      32.532  37.998  37.839  1.00  0.00    -0.545 OA
ENDBRANCH   1   7
BRANCH   2  10
ATOM     10  C   UNL     1      35.175  39.871  39.311  1.00  0.00     0.072 C 
ATOM     11  O   UNL     1      34.237  40.085  40.125  1.00  0.00    -0.545 OA
ATOM     12  O   UNL     1      36.363  39.323  39.781  1.00  0.00    -0.545 OA
ENDBRANCH   2  10
TORSDOF 2
ENDMDL
MODEL 3
REMARK VINA RESULT:    -3.422     15.021     16.518
REMARK INTER + INTRA:          -4.047
REMARK INTER:                  -3.826
REMARK INTRA:                  -0.221
REMARK UNBOUND:                -0.225
REMARK SMILES O=C([O-])c1ccccc1C(=O)[O-]
REMARK SMILES IDX 4 1 9 2 5 3 8 4 6 5 7 6 2 7 1 8 3 9 10 10 11 11 12 12
REMARK H PARENT
REMARK Flexibility Score: inf
ROOT
ATOM      1  C   UNL     1      29.652  46.925  23.958  1.00  0.00     0.006 A 
ATOM      2  C   UNL     1      29.722  45.619  23.398  1.00  0.00     0.006 A 
ATOM      3  C   UNL     1      29.318  48.010  23.125  1.00  0.00     0.010 A 
ATOM      4  C   UNL     1      29.392  45.438  22.043  1.00  0.00     0.010 A 
ATOM      5  C   UNL     1      29.017  47.809  21.778  1.00  0.00     0.001 A 
ATOM      6  C   UNL     1      29.042  46.524  21.241  1.00  0.00     0.001 A 
ENDROOT
BRANCH   1   7
ATOM      7  C   UNL     1      29.846  47.189  25.402  1.00  0.00     0.072 C 
ATOM      8  O   UNL     1      28.875  47.098  26.201  1.00  0.00    -0.545 OA
ATOM      9  O   UNL     1      31.109  47.473  25.908  1.00  0.00    -0.545 OA
ENDBRANCH   1   7
BRANCH   2  10
ATOM     10  C   UNL     1      30.196  44.441  24.160  1.00  0.00     0.072 C 
ATOM     11  O   UNL     1      29.380  43.595  24.613  1.00  0.00    -0.545 OA
ATOM     12  O   UNL     1      31.549  44.290  24.441  1.00  0.00    -0.545 OA
ENDBRANCH   2  10
TORSDOF 2
ENDMDL
MODEL 4
REMARK VINA RESULT:    -3.404      7.827      9.761
REMARK INTER + INTRA:          -4.027
REMARK INTER:                  -3.808
REMARK INTRA:                  -0.218
REMARK UNBOUND:                -0.225
REMARK SMILES O=C([O-])c1ccccc1C(=O)[O-]
REMARK SMILES IDX 4 1 9 2 5 3 8 4 6 5 7 6 2 7 1 8 3 9 10 10 11 11 12 12
REMARK H PARENT
REMARK Flexibility Score: inf
ROOT
ATOM      1  C   UNL     1      33.438  49.200  36.396  1.00  0.00     0.006 A 
ATOM      2  C   UNL     1      33.261  49.122  37.806  1.00  0.00     0.006 A 
ATOM      3  C   UNL     1      33.077  50.384  35.726  1.00  0.00     0.010 A 
ATOM      4  C   UNL     1      32.792  50.252  38.500  1.00  0.00     0.010 A 
ATOM      5  C   UNL     1      32.591  51.485  36.432  1.00  0.00     0.001 A 
ATOM      6  C   UNL     1      32.461  51.423  37.818  1.00  0.00     0.001 A 
ENDROOT
BRANCH   1   7
ATOM      7  C   UNL     1      34.055  48.110  35.605  1.00  0.00     0.072 C 
ATOM      8  O   UNL     1      35.309  48.022  35.516  1.00  0.00    -0.545 OA
ATOM      9  O   UNL     1      33.267  47.134  35.007  1.00  0.00    -0.545 OA
ENDBRANCH   1   7
BRANCH   2  10
ATOM     10  C   UNL     1      33.483  47.878  38.578  1.00  0.00     0.072 C 
ATOM     11  O   UNL     1      32.594  46.987  38.634  1.00  0.00    -0.545 OA
ATOM     12  O   UNL     1      34.653  47.709  39.308  1.00  0.00    -0.545 OA
ENDBRANCH   2  10
TORSDOF 2
ENDMDL
MODEL 5
REMARK VINA RESULT:    -3.348      1.604      2.187
REMARK INTER + INTRA:          -3.965
REMARK INTER:                  -3.757
REMARK INTRA:                  -0.208
REMARK UNBOUND:                -0.225
REMARK SMILES O=C([O-])c1ccccc1C(=O)[O-]
REMARK SMILES IDX 4 1 9 2 5 3 8 4 6 5 7 6 2 7 1 8 3 9 10 10 11 11 12 12
REMARK H PARENT
REMARK Flexibility Score: inf
ROOT
ATOM      1  C   UNL     1      33.472  40.829  37.519  1.00  0.00     0.006 A 
ATOM      2  C   UNL     1      34.866  41.103  37.583  1.00  0.00     0.006 A 
ATOM      3  C   UNL     1      32.906  39.938  38.450  1.00  0.00     0.010 A 
ATOM      4  C   UNL     1      35.630  40.526  38.614  1.00  0.00     0.010 A 
ATOM      5  C   UNL     1      33.688  39.359  39.450  1.00  0.00     0.001 A 
ATOM      6  C   UNL     1      35.044  39.662  39.540  1.00  0.00     0.001 A 
ENDROOT
BRANCH   1   7
ATOM      7  C   UNL     1      32.568  41.499  36.556  1.00  0.00     0.072 C 
ATOM      8  O   UNL     1      32.081  42.631  36.823  1.00  0.00    -0.545 OA
ATOM      9  O   UNL     1      32.296  40.924  35.320  1.00  0.00    -0.545 OA
ENDBRANCH   1   7
BRANCH   2  10
ATOM     10  C   UNL     1      35.575  41.917  36.568  1.00  0.00     0.072 C 
ATOM     11  O   UNL     1      35.953  43.089  36.831  1.00  0.00    -0.545 OA
ATOM     12  O   UNL     1      35.772  41.417  35.286  1.00  0.00    -0.545 OA
ENDBRANCH   2  10
TORSDOF 2
ENDMDL
MODEL 6
REMARK VINA RESULT:    -3.345      2.851      3.775
REMARK INTER + INTRA:          -3.961
REMARK INTER:                  -3.741
REMARK INTRA:                  -0.220
REMARK UNBOUND:                -0.225
REMARK SMILES O=C([O-])c1ccccc1C(=O)[O-]
REMARK SMILES IDX 4 1 9 2 5 3 8 4 6 5 7 6 2 7 1 8 3 9 10 10 11 11 12 12
REMARK H PARENT
REMARK Flexibility Score: inf
ROOT
ATOM      1  C   UNL     1      33.465  37.738  38.645  1.00  0.00     0.006 A 
ATOM      2  C   UNL     1      33.744  39.049  39.120  1.00  0.00     0.006 A 
ATOM      3  C   UNL     1      32.229  37.143  38.963  1.00  0.00     0.010 A 
ATOM      4  C   UNL     1      32.753  39.741  39.839  1.00  0.00     0.010 A 
ATOM      5  C   UNL     1      31.270  37.840  39.698  1.00  0.00     0.001 A 
ATOM      6  C   UNL     1      31.526  39.141  40.124  1.00  0.00     0.001 A 
ENDROOT
BRANCH   1   7
ATOM      7  C   UNL     1      34.393  36.991  37.765  1.00  0.00     0.072 C 
ATOM      8  O   UNL     1      35.062  36.026  38.222  1.00  0.00    -0.545 OA
ATOM      9  O   UNL     1      34.489  37.297  36.413  1.00  0.00    -0.545 OA
ENDBRANCH   1   7
BRANCH   2  10
ATOM     10  C   UNL     1      35.063  39.702  38.954  1.00  0.00     0.072 C 
ATOM     11  O   UNL     1      35.257  40.538  38.032  1.00  0.00    -0.545 OA
ATOM     12  O   UNL     1      36.126  39.348  39.778  1.00  0.00    -0.545 OA
ENDBRANCH   2  10
TORSDOF 2
ENDMDL
MODEL 7
REMARK VINA RESULT:    -3.337      2.834      4.106
REMARK INTER + INTRA:          -3.953
REMARK INTER:                  -3.754
REMARK INTRA:                  -0.199
REMARK UNBOUND:                -0.225
REMARK SMILES O=C([O-])c1ccccc1C(=O)[O-]
REMARK SMILES IDX 4 1 9 2 5 3 8 4 6 5 7 6 2 7 1 8 3 9 10 10 11 11 12 12
REMARK H PARENT
REMARK Flexibility Score: inf
ROOT
ATOM      1  C   UNL     1      33.683  39.060  39.181  1.00  0.00     0.006 A 
ATOM      2  C   UNL     1      33.420  37.794  38.589  1.00  0.00     0.006 A 
ATOM      3  C   UNL     1      32.670  39.690  39.928  1.00  0.00     0.010 A 
ATOM      4  C   UNL     1      32.177  37.176  38.820  1.00  0.00     0.010 A 
ATOM      5  C   UNL     1      31.436  39.069  40.125  1.00  0.00     0.001 A 
ATOM      6  C   UNL     1      31.195  37.809  39.583  1.00  0.00     0.001 A 
ENDROOT
BRANCH   1   7
ATOM      7  C   UNL     1      35.007  39.719  39.106  1.00  0.00     0.072 C 
ATOM      8  O   UNL     1      35.930  39.379  39.894  1.00  0.00    -0.545 OA
ATOM      9  O   UNL     1      35.272  40.670  38.128  1.00  0.00    -0.545 OA
ENDBRANCH   1   7
BRANCH   2  10
ATOM     10  C   UNL     1      34.370  37.118  37.676  1.00  0.00     0.072 C 
ATOM     11  O   UNL     1      34.505  37.504  36.485  1.00  0.00    -0.545 OA
ATOM     12  O   UNL     1      35.077  36.001  38.107  1.00  0.00    -0.545 OA
ENDBRANCH   2  10
TORSDOF 2
ENDMDL
MODEL 8
REMARK VINA RESULT:    -3.319      3.127      4.628
REMARK INTER + INTRA:          -3.932
REMARK INTER:                  -3.729
REMARK INTRA:                  -0.203
REMARK UNBOUND:                -0.225
REMARK SMILES O=C([O-])c1ccccc1C(=O)[O-]
REMARK SMILES IDX 4 1 9 2 5 3 8 4 6 5 7 6 2 7 1 8 3 9 10 10 11 11 12 12
REMARK H PARENT
REMARK Flexibility Score: inf
ROOT
ATOM      1  C   UNL     1      34.292  37.263  39.104  1.00  0.00     0.006 A 
ATOM      2  C   UNL     1      32.953  37.573  39.471  1.00  0.00     0.006 A 
ATOM      3  C   UNL     1      35.281  38.257  39.218  1.00  0.00     0.010 A 
ATOM      4  C   UNL     1      32.667  38.845  39.999  1.00  0.00     0.010 A 
ATOM      5  C   UNL     1      34.969  39.520  39.723  1.00  0.00     0.001 A 
ATOM      6  C   UNL     1      33.668  39.809  40.125  1.00  0.00     0.001 A 
ENDROOT
BRANCH   1   7
ATOM      7  C   UNL     1      34.709  35.909  38.671  1.00  0.00     0.072 C 
ATOM      8  O   UNL     1      34.959  35.680  37.457  1.00  0.00    -0.545 OA
ATOM      9  O   UNL     1      34.896  34.893  39.600  1.00  0.00    -0.545 OA
ENDBRANCH   1   7
BRANCH   2  10
ATOM     10  C   UNL     1      31.822  36.641  39.259  1.00  0.00     0.072 C 
ATOM     11  O   UNL     1      31.551  35.752  40.109  1.00  0.00    -0.545 OA
ATOM     12  O   UNL     1      31.085  36.695  38.081  1.00  0.00    -0.545 OA
ENDBRANCH   2  10
TORSDOF 2
ENDMDL
MODEL 9
REMARK VINA RESULT:    -3.061      0.095      2.868
REMARK INTER + INTRA:          -3.644
REMARK INTER:                  -3.438
REMARK INTRA:                  -0.206
REMARK UNBOUND:                -0.225
REMARK SMILES O=C([O-])c1ccccc1C(=O)[O-]
REMARK SMILES IDX 4 1 9 2 5 3 8 4 6 5 7 6 2 7 1 8 3 9 10 10 11 11 12 12
REMARK H PARENT
REMARK Flexibility Score: inf
ROOT
ATOM      1  C   UNL     1      34.126  40.484  37.988  1.00  0.00     0.006 A 
ATOM      2  C   UNL     1      33.235  39.713  38.785  1.00  0.00     0.006 A 
ATOM      3  C   UNL     1      35.495  40.499  38.312  1.00  0.00     0.010 A 
ATOM      4  C   UNL     1      33.756  38.935  39.835  1.00  0.00     0.010 A 
ATOM      5  C   UNL     1      35.986  39.737  39.373  1.00  0.00     0.001 A 
ATOM      6  C   UNL     1      35.120  38.948  40.125  1.00  0.00     0.001 A 
ENDROOT
BRANCH   1   7
ATOM      7  C   UNL     1      33.686  41.221  36.781  1.00  0.00     0.072 C 
ATOM      8  O   UNL     1      33.637  42.480  36.789  1.00  0.00    -0.545 OA
ATOM      9  O   UNL     1      33.386  40.543  35.606  1.00  0.00    -0.545 OA
ENDBRANCH   1   7
BRANCH   2  10
ATOM     10  C   UNL     1      31.765  39.742  38.609  1.00  0.00     0.072 C 
ATOM     11  O   UNL     1      31.042  40.476  39.334  1.00  0.00    -0.545 OA
ATOM     12  O   UNL     1      31.157  38.904  37.680  1.00  0.00    -0.545 OA
ENDBRANCH   2  10
TORSDOF 2
ENDMDL
