MODEL 1
REMARK VINA RESULT:    -3.137      0.000      0.000
REMARK INTER + INTRA:          -3.792
REMARK INTER:                  -3.687
REMARK INTRA:                  -0.105
REMARK UNBOUND:                -0.105
REMARK SMILES CCCCC(=O)[O-]
REMARK SMILES IDX 4 1 5 2 6 3 7 4 3 5 2 6 1 7
REMARK H PARENT
REMARK Flexibility Score: inf
ROOT
ATOM      1  C   UNL     1       9.306 -20.855  29.483  1.00  0.00     0.053 C 
ENDROOT
BRANCH   1   2
ATOM      2  C   UNL     1       9.695 -20.326  28.139  1.00  0.00     0.041 C 
ATOM      3  O   UNL     1       9.485 -19.119  27.848  1.00  0.00    -0.550 OA
ATOM      4  O   UNL     1      10.244 -21.177  27.188  1.00  0.00    -0.550 OA
ENDBRANCH   1   2
BRANCH   1   5
ATOM      5  C   UNL     1      10.462 -20.690  30.477  1.00  0.00     0.006 C 
BRANCH   5   6
ATOM      6  C   UNL     1      10.358 -19.392  31.293  1.00  0.00    -0.003 C 
ATOM      7  C   UNL     1       8.918 -19.045  31.669  1.00  0.00     0.004 C 
ENDBRANCH   5   6
ENDBRANCH   1   5
TORSDOF 3
ENDMDL
MODEL 2
REMARK VINA RESULT:    -3.093      0.773      1.493
REMARK INTER + INTRA:          -3.741
REMARK INTER:                  -3.639
REMARK INTRA:                  -0.101
REMARK UNBOUND:                -0.105
REMARK SMILES CCCCC(=O)[O-]
REMARK SMILES IDX 4 1 5 2 6 3 7 4 3 5 2 6 1 7
REMARK H PARENT
REMARK Flexibility Score: inf
ROOT
ATOM      1  C   UNL     1       9.646 -20.475  30.243  1.00  0.00     0.053 C 
ENDROOT
BRANCH   1   2
ATOM      2  C   UNL     1       9.812 -20.088  28.808  1.00  0.00     0.041 C 
ATOM      3  O   UNL     1      10.112 -20.957  27.948  1.00  0.00    -0.550 OA
ATOM      4  O   UNL     1       9.684 -18.758  28.427  1.00  0.00    -0.550 OA
ENDBRANCH   1   2
BRANCH   1   5
ATOM      5  C   UNL     1      10.693 -19.769  31.113  1.00  0.00     0.006 C 
BRANCH   5   6
ATOM      6  C   UNL     1      10.088 -18.644  31.968  1.00  0.00    -0.003 C 
ATOM      7  C   UNL     1       8.561 -18.694  32.015  1.00  0.00     0.004 C 
ENDBRANCH   5   6
ENDBRANCH   1   5
TORSDOF 3
ENDMDL
MODEL 3
REMARK VINA RESULT:    -3.032      1.124      1.371
REMARK INTER + INTRA:          -3.668
REMARK INTER:                  -3.625
REMARK INTRA:                  -0.044
REMARK UNBOUND:                -0.105
REMARK SMILES CCCCC(=O)[O-]
REMARK SMILES IDX 4 1 5 2 6 3 7 4 3 5 2 6 1 7
REMARK H PARENT
REMARK Flexibility Score: inf
ROOT
ATOM      1  C   UNL     1       8.994 -20.568  29.927  1.00  0.00     0.053 C 
ENDROOT
BRANCH   1   2
ATOM      2  C   UNL     1       9.022 -21.173  28.559  1.00  0.00     0.041 C 
ATOM      3  O   UNL     1       8.124 -21.981  28.206  1.00  0.00    -0.550 OA
ATOM      4  O   UNL     1      10.067 -20.883  27.691  1.00  0.00    -0.550 OA
ENDBRANCH   1   2
BRANCH   1   5
ATOM      5  C   UNL     1      10.399 -20.565  30.539  1.00  0.00     0.006 C 
BRANCH   5   6
ATOM      6  C   UNL     1      10.739 -19.235  31.231  1.00  0.00    -0.003 C 
ATOM      7  C   UNL     1       9.564 -18.664  32.022  1.00  0.00     0.004 C 
ENDBRANCH   5   6
ENDBRANCH   1   5
TORSDOF 3
ENDMDL
MODEL 4
REMARK VINA RESULT:    -2.993      1.845      2.223
REMARK INTER + INTRA:          -3.623
REMARK INTER:                  -3.585
REMARK INTRA:                  -0.038
REMARK UNBOUND:                -0.105
REMARK SMILES CCCCC(=O)[O-]
REMARK SMILES IDX 4 1 5 2 6 3 7 4 3 5 2 6 1 7
REMARK H PARENT
REMARK Flexibility Score: inf
ROOT
ATOM      1  C   UNL     1      10.666 -20.255  30.866  1.00  0.00     0.053 C 
ENDROOT
BRANCH   1   2
ATOM      2  C   UNL     1       9.671 -20.592  29.801  1.00  0.00     0.041 C 
ATOM      3  O   UNL     1       8.468 -20.809  30.105  1.00  0.00    -0.550 OA
ATOM      4  O   UNL     1      10.079 -20.714  28.480  1.00  0.00    -0.550 OA
ENDBRANCH   1   2
BRANCH   1   5
ATOM      5  C   UNL     1      10.219 -19.011  31.642  1.00  0.00     0.006 C 
BRANCH   5   6
ATOM      6  C   UNL     1      10.938 -17.735  31.177  1.00  0.00    -0.003 C 
ATOM      7  C   UNL     1      10.621 -16.525  32.054  1.00  0.00     0.004 C 
ENDBRANCH   5   6
ENDBRANCH   1   5
TORSDOF 3
ENDMDL
MODEL 5
REMARK VINA RESULT:    -2.927      3.381      4.024
REMARK INTER + INTRA:          -3.546
REMARK INTER:                  -3.435
REMARK INTRA:                  -0.111
REMARK UNBOUND:                -0.105
REMARK SMILES CCCCC(=O)[O-]
REMARK SMILES IDX 4 1 5 2 6 3 7 4 3 5 2 6 1 7
REMARK H PARENT
REMARK Flexibility Score: inf
ROOT
ATOM      1  C   UNL     1      11.055 -18.239  30.904  1.00  0.00     0.053 C 
ENDROOT
BRANCH   1   2
ATOM      2  C   UNL     1      10.412 -17.313  31.888  1.00  0.00     0.041 C 
ATOM      3  O   UNL     1      10.648 -16.078  31.842  1.00  0.00    -0.550 OA
ATOM      4  O   UNL     1       9.591 -17.820  32.886  1.00  0.00    -0.550 OA
ENDBRANCH   1   2
BRANCH   1   5
ATOM      5  C   UNL     1      10.774 -19.699  31.281  1.00  0.00     0.006 C 
BRANCH   5   6
ATOM      6  C   UNL     1       9.895 -20.417  30.244  1.00  0.00    -0.003 C 
ATOM      7  C   UNL     1       8.402 -20.189  30.475  1.00  0.00     0.004 C 
ENDBRANCH   5   6
ENDBRANCH   1   5
TORSDOF 3
ENDMDL
MODEL 6
REMARK VINA RESULT:    -2.820      2.009      2.539
REMARK INTER + INTRA:          -3.420
REMARK INTER:                  -3.336
REMARK INTRA:                  -0.084
REMARK UNBOUND:                -0.105
REMARK SMILES CCCCC(=O)[O-]
REMARK SMILES IDX 4 1 5 2 6 3 7 4 3 5 2 6 1 7
REMARK H PARENT
REMARK Flexibility Score: inf
ROOT
ATOM      1  C   UNL     1       9.079 -19.488  31.075  1.00  0.00     0.053 C 
ENDROOT
BRANCH   1   2
ATOM      2  C   UNL     1       9.855 -20.309  30.094  1.00  0.00     0.041 C 
ATOM      3  O   UNL     1      10.661 -21.186  30.500  1.00  0.00    -0.550 OA
ATOM      4  O   UNL     1       9.726 -20.071  28.731  1.00  0.00    -0.550 OA
ENDBRANCH   1   2
BRANCH   1   5
ATOM      5  C   UNL     1      10.030 -18.743  32.019  1.00  0.00     0.006 C 
BRANCH   5   6
ATOM      6  C   UNL     1      10.912 -17.722  31.282  1.00  0.00    -0.003 C 
ATOM      7  C   UNL     1      10.718 -16.295  31.795  1.00  0.00     0.004 C 
ENDBRANCH   5   6
ENDBRANCH   1   5
TORSDOF 3
ENDMDL
MODEL 7
REMARK VINA RESULT:    -2.816      2.490      3.369
REMARK INTER + INTRA:          -3.415
REMARK INTER:                  -3.314
REMARK INTRA:                  -0.101
REMARK UNBOUND:                -0.105
REMARK SMILES CCCCC(=O)[O-]
REMARK SMILES IDX 4 1 5 2 6 3 7 4 3 5 2 6 1 7
REMARK H PARENT
REMARK Flexibility Score: inf
ROOT
ATOM      1  C   UNL     1      10.450 -20.521  30.552  1.00  0.00     0.053 C 
ENDROOT
BRANCH   1   2
ATOM      2  C   UNL     1      10.371 -19.202  31.253  1.00  0.00     0.041 C 
ATOM      3  O   UNL     1       9.381 -18.930  31.983  1.00  0.00    -0.550 OA
ATOM      4  O   UNL     1      11.366 -18.252  31.063  1.00  0.00    -0.550 OA
ENDBRANCH   1   2
BRANCH   1   5
ATOM      5  C   UNL     1       9.673 -20.471  29.231  1.00  0.00     0.006 C 
BRANCH   5   6
ATOM      6  C   UNL     1       8.493 -21.456  29.204  1.00  0.00    -0.003 C 
ATOM      7  C   UNL     1       7.277 -20.942  29.974  1.00  0.00     0.004 C 
ENDBRANCH   5   6
ENDBRANCH   1   5
TORSDOF 3
ENDMDL
MODEL 8
REMARK VINA RESULT:    -2.749     10.676     11.524
REMARK INTER + INTRA:          -3.336
REMARK INTER:                  -3.320
REMARK INTRA:                  -0.016
REMARK UNBOUND:                -0.105
REMARK SMILES CCCCC(=O)[O-]
REMARK SMILES IDX 4 1 5 2 6 3 7 4 3 5 2 6 1 7
REMARK H PARENT
REMARK Flexibility Score: inf
ROOT
ATOM      1  C   UNL     1       8.135 -21.247  39.863  1.00  0.00     0.053 C 
ENDROOT
BRANCH   1   2
ATOM      2  C   UNL     1       8.487 -21.215  41.316  1.00  0.00     0.041 C 
ATOM      3  O   UNL     1       7.779 -20.560  42.125  1.00  0.00    -0.550 OA
ATOM      4  O   UNL     1       9.626 -21.867  41.770  1.00  0.00    -0.550 OA
ENDBRANCH   1   2
BRANCH   1   5
ATOM      5  C   UNL     1       7.422 -22.559  39.514  1.00  0.00     0.006 C 
BRANCH   5   6
ATOM      6  C   UNL     1       7.260 -22.758  37.999  1.00  0.00    -0.003 C 
ATOM      7  C   UNL     1       5.849 -23.196  37.608  1.00  0.00     0.004 C 
ENDBRANCH   5   6
ENDBRANCH   1   5
TORSDOF 3
ENDMDL
MODEL 9
REMARK VINA RESULT:    -2.668      3.854      4.902
REMARK INTER + INTRA:          -3.241
REMARK INTER:                  -3.220
REMARK INTRA:                  -0.021
REMARK UNBOUND:                -0.105
REMARK SMILES CCCCC(=O)[O-]
REMARK SMILES IDX 4 1 5 2 6 3 7 4 3 5 2 6 1 7
REMARK H PARENT
REMARK Flexibility Score: inf
ROOT
ATOM      1  C   UNL     1       9.273 -18.071  32.073  1.00  0.00     0.053 C 
ENDROOT
BRANCH   1   2
ATOM      2  C   UNL     1       9.625 -17.160  33.206  1.00  0.00     0.041 C 
ATOM      3  O   UNL     1       9.257 -17.436  34.378  1.00  0.00    -0.550 OA
ATOM      4  O   UNL     1      10.317 -15.981  32.962  1.00  0.00    -0.550 OA
ENDBRANCH   1   2
BRANCH   1   5
ATOM      5  C   UNL     1      10.524 -18.418  31.257  1.00  0.00     0.006 C 
BRANCH   5   6
ATOM      6  C   UNL     1      10.771 -19.933  31.171  1.00  0.00    -0.003 C 
ATOM      7  C   UNL     1       9.919 -20.610  30.098  1.00  0.00     0.004 C 
ENDBRANCH   5   6
ENDBRANCH   1   5
TORSDOF 3
ENDMDL
