MODEL 1
REMARK VINA RESULT:    -4.303      0.000      0.000
REMARK INTER + INTRA:          -6.850
REMARK INTER:                  -5.813
REMARK INTRA:                  -1.037
REMARK UNBOUND:                -1.037
REMARK SMILES CC(=O)CCC=C(C)CCC=C(C)C
REMARK SMILES IDX 7 1 6 2 8 3 9 4 10 5 11 6 13 7 12 8 14 9 5 10 4 11 2 12 3 13
REMARK SMILES IDX 1 14
REMARK H PARENT
REMARK Flexibility Score: inf
ROOT
ATOM      1  C   UNL     1      25.859  -3.634  52.187  1.00  0.00    -0.077 C 
ATOM      2  C   UNL     1      26.975  -2.877  52.285  1.00  0.00    -0.028 C 
ATOM      3  C   UNL     1      25.753  -4.752  51.177  1.00  0.00     0.039 C 
ENDROOT
BRANCH   1   4
ATOM      4  C   UNL     1      24.694  -3.357  53.111  1.00  0.00     0.034 C 
BRANCH   4   5
ATOM      5  C   UNL     1      25.166  -2.655  54.390  1.00  0.00     0.032 C 
BRANCH   5   6
ATOM      6  C   UNL     1      24.609  -3.339  55.614  1.00  0.00    -0.028 C 
ATOM      7  C   UNL     1      24.537  -4.945  57.473  1.00  0.00     0.039 C 
ATOM      8  C   UNL     1      25.191  -4.390  56.233  1.00  0.00    -0.080 C 
ATOM      9  C   UNL     1      26.457  -5.027  55.710  1.00  0.00     0.039 C 
ENDBRANCH   5   6
ENDBRANCH   4   5
ENDBRANCH   1   4
BRANCH   2  10
ATOM     10  C   UNL     1      28.187  -3.075  51.405  1.00  0.00     0.035 C 
BRANCH  10  11
ATOM     11  C   UNL     1      29.324  -3.793  52.143  1.00  0.00     0.079 C 
BRANCH  11  12
ATOM     12  C   UNL     1      29.232  -5.289  51.990  1.00  0.00     0.130 C 
ATOM     13  O   UNL     1      29.521  -5.805  50.920  1.00  0.00    -0.300 OA
ATOM     14  C   UNL     1      28.800  -6.166  53.129  1.00  0.00     0.087 C 
ENDBRANCH  11  12
ENDBRANCH  10  11
ENDBRANCH   2  10
TORSDOF 6
ENDMDL
MODEL 2
REMARK VINA RESULT:    -4.252      1.389      1.834
REMARK INTER + INTRA:          -6.781
REMARK INTER:                  -5.368
REMARK INTRA:                  -1.413
REMARK UNBOUND:                -1.037
REMARK SMILES CC(=O)CCC=C(C)CCC=C(C)C
REMARK SMILES IDX 7 1 6 2 8 3 9 4 10 5 11 6 13 7 12 8 14 9 5 10 4 11 2 12 3 13
REMARK SMILES IDX 1 14
REMARK H PARENT
REMARK Flexibility Score: inf
ROOT
ATOM      1  C   UNL     1      26.036  -3.456  52.527  1.00  0.00    -0.077 C 
ATOM      2  C   UNL     1      26.324  -4.777  52.500  1.00  0.00    -0.028 C 
ATOM      3  C   UNL     1      26.916  -2.445  51.832  1.00  0.00     0.039 C 
ENDROOT
BRANCH   1   4
ATOM      4  C   UNL     1      24.804  -2.982  53.265  1.00  0.00     0.034 C 
BRANCH   4   5
ATOM      5  C   UNL     1      24.489  -3.905  54.449  1.00  0.00     0.032 C 
BRANCH   5   6
ATOM      6  C   UNL     1      25.309  -3.526  55.657  1.00  0.00    -0.028 C 
ATOM      7  C   UNL     1      26.894  -3.847  57.507  1.00  0.00     0.039 C 
ATOM      8  C   UNL     1      26.102  -4.380  56.340  1.00  0.00    -0.080 C 
ATOM      9  C   UNL     1      26.200  -5.844  55.981  1.00  0.00     0.039 C 
ENDBRANCH   5   6
ENDBRANCH   4   5
ENDBRANCH   1   4
BRANCH   2  10
ATOM     10  C   UNL     1      27.532  -5.344  51.791  1.00  0.00     0.035 C 
BRANCH  10  11
ATOM     11  C   UNL     1      28.590  -5.857  52.777  1.00  0.00     0.079 C 
BRANCH  11  12
ATOM     12  C   UNL     1      29.530  -4.760  53.206  1.00  0.00     0.130 C 
ATOM     13  O   UNL     1      30.438  -4.418  52.462  1.00  0.00    -0.300 OA
ATOM     14  C   UNL     1      29.370  -4.067  54.528  1.00  0.00     0.087 C 
ENDBRANCH  11  12
ENDBRANCH  10  11
ENDBRANCH   2  10
TORSDOF 6
ENDMDL
MODEL 3
REMARK VINA RESULT:    -4.228      1.397      3.830
REMARK INTER + INTRA:          -6.749
REMARK INTER:                  -5.473
REMARK INTRA:                  -1.276
REMARK UNBOUND:                -1.037
REMARK SMILES CC(=O)CCC=C(C)CCC=C(C)C
REMARK SMILES IDX 7 1 6 2 8 3 9 4 10 5 11 6 13 7 12 8 14 9 5 10 4 11 2 12 3 13
REMARK SMILES IDX 1 14
REMARK H PARENT
REMARK Flexibility Score: inf
ROOT
ATOM      1  C   UNL     1      26.147  -4.242  55.481  1.00  0.00    -0.077 C 
ATOM      2  C   UNL     1      26.578  -5.447  55.048  1.00  0.00    -0.028 C 
ATOM      3  C   UNL     1      27.084  -3.267  56.155  1.00  0.00     0.039 C 
ENDROOT
BRANCH   1   4
ATOM      4  C   UNL     1      24.697  -3.860  55.285  1.00  0.00     0.034 C 
BRANCH   4   5
ATOM      5  C   UNL     1      24.376  -3.684  53.796  1.00  0.00     0.032 C 
BRANCH   5   6
ATOM      6  C   UNL     1      25.469  -2.912  53.100  1.00  0.00    -0.028 C 
ATOM      7  C   UNL     1      27.162  -2.434  51.384  1.00  0.00     0.039 C 
ATOM      8  C   UNL     1      26.116  -3.334  51.991  1.00  0.00    -0.080 C 
ATOM      9  C   UNL     1      25.835  -4.679  51.363  1.00  0.00     0.039 C 
ENDBRANCH   5   6
ENDBRANCH   4   5
ENDBRANCH   1   4
BRANCH   2  10
ATOM     10  C   UNL     1      28.006  -5.918  55.202  1.00  0.00     0.035 C 
BRANCH  10  11
ATOM     11  C   UNL     1      28.593  -6.421  53.877  1.00  0.00     0.079 C 
BRANCH  11  12
ATOM     12  C   UNL     1      29.161  -5.292  53.055  1.00  0.00     0.130 C 
ATOM     13  O   UNL     1      29.402  -4.220  53.589  1.00  0.00    -0.300 OA
ATOM     14  C   UNL     1      29.447  -5.460  51.591  1.00  0.00     0.087 C 
ENDBRANCH  11  12
ENDBRANCH  10  11
ENDBRANCH   2  10
TORSDOF 6
ENDMDL
MODEL 4
REMARK VINA RESULT:    -4.215     11.255     13.400
REMARK INTER + INTRA:          -6.731
REMARK INTER:                  -5.868
REMARK INTRA:                  -0.862
REMARK UNBOUND:                -1.037
REMARK SMILES CC(=O)CCC=C(C)CCC=C(C)C
REMARK SMILES IDX 7 1 6 2 8 3 9 4 10 5 11 6 13 7 12 8 14 9 5 10 4 11 2 12 3 13
REMARK SMILES IDX 1 14
REMARK H PARENT
REMARK Flexibility Score: inf
ROOT
ATOM      1  C   UNL     1      15.584  -1.102  59.705  1.00  0.00    -0.077 C 
ATOM      2  C   UNL     1      14.885  -1.697  60.698  1.00  0.00    -0.028 C 
ATOM      3  C   UNL     1      16.765  -1.786  59.057  1.00  0.00     0.039 C 
ENDROOT
BRANCH   1   4
ATOM      4  C   UNL     1      15.172   0.274  59.231  1.00  0.00     0.034 C 
BRANCH   4   5
ATOM      5  C   UNL     1      15.066   0.315  57.703  1.00  0.00     0.032 C 
BRANCH   5   6
ATOM      6  C   UNL     1      16.155   1.176  57.113  1.00  0.00    -0.028 C 
ATOM      7  C   UNL     1      18.012   1.766  55.615  1.00  0.00     0.039 C 
ATOM      8  C   UNL     1      16.996   0.780  56.132  1.00  0.00    -0.080 C 
ATOM      9  C   UNL     1      16.957  -0.618  55.560  1.00  0.00     0.039 C 
ENDBRANCH   5   6
ENDBRANCH   4   5
ENDBRANCH   1   4
BRANCH   2  10
ATOM     10  C   UNL     1      15.222  -3.066  61.240  1.00  0.00     0.035 C 
BRANCH  10  11
ATOM     11  C   UNL     1      15.780  -3.001  62.667  1.00  0.00     0.079 C 
BRANCH  11  12
ATOM     12  C   UNL     1      17.283  -2.890  62.674  1.00  0.00     0.130 C 
ATOM     13  O   UNL     1      17.820  -2.018  63.341  1.00  0.00    -0.300 OA
ATOM     14  C   UNL     1      18.140  -3.836  61.885  1.00  0.00     0.087 C 
ENDBRANCH  11  12
ENDBRANCH  10  11
ENDBRANCH   2  10
TORSDOF 6
ENDMDL
MODEL 5
REMARK VINA RESULT:    -4.186     12.197     14.408
REMARK INTER + INTRA:          -6.691
REMARK INTER:                  -5.823
REMARK INTRA:                  -0.869
REMARK UNBOUND:                -1.037
REMARK SMILES CC(=O)CCC=C(C)CCC=C(C)C
REMARK SMILES IDX 7 1 6 2 8 3 9 4 10 5 11 6 13 7 12 8 14 9 5 10 4 11 2 12 3 13
REMARK SMILES IDX 1 14
REMARK H PARENT
REMARK Flexibility Score: inf
ROOT
ATOM      1  C   UNL     1      13.645  -1.642  61.975  1.00  0.00    -0.077 C 
ATOM      2  C   UNL     1      14.704  -2.475  61.868  1.00  0.00    -0.028 C 
ATOM      3  C   UNL     1      12.276  -2.156  62.354  1.00  0.00     0.039 C 
ENDROOT
BRANCH   1   4
ATOM      4  C   UNL     1      13.836  -0.164  61.714  1.00  0.00     0.034 C 
BRANCH   4   5
ATOM      5  C   UNL     1      15.205   0.105  61.080  1.00  0.00     0.032 C 
BRANCH   5   6
ATOM      6  C   UNL     1      15.068   0.365  59.600  1.00  0.00    -0.028 C 
ATOM      7  C   UNL     1      15.420  -0.002  57.196  1.00  0.00     0.039 C 
ATOM      8  C   UNL     1      15.684  -0.355  58.637  1.00  0.00    -0.080 C 
ATOM      9  C   UNL     1      16.635  -1.482  58.965  1.00  0.00     0.039 C 
ENDBRANCH   5   6
ENDBRANCH   4   5
ENDBRANCH   1   4
BRANCH   2  10
ATOM     10  C   UNL     1      14.612  -3.964  62.106  1.00  0.00     0.035 C 
BRANCH  10  11
ATOM     11  C   UNL     1      15.923  -4.544  62.651  1.00  0.00     0.079 C 
BRANCH  11  12
ATOM     12  C   UNL     1      16.882  -4.894  61.542  1.00  0.00     0.130 C 
ATOM     13  O   UNL     1      18.083  -4.752  61.717  1.00  0.00    -0.300 OA
ATOM     14  C   UNL     1      16.394  -5.425  60.226  1.00  0.00     0.087 C 
ENDBRANCH  11  12
ENDBRANCH  10  11
ENDBRANCH   2  10
TORSDOF 6
ENDMDL
MODEL 6
REMARK VINA RESULT:    -4.184      1.595      2.309
REMARK INTER + INTRA:          -6.689
REMARK INTER:                  -5.228
REMARK INTRA:                  -1.461
REMARK UNBOUND:                -1.037
REMARK SMILES CC(=O)CCC=C(C)CCC=C(C)C
REMARK SMILES IDX 7 1 6 2 8 3 9 4 10 5 11 6 13 7 12 8 14 9 5 10 4 11 2 12 3 13
REMARK SMILES IDX 1 14
REMARK H PARENT
REMARK Flexibility Score: inf
ROOT
ATOM      1  C   UNL     1      25.450  -3.392  52.661  1.00  0.00    -0.077 C 
ATOM      2  C   UNL     1      26.070  -2.198  52.788  1.00  0.00    -0.028 C 
ATOM      3  C   UNL     1      25.768  -4.327  51.518  1.00  0.00     0.039 C 
ENDROOT
BRANCH   1   4
ATOM      4  C   UNL     1      24.418  -3.803  53.688  1.00  0.00     0.034 C 
BRANCH   4   5
ATOM      5  C   UNL     1      25.069  -4.023  55.058  1.00  0.00     0.032 C 
BRANCH   5   6
ATOM      6  C   UNL     1      26.051  -5.167  55.007  1.00  0.00    -0.028 C 
ATOM      7  C   UNL     1      28.227  -6.291  55.207  1.00  0.00     0.039 C 
ATOM      8  C   UNL     1      27.374  -5.050  55.258  1.00  0.00    -0.080 C 
ATOM      9  C   UNL     1      28.016  -3.717  55.568  1.00  0.00     0.039 C 
ENDBRANCH   5   6
ENDBRANCH   4   5
ENDBRANCH   1   4
BRANCH   2  10
ATOM     10  C   UNL     1      27.111  -1.700  51.812  1.00  0.00     0.035 C 
BRANCH  10  11
ATOM     11  C   UNL     1      28.520  -1.712  52.417  1.00  0.00     0.079 C 
BRANCH  11  12
ATOM     12  C   UNL     1      29.412  -2.719  51.736  1.00  0.00     0.130 C 
ATOM     13  O   UNL     1      30.207  -2.343  50.888  1.00  0.00    -0.300 OA
ATOM     14  C   UNL     1      29.352  -4.177  52.085  1.00  0.00     0.087 C 
ENDBRANCH  11  12
ENDBRANCH  10  11
ENDBRANCH   2  10
TORSDOF 6
ENDMDL
MODEL 7
REMARK VINA RESULT:    -4.142      1.989      4.373
REMARK INTER + INTRA:          -6.632
REMARK INTER:                  -5.240
REMARK INTRA:                  -1.392
REMARK UNBOUND:                -1.037
REMARK SMILES CC(=O)CCC=C(C)CCC=C(C)C
REMARK SMILES IDX 7 1 6 2 8 3 9 4 10 5 11 6 13 7 12 8 14 9 5 10 4 11 2 12 3 13
REMARK SMILES IDX 1 14
REMARK H PARENT
REMARK Flexibility Score: inf
ROOT
ATOM      1  C   UNL     1      26.152  -3.320  52.008  1.00  0.00    -0.077 C 
ATOM      2  C   UNL     1      25.520  -2.867  53.114  1.00  0.00    -0.028 C 
ATOM      3  C   UNL     1      25.793  -4.649  51.387  1.00  0.00     0.039 C 
ENDROOT
BRANCH   1   4
ATOM      4  C   UNL     1      27.239  -2.477  51.379  1.00  0.00     0.034 C 
BRANCH   4   5
ATOM      5  C   UNL     1      28.583  -3.215  51.400  1.00  0.00     0.032 C 
BRANCH   5   6
ATOM      6  C   UNL     1      29.118  -3.313  52.807  1.00  0.00    -0.028 C 
ATOM      7  C   UNL     1      29.904  -4.415  54.858  1.00  0.00     0.039 C 
ATOM      8  C   UNL     1      29.326  -4.473  53.467  1.00  0.00    -0.080 C 
ATOM      9  C   UNL     1      28.979  -5.813  52.861  1.00  0.00     0.039 C 
ENDBRANCH   5   6
ENDBRANCH   4   5
ENDBRANCH   1   4
BRANCH   2  10
ATOM     10  C   UNL     1      24.425  -3.638  53.814  1.00  0.00     0.035 C 
BRANCH  10  11
ATOM     11  C   UNL     1      24.639  -3.694  55.332  1.00  0.00     0.079 C 
BRANCH  11  12
ATOM     12  C   UNL     1      25.973  -4.301  55.685  1.00  0.00     0.130 C 
ATOM     13  O   UNL     1      26.824  -3.612  56.228  1.00  0.00    -0.300 OA
ATOM     14  C   UNL     1      26.277  -5.741  55.393  1.00  0.00     0.087 C 
ENDBRANCH  11  12
ENDBRANCH  10  11
ENDBRANCH   2  10
TORSDOF 6
ENDMDL
MODEL 8
REMARK VINA RESULT:    -4.121      2.172      4.986
REMARK INTER + INTRA:          -6.603
REMARK INTER:                  -5.508
REMARK INTRA:                  -1.095
REMARK UNBOUND:                -1.037
REMARK SMILES CC(=O)CCC=C(C)CCC=C(C)C
REMARK SMILES IDX 7 1 6 2 8 3 9 4 10 5 11 6 13 7 12 8 14 9 5 10 4 11 2 12 3 13
REMARK SMILES IDX 1 14
REMARK H PARENT
REMARK Flexibility Score: inf
ROOT
ATOM      1  C   UNL     1      25.530  -3.253  52.801  1.00  0.00    -0.077 C 
ATOM      2  C   UNL     1      24.904  -3.866  53.831  1.00  0.00    -0.028 C 
ATOM      3  C   UNL     1      26.009  -1.825  52.911  1.00  0.00     0.039 C 
ENDROOT
BRANCH   1   4
ATOM      4  C   UNL     1      25.757  -4.014  51.514  1.00  0.00     0.034 C 
BRANCH   4   5
ATOM      5  C   UNL     1      26.473  -5.342  51.786  1.00  0.00     0.032 C 
BRANCH   5   6
ATOM      6  C   UNL     1      27.970  -5.163  51.739  1.00  0.00    -0.028 C 
ATOM      7  C   UNL     1      30.269  -5.090  52.606  1.00  0.00     0.039 C 
ATOM      8  C   UNL     1      28.785  -5.255  52.813  1.00  0.00    -0.080 C 
ATOM      9  C   UNL     1      28.250  -5.496  54.206  1.00  0.00     0.039 C 
ENDBRANCH   5   6
ENDBRANCH   4   5
ENDBRANCH   1   4
BRANCH   2  10
ATOM     10  C   UNL     1      24.629  -3.188  55.153  1.00  0.00     0.035 C 
BRANCH  10  11
ATOM     11  C   UNL     1      25.666  -3.562  56.220  1.00  0.00     0.079 C 
BRANCH  11  12
ATOM     12  C   UNL     1      25.275  -4.815  56.962  1.00  0.00     0.130 C 
ATOM     13  O   UNL     1      25.791  -5.880  56.658  1.00  0.00    -0.300 OA
ATOM     14  C   UNL     1      24.271  -4.781  58.077  1.00  0.00     0.087 C 
ENDBRANCH  11  12
ENDBRANCH  10  11
ENDBRANCH   2  10
TORSDOF 6
ENDMDL
MODEL 9
REMARK VINA RESULT:    -4.056     10.291     12.205
REMARK INTER + INTRA:          -6.516
REMARK INTER:                  -5.014
REMARK INTRA:                  -1.502
REMARK UNBOUND:                -1.037
REMARK SMILES CC(=O)CCC=C(C)CCC=C(C)C
REMARK SMILES IDX 7 1 6 2 8 3 9 4 10 5 11 6 13 7 12 8 14 9 5 10 4 11 2 12 3 13
REMARK SMILES IDX 1 14
REMARK H PARENT
REMARK Flexibility Score: inf
ROOT
ATOM      1  C   UNL     1      15.701  -0.627  58.729  1.00  0.00    -0.077 C 
ATOM      2  C   UNL     1      16.719  -1.286  58.133  1.00  0.00    -0.028 C 
ATOM      3  C   UNL     1      14.972   0.494  58.027  1.00  0.00     0.039 C 
ENDROOT
BRANCH   1   4
ATOM      4  C   UNL     1      15.281  -1.023  60.127  1.00  0.00     0.034 C 
BRANCH   4   5
ATOM      5  C   UNL     1      16.479  -1.003  61.083  1.00  0.00     0.032 C 
BRANCH   5   6
ATOM      6  C   UNL     1      16.844   0.412  61.457  1.00  0.00    -0.028 C 
ATOM      7  C   UNL     1      18.248   2.424  61.605  1.00  0.00     0.039 C 
ATOM      8  C   UNL     1      18.042   0.985  61.206  1.00  0.00    -0.080 C 
ATOM      9  C   UNL     1      19.175   0.221  60.561  1.00  0.00     0.039 C 
ENDBRANCH   5   6
ENDBRANCH   4   5
ENDBRANCH   1   4
BRANCH   2  10
ATOM     10  C   UNL     1      17.212  -0.961  56.742  1.00  0.00     0.035 C 
BRANCH  10  11
ATOM     11  C   UNL     1      18.504  -0.135  56.766  1.00  0.00     0.079 C 
BRANCH  11  12
ATOM     12  C   UNL     1      18.236   1.327  56.515  1.00  0.00     0.130 C 
ATOM     13  O   UNL     1      18.006   1.711  55.377  1.00  0.00    -0.300 OA
ATOM     14  C   UNL     1      18.236   2.325  57.636  1.00  0.00     0.087 C 
ENDBRANCH  11  12
ENDBRANCH  10  11
ENDBRANCH   2  10
TORSDOF 6
ENDMDL
