MODEL 1
REMARK VINA RESULT:    -4.431      0.000      0.000
REMARK INTER + INTRA:          -4.713
REMARK INTER:                  -4.690
REMARK INTRA:                  -0.024
REMARK UNBOUND:                -0.024
REMARK SMILES O=C([O-])c1cccnc1
REMARK SMILES IDX 4 1 5 2 9 3 6 4 8 5 7 6 2 7 1 8 3 9
REMARK H PARENT
REMARK Flexibility Score: inf
ROOT
ATOM      1  C   UNL     1      14.321 -19.632 -18.523  1.00  0.00     0.016 A 
ATOM      2  C   UNL     1      14.712 -18.657 -19.456  1.00  0.00     0.013 A 
ATOM      3  C   UNL     1      13.041 -20.197 -18.644  1.00  0.00     0.120 A 
ATOM      4  C   UNL     1      13.838 -18.271 -20.474  1.00  0.00     0.021 A 
ATOM      5  N   UNL     1      12.208 -19.803 -19.645  1.00  0.00    -0.264 NA
ATOM      6  C   UNL     1      12.576 -18.861 -20.553  1.00  0.00     0.111 A 
ENDROOT
BRANCH   1   7
ATOM      7  C   UNL     1      15.233 -20.056 -17.437  1.00  0.00     0.073 C 
ATOM      8  O   UNL     1      16.248 -19.368 -17.150  1.00  0.00    -0.545 OA
ATOM      9  O   UNL     1      14.980 -21.220 -16.721  1.00  0.00    -0.545 OA
ENDBRANCH   1   7
TORSDOF 1
ENDMDL
MODEL 2
REMARK VINA RESULT:    -4.397      3.003      3.724
REMARK INTER + INTRA:          -4.677
REMARK INTER:                  -4.657
REMARK INTRA:                  -0.020
REMARK UNBOUND:                -0.024
REMARK SMILES O=C([O-])c1cccnc1
REMARK SMILES IDX 4 1 5 2 9 3 6 4 8 5 7 6 2 7 1 8 3 9
REMARK H PARENT
REMARK Flexibility Score: inf
ROOT
ATOM      1  C   UNL     1      13.510 -19.022 -19.752  1.00  0.00     0.016 A 
ATOM      2  C   UNL     1      14.867 -18.729 -19.533  1.00  0.00     0.013 A 
ATOM      3  C   UNL     1      12.872 -19.921 -18.882  1.00  0.00     0.120 A 
ATOM      4  C   UNL     1      15.550 -19.326 -18.472  1.00  0.00     0.021 A 
ATOM      5  N   UNL     1      13.560 -20.489 -17.856  1.00  0.00    -0.264 NA
ATOM      6  C   UNL     1      14.873 -20.214 -17.635  1.00  0.00     0.111 A 
ENDROOT
BRANCH   1   7
ATOM      7  C   UNL     1      12.768 -18.399 -20.870  1.00  0.00     0.073 C 
ATOM      8  O   UNL     1      13.294 -18.301 -22.011  1.00  0.00    -0.545 OA
ATOM      9  O   UNL     1      11.481 -17.913 -20.676  1.00  0.00    -0.545 OA
ENDBRANCH   1   7
TORSDOF 1
ENDMDL
MODEL 3
REMARK VINA RESULT:    -4.370      2.807      3.489
REMARK INTER + INTRA:          -4.649
REMARK INTER:                  -4.630
REMARK INTRA:                  -0.019
REMARK UNBOUND:                -0.024
REMARK SMILES O=C([O-])c1cccnc1
REMARK SMILES IDX 4 1 5 2 9 3 6 4 8 5 7 6 2 7 1 8 3 9
REMARK H PARENT
REMARK Flexibility Score: inf
ROOT
ATOM      1  C   UNL     1      12.745 -18.365 -21.059  1.00  0.00     0.016 A 
ATOM      2  C   UNL     1      13.571 -18.327 -22.195  1.00  0.00     0.013 A 
ATOM      3  C   UNL     1      11.636 -17.504 -21.011  1.00  0.00     0.120 A 
ATOM      4  C   UNL     1      13.283 -17.451 -23.242  1.00  0.00     0.021 A 
ATOM      5  N   UNL     1      11.378 -16.659 -22.045  1.00  0.00    -0.264 NA
ATOM      6  C   UNL     1      12.170 -16.615 -23.148  1.00  0.00     0.111 A 
ENDROOT
BRANCH   1   7
ATOM      7  C   UNL     1      13.033 -19.287 -19.938  1.00  0.00     0.073 C 
ATOM      8  O   UNL     1      14.182 -19.331 -19.425  1.00  0.00    -0.545 OA
ATOM      9  O   UNL     1      12.038 -20.119 -19.438  1.00  0.00    -0.545 OA
ENDBRANCH   1   7
TORSDOF 1
ENDMDL
MODEL 4
REMARK VINA RESULT:    -4.292      8.266      9.121
REMARK INTER + INTRA:          -4.567
REMARK INTER:                  -4.550
REMARK INTRA:                  -0.016
REMARK UNBOUND:                -0.024
REMARK SMILES O=C([O-])c1cccnc1
REMARK SMILES IDX 4 1 5 2 9 3 6 4 8 5 7 6 2 7 1 8 3 9
REMARK H PARENT
REMARK Flexibility Score: inf
ROOT
ATOM      1  C   UNL     1      12.554 -21.488 -26.868  1.00  0.00     0.016 A 
ATOM      2  C   UNL     1      13.049 -22.500 -27.707  1.00  0.00     0.013 A 
ATOM      3  C   UNL     1      12.412 -21.766 -25.498  1.00  0.00     0.120 A 
ATOM      4  C   UNL     1      13.387 -23.746 -27.178  1.00  0.00     0.021 A 
ATOM      5  N   UNL     1      12.748 -22.989 -25.008  1.00  0.00    -0.264 NA
ATOM      6  C   UNL     1      13.228 -23.975 -25.811  1.00  0.00     0.111 A 
ENDROOT
BRANCH   1   7
ATOM      7  C   UNL     1      12.190 -20.160 -27.409  1.00  0.00     0.073 C 
ATOM      8  O   UNL     1      12.943 -19.167 -27.228  1.00  0.00    -0.545 OA
ATOM      9  O   UNL     1      11.010 -19.991 -28.124  1.00  0.00    -0.545 OA
ENDBRANCH   1   7
TORSDOF 1
ENDMDL
MODEL 5
REMARK VINA RESULT:    -4.220      3.338      4.286
REMARK INTER + INTRA:          -4.490
REMARK INTER:                  -4.471
REMARK INTRA:                  -0.019
REMARK UNBOUND:                -0.024
REMARK SMILES O=C([O-])c1cccnc1
REMARK SMILES IDX 4 1 5 2 9 3 6 4 8 5 7 6 2 7 1 8 3 9
REMARK H PARENT
REMARK Flexibility Score: inf
ROOT
ATOM      1  C   UNL     1      13.152 -18.710 -20.267  1.00  0.00     0.016 A 
ATOM      2  C   UNL     1      12.378 -19.735 -19.695  1.00  0.00     0.013 A 
ATOM      3  C   UNL     1      14.464 -18.526 -19.802  1.00  0.00     0.120 A 
ATOM      4  C   UNL     1      12.916 -20.541 -18.691  1.00  0.00     0.021 A 
ATOM      5  N   UNL     1      14.964 -19.325 -18.822  1.00  0.00    -0.264 NA
ATOM      6  C   UNL     1      14.225 -20.318 -18.262  1.00  0.00     0.111 A 
ENDROOT
BRANCH   1   7
ATOM      7  C   UNL     1      12.601 -17.845 -21.333  1.00  0.00     0.073 C 
ATOM      8  O   UNL     1      11.479 -17.289 -21.191  1.00  0.00    -0.545 OA
ATOM      9  O   UNL     1      13.314 -17.634 -22.507  1.00  0.00    -0.545 OA
ENDBRANCH   1   7
TORSDOF 1
ENDMDL
MODEL 6
REMARK VINA RESULT:    -4.218      3.204      4.122
REMARK INTER + INTRA:          -4.488
REMARK INTER:                  -4.470
REMARK INTRA:                  -0.018
REMARK UNBOUND:                -0.024
REMARK SMILES O=C([O-])c1cccnc1
REMARK SMILES IDX 4 1 5 2 9 3 6 4 8 5 7 6 2 7 1 8 3 9
REMARK H PARENT
REMARK Flexibility Score: inf
ROOT
ATOM      1  C   UNL     1      13.389 -18.925 -20.036  1.00  0.00     0.016 A 
ATOM      2  C   UNL     1      12.615 -19.856 -19.321  1.00  0.00     0.013 A 
ATOM      3  C   UNL     1      14.695 -18.662 -19.593  1.00  0.00     0.120 A 
ATOM      4  C   UNL     1      13.148 -20.495 -18.201  1.00  0.00     0.021 A 
ATOM      5  N   UNL     1      15.190 -19.298 -18.498  1.00  0.00    -0.264 NA
ATOM      6  C   UNL     1      14.452 -20.200 -17.799  1.00  0.00     0.111 A 
ENDROOT
BRANCH   1   7
ATOM      7  C   UNL     1      12.843 -18.236 -21.226  1.00  0.00     0.073 C 
ATOM      8  O   UNL     1      13.448 -18.289 -22.329  1.00  0.00    -0.545 OA
ATOM      9  O   UNL     1      11.654 -17.521 -21.142  1.00  0.00    -0.545 OA
ENDBRANCH   1   7
TORSDOF 1
ENDMDL
MODEL 7
REMARK VINA RESULT:    -4.162      7.921      8.388
REMARK INTER + INTRA:          -4.428
REMARK INTER:                  -4.407
REMARK INTRA:                  -0.021
REMARK UNBOUND:                -0.024
REMARK SMILES O=C([O-])c1cccnc1
REMARK SMILES IDX 4 1 5 2 9 3 6 4 8 5 7 6 2 7 1 8 3 9
REMARK H PARENT
REMARK Flexibility Score: inf
ROOT
ATOM      1  C   UNL     1      12.099 -21.997 -26.114  1.00  0.00     0.016 A 
ATOM      2  C   UNL     1      10.816 -21.666 -26.581  1.00  0.00     0.013 A 
ATOM      3  C   UNL     1      13.080 -20.992 -26.089  1.00  0.00     0.120 A 
ATOM      4  C   UNL     1      10.539 -20.366 -27.005  1.00  0.00     0.021 A 
ATOM      5  N   UNL     1      12.785 -19.733 -26.508  1.00  0.00    -0.264 NA
ATOM      6  C   UNL     1      11.547 -19.402 -26.961  1.00  0.00     0.111 A 
ENDROOT
BRANCH   1   7
ATOM      7  C   UNL     1      12.414 -23.370 -25.659  1.00  0.00     0.073 C 
ATOM      8  O   UNL     1      11.554 -24.051 -25.040  1.00  0.00    -0.545 OA
ATOM      9  O   UNL     1      13.663 -23.925 -25.909  1.00  0.00    -0.545 OA
ENDBRANCH   1   7
TORSDOF 1
ENDMDL
MODEL 8
REMARK VINA RESULT:    -4.100      2.023      2.520
REMARK INTER + INTRA:          -4.363
REMARK INTER:                  -4.340
REMARK INTRA:                  -0.024
REMARK UNBOUND:                -0.024
REMARK SMILES O=C([O-])c1cccnc1
REMARK SMILES IDX 4 1 5 2 9 3 6 4 8 5 7 6 2 7 1 8 3 9
REMARK H PARENT
REMARK Flexibility Score: inf
ROOT
ATOM      1  C   UNL     1      14.271 -20.187 -17.603  1.00  0.00     0.016 A 
ATOM      2  C   UNL     1      13.570 -20.289 -18.817  1.00  0.00     0.013 A 
ATOM      3  C   UNL     1      13.641 -20.630 -16.429  1.00  0.00     0.120 A 
ATOM      4  C   UNL     1      12.281 -20.821 -18.838  1.00  0.00     0.021 A 
ATOM      5  N   UNL     1      12.383 -21.145 -16.477  1.00  0.00    -0.264 NA
ATOM      6  C   UNL     1      11.697 -21.249 -17.645  1.00  0.00     0.111 A 
ENDROOT
BRANCH   1   7
ATOM      7  C   UNL     1      15.639 -19.625 -17.559  1.00  0.00     0.073 C 
ATOM      8  O   UNL     1      16.267 -19.385 -18.624  1.00  0.00    -0.545 OA
ATOM      9  O   UNL     1      16.251 -19.357 -16.340  1.00  0.00    -0.545 OA
ENDBRANCH   1   7
TORSDOF 1
ENDMDL
MODEL 9
REMARK VINA RESULT:    -4.024      2.768      4.181
REMARK INTER + INTRA:          -4.282
REMARK INTER:                  -4.259
REMARK INTRA:                  -0.023
REMARK UNBOUND:                -0.024
REMARK SMILES O=C([O-])c1cccnc1
REMARK SMILES IDX 4 1 5 2 9 3 6 4 8 5 7 6 2 7 1 8 3 9
REMARK H PARENT
REMARK Flexibility Score: inf
ROOT
ATOM      1  C   UNL     1      14.250 -19.746 -17.727  1.00  0.00     0.016 A 
ATOM      2  C   UNL     1      13.586 -20.131 -16.550  1.00  0.00     0.013 A 
ATOM      3  C   UNL     1      15.602 -19.377 -17.641  1.00  0.00     0.120 A 
ATOM      4  C   UNL     1      14.269 -20.141 -15.333  1.00  0.00     0.021 A 
ATOM      5  N   UNL     1      16.244 -19.396 -16.443  1.00  0.00    -0.264 NA
ATOM      6  C   UNL     1      15.612 -19.766 -15.298  1.00  0.00     0.111 A 
ENDROOT
BRANCH   1   7
ATOM      7  C   UNL     1      13.545 -19.729 -19.028  1.00  0.00     0.073 C 
ATOM      8  O   UNL     1      12.492 -20.399 -19.194  1.00  0.00    -0.545 OA
ATOM      9  O   UNL     1      14.037 -18.972 -20.085  1.00  0.00    -0.545 OA
ENDBRANCH   1   7
TORSDOF 1
ENDMDL
