MODEL 1
REMARK VINA RESULT:    -3.750      0.000      0.000
REMARK INTER + INTRA:          -7.079
REMARK INTER:                  -6.380
REMARK INTRA:                  -0.698
REMARK UNBOUND:                -0.698
REMARK SMILES CCCCCCCCCCCCCC(=O)[O-]
REMARK SMILES IDX 8 1 9 2 10 3 11 4 12 5 13 6 14 7 15 8 16 9 7 10 6 11 5 12
REMARK SMILES IDX 4 13 3 14 2 15 1 16
REMARK H PARENT
REMARK Flexibility Score: inf
ROOT
ATOM      1  C   UNL     1      32.447   1.465 -33.265  1.00  0.00     0.000 C 
ENDROOT
BRANCH   1   2
ATOM      2  C   UNL     1      33.562   2.526 -33.296  1.00  0.00     0.000 C 
BRANCH   2   3
ATOM      3  C   UNL     1      33.038   3.938 -32.991  1.00  0.00     0.000 C 
BRANCH   3   4
ATOM      4  C   UNL     1      34.155   4.997 -33.015  1.00  0.00     0.000 C 
BRANCH   4   5
ATOM      5  C   UNL     1      34.966   5.030 -31.710  1.00  0.00     0.006 C 
BRANCH   5   6
ATOM      6  C   UNL     1      35.412   6.446 -31.323  1.00  0.00     0.053 C 
BRANCH   6   7
ATOM      7  C   UNL     1      34.244   7.248 -30.842  1.00  0.00     0.041 C 
ATOM      8  O   UNL     1      34.005   8.380 -31.338  1.00  0.00    -0.550 OA
ATOM      9  O   UNL     1      33.389   6.723 -29.881  1.00  0.00    -0.550 OA
ENDBRANCH   6   7
ENDBRANCH   5   6
ENDBRANCH   4   5
ENDBRANCH   3   4
ENDBRANCH   2   3
ENDBRANCH   1   2
BRANCH   1  10
ATOM     10  C   UNL     1      32.255   0.767 -34.621  1.00  0.00     0.000 C 
BRANCH  10  11
ATOM     11  C   UNL     1      33.576   0.274 -35.229  1.00  0.00    -0.000 C 
BRANCH  11  12
ATOM     12  C   UNL     1      33.313  -0.722 -36.370  1.00  0.00    -0.000 C 
BRANCH  12  13
ATOM     13  C   UNL     1      33.189  -0.039 -37.742  1.00  0.00    -0.000 C 
BRANCH  13  14
ATOM     14  C   UNL     1      31.933  -0.427 -38.546  1.00  0.00    -0.000 C 
BRANCH  14  15
ATOM     15  C   UNL     1      30.933   0.733 -38.735  1.00  0.00    -0.003 C 
ATOM     16  C   UNL     1      30.192   1.083 -37.444  1.00  0.00     0.004 C 
ENDBRANCH  14  15
ENDBRANCH  13  14
ENDBRANCH  12  13
ENDBRANCH  11  12
ENDBRANCH  10  11
ENDBRANCH   1  10
TORSDOF 12
ENDMDL
MODEL 2
REMARK VINA RESULT:    -3.749     11.516     13.840
REMARK INTER + INTRA:          -7.077
REMARK INTER:                  -5.094
REMARK INTRA:                  -1.983
REMARK UNBOUND:                -0.698
REMARK SMILES CCCCCCCCCCCCCC(=O)[O-]
REMARK SMILES IDX 8 1 9 2 10 3 11 4 12 5 13 6 14 7 15 8 16 9 7 10 6 11 5 12
REMARK SMILES IDX 4 13 3 14 2 15 1 16
REMARK H PARENT
REMARK Flexibility Score: inf
ROOT
ATOM      1  C   UNL     1      26.378  -5.445 -29.581  1.00  0.00     0.000 C 
ENDROOT
BRANCH   1   2
ATOM      2  C   UNL     1      25.302  -4.403 -29.227  1.00  0.00     0.000 C 
BRANCH   2   3
ATOM      3  C   UNL     1      23.952  -4.699 -29.901  1.00  0.00     0.000 C 
BRANCH   3   4
ATOM      4  C   UNL     1      24.100  -5.593 -31.145  1.00  0.00     0.000 C 
BRANCH   4   5
ATOM      5  C   UNL     1      24.066  -4.791 -32.456  1.00  0.00     0.006 C 
BRANCH   5   6
ATOM      6  C   UNL     1      25.254  -5.103 -33.374  1.00  0.00     0.053 C 
BRANCH   6   7
ATOM      7  C   UNL     1      26.383  -4.157 -33.108  1.00  0.00     0.041 C 
ATOM      8  O   UNL     1      27.530  -4.394 -33.568  1.00  0.00    -0.550 OA
ATOM      9  O   UNL     1      26.155  -2.988 -32.392  1.00  0.00    -0.550 OA
ENDBRANCH   6   7
ENDBRANCH   5   6
ENDBRANCH   4   5
ENDBRANCH   3   4
ENDBRANCH   2   3
ENDBRANCH   1   2
BRANCH   1  10
ATOM     10  C   UNL     1      26.587  -6.482 -28.467  1.00  0.00     0.000 C 
BRANCH  10  11
ATOM     11  C   UNL     1      25.813  -7.785 -28.713  1.00  0.00    -0.000 C 
BRANCH  11  12
ATOM     12  C   UNL     1      24.510  -7.808 -27.899  1.00  0.00    -0.000 C 
BRANCH  12  13
ATOM     13  C   UNL     1      24.630  -7.066 -26.557  1.00  0.00    -0.000 C 
BRANCH  13  14
ATOM     14  C   UNL     1      23.586  -5.954 -26.338  1.00  0.00    -0.000 C 
BRANCH  14  15
ATOM     15  C   UNL     1      24.140  -4.719 -25.598  1.00  0.00    -0.003 C 
ATOM     16  C   UNL     1      25.660  -4.764 -25.439  1.00  0.00     0.004 C 
ENDBRANCH  14  15
ENDBRANCH  13  14
ENDBRANCH  12  13
ENDBRANCH  11  12
ENDBRANCH  10  11
ENDBRANCH   1  10
TORSDOF 12
ENDMDL
MODEL 3
REMARK VINA RESULT:    -3.718     12.077     14.150
REMARK INTER + INTRA:          -7.025
REMARK INTER:                  -5.041
REMARK INTRA:                  -1.984
REMARK UNBOUND:                -0.698
REMARK SMILES CCCCCCCCCCCCCC(=O)[O-]
REMARK SMILES IDX 8 1 9 2 10 3 11 4 12 5 13 6 14 7 15 8 16 9 7 10 6 11 5 12
REMARK SMILES IDX 4 13 3 14 2 15 1 16
REMARK H PARENT
REMARK Flexibility Score: inf
ROOT
ATOM      1  C   UNL     1      27.042  -7.778 -27.983  1.00  0.00     0.000 C 
ENDROOT
BRANCH   1   2
ATOM      2  C   UNL     1      27.929  -6.734 -28.686  1.00  0.00     0.000 C 
BRANCH   2   3
ATOM      3  C   UNL     1      27.939  -5.382 -27.955  1.00  0.00     0.000 C 
BRANCH   3   4
ATOM      4  C   UNL     1      27.137  -4.303 -28.705  1.00  0.00     0.000 C 
BRANCH   4   5
ATOM      5  C   UNL     1      26.572  -4.809 -30.042  1.00  0.00     0.006 C 
BRANCH   5   6
ATOM      6  C   UNL     1      25.175  -4.250 -30.346  1.00  0.00     0.053 C 
BRANCH   6   7
ATOM      7  C   UNL     1      24.348  -5.273 -31.058  1.00  0.00     0.041 C 
ATOM      8  O   UNL     1      23.448  -5.901 -30.443  1.00  0.00    -0.550 OA
ATOM      9  O   UNL     1      24.537  -5.495 -32.417  1.00  0.00    -0.550 OA
ENDBRANCH   6   7
ENDBRANCH   5   6
ENDBRANCH   4   5
ENDBRANCH   3   4
ENDBRANCH   2   3
ENDBRANCH   1   2
BRANCH   1  10
ATOM     10  C   UNL     1      25.709  -8.008 -28.712  1.00  0.00     0.000 C 
BRANCH  10  11
ATOM     11  C   UNL     1      24.491  -7.856 -27.788  1.00  0.00    -0.000 C 
BRANCH  11  12
ATOM     12  C   UNL     1      24.933  -7.578 -26.343  1.00  0.00    -0.000 C 
BRANCH  12  13
ATOM     13  C   UNL     1      24.304  -6.301 -25.761  1.00  0.00    -0.000 C 
BRANCH  13  14
ATOM     14  C   UNL     1      24.110  -5.157 -26.774  1.00  0.00    -0.000 C 
BRANCH  14  15
ATOM     15  C   UNL     1      24.520  -3.771 -26.232  1.00  0.00    -0.003 C 
ATOM     16  C   UNL     1      24.106  -2.633 -27.165  1.00  0.00     0.004 C 
ENDBRANCH  14  15
ENDBRANCH  13  14
ENDBRANCH  12  13
ENDBRANCH  11  12
ENDBRANCH  10  11
ENDBRANCH   1  10
TORSDOF 12
ENDMDL
MODEL 4
REMARK VINA RESULT:    -3.708      4.130      6.686
REMARK INTER + INTRA:          -7.007
REMARK INTER:                  -5.106
REMARK INTRA:                  -1.901
REMARK UNBOUND:                -0.698
REMARK SMILES CCCCCCCCCCCCCC(=O)[O-]
REMARK SMILES IDX 8 1 9 2 10 3 11 4 12 5 13 6 14 7 15 8 16 9 7 10 6 11 5 12
REMARK SMILES IDX 4 13 3 14 2 15 1 16
REMARK H PARENT
REMARK Flexibility Score: inf
ROOT
ATOM      1  C   UNL     1      33.957   5.024 -33.056  1.00  0.00     0.000 C 
ENDROOT
BRANCH   1   2
ATOM      2  C   UNL     1      35.406   5.351 -32.651  1.00  0.00     0.000 C 
BRANCH   2   3
ATOM      3  C   UNL     1      35.481   6.247 -31.404  1.00  0.00     0.000 C 
BRANCH   3   4
ATOM      4  C   UNL     1      34.432   7.372 -31.425  1.00  0.00     0.000 C 
BRANCH   4   5
ATOM      5  C   UNL     1      33.504   7.337 -30.200  1.00  0.00     0.006 C 
BRANCH   5   6
ATOM      6  C   UNL     1      32.032   7.122 -30.576  1.00  0.00     0.053 C 
BRANCH   6   7
ATOM      7  C   UNL     1      31.229   8.345 -30.265  1.00  0.00     0.041 C 
ATOM      8  O   UNL     1      30.033   8.240 -29.886  1.00  0.00    -0.550 OA
ATOM      9  O   UNL     1      31.817   9.601 -30.345  1.00  0.00    -0.550 OA
ENDBRANCH   6   7
ENDBRANCH   5   6
ENDBRANCH   4   5
ENDBRANCH   3   4
ENDBRANCH   2   3
ENDBRANCH   1   2
BRANCH   1  10
ATOM     10  C   UNL     1      33.557   3.581 -32.710  1.00  0.00     0.000 C 
BRANCH  10  11
ATOM     11  C   UNL     1      32.479   3.507 -31.619  1.00  0.00    -0.000 C 
BRANCH  11  12
ATOM     12  C   UNL     1      33.031   2.834 -30.352  1.00  0.00    -0.000 C 
BRANCH  12  13
ATOM     13  C   UNL     1      33.447   3.845 -29.271  1.00  0.00    -0.000 C 
BRANCH  13  14
ATOM     14  C   UNL     1      34.902   3.708 -28.784  1.00  0.00    -0.000 C 
BRANCH  14  15
ATOM     15  C   UNL     1      35.410   4.931 -27.991  1.00  0.00    -0.003 C 
ATOM     16  C   UNL     1      34.968   4.904 -26.528  1.00  0.00     0.004 C 
ENDBRANCH  14  15
ENDBRANCH  13  14
ENDBRANCH  12  13
ENDBRANCH  11  12
ENDBRANCH  10  11
ENDBRANCH   1  10
TORSDOF 12
ENDMDL
MODEL 5
REMARK VINA RESULT:    -3.693     11.710     13.588
REMARK INTER + INTRA:          -6.982
REMARK INTER:                  -5.199
REMARK INTRA:                  -1.783
REMARK UNBOUND:                -0.698
REMARK SMILES CCCCCCCCCCCCCC(=O)[O-]
REMARK SMILES IDX 8 1 9 2 10 3 11 4 12 5 13 6 14 7 15 8 16 9 7 10 6 11 5 12
REMARK SMILES IDX 4 13 3 14 2 15 1 16
REMARK H PARENT
REMARK Flexibility Score: inf
ROOT
ATOM      1  C   UNL     1      26.825  -4.807 -28.498  1.00  0.00     0.000 C 
ENDROOT
BRANCH   1   2
ATOM      2  C   UNL     1      27.422  -6.094 -29.098  1.00  0.00     0.000 C 
BRANCH   2   3
ATOM      3  C   UNL     1      26.932  -7.360 -28.377  1.00  0.00     0.000 C 
BRANCH   3   4
ATOM      4  C   UNL     1      25.546  -7.816 -28.866  1.00  0.00     0.000 C 
BRANCH   4   5
ATOM      5  C   UNL     1      24.515  -7.896 -27.729  1.00  0.00     0.006 C 
BRANCH   5   6
ATOM      6  C   UNL     1      25.121  -7.582 -26.355  1.00  0.00     0.053 C 
BRANCH   6   7
ATOM      7  C   UNL     1      24.625  -6.263 -25.854  1.00  0.00     0.041 C 
ATOM      8  O   UNL     1      25.400  -5.486 -25.239  1.00  0.00    -0.550 OA
ATOM      9  O   UNL     1      23.317  -5.870 -26.111  1.00  0.00    -0.550 OA
ENDBRANCH   6   7
ENDBRANCH   5   6
ENDBRANCH   4   5
ENDBRANCH   3   4
ENDBRANCH   2   3
ENDBRANCH   1   2
BRANCH   1  10
ATOM     10  C   UNL     1      25.847  -4.107 -29.455  1.00  0.00     0.000 C 
BRANCH  10  11
ATOM     11  C   UNL     1      24.376  -4.343 -29.081  1.00  0.00    -0.000 C 
BRANCH  11  12
ATOM     12  C   UNL     1      23.617  -5.002 -30.243  1.00  0.00    -0.000 C 
BRANCH  12  13
ATOM     13  C   UNL     1      24.520  -5.313 -31.448  1.00  0.00    -0.000 C 
BRANCH  13  14
ATOM     14  C   UNL     1      23.985  -4.810 -32.803  1.00  0.00    -0.000 C 
BRANCH  14  15
ATOM     15  C   UNL     1      25.084  -4.271 -33.744  1.00  0.00    -0.003 C 
ATOM     16  C   UNL     1      26.473  -4.794 -33.381  1.00  0.00     0.004 C 
ENDBRANCH  14  15
ENDBRANCH  13  14
ENDBRANCH  12  13
ENDBRANCH  11  12
ENDBRANCH  10  11
ENDBRANCH   1  10
TORSDOF 12
ENDMDL
MODEL 6
REMARK VINA RESULT:    -3.668     12.388     14.489
REMARK INTER + INTRA:          -6.939
REMARK INTER:                  -4.753
REMARK INTRA:                  -2.186
REMARK UNBOUND:                -0.698
REMARK SMILES CCCCCCCCCCCCCC(=O)[O-]
REMARK SMILES IDX 8 1 9 2 10 3 11 4 12 5 13 6 14 7 15 8 16 9 7 10 6 11 5 12
REMARK SMILES IDX 4 13 3 14 2 15 1 16
REMARK H PARENT
REMARK Flexibility Score: inf
ROOT
ATOM      1  C   UNL     1      26.865  -8.037 -28.482  1.00  0.00     0.000 C 
ENDROOT
BRANCH   1   2
ATOM      2  C   UNL     1      27.609  -6.819 -27.905  1.00  0.00     0.000 C 
BRANCH   2   3
ATOM      3  C   UNL     1      27.454  -5.566 -28.780  1.00  0.00     0.000 C 
BRANCH   3   4
ATOM      4  C   UNL     1      27.068  -4.321 -27.962  1.00  0.00     0.000 C 
BRANCH   4   5
ATOM      5  C   UNL     1      25.660  -3.804 -28.300  1.00  0.00     0.006 C 
BRANCH   5   6
ATOM      6  C   UNL     1      25.316  -3.949 -29.788  1.00  0.00     0.053 C 
BRANCH   6   7
ATOM      7  C   UNL     1      23.857  -4.231 -29.962  1.00  0.00     0.041 C 
ATOM      8  O   UNL     1      23.009  -3.319 -29.778  1.00  0.00    -0.550 OA
ATOM      9  O   UNL     1      23.437  -5.489 -30.375  1.00  0.00    -0.550 OA
ENDBRANCH   6   7
ENDBRANCH   5   6
ENDBRANCH   4   5
ENDBRANCH   3   4
ENDBRANCH   2   3
ENDBRANCH   1   2
BRANCH   1  10
ATOM     10  C   UNL     1      25.383  -7.746 -28.765  1.00  0.00     0.000 C 
BRANCH  10  11
ATOM     11  C   UNL     1      24.492  -7.941 -27.529  1.00  0.00    -0.000 C 
BRANCH  11  12
ATOM     12  C   UNL     1      23.998  -6.588 -26.993  1.00  0.00    -0.000 C 
BRANCH  12  13
ATOM     13  C   UNL     1      24.338  -6.373 -25.509  1.00  0.00    -0.000 C 
BRANCH  13  14
ATOM     14  C   UNL     1      25.278  -7.432 -24.901  1.00  0.00    -0.000 C 
BRANCH  14  15
ATOM     15  C   UNL     1      26.616  -6.856 -24.392  1.00  0.00    -0.003 C 
ATOM     16  C   UNL     1      26.669  -5.331 -24.483  1.00  0.00     0.004 C 
ENDBRANCH  14  15
ENDBRANCH  13  14
ENDBRANCH  12  13
ENDBRANCH  11  12
ENDBRANCH  10  11
ENDBRANCH   1  10
TORSDOF 12
ENDMDL
MODEL 7
REMARK VINA RESULT:    -3.660      1.925      3.063
REMARK INTER + INTRA:          -6.926
REMARK INTER:                  -5.248
REMARK INTRA:                  -1.678
REMARK UNBOUND:                -0.698
REMARK SMILES CCCCCCCCCCCCCC(=O)[O-]
REMARK SMILES IDX 8 1 9 2 10 3 11 4 12 5 13 6 14 7 15 8 16 9 7 10 6 11 5 12
REMARK SMILES IDX 4 13 3 14 2 15 1 16
REMARK H PARENT
REMARK Flexibility Score: inf
ROOT
ATOM      1  C   UNL     1      32.015  -0.777 -34.931  1.00  0.00     0.000 C 
ENDROOT
BRANCH   1   2
ATOM      2  C   UNL     1      31.111   0.195 -34.152  1.00  0.00     0.000 C 
BRANCH   2   3
ATOM      3  C   UNL     1      30.676   1.401 -34.999  1.00  0.00     0.000 C 
BRANCH   3   4
ATOM      4  C   UNL     1      31.098   2.742 -34.373  1.00  0.00     0.000 C 
BRANCH   4   5
ATOM      5  C   UNL     1      31.959   2.560 -33.112  1.00  0.00     0.006 C 
BRANCH   5   6
ATOM      6  C   UNL     1      33.409   3.023 -33.312  1.00  0.00     0.053 C 
BRANCH   6   7
ATOM      7  C   UNL     1      33.541   4.477 -32.986  1.00  0.00     0.041 C 
ATOM      8  O   UNL     1      32.696   5.040 -32.242  1.00  0.00    -0.550 OA
ATOM      9  O   UNL     1      34.628   5.200 -33.463  1.00  0.00    -0.550 OA
ENDBRANCH   6   7
ENDBRANCH   5   6
ENDBRANCH   4   5
ENDBRANCH   3   4
ENDBRANCH   2   3
ENDBRANCH   1   2
BRANCH   1  10
ATOM     10  C   UNL     1      33.346  -0.136 -35.355  1.00  0.00     0.000 C 
BRANCH  10  11
ATOM     11  C   UNL     1      33.537  -0.110 -36.879  1.00  0.00    -0.000 C 
BRANCH  11  12
ATOM     12  C   UNL     1      33.125  -1.452 -37.503  1.00  0.00    -0.000 C 
BRANCH  12  13
ATOM     13  C   UNL     1      32.210  -1.286 -38.728  1.00  0.00    -0.000 C 
BRANCH  13  14
ATOM     14  C   UNL     1      30.707  -1.464 -38.439  1.00  0.00    -0.000 C 
BRANCH  14  15
ATOM     15  C   UNL     1      29.944  -0.134 -38.268  1.00  0.00    -0.003 C 
ATOM     16  C   UNL     1      30.660   1.041 -38.935  1.00  0.00     0.004 C 
ENDBRANCH  14  15
ENDBRANCH  13  14
ENDBRANCH  12  13
ENDBRANCH  11  12
ENDBRANCH  10  11
ENDBRANCH   1  10
TORSDOF 12
ENDMDL
MODEL 8
REMARK VINA RESULT:    -3.657     11.542     13.744
REMARK INTER + INTRA:          -6.921
REMARK INTER:                  -5.317
REMARK INTRA:                  -1.604
REMARK UNBOUND:                -0.698
REMARK SMILES CCCCCCCCCCCCCC(=O)[O-]
REMARK SMILES IDX 8 1 9 2 10 3 11 4 12 5 13 6 14 7 15 8 16 9 7 10 6 11 5 12
REMARK SMILES IDX 4 13 3 14 2 15 1 16
REMARK H PARENT
REMARK Flexibility Score: inf
ROOT
ATOM      1  C   UNL     1      24.877  -4.286 -27.600  1.00  0.00     0.000 C 
ENDROOT
BRANCH   1   2
ATOM      2  C   UNL     1      24.934  -4.119 -29.129  1.00  0.00     0.000 C 
BRANCH   2   3
ATOM      3  C   UNL     1      23.729  -4.760 -29.837  1.00  0.00     0.000 C 
BRANCH   3   4
ATOM      4  C   UNL     1      24.135  -5.539 -31.100  1.00  0.00     0.000 C 
BRANCH   4   5
ATOM      5  C   UNL     1      25.159  -4.779 -31.959  1.00  0.00     0.006 C 
BRANCH   5   6
ATOM      6  C   UNL     1      24.591  -4.348 -33.318  1.00  0.00     0.053 C 
BRANCH   6   7
ATOM      7  C   UNL     1      25.630  -4.485 -34.385  1.00  0.00     0.041 C 
ATOM      8  O   UNL     1      26.311  -5.540 -34.475  1.00  0.00    -0.550 OA
ATOM      9  O   UNL     1      25.812  -3.466 -35.312  1.00  0.00    -0.550 OA
ENDBRANCH   6   7
ENDBRANCH   5   6
ENDBRANCH   4   5
ENDBRANCH   3   4
ENDBRANCH   2   3
ENDBRANCH   1   2
BRANCH   1  10
ATOM     10  C   UNL     1      23.940  -5.424 -27.163  1.00  0.00     0.000 C 
BRANCH  10  11
ATOM     11  C   UNL     1      24.660  -6.507 -26.347  1.00  0.00    -0.000 C 
BRANCH  11  12
ATOM     12  C   UNL     1      24.666  -7.846 -27.101  1.00  0.00    -0.000 C 
BRANCH  12  13
ATOM     13  C   UNL     1      25.395  -7.767 -28.452  1.00  0.00    -0.000 C 
BRANCH  13  14
ATOM     14  C   UNL     1      26.918  -7.985 -28.378  1.00  0.00    -0.000 C 
BRANCH  14  15
ATOM     15  C   UNL     1      27.719  -6.695 -28.104  1.00  0.00    -0.003 C 
ATOM     16  C   UNL     1      28.151  -5.990 -29.390  1.00  0.00     0.004 C 
ENDBRANCH  14  15
ENDBRANCH  13  14
ENDBRANCH  12  13
ENDBRANCH  11  12
ENDBRANCH  10  11
ENDBRANCH   1  10
TORSDOF 12
ENDMDL
MODEL 9
REMARK VINA RESULT:    -3.644     12.362     14.137
REMARK INTER + INTRA:          -6.899
REMARK INTER:                  -5.279
REMARK INTRA:                  -1.621
REMARK UNBOUND:                -0.698
REMARK SMILES CCCCCCCCCCCCCC(=O)[O-]
REMARK SMILES IDX 8 1 9 2 10 3 11 4 12 5 13 6 14 7 15 8 16 9 7 10 6 11 5 12
REMARK SMILES IDX 4 13 3 14 2 15 1 16
REMARK H PARENT
REMARK Flexibility Score: inf
ROOT
ATOM      1  C   UNL     1      24.168  -5.543 -25.903  1.00  0.00     0.000 C 
ENDROOT
BRANCH   1   2
ATOM      2  C   UNL     1      24.605  -6.858 -25.233  1.00  0.00     0.000 C 
BRANCH   2   3
ATOM      3  C   UNL     1      24.877  -7.976 -26.253  1.00  0.00     0.000 C 
BRANCH   3   4
ATOM      4  C   UNL     1      24.402  -7.608 -27.670  1.00  0.00     0.000 C 
BRANCH   4   5
ATOM      5  C   UNL     1      25.534  -7.674 -28.708  1.00  0.00     0.006 C 
BRANCH   5   6
ATOM      6  C   UNL     1      26.869  -8.125 -28.103  1.00  0.00     0.053 C 
BRANCH   6   7
ATOM      7  C   UNL     1      27.849  -6.994 -28.100  1.00  0.00     0.041 C 
ATOM      8  O   UNL     1      28.130  -6.402 -27.025  1.00  0.00    -0.550 OA
ATOM      9  O   UNL     1      28.490  -6.627 -29.277  1.00  0.00    -0.550 OA
ENDBRANCH   6   7
ENDBRANCH   5   6
ENDBRANCH   4   5
ENDBRANCH   3   4
ENDBRANCH   2   3
ENDBRANCH   1   2
BRANCH   1  10
ATOM     10  C   UNL     1      25.314  -4.524 -26.010  1.00  0.00     0.000 C 
BRANCH  10  11
ATOM     11  C   UNL     1      25.498  -3.981 -27.434  1.00  0.00    -0.000 C 
BRANCH  11  12
ATOM     12  C   UNL     1      24.179  -4.049 -28.219  1.00  0.00    -0.000 C 
BRANCH  12  13
ATOM     13  C   UNL     1      24.375  -3.871 -29.734  1.00  0.00    -0.000 C 
BRANCH  13  14
ATOM     14  C   UNL     1      23.749  -4.981 -30.601  1.00  0.00    -0.000 C 
BRANCH  14  15
ATOM     15  C   UNL     1      24.440  -5.165 -31.968  1.00  0.00    -0.003 C 
ATOM     16  C   UNL     1      23.750  -4.377 -33.082  1.00  0.00     0.004 C 
ENDBRANCH  14  15
ENDBRANCH  13  14
ENDBRANCH  12  13
ENDBRANCH  11  12
ENDBRANCH  10  11
ENDBRANCH   1  10
TORSDOF 12
ENDMDL
