MODEL 1
REMARK VINA RESULT:    -3.227      0.000      0.000
REMARK INTER + INTRA:          -4.024
REMARK INTER:                  -3.982
REMARK INTRA:                  -0.042
REMARK UNBOUND:                -0.042
REMARK SMILES CCCCCC(=O)[O-]
REMARK SMILES IDX 4 1 5 2 6 3 7 4 8 5 3 6 2 7 1 8
REMARK H PARENT
REMARK Flexibility Score: inf
ROOT
ATOM      1  C   UNL     1      59.470  22.447  22.031  1.00  0.00     0.006 C 
ENDROOT
BRANCH   1   2
ATOM      2  C   UNL     1      58.341  21.574  22.594  1.00  0.00     0.053 C 
BRANCH   2   3
ATOM      3  C   UNL     1      57.209  22.402  23.119  1.00  0.00     0.041 C 
ATOM      4  O   UNL     1      57.286  22.931  24.259  1.00  0.00    -0.550 OA
ATOM      5  O   UNL     1      56.083  22.617  22.336  1.00  0.00    -0.550 OA
ENDBRANCH   2   3
ENDBRANCH   1   2
BRANCH   1   6
ATOM      6  C   UNL     1      60.320  21.697  20.990  1.00  0.00     0.000 C 
BRANCH   6   7
ATOM      7  C   UNL     1      61.494  22.542  20.470  1.00  0.00    -0.003 C 
ATOM      8  C   UNL     1      61.812  22.271  19.000  1.00  0.00     0.004 C 
ENDBRANCH   6   7
ENDBRANCH   1   6
TORSDOF 4
ENDMDL
MODEL 2
REMARK VINA RESULT:    -3.053      3.607      5.314
REMARK INTER + INTRA:          -3.810
REMARK INTER:                  -3.769
REMARK INTRA:                  -0.040
REMARK UNBOUND:                -0.042
REMARK SMILES CCCCCC(=O)[O-]
REMARK SMILES IDX 4 1 5 2 6 3 7 4 8 5 3 6 2 7 1 8
REMARK H PARENT
REMARK Flexibility Score: inf
ROOT
ATOM      1  C   UNL     1      60.066  21.971  21.245  1.00  0.00     0.006 C 
ENDROOT
BRANCH   1   2
ATOM      2  C   UNL     1      61.360  22.716  20.893  1.00  0.00     0.053 C 
BRANCH   2   3
ATOM      3  C   UNL     1      62.068  22.081  19.736  1.00  0.00     0.041 C 
ATOM      4  O   UNL     1      61.805  22.438  18.557  1.00  0.00    -0.550 OA
ATOM      5  O   UNL     1      63.042  21.116  19.961  1.00  0.00    -0.550 OA
ENDBRANCH   2   3
ENDBRANCH   1   2
BRANCH   1   6
ATOM      6  C   UNL     1      59.268  22.686  22.350  1.00  0.00     0.000 C 
BRANCH   6   7
ATOM      7  C   UNL     1      58.032  21.888  22.793  1.00  0.00    -0.003 C 
ATOM      8  C   UNL     1      57.238  22.590  23.894  1.00  0.00     0.004 C 
ENDBRANCH   6   7
ENDBRANCH   1   6
TORSDOF 4
ENDMDL
MODEL 3
REMARK VINA RESULT:    -2.991      3.007      4.843
REMARK INTER + INTRA:          -3.732
REMARK INTER:                  -3.677
REMARK INTRA:                  -0.056
REMARK UNBOUND:                -0.042
REMARK SMILES CCCCCC(=O)[O-]
REMARK SMILES IDX 4 1 5 2 6 3 7 4 8 5 3 6 2 7 1 8
REMARK H PARENT
REMARK Flexibility Score: inf
ROOT
ATOM      1  C   UNL     1      59.254  22.400  22.137  1.00  0.00     0.006 C 
ENDROOT
BRANCH   1   2
ATOM      2  C   UNL     1      60.136  21.512  21.249  1.00  0.00     0.053 C 
BRANCH   2   3
ATOM      3  C   UNL     1      61.138  22.317  20.482  1.00  0.00     0.041 C 
ATOM      4  O   UNL     1      61.777  23.242  21.048  1.00  0.00    -0.550 OA
ATOM      5  O   UNL     1      61.391  22.023  19.148  1.00  0.00    -0.550 OA
ENDBRANCH   2   3
ENDBRANCH   1   2
BRANCH   1   6
ATOM      6  C   UNL     1      58.367  21.574  23.085  1.00  0.00     0.000 C 
BRANCH   6   7
ATOM      7  C   UNL     1      57.240  22.409  23.713  1.00  0.00    -0.003 C 
ATOM      8  C   UNL     1      55.849  21.945  23.282  1.00  0.00     0.004 C 
ENDBRANCH   6   7
ENDBRANCH   1   6
TORSDOF 4
ENDMDL
MODEL 4
REMARK VINA RESULT:    -2.944      1.992      2.543
REMARK INTER + INTRA:          -3.675
REMARK INTER:                  -3.573
REMARK INTRA:                  -0.102
REMARK UNBOUND:                -0.042
REMARK SMILES CCCCCC(=O)[O-]
REMARK SMILES IDX 4 1 5 2 6 3 7 4 8 5 3 6 2 7 1 8
REMARK H PARENT
REMARK Flexibility Score: inf
ROOT
ATOM      1  C   UNL     1      59.511  22.445  22.013  1.00  0.00     0.006 C 
ENDROOT
BRANCH   1   2
ATOM      2  C   UNL     1      60.295  22.718  23.304  1.00  0.00     0.053 C 
BRANCH   2   3
ATOM      3  C   UNL     1      60.010  24.085  23.846  1.00  0.00     0.041 C 
ATOM      4  O   UNL     1      59.108  24.251  24.709  1.00  0.00    -0.550 OA
ATOM      5  O   UNL     1      60.764  25.172  23.421  1.00  0.00    -0.550 OA
ENDBRANCH   2   3
ENDBRANCH   1   2
BRANCH   1   6
ATOM      6  C   UNL     1      60.367  21.725  20.957  1.00  0.00     0.000 C 
BRANCH   6   7
ATOM      7  C   UNL     1      61.504  22.607  20.420  1.00  0.00    -0.003 C 
ATOM      8  C   UNL     1      61.901  22.253  18.986  1.00  0.00     0.004 C 
ENDBRANCH   6   7
ENDBRANCH   1   6
TORSDOF 4
ENDMDL
MODEL 5
REMARK VINA RESULT:    -2.932      2.694      4.625
REMARK INTER + INTRA:          -3.659
REMARK INTER:                  -3.510
REMARK INTRA:                  -0.150
REMARK UNBOUND:                -0.042
REMARK SMILES CCCCCC(=O)[O-]
REMARK SMILES IDX 4 1 5 2 6 3 7 4 8 5 3 6 2 7 1 8
REMARK H PARENT
REMARK Flexibility Score: inf
ROOT
ATOM      1  C   UNL     1      58.325  21.151  23.175  1.00  0.00     0.006 C 
ENDROOT
BRANCH   1   2
ATOM      2  C   UNL     1      58.811  22.383  22.400  1.00  0.00     0.053 C 
BRANCH   2   3
ATOM      3  C   UNL     1      59.622  23.297  23.264  1.00  0.00     0.041 C 
ATOM      4  O   UNL     1      60.747  23.707  22.875  1.00  0.00    -0.550 OA
ATOM      5  O   UNL     1      59.120  23.724  24.487  1.00  0.00    -0.550 OA
ENDBRANCH   2   3
ENDBRANCH   1   2
BRANCH   1   6
ATOM      6  C   UNL     1      56.808  20.937  23.031  1.00  0.00     0.000 C 
BRANCH   6   7
ATOM      7  C   UNL     1      55.998  22.186  23.413  1.00  0.00    -0.003 C 
ATOM      8  C   UNL     1      54.493  21.922  23.464  1.00  0.00     0.004 C 
ENDBRANCH   6   7
ENDBRANCH   1   6
TORSDOF 4
ENDMDL
MODEL 6
REMARK VINA RESULT:    -2.893      2.703      4.827
REMARK INTER + INTRA:          -3.611
REMARK INTER:                  -3.512
REMARK INTRA:                  -0.099
REMARK UNBOUND:                -0.042
REMARK SMILES CCCCCC(=O)[O-]
REMARK SMILES IDX 4 1 5 2 6 3 7 4 8 5 3 6 2 7 1 8
REMARK H PARENT
REMARK Flexibility Score: inf
ROOT
ATOM      1  C   UNL     1      58.660  21.103  22.953  1.00  0.00     0.006 C 
ENDROOT
BRANCH   1   2
ATOM      2  C   UNL     1      59.001  22.441  22.284  1.00  0.00     0.053 C 
BRANCH   2   3
ATOM      3  C   UNL     1      60.274  22.360  21.500  1.00  0.00     0.041 C 
ATOM      4  O   UNL     1      60.348  21.619  20.484  1.00  0.00    -0.550 OA
ATOM      5  O   UNL     1      61.370  23.129  21.871  1.00  0.00    -0.550 OA
ENDBRANCH   2   3
ENDBRANCH   1   2
BRANCH   1   6
ATOM      6  C   UNL     1      57.141  20.875  23.053  1.00  0.00     0.000 C 
BRANCH   6   7
ATOM      7  C   UNL     1      56.352  22.191  23.119  1.00  0.00    -0.003 C 
ATOM      8  C   UNL     1      54.856  21.973  23.345  1.00  0.00     0.004 C 
ENDBRANCH   6   7
ENDBRANCH   1   6
TORSDOF 4
ENDMDL
MODEL 7
REMARK VINA RESULT:    -2.798      2.783      4.580
REMARK INTER + INTRA:          -3.494
REMARK INTER:                  -3.372
REMARK INTRA:                  -0.122
REMARK UNBOUND:                -0.042
REMARK SMILES CCCCCC(=O)[O-]
REMARK SMILES IDX 4 1 5 2 6 3 7 4 8 5 3 6 2 7 1 8
REMARK H PARENT
REMARK Flexibility Score: inf
ROOT
ATOM      1  C   UNL     1      58.783  21.231  22.946  1.00  0.00     0.006 C 
ENDROOT
BRANCH   1   2
ATOM      2  C   UNL     1      59.106  22.588  22.306  1.00  0.00     0.053 C 
BRANCH   2   3
ATOM      3  C   UNL     1      60.226  23.283  23.016  1.00  0.00     0.041 C 
ATOM      4  O   UNL     1      59.997  24.305  23.716  1.00  0.00    -0.550 OA
ATOM      5  O   UNL     1      61.519  22.783  22.932  1.00  0.00    -0.550 OA
ENDBRANCH   2   3
ENDBRANCH   1   2
BRANCH   1   6
ATOM      6  C   UNL     1      57.267  20.981  23.041  1.00  0.00     0.000 C 
BRANCH   6   7
ATOM      7  C   UNL     1      56.492  22.227  23.495  1.00  0.00    -0.003 C 
ATOM      8  C   UNL     1      54.978  22.066  23.355  1.00  0.00     0.004 C 
ENDBRANCH   6   7
ENDBRANCH   1   6
TORSDOF 4
ENDMDL
MODEL 8
REMARK VINA RESULT:    -2.787      3.085      3.574
REMARK INTER + INTRA:          -3.481
REMARK INTER:                  -3.256
REMARK INTRA:                  -0.225
REMARK UNBOUND:                -0.042
REMARK SMILES CCCCCC(=O)[O-]
REMARK SMILES IDX 4 1 5 2 6 3 7 4 8 5 3 6 2 7 1 8
REMARK H PARENT
REMARK Flexibility Score: inf
ROOT
ATOM      1  C   UNL     1      61.067  21.964  21.881  1.00  0.00     0.006 C 
ENDROOT
BRANCH   1   2
ATOM      2  C   UNL     1      60.426  23.166  22.588  1.00  0.00     0.053 C 
BRANCH   2   3
ATOM      3  C   UNL     1      61.386  24.307  22.721  1.00  0.00     0.041 C 
ATOM      4  O   UNL     1      62.541  24.226  22.225  1.00  0.00    -0.550 OA
ATOM      5  O   UNL     1      60.995  25.474  23.365  1.00  0.00    -0.550 OA
ENDBRANCH   2   3
ENDBRANCH   1   2
BRANCH   1   6
ATOM      6  C   UNL     1      60.584  21.821  20.427  1.00  0.00     0.000 C 
BRANCH   6   7
ATOM      7  C   UNL     1      61.694  22.119  19.407  1.00  0.00    -0.003 C 
ATOM      8  C   UNL     1      63.065  21.619  19.861  1.00  0.00     0.004 C 
ENDBRANCH   6   7
ENDBRANCH   1   6
TORSDOF 4
ENDMDL
MODEL 9
REMARK VINA RESULT:    -2.485      3.125      4.580
REMARK INTER + INTRA:          -3.109
REMARK INTER:                  -2.869
REMARK INTRA:                  -0.239
REMARK UNBOUND:                -0.042
REMARK SMILES CCCCCC(=O)[O-]
REMARK SMILES IDX 4 1 5 2 6 3 7 4 8 5 3 6 2 7 1 8
REMARK H PARENT
REMARK Flexibility Score: inf
ROOT
ATOM      1  C   UNL     1      59.352  21.596  21.927  1.00  0.00     0.006 C 
ENDROOT
BRANCH   1   2
ATOM      2  C   UNL     1      60.473  22.111  21.014  1.00  0.00     0.053 C 
BRANCH   2   3
ATOM      3  C   UNL     1      61.644  22.612  21.802  1.00  0.00     0.041 C 
ATOM      4  O   UNL     1      62.366  21.807  22.447  1.00  0.00    -0.550 OA
ATOM      5  O   UNL     1      61.957  23.965  21.797  1.00  0.00    -0.550 OA
ENDBRANCH   2   3
ENDBRANCH   1   2
BRANCH   1   6
ATOM      6  C   UNL     1      58.819  22.693  22.865  1.00  0.00     0.000 C 
BRANCH   6   7
ATOM      7  C   UNL     1      58.459  22.153  24.258  1.00  0.00    -0.003 C 
ATOM      8  C   UNL     1      59.652  21.515  24.971  1.00  0.00     0.004 C 
ENDBRANCH   6   7
ENDBRANCH   1   6
TORSDOF 4
ENDMDL
