MODEL 1
REMARK VINA RESULT:    -3.535      0.000      0.000
REMARK INTER + INTRA:          -8.189
REMARK INTER:                  -6.222
REMARK INTRA:                  -1.966
REMARK UNBOUND:                -1.966
REMARK SMILES CCCCCCCCCCCCCCC(=O)[O-]
REMARK SMILES IDX 9 1 10 2 11 3 12 4 13 5 14 6 15 7 16 8 17 9 8 10 7 11 6 12
REMARK SMILES IDX 5 13 4 14 3 15 2 16 1 17
REMARK H PARENT
REMARK Flexibility Score: inf
ROOT
ATOM      1  C   UNL     1      17.467  12.985  32.302  1.00  0.00     0.000 C 
ENDROOT
BRANCH   1   2
ATOM      2  C   UNL     1      16.107  12.316  32.067  1.00  0.00     0.000 C 
BRANCH   2   3
ATOM      3  C   UNL     1      15.974  11.831  30.618  1.00  0.00     0.000 C 
BRANCH   3   4
ATOM      4  C   UNL     1      14.718  12.417  29.956  1.00  0.00     0.000 C 
BRANCH   4   5
ATOM      5  C   UNL     1      13.957  13.389  30.874  1.00  0.00     0.006 C 
BRANCH   5   6
ATOM      6  C   UNL     1      12.898  14.242  30.155  1.00  0.00     0.053 C 
BRANCH   6   7
ATOM      7  C   UNL     1      11.720  14.532  31.034  1.00  0.00     0.041 C 
ATOM      8  O   UNL     1      10.746  15.196  30.589  1.00  0.00    -0.550 OA
ATOM      9  O   UNL     1      11.712  14.100  32.353  1.00  0.00    -0.550 OA
ENDBRANCH   6   7
ENDBRANCH   5   6
ENDBRANCH   4   5
ENDBRANCH   3   4
ENDBRANCH   2   3
ENDBRANCH   1   2
BRANCH   1  10
ATOM     10  C   UNL     1      17.524  14.366  31.632  1.00  0.00     0.000 C 
BRANCH  10  11
ATOM     11  C   UNL     1      18.549  14.432  30.489  1.00  0.00    -0.000 C 
BRANCH  11  12
ATOM     12  C   UNL     1      17.937  14.950  29.176  1.00  0.00    -0.000 C 
BRANCH  12  13
ATOM     13  C   UNL     1      16.586  15.649  29.396  1.00  0.00    -0.000 C 
BRANCH  13  14
ATOM     14  C   UNL     1      15.653  15.527  28.177  1.00  0.00    -0.000 C 
BRANCH  14  15
ATOM     15  C   UNL     1      16.184  14.518  27.137  1.00  0.00    -0.000 C 
BRANCH  15  16
ATOM     16  C   UNL     1      15.923  14.942  25.682  1.00  0.00    -0.003 C 
ATOM     17  C   UNL     1      16.421  16.352  25.369  1.00  0.00     0.004 C 
ENDBRANCH  15  16
ENDBRANCH  14  15
ENDBRANCH  13  14
ENDBRANCH  12  13
ENDBRANCH  11  12
ENDBRANCH  10  11
ENDBRANCH   1  10
TORSDOF 13
ENDMDL
MODEL 2
REMARK VINA RESULT:    -3.516      3.467      5.075
REMARK INTER + INTRA:          -8.155
REMARK INTER:                  -6.021
REMARK INTRA:                  -2.133
REMARK UNBOUND:                -1.966
REMARK SMILES CCCCCCCCCCCCCCC(=O)[O-]
REMARK SMILES IDX 9 1 10 2 11 3 12 4 13 5 14 6 15 7 16 8 17 9 8 10 7 11 6 12
REMARK SMILES IDX 5 13 4 14 3 15 2 16 1 17
REMARK H PARENT
REMARK Flexibility Score: inf
ROOT
ATOM      1  C   UNL     1      16.283  13.807  30.942  1.00  0.00     0.000 C 
ENDROOT
BRANCH   1   2
ATOM      2  C   UNL     1      17.084  15.114  30.974  1.00  0.00     0.000 C 
BRANCH   2   3
ATOM      3  C   UNL     1      16.628  16.067  29.862  1.00  0.00     0.000 C 
BRANCH   3   4
ATOM      4  C   UNL     1      15.716  15.345  28.859  1.00  0.00     0.000 C 
BRANCH   4   5
ATOM      5  C   UNL     1      15.912  15.836  27.414  1.00  0.00     0.006 C 
BRANCH   5   6
ATOM      6  C   UNL     1      15.809  14.730  26.350  1.00  0.00     0.053 C 
BRANCH   6   7
ATOM      7  C   UNL     1      16.239  15.210  24.998  1.00  0.00     0.041 C 
ATOM      8  O   UNL     1      15.715  16.239  24.494  1.00  0.00    -0.550 OA
ATOM      9  O   UNL     1      17.192  14.502  24.279  1.00  0.00    -0.550 OA
ENDBRANCH   6   7
ENDBRANCH   5   6
ENDBRANCH   4   5
ENDBRANCH   3   4
ENDBRANCH   2   3
ENDBRANCH   1   2
BRANCH   1  10
ATOM     10  C   UNL     1      16.860  12.784  31.931  1.00  0.00     0.000 C 
BRANCH  10  11
ATOM     11  C   UNL     1      18.111  13.300  32.659  1.00  0.00    -0.000 C 
BRANCH  11  12
ATOM     12  C   UNL     1      19.409  12.668  32.125  1.00  0.00    -0.000 C 
BRANCH  12  13
ATOM     13  C   UNL     1      20.409  13.722  31.624  1.00  0.00    -0.000 C 
BRANCH  13  14
ATOM     14  C   UNL     1      20.495  13.771  30.087  1.00  0.00    -0.000 C 
BRANCH  14  15
ATOM     15  C   UNL     1      19.602  12.702  29.421  1.00  0.00    -0.000 C 
BRANCH  15  16
ATOM     16  C   UNL     1      18.805  13.232  28.217  1.00  0.00    -0.003 C 
ATOM     17  C   UNL     1      19.339  14.559  27.682  1.00  0.00     0.004 C 
ENDBRANCH  15  16
ENDBRANCH  14  15
ENDBRANCH  13  14
ENDBRANCH  12  13
ENDBRANCH  11  12
ENDBRANCH  10  11
ENDBRANCH   1  10
TORSDOF 13
ENDMDL
MODEL 3
REMARK VINA RESULT:    -3.485      1.499      3.232
REMARK INTER + INTRA:          -8.100
REMARK INTER:                  -5.670
REMARK INTRA:                  -2.430
REMARK UNBOUND:                -1.966
REMARK SMILES CCCCCCCCCCCCCCC(=O)[O-]
REMARK SMILES IDX 9 1 10 2 11 3 12 4 13 5 14 6 15 7 16 8 17 9 8 10 7 11 6 12
REMARK SMILES IDX 5 13 4 14 3 15 2 16 1 17
REMARK H PARENT
REMARK Flexibility Score: inf
ROOT
ATOM      1  C   UNL     1      16.440  12.733  27.927  1.00  0.00     0.000 C 
ENDROOT
BRANCH   1   2
ATOM      2  C   UNL     1      15.724  11.929  29.018  1.00  0.00     0.000 C 
BRANCH   2   3
ATOM      3  C   UNL     1      14.254  12.349  29.137  1.00  0.00     0.000 C 
BRANCH   3   4
ATOM      4  C   UNL     1      13.817  12.413  30.608  1.00  0.00     0.000 C 
BRANCH   4   5
ATOM      5  C   UNL     1      13.141  13.746  30.973  1.00  0.00     0.006 C 
BRANCH   5   6
ATOM      6  C   UNL     1      12.494  14.475  29.783  1.00  0.00     0.053 C 
BRANCH   6   7
ATOM      7  C   UNL     1      11.097  14.919  30.089  1.00  0.00     0.041 C 
ATOM      8  O   UNL     1      10.275  15.112  29.154  1.00  0.00    -0.550 OA
ATOM      9  O   UNL     1      10.713  15.153  31.402  1.00  0.00    -0.550 OA
ENDBRANCH   6   7
ENDBRANCH   5   6
ENDBRANCH   4   5
ENDBRANCH   3   4
ENDBRANCH   2   3
ENDBRANCH   1   2
BRANCH   1  10
ATOM     10  C   UNL     1      15.634  13.984  27.546  1.00  0.00     0.000 C 
BRANCH  10  11
ATOM     11  C   UNL     1      16.315  15.289  27.987  1.00  0.00    -0.000 C 
BRANCH  11  12
ATOM     12  C   UNL     1      15.882  15.735  29.394  1.00  0.00    -0.000 C 
BRANCH  12  13
ATOM     13  C   UNL     1      17.062  15.794  30.377  1.00  0.00    -0.000 C 
BRANCH  13  14
ATOM     14  C   UNL     1      17.199  14.507  31.213  1.00  0.00    -0.000 C 
BRANCH  14  15
ATOM     15  C   UNL     1      18.523  13.767  30.928  1.00  0.00    -0.000 C 
BRANCH  15  16
ATOM     16  C   UNL     1      19.486  14.557  30.025  1.00  0.00    -0.003 C 
ATOM     17  C   UNL     1      19.877  13.798  28.758  1.00  0.00     0.004 C 
ENDBRANCH  15  16
ENDBRANCH  14  15
ENDBRANCH  13  14
ENDBRANCH  12  13
ENDBRANCH  11  12
ENDBRANCH  10  11
ENDBRANCH   1  10
TORSDOF 13
ENDMDL
MODEL 4
REMARK VINA RESULT:    -3.480      3.157      5.678
REMARK INTER + INTRA:          -8.091
REMARK INTER:                  -6.575
REMARK INTRA:                  -1.516
REMARK UNBOUND:                -1.966
REMARK SMILES CCCCCCCCCCCCCCC(=O)[O-]
REMARK SMILES IDX 9 1 10 2 11 3 12 4 13 5 14 6 15 7 16 8 17 9 8 10 7 11 6 12
REMARK SMILES IDX 5 13 4 14 3 15 2 16 1 17
REMARK H PARENT
REMARK Flexibility Score: inf
ROOT
ATOM      1  C   UNL     1      17.310  15.482  30.252  1.00  0.00     0.000 C 
ENDROOT
BRANCH   1   2
ATOM      2  C   UNL     1      15.927  15.745  29.645  1.00  0.00     0.000 C 
BRANCH   2   3
ATOM      3  C   UNL     1      15.974  15.672  28.114  1.00  0.00     0.000 C 
BRANCH   3   4
ATOM      4  C   UNL     1      15.181  14.461  27.598  1.00  0.00     0.000 C 
BRANCH   4   5
ATOM      5  C   UNL     1      15.790  13.849  26.324  1.00  0.00     0.006 C 
BRANCH   5   6
ATOM      6  C   UNL     1      14.983  14.118  25.043  1.00  0.00     0.053 C 
BRANCH   6   7
ATOM      7  C   UNL     1      15.685  15.073  24.127  1.00  0.00     0.041 C 
ATOM      8  O   UNL     1      16.050  14.699  22.981  1.00  0.00    -0.550 OA
ATOM      9  O   UNL     1      15.966  16.365  24.552  1.00  0.00    -0.550 OA
ENDBRANCH   6   7
ENDBRANCH   5   6
ENDBRANCH   4   5
ENDBRANCH   3   4
ENDBRANCH   2   3
ENDBRANCH   1   2
BRANCH   1  10
ATOM     10  C   UNL     1      17.242  14.378  31.318  1.00  0.00     0.000 C 
BRANCH  10  11
ATOM     11  C   UNL     1      16.659  13.063  30.776  1.00  0.00    -0.000 C 
BRANCH  11  12
ATOM     12  C   UNL     1      15.395  12.620  31.534  1.00  0.00    -0.000 C 
BRANCH  12  13
ATOM     13  C   UNL     1      14.152  12.591  30.632  1.00  0.00    -0.000 C 
BRANCH  13  14
ATOM     14  C   UNL     1      13.062  13.575  31.096  1.00  0.00    -0.000 C 
BRANCH  14  15
ATOM     15  C   UNL     1      12.433  14.345  29.916  1.00  0.00    -0.000 C 
BRANCH  15  16
ATOM     16  C   UNL     1      11.190  15.162  30.308  1.00  0.00    -0.003 C 
ATOM     17  C   UNL     1      10.667  14.825  31.704  1.00  0.00     0.004 C 
ENDBRANCH  15  16
ENDBRANCH  14  15
ENDBRANCH  13  14
ENDBRANCH  12  13
ENDBRANCH  11  12
ENDBRANCH  10  11
ENDBRANCH   1  10
TORSDOF 13
ENDMDL
MODEL 5
REMARK VINA RESULT:    -3.414      3.320      5.579
REMARK INTER + INTRA:          -7.976
REMARK INTER:                  -6.239
REMARK INTRA:                  -1.737
REMARK UNBOUND:                -1.966
REMARK SMILES CCCCCCCCCCCCCCC(=O)[O-]
REMARK SMILES IDX 9 1 10 2 11 3 12 4 13 5 14 6 15 7 16 8 17 9 8 10 7 11 6 12
REMARK SMILES IDX 5 13 4 14 3 15 2 16 1 17
REMARK H PARENT
REMARK Flexibility Score: inf
ROOT
ATOM      1  C   UNL     1      16.811  12.995  30.829  1.00  0.00     0.000 C 
ENDROOT
BRANCH   1   2
ATOM      2  C   UNL     1      17.230  14.377  31.345  1.00  0.00     0.000 C 
BRANCH   2   3
ATOM      3  C   UNL     1      17.386  15.373  30.189  1.00  0.00     0.000 C 
BRANCH   3   4
ATOM      4  C   UNL     1      16.015  15.789  29.634  1.00  0.00     0.000 C 
BRANCH   4   5
ATOM      5  C   UNL     1      15.936  15.686  28.100  1.00  0.00     0.006 C 
BRANCH   5   6
ATOM      6  C   UNL     1      16.900  14.658  27.484  1.00  0.00     0.053 C 
BRANCH   6   7
ATOM      7  C   UNL     1      17.861  15.293  26.527  1.00  0.00     0.041 C 
ATOM      8  O   UNL     1      19.102  15.216  26.731  1.00  0.00    -0.550 OA
ATOM      9  O   UNL     1      17.387  15.998  25.430  1.00  0.00    -0.550 OA
ENDBRANCH   6   7
ENDBRANCH   5   6
ENDBRANCH   4   5
ENDBRANCH   3   4
ENDBRANCH   2   3
ENDBRANCH   1   2
BRANCH   1  10
ATOM     10  C   UNL     1      15.731  12.376  31.729  1.00  0.00     0.000 C 
BRANCH  10  11
ATOM     11  C   UNL     1      14.311  12.827  31.352  1.00  0.00    -0.000 C 
BRANCH  11  12
ATOM     12  C   UNL     1      14.009  12.636  29.855  1.00  0.00    -0.000 C 
BRANCH  12  13
ATOM     13  C   UNL     1      12.989  13.659  29.330  1.00  0.00    -0.000 C 
BRANCH  13  14
ATOM     14  C   UNL     1      12.555  14.668  30.410  1.00  0.00    -0.000 C 
BRANCH  14  15
ATOM     15  C   UNL     1      11.054  15.015  30.312  1.00  0.00    -0.000 C 
BRANCH  15  16
ATOM     16  C   UNL     1      10.539  15.105  28.866  1.00  0.00    -0.003 C 
ATOM     17  C   UNL     1       9.112  14.583  28.704  1.00  0.00     0.004 C 
ENDBRANCH  15  16
ENDBRANCH  14  15
ENDBRANCH  13  14
ENDBRANCH  12  13
ENDBRANCH  11  12
ENDBRANCH  10  11
ENDBRANCH   1  10
TORSDOF 13
ENDMDL
MODEL 6
REMARK VINA RESULT:    -3.403      1.797      2.856
REMARK INTER + INTRA:          -7.955
REMARK INTER:                  -6.269
REMARK INTRA:                  -1.685
REMARK UNBOUND:                -1.966
REMARK SMILES CCCCCCCCCCCCCCC(=O)[O-]
REMARK SMILES IDX 9 1 10 2 11 3 12 4 13 5 14 6 15 7 16 8 17 9 8 10 7 11 6 12
REMARK SMILES IDX 5 13 4 14 3 15 2 16 1 17
REMARK H PARENT
REMARK Flexibility Score: inf
ROOT
ATOM      1  C   UNL     1      16.933  15.683  30.493  1.00  0.00     0.000 C 
ENDROOT
BRANCH   1   2
ATOM      2  C   UNL     1      15.894  15.652  29.365  1.00  0.00     0.000 C 
BRANCH   2   3
ATOM      3  C   UNL     1      15.239  14.270  29.257  1.00  0.00     0.000 C 
BRANCH   3   4
ATOM      4  C   UNL     1      13.719  14.394  29.073  1.00  0.00     0.000 C 
BRANCH   4   5
ATOM      5  C   UNL     1      12.935  14.092  30.362  1.00  0.00     0.006 C 
BRANCH   5   6
ATOM      6  C   UNL     1      11.632  14.895  30.514  1.00  0.00     0.053 C 
BRANCH   6   7
ATOM      7  C   UNL     1      10.830  14.445  31.696  1.00  0.00     0.041 C 
ATOM      8  O   UNL     1      11.365  14.370  32.834  1.00  0.00    -0.550 OA
ATOM      9  O   UNL     1       9.501  14.076  31.535  1.00  0.00    -0.550 OA
ENDBRANCH   6   7
ENDBRANCH   5   6
ENDBRANCH   4   5
ENDBRANCH   3   4
ENDBRANCH   2   3
ENDBRANCH   1   2
BRANCH   1  10
ATOM     10  C   UNL     1      16.953  14.351  31.258  1.00  0.00     0.000 C 
BRANCH  10  11
ATOM     11  C   UNL     1      18.283  14.106  31.989  1.00  0.00    -0.000 C 
BRANCH  11  12
ATOM     12  C   UNL     1      19.218  13.162  31.213  1.00  0.00    -0.000 C 
BRANCH  12  13
ATOM     13  C   UNL     1      20.318  13.923  30.456  1.00  0.00    -0.000 C 
BRANCH  13  14
ATOM     14  C   UNL     1      19.903  14.285  29.018  1.00  0.00    -0.000 C 
BRANCH  14  15
ATOM     15  C   UNL     1      19.009  13.200  28.381  1.00  0.00    -0.000 C 
BRANCH  15  16
ATOM     16  C   UNL     1      18.235  13.690  27.146  1.00  0.00    -0.003 C 
ATOM     17  C   UNL     1      18.539  15.144  26.785  1.00  0.00     0.004 C 
ENDBRANCH  15  16
ENDBRANCH  14  15
ENDBRANCH  13  14
ENDBRANCH  12  13
ENDBRANCH  11  12
ENDBRANCH  10  11
ENDBRANCH   1  10
TORSDOF 13
ENDMDL
MODEL 7
REMARK VINA RESULT:    -3.366      1.593      3.116
REMARK INTER + INTRA:          -7.891
REMARK INTER:                  -5.988
REMARK INTRA:                  -1.903
REMARK UNBOUND:                -1.966
REMARK SMILES CCCCCCCCCCCCCCC(=O)[O-]
REMARK SMILES IDX 9 1 10 2 11 3 12 4 13 5 14 6 15 7 16 8 17 9 8 10 7 11 6 12
REMARK SMILES IDX 5 13 4 14 3 15 2 16 1 17
REMARK H PARENT
REMARK Flexibility Score: inf
ROOT
ATOM      1  C   UNL     1      14.433  12.180  30.035  1.00  0.00     0.000 C 
ENDROOT
BRANCH   1   2
ATOM      2  C   UNL     1      13.468  13.212  29.440  1.00  0.00     0.000 C 
BRANCH   2   3
ATOM      3  C   UNL     1      13.051  14.247  30.491  1.00  0.00     0.000 C 
BRANCH   3   4
ATOM      4  C   UNL     1      11.658  14.815  30.182  1.00  0.00     0.000 C 
BRANCH   4   5
ATOM      5  C   UNL     1      10.687  14.696  31.371  1.00  0.00     0.006 C 
BRANCH   5   6
ATOM      6  C   UNL     1      11.355  14.290  32.695  1.00  0.00     0.053 C 
BRANCH   6   7
ATOM      7  C   UNL     1      10.798  13.009  33.236  1.00  0.00     0.041 C 
ATOM      8  O   UNL     1      10.662  12.851  34.478  1.00  0.00    -0.550 OA
ATOM      9  O   UNL     1      10.463  11.977  32.370  1.00  0.00    -0.550 OA
ENDBRANCH   6   7
ENDBRANCH   5   6
ENDBRANCH   4   5
ENDBRANCH   3   4
ENDBRANCH   2   3
ENDBRANCH   1   2
BRANCH   1  10
ATOM     10  C   UNL     1      15.112  12.726  31.300  1.00  0.00     0.000 C 
BRANCH  10  11
ATOM     11  C   UNL     1      16.642  12.787  31.175  1.00  0.00    -0.000 C 
BRANCH  11  12
ATOM     12  C   UNL     1      17.225  14.114  31.691  1.00  0.00    -0.000 C 
BRANCH  12  13
ATOM     13  C   UNL     1      17.685  15.033  30.548  1.00  0.00    -0.000 C 
BRANCH  13  14
ATOM     14  C   UNL     1      16.604  16.051  30.137  1.00  0.00    -0.000 C 
BRANCH  14  15
ATOM     15  C   UNL     1      15.966  15.703  28.775  1.00  0.00    -0.000 C 
BRANCH  15  16
ATOM     16  C   UNL     1      16.939  15.022  27.798  1.00  0.00    -0.003 C 
ATOM     17  C   UNL     1      16.309  13.851  27.044  1.00  0.00     0.004 C 
ENDBRANCH  15  16
ENDBRANCH  14  15
ENDBRANCH  13  14
ENDBRANCH  12  13
ENDBRANCH  11  12
ENDBRANCH  10  11
ENDBRANCH   1  10
TORSDOF 13
ENDMDL
MODEL 8
REMARK VINA RESULT:    -3.363      1.411      2.329
REMARK INTER + INTRA:          -7.885
REMARK INTER:                  -6.191
REMARK INTRA:                  -1.694
REMARK UNBOUND:                -1.966
REMARK SMILES CCCCCCCCCCCCCCC(=O)[O-]
REMARK SMILES IDX 9 1 10 2 11 3 12 4 13 5 14 6 15 7 16 8 17 9 8 10 7 11 6 12
REMARK SMILES IDX 5 13 4 14 3 15 2 16 1 17
REMARK H PARENT
REMARK Flexibility Score: inf
ROOT
ATOM      1  C   UNL     1      17.033  14.396  31.122  1.00  0.00     0.000 C 
ENDROOT
BRANCH   1   2
ATOM      2  C   UNL     1      16.870  15.767  30.454  1.00  0.00     0.000 C 
BRANCH   2   3
ATOM      3  C   UNL     1      15.879  15.695  29.286  1.00  0.00     0.000 C 
BRANCH   3   4
ATOM      4  C   UNL     1      15.330  14.270  29.117  1.00  0.00     0.000 C 
BRANCH   4   5
ATOM      5  C   UNL     1      13.802  14.196  29.285  1.00  0.00     0.006 C 
BRANCH   5   6
ATOM      6  C   UNL     1      13.337  13.867  30.713  1.00  0.00     0.053 C 
BRANCH   6   7
ATOM      7  C   UNL     1      11.983  14.435  31.008  1.00  0.00     0.041 C 
ATOM      8  O   UNL     1      11.460  14.271  32.142  1.00  0.00    -0.550 OA
ATOM      9  O   UNL     1      11.285  15.118  30.021  1.00  0.00    -0.550 OA
ENDBRANCH   6   7
ENDBRANCH   5   6
ENDBRANCH   4   5
ENDBRANCH   3   4
ENDBRANCH   2   3
ENDBRANCH   1   2
BRANCH   1  10
ATOM     10  C   UNL     1      18.502  14.135  31.490  1.00  0.00     0.000 C 
BRANCH  10  11
ATOM     11  C   UNL     1      19.224  13.248  30.464  1.00  0.00    -0.000 C 
BRANCH  11  12
ATOM     12  C   UNL     1      19.871  14.061  29.330  1.00  0.00    -0.000 C 
BRANCH  12  13
ATOM     13  C   UNL     1      19.153  13.862  27.985  1.00  0.00    -0.000 C 
BRANCH  13  14
ATOM     14  C   UNL     1      18.879  15.193  27.260  1.00  0.00    -0.000 C 
BRANCH  14  15
ATOM     15  C   UNL     1      18.338  14.974  25.831  1.00  0.00    -0.000 C 
BRANCH  15  16
ATOM     16  C   UNL     1      16.802  14.993  25.747  1.00  0.00    -0.003 C 
ATOM     17  C   UNL     1      16.239  16.361  25.366  1.00  0.00     0.004 C 
ENDBRANCH  15  16
ENDBRANCH  14  15
ENDBRANCH  13  14
ENDBRANCH  12  13
ENDBRANCH  11  12
ENDBRANCH  10  11
ENDBRANCH   1  10
TORSDOF 13
ENDMDL
MODEL 9
REMARK VINA RESULT:    -3.361      1.351      3.475
REMARK INTER + INTRA:          -7.881
REMARK INTER:                  -5.656
REMARK INTRA:                  -2.226
REMARK UNBOUND:                -1.966
REMARK SMILES CCCCCCCCCCCCCCC(=O)[O-]
REMARK SMILES IDX 9 1 10 2 11 3 12 4 13 5 14 6 15 7 16 8 17 9 8 10 7 11 6 12
REMARK SMILES IDX 5 13 4 14 3 15 2 16 1 17
REMARK H PARENT
REMARK Flexibility Score: inf
ROOT
ATOM      1  C   UNL     1      16.218  11.809  27.899  1.00  0.00     0.000 C 
ENDROOT
BRANCH   1   2
ATOM      2  C   UNL     1      15.929  11.747  29.404  1.00  0.00     0.000 C 
BRANCH   2   3
ATOM      3  C   UNL     1      14.595  12.426  29.737  1.00  0.00     0.000 C 
BRANCH   3   4
ATOM      4  C   UNL     1      13.771  12.672  28.465  1.00  0.00     0.000 C 
BRANCH   4   5
ATOM      5  C   UNL     1      12.862  13.910  28.572  1.00  0.00     0.006 C 
BRANCH   5   6
ATOM      6  C   UNL     1      12.767  14.505  29.987  1.00  0.00     0.053 C 
BRANCH   6   7
ATOM      7  C   UNL     1      11.360  14.867  30.351  1.00  0.00     0.041 C 
ATOM      8  O   UNL     1      10.992  14.849  31.555  1.00  0.00    -0.550 OA
ATOM      9  O   UNL     1      10.447  15.192  29.357  1.00  0.00    -0.550 OA
ENDBRANCH   6   7
ENDBRANCH   5   6
ENDBRANCH   4   5
ENDBRANCH   3   4
ENDBRANCH   2   3
ENDBRANCH   1   2
BRANCH   1  10
ATOM     10  C   UNL     1      17.453  12.675  27.611  1.00  0.00     0.000 C 
BRANCH  10  11
ATOM     11  C   UNL     1      17.132  13.899  26.738  1.00  0.00    -0.000 C 
BRANCH  11  12
ATOM     12  C   UNL     1      17.278  15.226  27.504  1.00  0.00    -0.000 C 
BRANCH  12  13
ATOM     13  C   UNL     1      15.983  15.629  28.226  1.00  0.00    -0.000 C 
BRANCH  13  14
ATOM     14  C   UNL     1      16.199  15.883  29.730  1.00  0.00    -0.000 C 
BRANCH  14  15
ATOM     15  C   UNL     1      17.472  15.188  30.259  1.00  0.00    -0.000 C 
BRANCH  15  16
ATOM     16  C   UNL     1      17.224  14.313  31.499  1.00  0.00    -0.003 C 
ATOM     17  C   UNL     1      18.491  14.050  32.311  1.00  0.00     0.004 C 
ENDBRANCH  15  16
ENDBRANCH  14  15
ENDBRANCH  13  14
ENDBRANCH  12  13
ENDBRANCH  11  12
ENDBRANCH  10  11
ENDBRANCH   1  10
TORSDOF 13
ENDMDL
