MODEL 1
REMARK VINA RESULT:    -6.957      0.000      0.000
REMARK INTER + INTRA:          -8.774
REMARK INTER:                  -8.177
REMARK INTRA:                  -0.597
REMARK UNBOUND:                -0.597
REMARK SMILES C=C(C)[C@H]1CC[C@@]2(CO)CC[C@]3(C)[C@@H](CC[C@@H]4[C@]5(C)CC[C@@H](O)C(C)(C)[C@H]5CC[C@@]43C)[C@@H]12
REMARK SMILES IDX 4 1 5 2 6 3 7 4 32 5 14 6 15 7 16 8 17 9 18 10 20 11 21 12
REMARK SMILES IDX 22 13 24 14 27 15 28 16 29 17 30 18 12 19 11 20 10 21 13 22
REMARK SMILES IDX 31 23 25 24 26 25 19 26 2 27 3 28 1 29 8 30 9 31 23 33
REMARK H PARENT 9 32 23 34
REMARK Flexibility Score: inf
ROOT
ATOM      1  C   UNL     1     -13.527  40.279  10.018  1.00  0.00     0.018 C 
ATOM      2  C   UNL     1     -13.416  39.219  11.125  1.00  0.00     0.009 C 
ATOM      3  C   UNL     1     -12.437  38.151  10.627  1.00  0.00     0.010 C 
ATOM      4  C   UNL     1     -12.074  38.490   9.158  1.00  0.00    -0.003 C 
ATOM      5  C   UNL     1     -13.137  39.541   8.711  1.00  0.00     0.008 C 
ATOM      6  C   UNL     1     -14.326  38.936   7.858  1.00  0.00    -0.000 C 
ATOM      7  C   UNL     1     -15.338  38.137   8.666  1.00  0.00     0.005 C 
ATOM      8  C   UNL     1     -16.581  37.822   7.840  1.00  0.00     0.005 C 
ATOM      9  C   UNL     1     -16.371  37.405   6.335  1.00  0.00     0.002 C 
ATOM     10  C   UNL     1     -17.482  36.338   5.878  1.00  0.00    -0.026 C 
ATOM     11  C   UNL     1     -18.916  36.789   6.340  1.00  0.00     0.010 C 
ATOM     12  C   UNL     1     -20.000  35.713   6.151  1.00  0.00     0.033 C 
ATOM     13  C   UNL     1     -19.628  34.393   6.845  1.00  0.00     0.120 C 
ATOM     14  C   UNL     1     -18.249  33.819   6.383  1.00  0.00    -0.006 C 
ATOM     15  C   UNL     1     -17.148  34.948   6.547  1.00  0.00     0.003 C 
ATOM     16  C   UNL     1     -15.691  34.502   6.265  1.00  0.00     0.005 C 
ATOM     17  C   UNL     1     -14.650  35.572   6.682  1.00  0.00     0.008 C 
ATOM     18  C   UNL     1     -14.862  36.990   6.036  1.00  0.00    -0.024 C 
ATOM     19  C   UNL     1     -13.832  38.157   6.566  1.00  0.00    -0.024 C 
ATOM     20  C   UNL     1     -12.384  37.584   6.794  1.00  0.00     0.008 C 
ATOM     21  C   UNL     1     -12.097  37.222   8.256  1.00  0.00     0.010 C 
ATOM     22  C   UNL     1     -13.681  39.284   5.480  1.00  0.00     0.012 C 
ATOM     23  C   UNL     1     -14.576  36.804   4.504  1.00  0.00     0.012 C 
ATOM     24  C   UNL     1     -17.914  32.625   7.320  1.00  0.00     0.014 C 
ATOM     25  C   UNL     1     -18.343  33.245   4.944  1.00  0.00     0.014 C 
ATOM     26  C   UNL     1     -17.540  36.274   4.314  1.00  0.00     0.012 C 
ENDROOT
BRANCH   1  27
ATOM     27  C   UNL     1     -14.802  41.127   9.969  1.00  0.00    -0.077 C 
ATOM     28  C   UNL     1     -14.869  42.307   9.032  1.00  0.00     0.039 C 
ATOM     29  C   UNL     1     -15.804  40.982  10.855  1.00  0.00     0.008 C 
ENDBRANCH   1  27
BRANCH   4  30
ATOM     30  C   UNL     1     -10.632  39.095   9.099  1.00  0.00     0.163 C 
BRANCH  30  31
ATOM     31  O   UNL     1      -9.971  38.993  10.331  1.00  0.00    -0.396 OA
ATOM     32  H   UNL     1     -10.509  38.369  10.885  1.00  0.00     0.210 HD
ENDBRANCH  30  31
ENDBRANCH   4  30
BRANCH  13  33
ATOM     33  O   UNL     1     -20.649  33.449   6.625  1.00  0.00    -0.393 OA
ATOM     34  H   UNL     1     -20.221  32.554   6.618  1.00  0.00     0.210 HD
ENDBRANCH  13  33
TORSDOF 4
ENDMDL
MODEL 2
REMARK VINA RESULT:    -6.253      2.996      7.230
REMARK INTER + INTRA:          -7.947
REMARK INTER:                  -7.374
REMARK INTRA:                  -0.573
REMARK UNBOUND:                -0.597
REMARK SMILES C=C(C)[C@H]1CC[C@@]2(CO)CC[C@]3(C)[C@@H](CC[C@@H]4[C@]5(C)CC[C@@H](O)C(C)(C)[C@H]5CC[C@@]43C)[C@@H]12
REMARK SMILES IDX 4 1 5 2 6 3 7 4 32 5 14 6 15 7 16 8 17 9 18 10 20 11 21 12
REMARK SMILES IDX 22 13 24 14 27 15 28 16 29 17 30 18 12 19 11 20 10 21 13 22
REMARK SMILES IDX 31 23 25 24 26 25 19 26 2 27 3 28 1 29 8 30 9 31 23 33
REMARK H PARENT 9 32 23 34
REMARK Flexibility Score: inf
ROOT
ATOM      1  C   UNL     1     -18.834  36.407   6.215  1.00  0.00     0.018 C 
ATOM      2  C   UNL     1     -19.050  35.667   4.886  1.00  0.00     0.009 C 
ATOM      3  C   UNL     1     -18.126  34.445   4.897  1.00  0.00     0.010 C 
ATOM      4  C   UNL     1     -17.243  34.532   6.170  1.00  0.00    -0.003 C 
ATOM      5  C   UNL     1     -17.414  35.996   6.681  1.00  0.00     0.008 C 
ATOM      6  C   UNL     1     -16.229  36.965   6.276  1.00  0.00    -0.000 C 
ATOM      7  C   UNL     1     -16.232  37.389   4.815  1.00  0.00     0.005 C 
ATOM      8  C   UNL     1     -15.240  38.520   4.565  1.00  0.00     0.005 C 
ATOM      9  C   UNL     1     -13.843  38.439   5.287  1.00  0.00     0.002 C 
ATOM     10  C   UNL     1     -12.688  39.075   4.368  1.00  0.00    -0.026 C 
ATOM     11  C   UNL     1     -13.145  40.455   3.769  1.00  0.00     0.010 C 
ATOM     12  C   UNL     1     -12.195  41.013   2.694  1.00  0.00     0.033 C 
ATOM     13  C   UNL     1     -11.962  40.009   1.553  1.00  0.00     0.120 C 
ATOM     14  C   UNL     1     -11.422  38.627   2.048  1.00  0.00    -0.006 C 
ATOM     15  C   UNL     1     -12.387  38.080   3.180  1.00  0.00     0.003 C 
ATOM     16  C   UNL     1     -12.075  36.648   3.685  1.00  0.00     0.005 C 
ATOM     17  C   UNL     1     -13.192  36.084   4.599  1.00  0.00     0.008 C 
ATOM     18  C   UNL     1     -13.544  36.977   5.845  1.00  0.00    -0.024 C 
ATOM     19  C   UNL     1     -14.807  36.441   6.751  1.00  0.00    -0.024 C 
ATOM     20  C   UNL     1     -14.811  34.872   6.859  1.00  0.00     0.008 C 
ATOM     21  C   UNL     1     -15.756  34.196   5.857  1.00  0.00     0.010 C 
ATOM     22  C   UNL     1     -14.682  36.972   8.226  1.00  0.00     0.012 C 
ATOM     23  C   UNL     1     -12.277  36.928   6.771  1.00  0.00     0.012 C 
ATOM     24  C   UNL     1     -11.451  37.663   0.829  1.00  0.00     0.014 C 
ATOM     25  C   UNL     1      -9.940  38.741   2.493  1.00  0.00     0.014 C 
ATOM     26  C   UNL     1     -11.429  39.389   5.245  1.00  0.00     0.012 C 
ENDROOT
BRANCH   1  27
ATOM     27  C   UNL     1     -19.161  37.903   6.258  1.00  0.00    -0.077 C 
ATOM     28  C   UNL     1     -19.153  38.623   7.583  1.00  0.00     0.039 C 
ATOM     29  C   UNL     1     -19.636  38.573   5.192  1.00  0.00     0.008 C 
ENDBRANCH   1  27
BRANCH   4  30
ATOM     30  C   UNL     1     -17.754  33.506   7.234  1.00  0.00     0.163 C 
BRANCH  30  31
ATOM     31  O   UNL     1     -17.827  32.205   6.716  1.00  0.00    -0.396 OA
ATOM     32  H   UNL     1     -17.511  31.600   7.437  1.00  0.00     0.210 HD
ENDBRANCH  30  31
ENDBRANCH   4  30
BRANCH  13  33
ATOM     33  O   UNL     1     -11.078  40.572   0.613  1.00  0.00    -0.393 OA
ATOM     34  H   UNL     1     -10.744  39.828   0.047  1.00  0.00     0.210 HD
ENDBRANCH  13  33
TORSDOF 4
ENDMDL
MODEL 3
REMARK VINA RESULT:    -6.148      5.680      8.687
REMARK INTER + INTRA:          -7.824
REMARK INTER:                  -7.329
REMARK INTRA:                  -0.495
REMARK UNBOUND:                -0.597
REMARK SMILES C=C(C)[C@H]1CC[C@@]2(CO)CC[C@]3(C)[C@@H](CC[C@@H]4[C@]5(C)CC[C@@H](O)C(C)(C)[C@H]5CC[C@@]43C)[C@@H]12
REMARK SMILES IDX 4 1 5 2 6 3 7 4 32 5 14 6 15 7 16 8 17 9 18 10 20 11 21 12
REMARK SMILES IDX 22 13 24 14 27 15 28 16 29 17 30 18 12 19 11 20 10 21 13 22
REMARK SMILES IDX 31 23 25 24 26 25 19 26 2 27 3 28 1 29 8 30 9 31 23 33
REMARK H PARENT 9 32 23 34
REMARK Flexibility Score: inf
ROOT
ATOM      1  C   UNL     1      -8.820  37.330  -1.099  1.00  0.00     0.018 C 
ATOM      2  C   UNL     1     -10.081  37.088  -1.942  1.00  0.00     0.009 C 
ATOM      3  C   UNL     1     -10.923  38.366  -1.866  1.00  0.00     0.010 C 
ATOM      4  C   UNL     1     -10.240  39.323  -0.854  1.00  0.00    -0.003 C 
ATOM      5  C   UNL     1      -9.216  38.433  -0.084  1.00  0.00     0.008 C 
ATOM      6  C   UNL     1      -9.724  37.941   1.333  1.00  0.00    -0.000 C 
ATOM      7  C   UNL     1     -10.768  36.835   1.279  1.00  0.00     0.005 C 
ATOM      8  C   UNL     1     -11.005  36.230   2.659  1.00  0.00     0.005 C 
ATOM      9  C   UNL     1     -11.062  37.215   3.888  1.00  0.00     0.002 C 
ATOM     10  C   UNL     1     -12.098  36.685   4.996  1.00  0.00    -0.026 C 
ATOM     11  C   UNL     1     -11.889  35.152   5.271  1.00  0.00     0.010 C 
ATOM     12  C   UNL     1     -12.990  34.517   6.139  1.00  0.00     0.033 C 
ATOM     13  C   UNL     1     -14.392  34.747   5.551  1.00  0.00     0.120 C 
ATOM     14  C   UNL     1     -14.725  36.258   5.321  1.00  0.00    -0.006 C 
ATOM     15  C   UNL     1     -13.565  36.909   4.458  1.00  0.00     0.003 C 
ATOM     16  C   UNL     1     -13.807  38.375   4.018  1.00  0.00     0.005 C 
ATOM     17  C   UNL     1     -12.765  38.863   2.979  1.00  0.00     0.008 C 
ATOM     18  C   UNL     1     -11.265  38.728   3.431  1.00  0.00    -0.024 C 
ATOM     19  C   UNL     1     -10.155  39.134   2.288  1.00  0.00    -0.024 C 
ATOM     20  C   UNL     1     -10.631  40.369   1.439  1.00  0.00     0.008 C 
ATOM     21  C   UNL     1     -11.277  39.977   0.104  1.00  0.00     0.010 C 
ATOM     22  C   UNL     1      -8.808  39.577   2.970  1.00  0.00     0.012 C 
ATOM     23  C   UNL     1     -11.085  39.747   4.611  1.00  0.00     0.012 C 
ATOM     24  C   UNL     1     -16.060  36.316   4.527  1.00  0.00     0.014 C 
ATOM     25  C   UNL     1     -14.976  36.980   6.671  1.00  0.00     0.014 C 
ATOM     26  C   UNL     1     -11.824  37.403   6.361  1.00  0.00     0.012 C 
ENDROOT
BRANCH   1  27
ATOM     27  C   UNL     1      -8.099  36.104  -0.528  1.00  0.00    -0.077 C 
ATOM     28  C   UNL     1      -6.644  36.213  -0.148  1.00  0.00     0.039 C 
ATOM     29  C   UNL     1      -8.651  34.877  -0.519  1.00  0.00     0.008 C 
ENDBRANCH   1  27
BRANCH   4  30
ATOM     30  C   UNL     1      -9.510  40.471  -1.627  1.00  0.00     0.163 C 
BRANCH  30  31
ATOM     31  O   UNL     1      -9.832  40.471  -2.992  1.00  0.00    -0.396 OA
ATOM     32  H   UNL     1     -10.574  41.121  -3.103  1.00  0.00     0.210 HD
ENDBRANCH  30  31
ENDBRANCH   4  30
BRANCH  13  33
ATOM     33  O   UNL     1     -15.352  34.157   6.395  1.00  0.00    -0.393 OA
ATOM     34  H   UNL     1     -15.991  34.872   6.651  1.00  0.00     0.210 HD
ENDBRANCH  13  33
TORSDOF 4
ENDMDL
MODEL 4
REMARK VINA RESULT:    -6.139      1.829      3.474
REMARK INTER + INTRA:          -7.814
REMARK INTER:                  -7.613
REMARK INTRA:                  -0.201
REMARK UNBOUND:                -0.597
REMARK SMILES C=C(C)[C@H]1CC[C@@]2(CO)CC[C@]3(C)[C@@H](CC[C@@H]4[C@]5(C)CC[C@@H](O)C(C)(C)[C@H]5CC[C@@]43C)[C@@H]12
REMARK SMILES IDX 4 1 5 2 6 3 7 4 32 5 14 6 15 7 16 8 17 9 18 10 20 11 21 12
REMARK SMILES IDX 22 13 24 14 27 15 28 16 29 17 30 18 12 19 11 20 10 21 13 22
REMARK SMILES IDX 31 23 25 24 26 25 19 26 2 27 3 28 1 29 8 30 9 31 23 33
REMARK H PARENT 9 32 23 34
REMARK Flexibility Score: inf
ROOT
ATOM      1  C   UNL     1     -12.516  39.014   9.203  1.00  0.00     0.018 C 
ATOM      2  C   UNL     1     -11.648  38.712   7.971  1.00  0.00     0.009 C 
ATOM      3  C   UNL     1     -12.108  39.656   6.855  1.00  0.00     0.010 C 
ATOM      4  C   UNL     1     -13.355  40.423   7.369  1.00  0.00    -0.003 C 
ATOM      5  C   UNL     1     -13.816  39.641   8.637  1.00  0.00     0.008 C 
ATOM      6  C   UNL     1     -15.025  38.650   8.382  1.00  0.00    -0.000 C 
ATOM      7  C   UNL     1     -14.651  37.379   7.635  1.00  0.00     0.005 C 
ATOM      8  C   UNL     1     -15.789  36.363   7.665  1.00  0.00     0.005 C 
ATOM      9  C   UNL     1     -17.256  36.905   7.475  1.00  0.00     0.002 C 
ATOM     10  C   UNL     1     -18.162  35.834   6.691  1.00  0.00    -0.026 C 
ATOM     11  C   UNL     1     -17.966  34.392   7.286  1.00  0.00     0.010 C 
ATOM     12  C   UNL     1     -18.612  33.277   6.446  1.00  0.00     0.033 C 
ATOM     13  C   UNL     1     -18.130  33.301   4.986  1.00  0.00     0.120 C 
ATOM     14  C   UNL     1     -18.364  34.677   4.281  1.00  0.00    -0.006 C 
ATOM     15  C   UNL     1     -17.727  35.821   5.174  1.00  0.00     0.003 C 
ATOM     16  C   UNL     1     -17.746  37.240   4.551  1.00  0.00     0.005 C 
ATOM     17  C   UNL     1     -16.893  38.255   5.355  1.00  0.00     0.008 C 
ATOM     18  C   UNL     1     -17.274  38.381   6.876  1.00  0.00    -0.024 C 
ATOM     19  C   UNL     1     -16.296  39.368   7.757  1.00  0.00    -0.024 C 
ATOM     20  C   UNL     1     -15.858  40.631   6.929  1.00  0.00     0.008 C 
ATOM     21  C   UNL     1     -14.472  40.487   6.288  1.00  0.00     0.010 C 
ATOM     22  C   UNL     1     -17.070  39.923   9.009  1.00  0.00     0.012 C 
ATOM     23  C   UNL     1     -18.703  39.030   6.902  1.00  0.00     0.012 C 
ATOM     24  C   UNL     1     -17.633  34.619   2.911  1.00  0.00     0.014 C 
ATOM     25  C   UNL     1     -19.870  34.892   3.976  1.00  0.00     0.014 C 
ATOM     26  C   UNL     1     -19.678  36.175   6.897  1.00  0.00     0.012 C 
ENDROOT
BRANCH   1  27
ATOM     27  C   UNL     1     -12.688  37.902  10.242  1.00  0.00    -0.077 C 
ATOM     28  C   UNL     1     -13.912  37.899  11.125  1.00  0.00     0.039 C 
ATOM     29  C   UNL     1     -11.711  37.025  10.535  1.00  0.00     0.008 C 
ENDBRANCH   1  27
BRANCH   4  30
ATOM     30  C   UNL     1     -12.955  41.891   7.735  1.00  0.00     0.163 C 
BRANCH  30  31
ATOM     31  O   UNL     1     -13.550  42.314   8.931  1.00  0.00    -0.396 OA
ATOM     32  H   UNL     1     -12.867  42.857   9.405  1.00  0.00     0.210 HD
ENDBRANCH  30  31
ENDBRANCH   4  30
BRANCH  13  33
ATOM     33  O   UNL     1     -18.765  32.270   4.270  1.00  0.00    -0.393 OA
ATOM     34  H   UNL     1     -19.389  32.702   3.629  1.00  0.00     0.210 HD
ENDBRANCH  13  33
TORSDOF 4
ENDMDL
MODEL 5
REMARK VINA RESULT:    -6.052      9.185     12.624
REMARK INTER + INTRA:          -7.711
REMARK INTER:                  -7.101
REMARK INTRA:                  -0.610
REMARK UNBOUND:                -0.597
REMARK SMILES C=C(C)[C@H]1CC[C@@]2(CO)CC[C@]3(C)[C@@H](CC[C@@H]4[C@]5(C)CC[C@@H](O)C(C)(C)[C@H]5CC[C@@]43C)[C@@H]12
REMARK SMILES IDX 4 1 5 2 6 3 7 4 32 5 14 6 15 7 16 8 17 9 18 10 20 11 21 12
REMARK SMILES IDX 22 13 24 14 27 15 28 16 29 17 30 18 12 19 11 20 10 21 13 22
REMARK SMILES IDX 31 23 25 24 26 25 19 26 2 27 3 28 1 29 8 30 9 31 23 33
REMARK H PARENT 9 32 23 34
REMARK Flexibility Score: inf
ROOT
ATOM      1  C   UNL     1      -9.031  37.673   0.119  1.00  0.00     0.018 C 
ATOM      2  C   UNL     1      -9.609  38.637   1.167  1.00  0.00     0.009 C 
ATOM      3  C   UNL     1      -8.647  39.827   1.261  1.00  0.00     0.010 C 
ATOM      4  C   UNL     1      -7.412  39.507   0.378  1.00  0.00    -0.003 C 
ATOM      5  C   UNL     1      -7.511  37.978   0.083  1.00  0.00     0.008 C 
ATOM      6  C   UNL     1      -6.588  37.080   1.003  1.00  0.00    -0.000 C 
ATOM      7  C   UNL     1      -7.087  36.918   2.431  1.00  0.00     0.005 C 
ATOM      8  C   UNL     1      -6.307  35.836   3.171  1.00  0.00     0.005 C 
ATOM      9  C   UNL     1      -4.750  35.772   2.941  1.00  0.00     0.002 C 
ATOM     10  C   UNL     1      -3.996  35.292   4.277  1.00  0.00    -0.026 C 
ATOM     11  C   UNL     1      -4.714  34.045   4.909  1.00  0.00     0.010 C 
ATOM     12  C   UNL     1      -4.199  33.671   6.310  1.00  0.00     0.033 C 
ATOM     13  C   UNL     1      -4.274  34.856   7.286  1.00  0.00     0.120 C 
ATOM     14  C   UNL     1      -3.510  36.123   6.779  1.00  0.00    -0.006 C 
ATOM     15  C   UNL     1      -4.022  36.476   5.321  1.00  0.00     0.003 C 
ATOM     16  C   UNL     1      -3.468  37.793   4.721  1.00  0.00     0.005 C 
ATOM     17  C   UNL     1      -4.193  38.203   3.414  1.00  0.00     0.008 C 
ATOM     18  C   UNL     1      -4.188  37.109   2.283  1.00  0.00    -0.024 C 
ATOM     19  C   UNL     1      -5.056  37.494   0.940  1.00  0.00    -0.024 C 
ATOM     20  C   UNL     1      -4.917  39.020   0.585  1.00  0.00     0.008 C 
ATOM     21  C   UNL     1      -6.083  39.873   1.100  1.00  0.00     0.010 C 
ATOM     22  C   UNL     1      -4.503  36.712  -0.307  1.00  0.00     0.012 C 
ATOM     23  C   UNL     1      -2.692  36.979   1.827  1.00  0.00     0.012 C 
ATOM     24  C   UNL     1      -3.860  37.286   7.749  1.00  0.00     0.014 C 
ATOM     25  C   UNL     1      -1.975  35.915   6.866  1.00  0.00     0.014 C 
ATOM     26  C   UNL     1      -2.547  34.813   3.922  1.00  0.00     0.012 C 
ENDROOT
BRANCH   1  27
ATOM     27  C   UNL     1      -9.429  36.197   0.214  1.00  0.00    -0.077 C 
ATOM     28  C   UNL     1      -9.069  35.260  -0.912  1.00  0.00     0.039 C 
ATOM     29  C   UNL     1     -10.249  35.726   1.172  1.00  0.00     0.008 C 
ENDBRANCH   1  27
BRANCH   4  30
ATOM     30  C   UNL     1      -7.484  40.337  -0.946  1.00  0.00     0.163 C 
BRANCH  30  31
ATOM     31  O   UNL     1      -7.102  39.578  -2.062  1.00  0.00    -0.396 OA
ATOM     32  H   UNL     1      -6.724  40.220  -2.718  1.00  0.00     0.210 HD
ENDBRANCH  30  31
ENDBRANCH   4  30
BRANCH  13  33
ATOM     33  O   UNL     1      -3.777  34.456   8.541  1.00  0.00    -0.393 OA
ATOM     34  H   UNL     1      -2.842  34.155   8.401  1.00  0.00     0.210 HD
ENDBRANCH  13  33
TORSDOF 4
ENDMDL
MODEL 6
REMARK VINA RESULT:    -5.895      5.181      8.435
REMARK INTER + INTRA:          -7.527
REMARK INTER:                  -6.930
REMARK INTRA:                  -0.597
REMARK UNBOUND:                -0.597
REMARK SMILES C=C(C)[C@H]1CC[C@@]2(CO)CC[C@]3(C)[C@@H](CC[C@@H]4[C@]5(C)CC[C@@H](O)C(C)(C)[C@H]5CC[C@@]43C)[C@@H]12
REMARK SMILES IDX 4 1 5 2 6 3 7 4 32 5 14 6 15 7 16 8 17 9 18 10 20 11 21 12
REMARK SMILES IDX 22 13 24 14 27 15 28 16 29 17 30 18 12 19 11 20 10 21 13 22
REMARK SMILES IDX 31 23 25 24 26 25 19 26 2 27 3 28 1 29 8 30 9 31 23 33
REMARK H PARENT 9 32 23 34
REMARK Flexibility Score: inf
ROOT
ATOM      1  C   UNL     1     -13.705  36.618   6.557  1.00  0.00     0.018 C 
ATOM      2  C   UNL     1     -12.510  36.431   7.504  1.00  0.00     0.009 C 
ATOM      3  C   UNL     1     -11.858  37.806   7.680  1.00  0.00     0.010 C 
ATOM      4  C   UNL     1     -12.571  38.794   6.719  1.00  0.00    -0.003 C 
ATOM      5  C   UNL     1     -13.375  37.890   5.735  1.00  0.00     0.008 C 
ATOM      6  C   UNL     1     -12.667  37.665   4.337  1.00  0.00    -0.000 C 
ATOM      7  C   UNL     1     -11.485  36.708   4.376  1.00  0.00     0.005 C 
ATOM      8  C   UNL     1     -11.030  36.332   2.970  1.00  0.00     0.005 C 
ATOM      9  C   UNL     1     -10.997  37.473   1.883  1.00  0.00     0.002 C 
ATOM     10  C   UNL     1      -9.792  37.238   0.846  1.00  0.00    -0.026 C 
ATOM     11  C   UNL     1      -9.749  35.742   0.366  1.00  0.00     0.010 C 
ATOM     12  C   UNL     1      -8.489  35.380  -0.440  1.00  0.00     0.033 C 
ATOM     13  C   UNL     1      -7.199  35.710   0.329  1.00  0.00     0.120 C 
ATOM     14  C   UNL     1      -7.112  37.206   0.776  1.00  0.00    -0.006 C 
ATOM     15  C   UNL     1      -8.431  37.577   1.572  1.00  0.00     0.003 C 
ATOM     16  C   UNL     1      -8.448  38.988   2.211  1.00  0.00     0.005 C 
ATOM     17  C   UNL     1      -9.645  39.191   3.174  1.00  0.00     0.008 C 
ATOM     18  C   UNL     1     -11.059  38.923   2.540  1.00  0.00    -0.024 C 
ATOM     19  C   UNL     1     -12.322  39.023   3.588  1.00  0.00    -0.024 C 
ATOM     20  C   UNL     1     -12.114  40.183   4.630  1.00  0.00     0.008 C 
ATOM     21  C   UNL     1     -11.551  39.701   5.972  1.00  0.00     0.010 C 
ATOM     22  C   UNL     1     -13.646  39.374   2.814  1.00  0.00     0.012 C 
ATOM     23  C   UNL     1     -11.269  40.061   1.479  1.00  0.00     0.012 C 
ATOM     24  C   UNL     1      -5.883  37.329   1.719  1.00  0.00     0.014 C 
ATOM     25  C   UNL     1      -6.837  38.130  -0.439  1.00  0.00     0.014 C 
ATOM     26  C   UNL     1     -10.033  38.092  -0.445  1.00  0.00     0.012 C 
ENDROOT
BRANCH   1  27
ATOM     27  C   UNL     1     -14.182  35.397   5.764  1.00  0.00    -0.077 C 
ATOM     28  C   UNL     1     -15.447  35.494   4.947  1.00  0.00     0.039 C 
ATOM     29  C   UNL     1     -13.627  34.179   5.903  1.00  0.00     0.008 C 
ENDBRANCH   1  27
BRANCH   4  30
ATOM     30  C   UNL     1     -13.530  39.721   7.536  1.00  0.00     0.163 C 
BRANCH  30  31
ATOM     31  O   UNL     1     -13.357  39.567   8.919  1.00  0.00    -0.396 OA
ATOM     32  H   UNL     1     -12.652  40.214   9.185  1.00  0.00     0.210 HD
ENDBRANCH  30  31
ENDBRANCH   4  30
BRANCH  13  33
ATOM     33  O   UNL     1      -6.087  35.370  -0.464  1.00  0.00    -0.393 OA
ATOM     34  H   UNL     1      -6.256  35.734  -1.372  1.00  0.00     0.210 HD
ENDBRANCH  13  33
TORSDOF 4
ENDMDL
MODEL 7
REMARK VINA RESULT:    -5.869      9.309     13.130
REMARK INTER + INTRA:          -7.496
REMARK INTER:                  -7.194
REMARK INTRA:                  -0.301
REMARK UNBOUND:                -0.597
REMARK SMILES C=C(C)[C@H]1CC[C@@]2(CO)CC[C@]3(C)[C@@H](CC[C@@H]4[C@]5(C)CC[C@@H](O)C(C)(C)[C@H]5CC[C@@]43C)[C@@H]12
REMARK SMILES IDX 4 1 5 2 6 3 7 4 32 5 14 6 15 7 16 8 17 9 18 10 20 11 21 12
REMARK SMILES IDX 22 13 24 14 27 15 28 16 29 17 30 18 12 19 11 20 10 21 13 22
REMARK SMILES IDX 31 23 25 24 26 25 19 26 2 27 3 28 1 29 8 30 9 31 23 33
REMARK H PARENT 9 32 23 34
REMARK Flexibility Score: inf
ROOT
ATOM      1  C   UNL     1     -12.205  39.744  -2.377  1.00  0.00     0.018 C 
ATOM      2  C   UNL     1     -11.490  40.584  -3.447  1.00  0.00     0.009 C 
ATOM      3  C   UNL     1     -10.759  39.605  -4.372  1.00  0.00     0.010 C 
ATOM      4  C   UNL     1     -10.912  38.183  -3.769  1.00  0.00    -0.003 C 
ATOM      5  C   UNL     1     -11.413  38.413  -2.310  1.00  0.00     0.008 C 
ATOM      6  C   UNL     1     -10.275  38.322  -1.214  1.00  0.00    -0.000 C 
ATOM      7  C   UNL     1      -9.344  39.525  -1.170  1.00  0.00     0.005 C 
ATOM      8  C   UNL     1      -8.457  39.494   0.071  1.00  0.00     0.005 C 
ATOM      9  C   UNL     1      -7.856  38.103   0.505  1.00  0.00     0.002 C 
ATOM     10  C   UNL     1      -6.399  38.289   1.156  1.00  0.00    -0.026 C 
ATOM     11  C   UNL     1      -6.397  39.466   2.198  1.00  0.00     0.010 C 
ATOM     12  C   UNL     1      -4.994  39.862   2.690  1.00  0.00     0.033 C 
ATOM     13  C   UNL     1      -4.051  40.205   1.526  1.00  0.00     0.120 C 
ATOM     14  C   UNL     1      -3.921  39.054   0.475  1.00  0.00    -0.006 C 
ATOM     15  C   UNL     1      -5.374  38.629   0.005  1.00  0.00     0.003 C 
ATOM     16  C   UNL     1      -5.424  37.590  -1.144  1.00  0.00     0.005 C 
ATOM     17  C   UNL     1      -6.851  37.409  -1.721  1.00  0.00     0.008 C 
ATOM     18  C   UNL     1      -7.949  37.023  -0.663  1.00  0.00    -0.024 C 
ATOM     19  C   UNL     1      -9.484  36.946  -1.250  1.00  0.00    -0.024 C 
ATOM     20  C   UNL     1      -9.514  36.337  -2.700  1.00  0.00     0.008 C 
ATOM     21  C   UNL     1      -9.568  37.400  -3.805  1.00  0.00     0.010 C 
ATOM     22  C   UNL     1     -10.357  35.984  -0.363  1.00  0.00     0.012 C 
ATOM     23  C   UNL     1      -7.582  35.575  -0.181  1.00  0.00     0.012 C 
ATOM     24  C   UNL     1      -3.129  39.625  -0.733  1.00  0.00     0.014 C 
ATOM     25  C   UNL     1      -3.083  37.879   1.045  1.00  0.00     0.014 C 
ATOM     26  C   UNL     1      -6.016  37.004   1.966  1.00  0.00     0.012 C 
ENDROOT
BRANCH   1  27
ATOM     27  C   UNL     1     -12.523  40.418  -1.038  1.00  0.00    -0.077 C 
ATOM     28  C   UNL     1     -12.230  41.887  -0.862  1.00  0.00     0.039 C 
ATOM     29  C   UNL     1     -12.883  39.722   0.056  1.00  0.00     0.008 C 
ENDBRANCH   1  27
BRANCH   4  30
ATOM     30  C   UNL     1     -11.962  37.371  -4.598  1.00  0.00     0.163 C 
BRANCH  30  31
ATOM     31  O   UNL     1     -11.354  36.408  -5.415  1.00  0.00    -0.396 OA
ATOM     32  H   UNL     1     -10.393  36.398  -5.165  1.00  0.00     0.210 HD
ENDBRANCH  30  31
ENDBRANCH   4  30
BRANCH  13  33
ATOM     33  O   UNL     1      -2.785  40.545   2.038  1.00  0.00    -0.393 OA
ATOM     34  H   UNL     1      -2.805  41.516   2.242  1.00  0.00     0.210 HD
ENDBRANCH  13  33
TORSDOF 4
ENDMDL
MODEL 8
REMARK VINA RESULT:    -5.866      7.654     10.914
REMARK INTER + INTRA:          -7.492
REMARK INTER:                  -6.930
REMARK INTRA:                  -0.563
REMARK UNBOUND:                -0.597
REMARK SMILES C=C(C)[C@H]1CC[C@@]2(CO)CC[C@]3(C)[C@@H](CC[C@@H]4[C@]5(C)CC[C@@H](O)C(C)(C)[C@H]5CC[C@@]43C)[C@@H]12
REMARK SMILES IDX 4 1 5 2 6 3 7 4 32 5 14 6 15 7 16 8 17 9 18 10 20 11 21 12
REMARK SMILES IDX 22 13 24 14 27 15 28 16 29 17 30 18 12 19 11 20 10 21 13 22
REMARK SMILES IDX 31 23 25 24 26 25 19 26 2 27 3 28 1 29 8 30 9 31 23 33
REMARK H PARENT 9 32 23 34
REMARK Flexibility Score: inf
ROOT
ATOM      1  C   UNL     1      -8.507  38.062  -3.754  1.00  0.00     0.018 C 
ATOM      2  C   UNL     1      -7.724  39.357  -3.490  1.00  0.00     0.009 C 
ATOM      3  C   UNL     1      -6.567  38.999  -2.551  1.00  0.00     0.010 C 
ATOM      4  C   UNL     1      -6.742  37.515  -2.130  1.00  0.00    -0.003 C 
ATOM      5  C   UNL     1      -8.203  37.149  -2.539  1.00  0.00     0.008 C 
ATOM      6  C   UNL     1      -9.239  37.195  -1.343  1.00  0.00    -0.000 C 
ATOM      7  C   UNL     1      -9.629  38.598  -0.900  1.00  0.00     0.005 C 
ATOM      8  C   UNL     1     -10.819  38.566   0.054  1.00  0.00     0.005 C 
ATOM      9  C   UNL     1     -10.848  37.432   1.148  1.00  0.00     0.002 C 
ATOM     10  C   UNL     1     -11.539  37.960   2.499  1.00  0.00    -0.026 C 
ATOM     11  C   UNL     1     -12.871  38.733   2.183  1.00  0.00     0.010 C 
ATOM     12  C   UNL     1     -13.467  39.471   3.394  1.00  0.00     0.033 C 
ATOM     13  C   UNL     1     -12.456  40.433   4.038  1.00  0.00     0.120 C 
ATOM     14  C   UNL     1     -11.124  39.733   4.467  1.00  0.00    -0.006 C 
ATOM     15  C   UNL     1     -10.540  38.946   3.222  1.00  0.00     0.003 C 
ATOM     16  C   UNL     1      -9.144  38.307   3.434  1.00  0.00     0.005 C 
ATOM     17  C   UNL     1      -8.526  37.774   2.116  1.00  0.00     0.008 C 
ATOM     18  C   UNL     1      -9.422  36.746   1.333  1.00  0.00    -0.024 C 
ATOM     19  C   UNL     1      -8.823  36.268  -0.122  1.00  0.00    -0.024 C 
ATOM     20  C   UNL     1      -7.260  36.100  -0.073  1.00  0.00     0.008 C 
ATOM     21  C   UNL     1      -6.500  37.321  -0.606  1.00  0.00     0.010 C 
ATOM     22  C   UNL     1      -9.395  34.855  -0.509  1.00  0.00     0.012 C 
ATOM     23  C   UNL     1      -9.479  35.462   2.235  1.00  0.00     0.012 C 
ATOM     24  C   UNL     1     -10.133  40.855   4.886  1.00  0.00     0.014 C 
ATOM     25  C   UNL     1     -11.347  38.843   5.718  1.00  0.00     0.014 C 
ATOM     26  C   UNL     1     -11.956  36.741   3.389  1.00  0.00     0.012 C 
ENDROOT
BRANCH   1  27
ATOM     27  C   UNL     1      -9.978  38.190  -4.161  1.00  0.00    -0.077 C 
ATOM     28  C   UNL     1     -10.696  36.989  -4.727  1.00  0.00     0.039 C 
ATOM     29  C   UNL     1     -10.617  39.373  -4.211  1.00  0.00     0.008 C 
ENDBRANCH   1  27
BRANCH   4  30
ATOM     30  C   UNL     1      -5.709  36.626  -2.898  1.00  0.00     0.163 C 
BRANCH  30  31
ATOM     31  O   UNL     1      -4.408  36.788  -2.401  1.00  0.00    -0.396 OA
ATOM     32  H   UNL     1      -4.485  36.778  -1.411  1.00  0.00     0.210 HD
ENDBRANCH  30  31
ENDBRANCH   4  30
BRANCH  13  33
ATOM     33  O   UNL     1     -13.055  41.065   5.144  1.00  0.00    -0.393 OA
ATOM     34  H   UNL     1     -13.440  40.348   5.714  1.00  0.00     0.210 HD
ENDBRANCH  13  33
TORSDOF 4
ENDMDL
MODEL 9
REMARK VINA RESULT:    -5.720      9.728     12.836
REMARK INTER + INTRA:          -7.320
REMARK INTER:                  -6.945
REMARK INTRA:                  -0.375
REMARK UNBOUND:                -0.597
REMARK SMILES C=C(C)[C@H]1CC[C@@]2(CO)CC[C@]3(C)[C@@H](CC[C@@H]4[C@]5(C)CC[C@@H](O)C(C)(C)[C@H]5CC[C@@]43C)[C@@H]12
REMARK SMILES IDX 4 1 5 2 6 3 7 4 32 5 14 6 15 7 16 8 17 9 18 10 20 11 21 12
REMARK SMILES IDX 22 13 24 14 27 15 28 16 29 17 30 18 12 19 11 20 10 21 13 22
REMARK SMILES IDX 31 23 25 24 26 25 19 26 2 27 3 28 1 29 8 30 9 31 23 33
REMARK H PARENT 9 32 23 34
REMARK Flexibility Score: inf
ROOT
ATOM      1  C   UNL     1      -7.206  36.177  -0.534  1.00  0.00     0.018 C 
ATOM      2  C   UNL     1      -7.471  36.621   0.913  1.00  0.00     0.009 C 
ATOM      3  C   UNL     1      -8.960  36.387   1.189  1.00  0.00     0.010 C 
ATOM      4  C   UNL     1      -9.623  35.943  -0.141  1.00  0.00    -0.003 C 
ATOM      5  C   UNL     1      -8.578  36.286  -1.248  1.00  0.00     0.008 C 
ATOM      6  C   UNL     1      -8.870  37.639  -2.017  1.00  0.00    -0.000 C 
ATOM      7  C   UNL     1      -8.558  38.897  -1.220  1.00  0.00     0.005 C 
ATOM      8  C   UNL     1      -8.603  40.138  -2.105  1.00  0.00     0.005 C 
ATOM      9  C   UNL     1      -9.755  40.231  -3.175  1.00  0.00     0.002 C 
ATOM     10  C   UNL     1     -10.221  41.755  -3.381  1.00  0.00    -0.026 C 
ATOM     11  C   UNL     1      -8.977  42.706  -3.532  1.00  0.00     0.010 C 
ATOM     12  C   UNL     1      -9.328  44.204  -3.495  1.00  0.00     0.033 C 
ATOM     13  C   UNL     1     -10.112  44.581  -2.228  1.00  0.00     0.120 C 
ATOM     14  C   UNL     1     -11.419  43.742  -2.037  1.00  0.00    -0.006 C 
ATOM     15  C   UNL     1     -11.050  42.203  -2.115  1.00  0.00     0.003 C 
ATOM     16  C   UNL     1     -12.212  41.224  -1.805  1.00  0.00     0.005 C 
ATOM     17  C   UNL     1     -11.731  39.759  -1.652  1.00  0.00     0.008 C 
ATOM     18  C   UNL     1     -10.928  39.194  -2.880  1.00  0.00    -0.024 C 
ATOM     19  C   UNL     1     -10.315  37.681  -2.675  1.00  0.00    -0.024 C 
ATOM     20  C   UNL     1     -11.308  36.764  -1.871  1.00  0.00     0.008 C 
ATOM     21  C   UNL     1     -10.977  36.673  -0.376  1.00  0.00     0.010 C 
ATOM     22  C   UNL     1     -10.117  36.980  -4.068  1.00  0.00     0.012 C 
ATOM     23  C   UNL     1     -11.965  39.099  -4.056  1.00  0.00     0.012 C 
ATOM     24  C   UNL     1     -11.973  44.075  -0.624  1.00  0.00     0.014 C 
ATOM     25  C   UNL     1     -12.506  44.174  -3.057  1.00  0.00     0.014 C 
ATOM     26  C   UNL     1     -11.021  41.887  -4.722  1.00  0.00     0.012 C 
ENDROOT
BRANCH   1  27
ATOM     27  C   UNL     1      -6.008  36.796  -1.260  1.00  0.00    -0.077 C 
ATOM     28  C   UNL     1      -5.073  37.705  -0.503  1.00  0.00     0.039 C 
ATOM     29  C   UNL     1      -5.847  36.715  -2.594  1.00  0.00     0.008 C 
ENDBRANCH   1  27
BRANCH   4  30
ATOM     30  C   UNL     1      -9.907  34.405  -0.099  1.00  0.00     0.163 C 
BRANCH  30  31
ATOM     31  O   UNL     1      -9.872  33.830  -1.377  1.00  0.00    -0.396 OA
ATOM     32  H   UNL     1     -10.624  33.184  -1.412  1.00  0.00     0.210 HD
ENDBRANCH  30  31
ENDBRANCH   4  30
BRANCH  13  33
ATOM     33  O   UNL     1     -10.414  45.956  -2.261  1.00  0.00    -0.393 OA
ATOM     34  H   UNL     1     -10.622  46.185  -3.204  1.00  0.00     0.210 HD
ENDBRANCH  13  33
TORSDOF 4
ENDMDL
