MODEL 1
REMARK VINA RESULT:    -4.392      0.000      0.000
REMARK INTER + INTRA:          -6.280
REMARK INTER:                  -6.189
REMARK INTRA:                  -0.092
REMARK UNBOUND:                -0.092
REMARK SMILES CC1=CCC(=C(C)C)C(=O)CC(C)=CCC1
REMARK SMILES IDX 12 1 14 2 13 3 15 4 16 5 2 6 1 7 3 8 11 10 9 11 10 12 5 13
REMARK SMILES IDX 6 14 7 15 8 16 4 17
REMARK H PARENT
REMARK Flexibility Score: 60.00
ROOT
ATOM      1  C   UNL     1      14.220 -20.070 -19.982  1.00  0.00    -0.070 C 
ATOM      2  C   UNL     1      15.156 -20.689 -20.739  1.00  0.00    -0.027 C 
ATOM      3  C   UNL     1      14.619 -19.600 -18.607  1.00  0.00     0.039 C 
ENDROOT
BRANCH   2   4
ATOM      4  C   UNL     1      14.892 -21.349 -22.068  1.00  0.00     0.032 C 
BRANCH   4   5
ATOM      5  C   UNL     1      15.051 -20.326 -23.199  1.00  0.00     0.034 C 
BRANCH   5   6
ATOM      6  C   UNL     1      13.977 -20.462 -24.259  1.00  0.00    -0.077 C 
ATOM      7  C   UNL     1      13.972 -21.694 -25.130  1.00  0.00     0.039 C 
ATOM      8  C   UNL     1      12.971 -19.568 -24.425  1.00  0.00    -0.023 CG0
ATOM      9  G   UNL     1      12.792 -18.237 -23.719  1.00  0.00     0.000 G0
ENDBRANCH   5   6
ENDBRANCH   4   5
ENDBRANCH   2   4
BRANCH   1  10
ATOM     10  C   UNL     1      12.804 -19.810 -20.453  1.00  0.00     0.111 C 
BRANCH  10  11
ATOM     11  C   UNL     1      12.673 -18.465 -21.127  1.00  0.00     0.163 C 
ATOM     12  O   UNL     1      13.216 -17.481 -20.554  1.00  0.00    -0.294 OA
BRANCH  11  13
ATOM     13  C   UNL     1      11.961 -18.250 -22.431  1.00  0.00    -0.002 C 
ATOM     14  C   UNL     1      10.635 -17.913 -22.452  1.00  0.00    -0.069 C 
ATOM     15  C   UNL     1       9.943 -17.462 -23.719  1.00  0.00     0.039 C 
ATOM     16  C   UNL     1       9.772 -18.020 -21.214  1.00  0.00     0.039 C 
BRANCH  13  17
ATOM     17  C   UNL     1      12.799 -18.239 -23.705  1.00  0.00     0.066 CG0
ATOM     18  G   UNL     1      12.948 -19.566 -24.427  1.00  0.00     0.000 G0
ENDBRANCH  13  17
ENDBRANCH  11  13
ENDBRANCH  10  11
ENDBRANCH   1  10
TORSDOF 0
ENDMDL
MODEL 2
REMARK VINA RESULT:    -4.342      3.047      5.462
REMARK INTER + INTRA:          -6.211
REMARK INTER:                  -6.078
REMARK INTRA:                  -0.133
REMARK UNBOUND:                -0.092
REMARK SMILES CC1=CCC(=C(C)C)C(=O)CC(C)=CCC1
REMARK SMILES IDX 12 1 14 2 13 3 15 4 16 5 2 6 1 7 3 8 11 10 9 11 10 12 5 13
REMARK SMILES IDX 6 14 7 15 8 16 4 17
REMARK H PARENT
REMARK Flexibility Score: 60.00
ROOT
ATOM      1  C   UNL     1      13.731 -18.361 -19.425  1.00  0.00    -0.070 C 
ATOM      2  C   UNL     1      14.570 -17.517 -18.781  1.00  0.00    -0.027 C 
ATOM      3  C   UNL     1      12.320 -17.898 -19.682  1.00  0.00     0.039 C 
ENDROOT
BRANCH   2   4
ATOM      4  C   UNL     1      15.959 -17.871 -18.315  1.00  0.00     0.032 C 
BRANCH   4   5
ATOM      5  C   UNL     1      16.998 -17.125 -19.159  1.00  0.00     0.034 C 
BRANCH   5   6
ATOM      6  C   UNL     1      18.120 -18.028 -19.631  1.00  0.00    -0.077 C 
ATOM      7  C   UNL     1      19.352 -18.161 -18.772  1.00  0.00     0.039 C 
ATOM      8  C   UNL     1      18.049 -18.785 -20.755  1.00  0.00    -0.023 CG0
ATOM      9  G   UNL     1      16.951 -18.783 -21.803  1.00  0.00     0.000 G0
ENDBRANCH   5   6
ENDBRANCH   4   5
ENDBRANCH   2   4
BRANCH   1  10
ATOM     10  C   UNL     1      14.143 -19.734 -19.917  1.00  0.00     0.111 C 
BRANCH  10  11
ATOM     11  C   UNL     1      14.575 -19.708 -21.363  1.00  0.00     0.163 C 
ATOM     12  O   UNL     1      13.692 -19.429 -22.221  1.00  0.00    -0.294 OA
BRANCH  11  13
ATOM     13  C   UNL     1      15.980 -19.971 -21.821  1.00  0.00    -0.002 C 
ATOM     14  C   UNL     1      16.323 -21.184 -22.355  1.00  0.00    -0.069 C 
ATOM     15  C   UNL     1      17.653 -21.412 -23.036  1.00  0.00     0.039 C 
ATOM     16  C   UNL     1      15.405 -22.381 -22.248  1.00  0.00     0.039 C 
BRANCH  13  17
ATOM     17  C   UNL     1      16.954 -18.797 -21.840  1.00  0.00     0.066 CG0
ATOM     18  G   UNL     1      18.029 -18.794 -20.769  1.00  0.00     0.000 G0
ENDBRANCH  13  17
ENDBRANCH  11  13
ENDBRANCH  10  11
ENDBRANCH   1  10
TORSDOF 0
ENDMDL
MODEL 3
REMARK VINA RESULT:    -4.209      2.552      4.651
REMARK INTER + INTRA:          -6.023
REMARK INTER:                  -6.237
REMARK INTRA:                   0.213
REMARK UNBOUND:                -0.092
REMARK SMILES CC1=CCC(=C(C)C)C(=O)CC(C)=CCC1
REMARK SMILES IDX 12 1 14 2 13 3 15 4 16 5 2 6 1 7 3 8 11 10 9 11 10 12 5 13
REMARK SMILES IDX 6 14 7 15 8 16 4 17
REMARK H PARENT
REMARK Flexibility Score: 60.00
ROOT
ATOM      1  C   UNL     1       8.778 -18.610 -23.387  1.00  0.00    -0.070 C 
ATOM      2  C   UNL     1       9.385 -18.617 -24.596  1.00  0.00    -0.027 C 
ATOM      3  C   UNL     1       7.672 -19.605 -23.143  1.00  0.00     0.039 C 
ENDROOT
BRANCH   2   4
ATOM      4  C   UNL     1      10.400 -17.603 -25.058  1.00  0.00     0.032 C 
BRANCH   4   5
ATOM      5  C   UNL     1      11.809 -18.200 -24.976  1.00  0.00     0.034 C 
BRANCH   5   6
ATOM      6  C   UNL     1      12.739 -17.376 -24.108  1.00  0.00    -0.077 C 
ATOM      7  C   UNL     1      13.492 -16.231 -24.739  1.00  0.00     0.039 C 
ATOM      8  C   UNL     1      12.880 -17.565 -22.773  1.00  0.00    -0.023 CG0
ATOM      9  G   UNL     1      12.281 -18.673 -21.927  1.00  0.00     0.000 G0
ENDBRANCH   5   6
ENDBRANCH   4   5
ENDBRANCH   2   4
BRANCH   1  10
ATOM     10  C   UNL     1       9.165 -17.669 -22.264  1.00  0.00     0.111 C 
BRANCH  10  11
ATOM     11  C   UNL     1       9.848 -18.395 -21.131  1.00  0.00     0.163 C 
ATOM     12  O   UNL     1       9.129 -19.142 -20.411  1.00  0.00    -0.294 OA
BRANCH  11  13
ATOM     13  C   UNL     1      11.317 -18.292 -20.837  1.00  0.00    -0.002 C 
ATOM     14  C   UNL     1      11.755 -18.003 -19.574  1.00  0.00    -0.069 C 
ATOM     15  C   UNL     1      13.211 -18.118 -19.185  1.00  0.00     0.039 C 
ATOM     16  C   UNL     1      10.810 -17.501 -18.505  1.00  0.00     0.039 C 
BRANCH  13  17
ATOM     17  C   UNL     1      12.292 -18.698 -21.937  1.00  0.00     0.066 CG0
ATOM     18  G   UNL     1      12.874 -17.572 -22.772  1.00  0.00     0.000 G0
ENDBRANCH  13  17
ENDBRANCH  11  13
ENDBRANCH  10  11
ENDBRANCH   1  10
TORSDOF 0
ENDMDL
MODEL 4
REMARK VINA RESULT:    -4.145      2.188      4.515
REMARK INTER + INTRA:          -5.933
REMARK INTER:                  -5.796
REMARK INTRA:                  -0.136
REMARK UNBOUND:                -0.092
REMARK SMILES CC1=CCC(=C(C)C)C(=O)CC(C)=CCC1
REMARK SMILES IDX 12 1 14 2 13 3 15 4 16 5 2 6 1 7 3 8 11 10 9 11 10 12 5 13
REMARK SMILES IDX 6 14 7 15 8 16 4 17
REMARK H PARENT
REMARK Flexibility Score: 60.00
ROOT
ATOM      1  C   UNL     1       9.666 -18.303 -21.241  1.00  0.00    -0.070 C 
ATOM      2  C   UNL     1       9.287 -17.839 -22.455  1.00  0.00    -0.027 C 
ATOM      3  C   UNL     1       8.804 -19.348 -20.581  1.00  0.00     0.039 C 
ENDROOT
BRANCH   2   4
ATOM      4  C   UNL     1       9.945 -16.697 -23.186  1.00  0.00     0.032 C 
BRANCH   4   5
ATOM      5  C   UNL     1      10.864 -17.242 -24.285  1.00  0.00     0.034 C 
BRANCH   5   6
ATOM      6  C   UNL     1      12.189 -16.510 -24.350  1.00  0.00    -0.077 C 
ATOM      7  C   UNL     1      12.254 -15.197 -25.090  1.00  0.00     0.039 C 
ATOM      8  C   UNL     1      13.310 -16.933 -23.715  1.00  0.00    -0.023 CG0
ATOM      9  G   UNL     1      13.511 -18.236 -22.963  1.00  0.00     0.000 G0
ENDBRANCH   5   6
ENDBRANCH   4   5
ENDBRANCH   2   4
BRANCH   1  10
ATOM     10  C   UNL     1      10.920 -17.841 -20.526  1.00  0.00     0.111 C 
BRANCH  10  11
ATOM     11  C   UNL     1      12.107 -18.716 -20.849  1.00  0.00     0.163 C 
ATOM     12  O   UNL     1      11.995 -19.948 -20.603  1.00  0.00    -0.294 OA
BRANCH  11  13
ATOM     13  C   UNL     1      13.381 -18.204 -21.456  1.00  0.00    -0.002 C 
ATOM     14  C   UNL     1      14.441 -17.859 -20.662  1.00  0.00    -0.069 C 
ATOM     15  C   UNL     1      15.808 -17.564 -21.235  1.00  0.00     0.039 C 
ATOM     16  C   UNL     1      14.289 -17.704 -19.165  1.00  0.00     0.039 C 
BRANCH  13  17
ATOM     17  C   UNL     1      13.516 -18.256 -22.974  1.00  0.00     0.066 CG0
ATOM     18  G   UNL     1      13.315 -16.947 -23.715  1.00  0.00     0.000 G0
ENDBRANCH  13  17
ENDBRANCH  11  13
ENDBRANCH  10  11
ENDBRANCH   1  10
TORSDOF 0
ENDMDL
MODEL 5
REMARK VINA RESULT:    -4.047      2.439      4.660
REMARK INTER + INTRA:          -5.795
REMARK INTER:                  -6.034
REMARK INTRA:                   0.239
REMARK UNBOUND:                -0.092
REMARK SMILES CC1=CCC(=C(C)C)C(=O)CC(C)=CCC1
REMARK SMILES IDX 12 1 14 2 13 3 15 4 16 5 2 6 1 7 3 8 11 10 9 11 10 12 5 13
REMARK SMILES IDX 6 14 7 15 8 16 4 17
REMARK H PARENT
REMARK Flexibility Score: 60.00
ROOT
ATOM      1  C   UNL     1       9.335 -18.139 -21.977  1.00  0.00    -0.070 C 
ATOM      2  C   UNL     1       9.668 -18.564 -20.737  1.00  0.00    -0.027 C 
ATOM      3  C   UNL     1       8.176 -18.810 -22.668  1.00  0.00     0.039 C 
ENDROOT
BRANCH   2   4
ATOM      4  C   UNL     1      10.882 -18.110 -19.967  1.00  0.00     0.032 C 
BRANCH   4   5
ATOM      5  C   UNL     1      12.105 -18.933 -20.388  1.00  0.00     0.034 C 
BRANCH   5   6
ATOM      6  C   UNL     1      13.365 -18.097 -20.474  1.00  0.00    -0.077 C 
ATOM      7  C   UNL     1      14.011 -17.628 -19.194  1.00  0.00     0.039 C 
ATOM      8  C   UNL     1      13.991 -17.803 -21.641  1.00  0.00    -0.023 CG0
ATOM      9  G   UNL     1      13.512 -18.109 -23.048  1.00  0.00     0.000 G0
ENDBRANCH   5   6
ENDBRANCH   4   5
ENDBRANCH   2   4
BRANCH   1  10
ATOM     10  C   UNL     1      10.051 -17.013 -22.694  1.00  0.00     0.111 C 
BRANCH  10  11
ATOM     11  C   UNL     1      11.075 -17.532 -23.676  1.00  0.00     0.163 C 
ATOM     12  O   UNL     1      10.667 -18.339 -24.556  1.00  0.00    -0.294 OA
BRANCH  11  13
ATOM     13  C   UNL     1      12.519 -17.124 -23.670  1.00  0.00    -0.002 C 
ATOM     14  C   UNL     1      12.888 -15.863 -24.051  1.00  0.00    -0.069 C 
ATOM     15  C   UNL     1      14.291 -15.340 -23.841  1.00  0.00     0.039 C 
ATOM     16  C   UNL     1      11.921 -14.935 -24.753  1.00  0.00     0.039 C 
BRANCH  13  17
ATOM     17  C   UNL     1      13.529 -18.090 -23.059  1.00  0.00     0.066 CG0
ATOM     18  G   UNL     1      13.982 -17.785 -21.643  1.00  0.00     0.000 G0
ENDBRANCH  13  17
ENDBRANCH  11  13
ENDBRANCH  10  11
ENDBRANCH   1  10
TORSDOF 0
ENDMDL
MODEL 6
REMARK VINA RESULT:    -3.915      2.073      3.972
REMARK INTER + INTRA:          -5.609
REMARK INTER:                  -5.446
REMARK INTRA:                  -0.163
REMARK UNBOUND:                -0.092
REMARK SMILES CC1=CCC(=C(C)C)C(=O)CC(C)=CCC1
REMARK SMILES IDX 12 1 14 2 13 3 15 4 16 5 2 6 1 7 3 8 11 10 9 11 10 12 5 13
REMARK SMILES IDX 6 14 7 15 8 16 4 17
REMARK H PARENT
REMARK Flexibility Score: 60.00
ROOT
ATOM      1  C   UNL     1      15.432 -22.293 -23.573  1.00  0.00    -0.070 C 
ATOM      2  C   UNL     1      14.792 -21.901 -24.698  1.00  0.00    -0.027 C 
ATOM      3  C   UNL     1      16.608 -23.226 -23.715  1.00  0.00     0.039 C 
ENDROOT
BRANCH   2   4
ATOM      4  C   UNL     1      13.518 -21.096 -24.730  1.00  0.00     0.032 C 
BRANCH   4   5
ATOM      5  C   UNL     1      13.824 -19.650 -25.137  1.00  0.00     0.034 C 
BRANCH   5   6
ATOM      6  C   UNL     1      13.014 -18.641 -24.350  1.00  0.00    -0.077 C 
ATOM      7  C   UNL     1      11.624 -18.299 -24.828  1.00  0.00     0.039 C 
ATOM      8  C   UNL     1      13.440 -18.076 -23.193  1.00  0.00    -0.023 CG0
ATOM      9  G   UNL     1      14.805 -18.215 -22.546  1.00  0.00     0.000 G0
ENDBRANCH   5   6
ENDBRANCH   4   5
ENDBRANCH   2   4
BRANCH   1  10
ATOM     10  C   UNL     1      15.042 -21.828 -22.185  1.00  0.00     0.111 C 
BRANCH  10  11
ATOM     11  C   UNL     1      15.708 -20.523 -21.819  1.00  0.00     0.163 C 
ATOM     12  O   UNL     1      16.969 -20.495 -21.850  1.00  0.00    -0.294 OA
BRANCH  11  13
ATOM     13  C   UNL     1      14.958 -19.277 -21.451  1.00  0.00    -0.002 C 
ATOM     14  C   UNL     1      14.569 -19.055 -20.158  1.00  0.00    -0.069 C 
ATOM     15  C   UNL     1      14.023 -17.721 -19.702  1.00  0.00     0.039 C 
ATOM     16  C   UNL     1      14.617 -20.154 -19.119  1.00  0.00     0.039 C 
BRANCH  13  17
ATOM     17  C   UNL     1      14.808 -18.195 -22.515  1.00  0.00     0.066 CG0
ATOM     18  G   UNL     1      13.444 -18.076 -23.170  1.00  0.00     0.000 G0
ENDBRANCH  13  17
ENDBRANCH  11  13
ENDBRANCH  10  11
ENDBRANCH   1  10
TORSDOF 0
ENDMDL
MODEL 7
REMARK VINA RESULT:    -3.895      1.962      4.058
REMARK INTER + INTRA:          -5.581
REMARK INTER:                  -5.404
REMARK INTRA:                  -0.177
REMARK UNBOUND:                -0.092
REMARK SMILES CC1=CCC(=C(C)C)C(=O)CC(C)=CCC1
REMARK SMILES IDX 12 1 14 2 13 3 15 4 16 5 2 6 1 7 3 8 11 10 9 11 10 12 5 13
REMARK SMILES IDX 6 14 7 15 8 16 4 17
REMARK H PARENT
REMARK Flexibility Score: 60.00
ROOT
ATOM      1  C   UNL     1      15.284 -21.354 -22.915  1.00  0.00    -0.070 C 
ATOM      2  C   UNL     1      15.232 -21.583 -21.583  1.00  0.00    -0.027 C 
ATOM      3  C   UNL     1      15.320 -22.545 -23.838  1.00  0.00     0.039 C 
ENDROOT
BRANCH   2   4
ATOM      4  C   UNL     1      15.338 -20.520 -20.519  1.00  0.00     0.032 C 
BRANCH   4   5
ATOM      5  C   UNL     1      13.937 -20.102 -20.058  1.00  0.00     0.034 C 
BRANCH   5   6
ATOM      6  C   UNL     1      13.821 -18.609 -19.833  1.00  0.00    -0.077 C 
ATOM      7  C   UNL     1      14.423 -18.017 -18.583  1.00  0.00     0.039 C 
ATOM      8  C   UNL     1      13.267 -17.756 -20.731  1.00  0.00    -0.023 CG0
ATOM      9  G   UNL     1      12.552 -18.111 -22.022  1.00  0.00     0.000 G0
ENDBRANCH   5   6
ENDBRANCH   4   5
ENDBRANCH   2   4
BRANCH   1  10
ATOM     10  C   UNL     1      15.287 -19.967 -23.523  1.00  0.00     0.111 C 
BRANCH  10  11
ATOM     11  C   UNL     1      13.888 -19.460 -23.779  1.00  0.00     0.163 C 
ATOM     12  O   UNL     1      13.109 -20.224 -24.413  1.00  0.00    -0.294 OA
BRANCH  11  13
ATOM     13  C   UNL     1      13.382 -18.128 -23.307  1.00  0.00    -0.002 C 
ATOM     14  C   UNL     1      13.533 -17.011 -24.083  1.00  0.00    -0.069 C 
ATOM     15  C   UNL     1      12.840 -15.708 -23.755  1.00  0.00     0.039 C 
ATOM     16  C   UNL     1      14.447 -17.005 -25.289  1.00  0.00     0.039 C 
BRANCH  13  17
ATOM     17  C   UNL     1      12.542 -18.097 -22.035  1.00  0.00     0.066 CG0
ATOM     18  G   UNL     1      13.276 -17.762 -20.749  1.00  0.00     0.000 G0
ENDBRANCH  13  17
ENDBRANCH  11  13
ENDBRANCH  10  11
ENDBRANCH   1  10
TORSDOF 0
ENDMDL
MODEL 8
REMARK VINA RESULT:    -3.889      2.567      4.631
REMARK INTER + INTRA:          -5.572
REMARK INTER:                  -5.449
REMARK INTRA:                  -0.123
REMARK UNBOUND:                -0.092
REMARK SMILES CC1=CCC(=C(C)C)C(=O)CC(C)=CCC1
REMARK SMILES IDX 12 1 14 2 13 3 15 4 16 5 2 6 1 7 3 8 11 10 9 11 10 12 5 13
REMARK SMILES IDX 6 14 7 15 8 16 4 17
REMARK H PARENT
REMARK Flexibility Score: 60.00
ROOT
ATOM      1  C   UNL     1      17.268 -17.929 -19.685  1.00  0.00    -0.070 C 
ATOM      2  C   UNL     1      16.493 -17.850 -18.579  1.00  0.00    -0.027 C 
ATOM      3  C   UNL     1      18.749 -18.137 -19.499  1.00  0.00     0.039 C 
ENDROOT
BRANCH   2   4
ATOM      4  C   UNL     1      15.027 -17.499 -18.576  1.00  0.00     0.032 C 
BRANCH   4   5
ATOM      5  C   UNL     1      14.186 -18.772 -18.723  1.00  0.00     0.034 C 
BRANCH   5   6
ATOM      6  C   UNL     1      13.003 -18.581 -19.651  1.00  0.00    -0.077 C 
ATOM      7  C   UNL     1      11.871 -17.690 -19.206  1.00  0.00     0.039 C 
ATOM      8  C   UNL     1      12.935 -19.112 -20.897  1.00  0.00    -0.023 CG0
ATOM      9  G   UNL     1      13.911 -20.079 -21.544  1.00  0.00     0.000 G0
ENDBRANCH   5   6
ENDBRANCH   4   5
ENDBRANCH   2   4
BRANCH   1  10
ATOM     10  C   UNL     1      16.722 -17.838 -21.095  1.00  0.00     0.111 C 
BRANCH  10  11
ATOM     11  C   UNL     1      16.336 -19.193 -21.638  1.00  0.00     0.163 C 
ATOM     12  O   UNL     1      17.148 -20.140 -21.444  1.00  0.00    -0.294 OA
BRANCH  11  13
ATOM     13  C   UNL     1      15.051 -19.468 -22.363  1.00  0.00    -0.002 C 
ATOM     14  C   UNL     1      14.973 -19.323 -23.721  1.00  0.00    -0.069 C 
ATOM     15  C   UNL     1      13.780 -19.808 -24.512  1.00  0.00     0.039 C 
ATOM     16  C   UNL     1      16.061 -18.621 -24.504  1.00  0.00     0.039 C 
BRANCH  13  17
ATOM     17  C   UNL     1      13.904 -20.084 -21.568  1.00  0.00     0.066 CG0
ATOM     18  G   UNL     1      12.941 -19.113 -20.911  1.00  0.00     0.000 G0
ENDBRANCH  13  17
ENDBRANCH  11  13
ENDBRANCH  10  11
ENDBRANCH   1  10
TORSDOF 0
ENDMDL
MODEL 9
REMARK VINA RESULT:    -3.753      4.290      6.636
REMARK INTER + INTRA:          -5.381
REMARK INTER:                  -5.270
REMARK INTRA:                  -0.110
REMARK UNBOUND:                -0.092
REMARK SMILES CC1=CCC(=C(C)C)C(=O)CC(C)=CCC1
REMARK SMILES IDX 12 1 14 2 13 3 15 4 16 5 2 6 1 7 3 8 11 10 9 11 10 12 5 13
REMARK SMILES IDX 6 14 7 15 8 16 4 17
REMARK H PARENT
REMARK Flexibility Score: 60.00
ROOT
ATOM      1  C   UNL     1      17.626 -23.745 -22.888  1.00  0.00    -0.070 C 
ATOM      2  C   UNL     1      16.347 -23.639 -22.461  1.00  0.00    -0.027 C 
ATOM      3  C   UNL     1      18.335 -25.059 -22.680  1.00  0.00     0.039 C 
ENDROOT
BRANCH   2   4
ATOM      4  C   UNL     1      15.542 -22.364 -22.455  1.00  0.00     0.032 C 
BRANCH   4   5
ATOM      5  C   UNL     1      14.802 -22.208 -23.788  1.00  0.00     0.034 C 
BRANCH   5   6
ATOM      6  C   UNL     1      14.868 -20.793 -24.326  1.00  0.00    -0.077 C 
ATOM      7  C   UNL     1      14.113 -19.707 -23.602  1.00  0.00     0.039 C 
ATOM      8  C   UNL     1      15.631 -20.431 -25.388  1.00  0.00    -0.023 CG0
ATOM      9  G   UNL     1      16.427 -21.339 -26.307  1.00  0.00     0.000 G0
ENDBRANCH   5   6
ENDBRANCH   4   5
ENDBRANCH   2   4
BRANCH   1  10
ATOM     10  C   UNL     1      18.371 -22.622 -23.579  1.00  0.00     0.111 C 
BRANCH  10  11
ATOM     11  C   UNL     1      18.242 -22.700 -25.081  1.00  0.00     0.163 C 
ATOM     12  O   UNL     1      18.418 -23.831 -25.614  1.00  0.00    -0.294 OA
BRANCH  11  13
ATOM     13  C   UNL     1      17.899 -21.528 -25.953  1.00  0.00    -0.002 C 
ATOM     14  C   UNL     1      18.887 -20.780 -26.533  1.00  0.00    -0.069 C 
ATOM     15  C   UNL     1      18.590 -19.745 -27.594  1.00  0.00     0.039 C 
ATOM     16  C   UNL     1      20.333 -20.913 -26.107  1.00  0.00     0.039 C 
BRANCH  13  17
ATOM     17  C   UNL     1      16.433 -21.314 -26.314  1.00  0.00     0.066 CG0
ATOM     18  G   UNL     1      15.629 -20.430 -25.378  1.00  0.00     0.000 G0
ENDBRANCH  13  17
ENDBRANCH  11  13
ENDBRANCH  10  11
ENDBRANCH   1  10
TORSDOF 0
ENDMDL
