MODEL 1
REMARK VINA RESULT:    -3.441      0.000      0.000
REMARK INTER + INTRA:         -14.722
REMARK INTER:                  -9.073
REMARK INTRA:                  -5.649
REMARK UNBOUND:                -5.649
REMARK SMILES CCCCCCCCCCCCCCCCCCCCCCCCCCCCCC(=O)[O-]
REMARK SMILES IDX 16 1 17 2 18 3 19 4 20 5 21 6 22 7 23 8 24 9 25 10 26 11
REMARK SMILES IDX 27 12 28 13 29 14 30 15 31 16 32 17 15 18 14 19 13 20 12 21
REMARK SMILES IDX 11 22 10 23 9 24 8 25 7 26 6 27 5 28 4 29 3 30 2 31 1 32
REMARK H PARENT
REMARK Flexibility Score: inf
ROOT
ATOM      1  C   UNL     1     117.654  52.486  54.032  1.00  0.00     0.000 C 
ENDROOT
BRANCH   1   2
ATOM      2  C   UNL     1     118.456  53.359  55.011  1.00  0.00     0.000 C 
BRANCH   2   3
ATOM      3  C   UNL     1     119.753  53.870  54.363  1.00  0.00     0.000 C 
BRANCH   3   4
ATOM      4  C   UNL     1     119.513  54.602  53.028  1.00  0.00     0.000 C 
BRANCH   4   5
ATOM      5  C   UNL     1     120.303  54.044  51.831  1.00  0.00     0.000 C 
BRANCH   5   6
ATOM      6  C   UNL     1     119.686  54.437  50.478  1.00  0.00     0.000 C 
BRANCH   6   7
ATOM      7  C   UNL     1     120.332  55.700  49.876  1.00  0.00     0.000 C 
BRANCH   7   8
ATOM      8  C   UNL     1     119.606  57.018  50.226  1.00  0.00     0.000 C 
BRANCH   8   9
ATOM      9  C   UNL     1     120.552  58.148  50.676  1.00  0.00     0.000 C 
BRANCH   9  10
ATOM     10  C   UNL     1     122.020  57.866  50.304  1.00  0.00     0.000 C 
BRANCH  10  11
ATOM     11  C   UNL     1     123.010  58.444  51.336  1.00  0.00     0.000 C 
BRANCH  11  12
ATOM     12  C   UNL     1     124.035  57.416  51.856  1.00  0.00     0.000 C 
BRANCH  12  13
ATOM     13  C   UNL     1     123.522  55.969  51.766  1.00  0.00     0.006 C 
BRANCH  13  14
ATOM     14  C   UNL     1     123.513  55.302  53.146  1.00  0.00     0.053 C 
BRANCH  14  15
ATOM     15  C   UNL     1     123.983  53.883  53.047  1.00  0.00     0.041 C 
ATOM     16  O   UNL     1     125.009  53.602  52.371  1.00  0.00    -0.550 OA
ATOM     17  O   UNL     1     123.248  52.867  53.643  1.00  0.00    -0.550 OA
ENDBRANCH  14  15
ENDBRANCH  13  14
ENDBRANCH  12  13
ENDBRANCH  11  12
ENDBRANCH  10  11
ENDBRANCH   9  10
ENDBRANCH   8   9
ENDBRANCH   7   8
ENDBRANCH   6   7
ENDBRANCH   5   6
ENDBRANCH   4   5
ENDBRANCH   3   4
ENDBRANCH   2   3
ENDBRANCH   1   2
BRANCH   1  18
ATOM     18  C   UNL     1     116.146  52.485  54.336  1.00  0.00     0.000 C 
BRANCH  18  19
ATOM     19  C   UNL     1     115.268  53.193  53.283  1.00  0.00     0.000 C 
BRANCH  19  20
ATOM     20  C   UNL     1     116.055  53.728  52.066  1.00  0.00     0.000 C 
BRANCH  20  21
ATOM     21  C   UNL     1     115.344  53.439  50.732  1.00  0.00     0.000 C 
BRANCH  21  22
ATOM     22  C   UNL     1     116.295  53.527  49.527  1.00  0.00     0.000 C 
BRANCH  22  23
ATOM     23  C   UNL     1     115.906  52.549  48.402  1.00  0.00     0.000 C 
BRANCH  23  24
ATOM     24  C   UNL     1     114.400  52.229  48.373  1.00  0.00    -0.000 C 
BRANCH  24  25
ATOM     25  C   UNL     1     114.036  50.746  48.563  1.00  0.00    -0.000 C 
BRANCH  25  26
ATOM     26  C   UNL     1     115.151  49.933  49.243  1.00  0.00    -0.000 C 
BRANCH  26  27
ATOM     27  C   UNL     1     114.946  49.811  50.762  1.00  0.00    -0.000 C 
BRANCH  27  28
ATOM     28  C   UNL     1     116.262  49.890  51.550  1.00  0.00    -0.000 C 
BRANCH  28  29
ATOM     29  C   UNL     1     117.459  50.030  50.597  1.00  0.00    -0.000 C 
BRANCH  29  30
ATOM     30  C   UNL     1     118.656  50.741  51.249  1.00  0.00    -0.000 C 
BRANCH  30  31
ATOM     31  C   UNL     1     119.476  49.813  52.158  1.00  0.00    -0.003 C 
ATOM     32  C   UNL     1     120.659  50.556  52.775  1.00  0.00     0.004 C 
ENDBRANCH  30  31
ENDBRANCH  29  30
ENDBRANCH  28  29
ENDBRANCH  27  28
ENDBRANCH  26  27
ENDBRANCH  25  26
ENDBRANCH  24  25
ENDBRANCH  23  24
ENDBRANCH  22  23
ENDBRANCH  21  22
ENDBRANCH  20  21
ENDBRANCH  19  20
ENDBRANCH  18  19
ENDBRANCH   1  18
TORSDOF 28
ENDMDL
MODEL 2
REMARK VINA RESULT:    -3.426      3.313      5.538
REMARK INTER + INTRA:         -14.683
REMARK INTER:                  -9.389
REMARK INTRA:                  -5.294
REMARK UNBOUND:                -5.649
REMARK SMILES CCCCCCCCCCCCCCCCCCCCCCCCCCCCCC(=O)[O-]
REMARK SMILES IDX 16 1 17 2 18 3 19 4 20 5 21 6 22 7 23 8 24 9 25 10 26 11
REMARK SMILES IDX 27 12 28 13 29 14 30 15 31 16 32 17 15 18 14 19 13 20 12 21
REMARK SMILES IDX 11 22 10 23 9 24 8 25 7 26 6 27 5 28 4 29 3 30 2 31 1 32
REMARK H PARENT
REMARK Flexibility Score: inf
ROOT
ATOM      1  C   UNL     1     120.323  54.057  55.758  1.00  0.00     0.000 C 
ENDROOT
BRANCH   1   2
ATOM      2  C   UNL     1     120.882  52.660  55.443  1.00  0.00     0.000 C 
BRANCH   2   3
ATOM      3  C   UNL     1     122.288  52.750  54.829  1.00  0.00     0.000 C 
BRANCH   3   4
ATOM      4  C   UNL     1     122.606  54.142  54.253  1.00  0.00     0.000 C 
BRANCH   4   5
ATOM      5  C   UNL     1     122.743  54.197  52.721  1.00  0.00     0.000 C 
BRANCH   5   6
ATOM      6  C   UNL     1     121.468  53.735  51.994  1.00  0.00     0.000 C 
BRANCH   6   7
ATOM      7  C   UNL     1     120.345  54.789  52.039  1.00  0.00     0.000 C 
BRANCH   7   8
ATOM      8  C   UNL     1     120.367  55.796  50.868  1.00  0.00     0.000 C 
BRANCH   8   9
ATOM      9  C   UNL     1     119.142  56.729  50.827  1.00  0.00     0.000 C 
BRANCH   9  10
ATOM     10  C   UNL     1     118.800  57.186  49.396  1.00  0.00     0.000 C 
BRANCH  10  11
ATOM     11  C   UNL     1     117.475  56.582  48.886  1.00  0.00     0.000 C 
BRANCH  11  12
ATOM     12  C   UNL     1     116.225  57.371  49.326  1.00  0.00     0.000 C 
BRANCH  12  13
ATOM     13  C   UNL     1     114.921  56.582  49.120  1.00  0.00     0.006 C 
BRANCH  13  14
ATOM     14  C   UNL     1     115.186  55.268  48.375  1.00  0.00     0.053 C 
BRANCH  14  15
ATOM     15  C   UNL     1     113.930  54.456  48.281  1.00  0.00     0.041 C 
ATOM     16  O   UNL     1     113.967  53.209  48.461  1.00  0.00    -0.550 OA
ATOM     17  O   UNL     1     112.735  55.069  47.925  1.00  0.00    -0.550 OA
ENDBRANCH  14  15
ENDBRANCH  13  14
ENDBRANCH  12  13
ENDBRANCH  11  12
ENDBRANCH  10  11
ENDBRANCH   9  10
ENDBRANCH   8   9
ENDBRANCH   7   8
ENDBRANCH   6   7
ENDBRANCH   5   6
ENDBRANCH   4   5
ENDBRANCH   3   4
ENDBRANCH   2   3
ENDBRANCH   1   2
BRANCH   1  18
ATOM     18  C   UNL     1     118.789  54.120  55.651  1.00  0.00     0.000 C 
BRANCH  18  19
ATOM     19  C   UNL     1     118.171  53.196  54.581  1.00  0.00     0.000 C 
BRANCH  19  20
ATOM     20  C   UNL     1     116.900  52.455  55.051  1.00  0.00     0.000 C 
BRANCH  20  21
ATOM     21  C   UNL     1     115.953  52.117  53.885  1.00  0.00     0.000 C 
BRANCH  21  22
ATOM     22  C   UNL     1     115.240  53.360  53.326  1.00  0.00     0.000 C 
BRANCH  22  23
ATOM     23  C   UNL     1     115.390  53.483  51.799  1.00  0.00     0.000 C 
BRANCH  23  24
ATOM     24  C   UNL     1     116.760  54.041  51.369  1.00  0.00    -0.000 C 
BRANCH  24  25
ATOM     25  C   UNL     1     117.563  53.150  50.405  1.00  0.00    -0.000 C 
BRANCH  25  26
ATOM     26  C   UNL     1     118.121  51.884  51.077  1.00  0.00    -0.000 C 
BRANCH  26  27
ATOM     27  C   UNL     1     117.666  50.595  50.373  1.00  0.00    -0.000 C 
BRANCH  27  28
ATOM     28  C   UNL     1     116.453  50.811  49.456  1.00  0.00    -0.000 C 
BRANCH  28  29
ATOM     29  C   UNL     1     115.172  50.276  50.114  1.00  0.00    -0.000 C 
BRANCH  29  30
ATOM     30  C   UNL     1     115.458  49.372  51.322  1.00  0.00    -0.000 C 
BRANCH  30  31
ATOM     31  C   UNL     1     115.170  47.889  51.038  1.00  0.00    -0.003 C 
ATOM     32  C   UNL     1     116.290  47.001  51.575  1.00  0.00     0.004 C 
ENDBRANCH  30  31
ENDBRANCH  29  30
ENDBRANCH  28  29
ENDBRANCH  27  28
ENDBRANCH  26  27
ENDBRANCH  25  26
ENDBRANCH  24  25
ENDBRANCH  23  24
ENDBRANCH  22  23
ENDBRANCH  21  22
ENDBRANCH  20  21
ENDBRANCH  19  20
ENDBRANCH  18  19
ENDBRANCH   1  18
TORSDOF 28
ENDMDL
MODEL 3
REMARK VINA RESULT:    -3.402      2.353      5.412
REMARK INTER + INTRA:         -14.621
REMARK INTER:                  -7.712
REMARK INTRA:                  -6.909
REMARK UNBOUND:                -5.649
REMARK SMILES CCCCCCCCCCCCCCCCCCCCCCCCCCCCCC(=O)[O-]
REMARK SMILES IDX 16 1 17 2 18 3 19 4 20 5 21 6 22 7 23 8 24 9 25 10 26 11
REMARK SMILES IDX 27 12 28 13 29 14 30 15 31 16 32 17 15 18 14 19 13 20 12 21
REMARK SMILES IDX 11 22 10 23 9 24 8 25 7 26 6 27 5 28 4 29 3 30 2 31 1 32
REMARK H PARENT
REMARK Flexibility Score: inf
ROOT
ATOM      1  C   UNL     1     119.599  51.350  53.773  1.00  0.00     0.000 C 
ENDROOT
BRANCH   1   2
ATOM      2  C   UNL     1     119.770  51.120  52.263  1.00  0.00     0.000 C 
BRANCH   2   3
ATOM      3  C   UNL     1     120.288  52.388  51.564  1.00  0.00     0.000 C 
BRANCH   3   4
ATOM      4  C   UNL     1     120.243  52.290  50.027  1.00  0.00     0.000 C 
BRANCH   4   5
ATOM      5  C   UNL     1     121.608  52.089  49.347  1.00  0.00     0.000 C 
BRANCH   5   6
ATOM      6  C   UNL     1     122.702  53.000  49.930  1.00  0.00     0.000 C 
BRANCH   6   7
ATOM      7  C   UNL     1     123.956  52.217  50.365  1.00  0.00     0.000 C 
BRANCH   7   8
ATOM      8  C   UNL     1     123.662  50.826  50.970  1.00  0.00     0.000 C 
BRANCH   8   9
ATOM      9  C   UNL     1     123.494  50.838  52.501  1.00  0.00     0.000 C 
BRANCH   9  10
ATOM     10  C   UNL     1     124.087  52.105  53.147  1.00  0.00     0.000 C 
BRANCH  10  11
ATOM     11  C   UNL     1     123.062  52.853  54.024  1.00  0.00     0.000 C 
BRANCH  11  12
ATOM     12  C   UNL     1     122.839  54.319  53.603  1.00  0.00     0.000 C 
BRANCH  12  13
ATOM     13  C   UNL     1     124.029  54.900  52.819  1.00  0.00     0.006 C 
BRANCH  13  14
ATOM     14  C   UNL     1     123.937  56.427  52.732  1.00  0.00     0.053 C 
BRANCH  14  15
ATOM     15  C   UNL     1     124.823  56.945  51.640  1.00  0.00     0.041 C 
ATOM     16  O   UNL     1     125.611  57.903  51.865  1.00  0.00    -0.550 OA
ATOM     17  O   UNL     1     124.726  56.414  50.360  1.00  0.00    -0.550 OA
ENDBRANCH  14  15
ENDBRANCH  13  14
ENDBRANCH  12  13
ENDBRANCH  11  12
ENDBRANCH  10  11
ENDBRANCH   9  10
ENDBRANCH   8   9
ENDBRANCH   7   8
ENDBRANCH   6   7
ENDBRANCH   5   6
ENDBRANCH   4   5
ENDBRANCH   3   4
ENDBRANCH   2   3
ENDBRANCH   1   2
BRANCH   1  18
ATOM     18  C   UNL     1     119.374  52.831  54.126  1.00  0.00     0.000 C 
BRANCH  18  19
ATOM     19  C   UNL     1     117.931  53.193  54.533  1.00  0.00     0.000 C 
BRANCH  19  20
ATOM     20  C   UNL     1     116.909  52.059  54.296  1.00  0.00     0.000 C 
BRANCH  20  21
ATOM     21  C   UNL     1     116.084  52.271  53.013  1.00  0.00     0.000 C 
BRANCH  21  22
ATOM     22  C   UNL     1     116.269  53.678  52.420  1.00  0.00     0.000 C 
BRANCH  22  23
ATOM     23  C   UNL     1     116.824  53.640  50.985  1.00  0.00     0.000 C 
BRANCH  23  24
ATOM     24  C   UNL     1     117.632  54.898  50.615  1.00  0.00    -0.000 C 
BRANCH  24  25
ATOM     25  C   UNL     1     118.287  55.634  51.797  1.00  0.00    -0.000 C 
BRANCH  25  26
ATOM     26  C   UNL     1     119.380  56.625  51.361  1.00  0.00    -0.000 C 
BRANCH  26  27
ATOM     27  C   UNL     1     120.632  55.917  50.818  1.00  0.00    -0.000 C 
BRANCH  27  28
ATOM     28  C   UNL     1     121.107  56.490  49.475  1.00  0.00    -0.000 C 
BRANCH  28  29
ATOM     29  C   UNL     1     120.507  55.698  48.303  1.00  0.00    -0.000 C 
BRANCH  29  30
ATOM     30  C   UNL     1     121.565  55.265  47.276  1.00  0.00    -0.000 C 
BRANCH  30  31
ATOM     31  C   UNL     1     122.869  56.069  47.391  1.00  0.00    -0.003 C 
ATOM     32  C   UNL     1     124.086  55.175  47.165  1.00  0.00     0.004 C 
ENDBRANCH  30  31
ENDBRANCH  29  30
ENDBRANCH  28  29
ENDBRANCH  27  28
ENDBRANCH  26  27
ENDBRANCH  25  26
ENDBRANCH  24  25
ENDBRANCH  23  24
ENDBRANCH  22  23
ENDBRANCH  21  22
ENDBRANCH  20  21
ENDBRANCH  19  20
ENDBRANCH  18  19
ENDBRANCH   1  18
TORSDOF 28
ENDMDL
MODEL 4
REMARK VINA RESULT:    -3.392      2.306      7.657
REMARK INTER + INTRA:         -14.594
REMARK INTER:                  -9.127
REMARK INTRA:                  -5.467
REMARK UNBOUND:                -5.649
REMARK SMILES CCCCCCCCCCCCCCCCCCCCCCCCCCCCCC(=O)[O-]
REMARK SMILES IDX 16 1 17 2 18 3 19 4 20 5 21 6 22 7 23 8 24 9 25 10 26 11
REMARK SMILES IDX 27 12 28 13 29 14 30 15 31 16 32 17 15 18 14 19 13 20 12 21
REMARK SMILES IDX 11 22 10 23 9 24 8 25 7 26 6 27 5 28 4 29 3 30 2 31 1 32
REMARK H PARENT
REMARK Flexibility Score: inf
ROOT
ATOM      1  C   UNL     1     122.564  55.075  49.374  1.00  0.00     0.000 C 
ENDROOT
BRANCH   1   2
ATOM      2  C   UNL     1     121.793  53.868  49.934  1.00  0.00     0.000 C 
BRANCH   2   3
ATOM      3  C   UNL     1     120.329  54.234  50.230  1.00  0.00     0.000 C 
BRANCH   3   4
ATOM      4  C   UNL     1     120.147  54.946  51.584  1.00  0.00     0.000 C 
BRANCH   4   5
ATOM      5  C   UNL     1     118.690  55.270  51.958  1.00  0.00     0.000 C 
BRANCH   5   6
ATOM      6  C   UNL     1     117.710  55.021  50.799  1.00  0.00     0.000 C 
BRANCH   6   7
ATOM      7  C   UNL     1     116.952  53.686  50.940  1.00  0.00     0.000 C 
BRANCH   7   8
ATOM      8  C   UNL     1     115.573  53.804  51.628  1.00  0.00     0.000 C 
BRANCH   8   9
ATOM      9  C   UNL     1     115.572  53.345  53.098  1.00  0.00     0.000 C 
BRANCH   9  10
ATOM     10  C   UNL     1     116.205  51.951  53.278  1.00  0.00     0.000 C 
BRANCH  10  11
ATOM     11  C   UNL     1     117.432  51.979  54.213  1.00  0.00     0.000 C 
BRANCH  11  12
ATOM     12  C   UNL     1     118.775  51.800  53.478  1.00  0.00     0.000 C 
BRANCH  12  13
ATOM     13  C   UNL     1     119.976  51.750  54.438  1.00  0.00     0.006 C 
BRANCH  13  14
ATOM     14  C   UNL     1     120.916  52.938  54.205  1.00  0.00     0.053 C 
BRANCH  14  15
ATOM     15  C   UNL     1     120.813  53.918  55.333  1.00  0.00     0.041 C 
ATOM     16  O   UNL     1     121.846  54.266  55.967  1.00  0.00    -0.550 OA
ATOM     17  O   UNL     1     119.568  54.391  55.728  1.00  0.00    -0.550 OA
ENDBRANCH  14  15
ENDBRANCH  13  14
ENDBRANCH  12  13
ENDBRANCH  11  12
ENDBRANCH  10  11
ENDBRANCH   9  10
ENDBRANCH   8   9
ENDBRANCH   7   8
ENDBRANCH   6   7
ENDBRANCH   5   6
ENDBRANCH   4   5
ENDBRANCH   3   4
ENDBRANCH   2   3
ENDBRANCH   1   2
BRANCH   1  18
ATOM     18  C   UNL     1     123.980  54.705  48.899  1.00  0.00     0.000 C 
BRANCH  18  19
ATOM     19  C   UNL     1     124.691  55.789  48.062  1.00  0.00     0.000 C 
BRANCH  19  20
ATOM     20  C   UNL     1     124.258  55.822  46.580  1.00  0.00     0.000 C 
BRANCH  20  21
ATOM     21  C   UNL     1     123.623  57.167  46.184  1.00  0.00     0.000 C 
BRANCH  21  22
ATOM     22  C   UNL     1     122.138  57.254  46.575  1.00  0.00     0.000 C 
BRANCH  22  23
ATOM     23  C   UNL     1     121.876  58.336  47.639  1.00  0.00     0.000 C 
BRANCH  23  24
ATOM     24  C   UNL     1     120.566  58.113  48.419  1.00  0.00    -0.000 C 
BRANCH  24  25
ATOM     25  C   UNL     1     120.699  58.122  49.952  1.00  0.00    -0.000 C 
BRANCH  25  26
ATOM     26  C   UNL     1     122.040  58.699  50.438  1.00  0.00    -0.000 C 
BRANCH  26  27
ATOM     27  C   UNL     1     122.708  57.816  51.504  1.00  0.00    -0.000 C 
BRANCH  27  28
ATOM     28  C   UNL     1     124.238  57.778  51.376  1.00  0.00    -0.000 C 
BRANCH  28  29
ATOM     29  C   UNL     1     124.818  56.574  52.135  1.00  0.00    -0.000 C 
BRANCH  29  30
ATOM     30  C   UNL     1     123.734  55.727  52.821  1.00  0.00    -0.000 C 
BRANCH  30  31
ATOM     31  C   UNL     1     124.111  54.240  52.913  1.00  0.00    -0.003 C 
ATOM     32  C   UNL     1     125.415  53.959  52.170  1.00  0.00     0.004 C 
ENDBRANCH  30  31
ENDBRANCH  29  30
ENDBRANCH  28  29
ENDBRANCH  27  28
ENDBRANCH  26  27
ENDBRANCH  25  26
ENDBRANCH  24  25
ENDBRANCH  23  24
ENDBRANCH  22  23
ENDBRANCH  21  22
ENDBRANCH  20  21
ENDBRANCH  19  20
ENDBRANCH  18  19
ENDBRANCH   1  18
TORSDOF 28
ENDMDL
MODEL 5
REMARK VINA RESULT:    -3.379      3.614      6.160
REMARK INTER + INTRA:         -14.560
REMARK INTER:                 -10.304
REMARK INTRA:                  -4.255
REMARK UNBOUND:                -5.649
REMARK SMILES CCCCCCCCCCCCCCCCCCCCCCCCCCCCCC(=O)[O-]
REMARK SMILES IDX 16 1 17 2 18 3 19 4 20 5 21 6 22 7 23 8 24 9 25 10 26 11
REMARK SMILES IDX 27 12 28 13 29 14 30 15 31 16 32 17 15 18 14 19 13 20 12 21
REMARK SMILES IDX 11 22 10 23 9 24 8 25 7 26 6 27 5 28 4 29 3 30 2 31 1 32
REMARK H PARENT
REMARK Flexibility Score: inf
ROOT
ATOM      1  C   UNL     1     119.947  55.492  51.687  1.00  0.00     0.000 C 
ENDROOT
BRANCH   1   2
ATOM      2  C   UNL     1     120.326  55.075  50.257  1.00  0.00     0.000 C 
BRANCH   2   3
ATOM      3  C   UNL     1     120.568  56.304  49.366  1.00  0.00     0.000 C 
BRANCH   3   4
ATOM      4  C   UNL     1     120.631  57.622  50.161  1.00  0.00     0.000 C 
BRANCH   4   5
ATOM      5  C   UNL     1     121.939  58.417  50.000  1.00  0.00     0.000 C 
BRANCH   5   6
ATOM      6  C   UNL     1     122.757  58.486  51.300  1.00  0.00     0.000 C 
BRANCH   6   7
ATOM      7  C   UNL     1     123.419  57.141  51.657  1.00  0.00     0.000 C 
BRANCH   7   8
ATOM      8  C   UNL     1     124.174  56.470  50.486  1.00  0.00     0.000 C 
BRANCH   8   9
ATOM      9  C   UNL     1     124.171  54.931  50.546  1.00  0.00     0.000 C 
BRANCH   9  10
ATOM     10  C   UNL     1     124.077  54.291  49.147  1.00  0.00     0.000 C 
BRANCH  10  11
ATOM     11  C   UNL     1     125.039  54.946  48.135  1.00  0.00     0.000 C 
BRANCH  11  12
ATOM     12  C   UNL     1     124.325  55.586  46.927  1.00  0.00     0.000 C 
BRANCH  12  13
ATOM     13  C   UNL     1     125.042  55.304  45.595  1.00  0.00     0.006 C 
BRANCH  13  14
ATOM     14  C   UNL     1     125.365  53.813  45.451  1.00  0.00     0.053 C 
BRANCH  14  15
ATOM     15  C   UNL     1     125.866  53.516  44.070  1.00  0.00     0.041 C 
ATOM     16  O   UNL     1     125.323  52.611  43.381  1.00  0.00    -0.550 OA
ATOM     17  O   UNL     1     126.974  54.192  43.575  1.00  0.00    -0.550 OA
ENDBRANCH  14  15
ENDBRANCH  13  14
ENDBRANCH  12  13
ENDBRANCH  11  12
ENDBRANCH  10  11
ENDBRANCH   9  10
ENDBRANCH   8   9
ENDBRANCH   7   8
ENDBRANCH   6   7
ENDBRANCH   5   6
ENDBRANCH   4   5
ENDBRANCH   3   4
ENDBRANCH   2   3
ENDBRANCH   1   2
BRANCH   1  18
ATOM     18  C   UNL     1     118.449  55.302  51.983  1.00  0.00     0.000 C 
BRANCH  18  19
ATOM     19  C   UNL     1     117.752  54.210  51.145  1.00  0.00     0.000 C 
BRANCH  19  20
ATOM     20  C   UNL     1     116.210  54.237  51.237  1.00  0.00     0.000 C 
BRANCH  20  21
ATOM     21  C   UNL     1     115.638  52.961  51.879  1.00  0.00     0.000 C 
BRANCH  21  22
ATOM     22  C   UNL     1     115.388  53.123  53.389  1.00  0.00     0.000 C 
BRANCH  22  23
ATOM     23  C   UNL     1     116.349  52.269  54.236  1.00  0.00     0.000 C 
BRANCH  23  24
ATOM     24  C   UNL     1     117.354  53.112  55.044  1.00  0.00    -0.000 C 
BRANCH  24  25
ATOM     25  C   UNL     1     118.821  53.004  54.592  1.00  0.00    -0.000 C 
BRANCH  25  26
ATOM     26  C   UNL     1     119.766  53.925  55.383  1.00  0.00    -0.000 C 
BRANCH  26  27
ATOM     27  C   UNL     1     121.075  53.223  55.781  1.00  0.00    -0.000 C 
BRANCH  27  28
ATOM     28  C   UNL     1     122.316  54.094  55.542  1.00  0.00    -0.000 C 
BRANCH  28  29
ATOM     29  C   UNL     1     122.617  54.213  54.040  1.00  0.00    -0.000 C 
BRANCH  29  30
ATOM     30  C   UNL     1     122.665  52.849  53.334  1.00  0.00    -0.000 C 
BRANCH  30  31
ATOM     31  C   UNL     1     124.099  52.334  53.133  1.00  0.00    -0.003 C 
ATOM     32  C   UNL     1     124.102  50.854  52.757  1.00  0.00     0.004 C 
ENDBRANCH  30  31
ENDBRANCH  29  30
ENDBRANCH  28  29
ENDBRANCH  27  28
ENDBRANCH  26  27
ENDBRANCH  25  26
ENDBRANCH  24  25
ENDBRANCH  23  24
ENDBRANCH  22  23
ENDBRANCH  21  22
ENDBRANCH  20  21
ENDBRANCH  19  20
ENDBRANCH  18  19
ENDBRANCH   1  18
TORSDOF 28
ENDMDL
MODEL 6
REMARK VINA RESULT:    -3.356      3.073      7.956
REMARK INTER + INTRA:         -14.499
REMARK INTER:                  -8.959
REMARK INTRA:                  -5.540
REMARK UNBOUND:                -5.649
REMARK SMILES CCCCCCCCCCCCCCCCCCCCCCCCCCCCCC(=O)[O-]
REMARK SMILES IDX 16 1 17 2 18 3 19 4 20 5 21 6 22 7 23 8 24 9 25 10 26 11
REMARK SMILES IDX 27 12 28 13 29 14 30 15 31 16 32 17 15 18 14 19 13 20 12 21
REMARK SMILES IDX 11 22 10 23 9 24 8 25 7 26 6 27 5 28 4 29 3 30 2 31 1 32
REMARK H PARENT
REMARK Flexibility Score: inf
ROOT
ATOM      1  C   UNL     1     117.820  53.489  54.624  1.00  0.00     0.000 C 
ENDROOT
BRANCH   1   2
ATOM      2  C   UNL     1     116.832  52.316  54.731  1.00  0.00     0.000 C 
BRANCH   2   3
ATOM      3  C   UNL     1     115.724  52.426  53.671  1.00  0.00     0.000 C 
BRANCH   3   4
ATOM      4  C   UNL     1     115.855  53.683  52.790  1.00  0.00     0.000 C 
BRANCH   4   5
ATOM      5  C   UNL     1     115.676  53.440  51.281  1.00  0.00     0.000 C 
BRANCH   5   6
ATOM      6  C   UNL     1     116.784  54.093  50.438  1.00  0.00     0.000 C 
BRANCH   6   7
ATOM      7  C   UNL     1     117.770  54.916  51.289  1.00  0.00     0.000 C 
BRANCH   7   8
ATOM      8  C   UNL     1     119.191  54.318  51.378  1.00  0.00     0.000 C 
BRANCH   8   9
ATOM      9  C   UNL     1     119.388  53.054  50.519  1.00  0.00     0.000 C 
BRANCH   9  10
ATOM     10  C   UNL     1     119.841  51.841  51.355  1.00  0.00     0.000 C 
BRANCH  10  11
ATOM     11  C   UNL     1     118.652  51.005  51.870  1.00  0.00     0.000 C 
BRANCH  11  12
ATOM     12  C   UNL     1     117.754  50.448  50.747  1.00  0.00     0.000 C 
BRANCH  12  13
ATOM     13  C   UNL     1     116.874  49.276  51.216  1.00  0.00     0.006 C 
BRANCH  13  14
ATOM     14  C   UNL     1     115.414  49.714  51.377  1.00  0.00     0.053 C 
BRANCH  14  15
ATOM     15  C   UNL     1     114.606  49.293  50.187  1.00  0.00     0.041 C 
ATOM     16  O   UNL     1     114.138  48.125  50.121  1.00  0.00    -0.550 OA
ATOM     17  O   UNL     1     114.432  50.170  49.123  1.00  0.00    -0.550 OA
ENDBRANCH  14  15
ENDBRANCH  13  14
ENDBRANCH  12  13
ENDBRANCH  11  12
ENDBRANCH  10  11
ENDBRANCH   9  10
ENDBRANCH   8   9
ENDBRANCH   7   8
ENDBRANCH   6   7
ENDBRANCH   5   6
ENDBRANCH   4   5
ENDBRANCH   3   4
ENDBRANCH   2   3
ENDBRANCH   1   2
BRANCH   1  18
ATOM     18  C   UNL     1     119.278  53.060  54.867  1.00  0.00     0.000 C 
BRANCH  18  19
ATOM     19  C   UNL     1     120.058  53.940  55.866  1.00  0.00     0.000 C 
BRANCH  19  20
ATOM     20  C   UNL     1     121.567  54.056  55.555  1.00  0.00     0.000 C 
BRANCH  20  21
ATOM     21  C   UNL     1     121.867  53.933  54.050  1.00  0.00     0.000 C 
BRANCH  21  22
ATOM     22  C   UNL     1     122.974  52.907  53.753  1.00  0.00     0.000 C 
BRANCH  22  23
ATOM     23  C   UNL     1     123.326  52.843  52.255  1.00  0.00     0.000 C 
BRANCH  23  24
ATOM     24  C   UNL     1     124.821  53.087  51.974  1.00  0.00    -0.000 C 
BRANCH  24  25
ATOM     25  C   UNL     1     125.305  54.532  52.184  1.00  0.00    -0.000 C 
BRANCH  25  26
ATOM     26  C   UNL     1     124.526  55.559  51.344  1.00  0.00    -0.000 C 
BRANCH  26  27
ATOM     27  C   UNL     1     123.854  56.638  52.208  1.00  0.00    -0.000 C 
BRANCH  27  28
ATOM     28  C   UNL     1     123.314  57.814  51.383  1.00  0.00    -0.000 C 
BRANCH  28  29
ATOM     29  C   UNL     1     121.888  57.522  50.888  1.00  0.00    -0.000 C 
BRANCH  29  30
ATOM     30  C   UNL     1     121.781  57.521  49.355  1.00  0.00    -0.000 C 
BRANCH  30  31
ATOM     31  C   UNL     1     121.062  56.277  48.810  1.00  0.00    -0.003 C 
ATOM     32  C   UNL     1     122.004  55.077  48.759  1.00  0.00     0.004 C 
ENDBRANCH  30  31
ENDBRANCH  29  30
ENDBRANCH  28  29
ENDBRANCH  27  28
ENDBRANCH  26  27
ENDBRANCH  25  26
ENDBRANCH  24  25
ENDBRANCH  23  24
ENDBRANCH  22  23
ENDBRANCH  21  22
ENDBRANCH  20  21
ENDBRANCH  19  20
ENDBRANCH  18  19
ENDBRANCH   1  18
TORSDOF 28
ENDMDL
MODEL 7
REMARK VINA RESULT:    -3.350      2.517      7.245
REMARK INTER + INTRA:         -14.483
REMARK INTER:                  -9.011
REMARK INTRA:                  -5.472
REMARK UNBOUND:                -5.649
REMARK SMILES CCCCCCCCCCCCCCCCCCCCCCCCCCCCCC(=O)[O-]
REMARK SMILES IDX 16 1 17 2 18 3 19 4 20 5 21 6 22 7 23 8 24 9 25 10 26 11
REMARK SMILES IDX 27 12 28 13 29 14 30 15 31 16 32 17 15 18 14 19 13 20 12 21
REMARK SMILES IDX 11 22 10 23 9 24 8 25 7 26 6 27 5 28 4 29 3 30 2 31 1 32
REMARK H PARENT
REMARK Flexibility Score: inf
ROOT
ATOM      1  C   UNL     1     118.124  52.920  54.233  1.00  0.00     0.000 C 
ENDROOT
BRANCH   1   2
ATOM      2  C   UNL     1     116.762  52.749  54.925  1.00  0.00     0.000 C 
BRANCH   2   3
ATOM      3  C   UNL     1     115.618  52.726  53.898  1.00  0.00     0.000 C 
BRANCH   3   4
ATOM      4  C   UNL     1     115.982  53.420  52.572  1.00  0.00     0.000 C 
BRANCH   4   5
ATOM      5  C   UNL     1     115.743  52.576  51.308  1.00  0.00     0.000 C 
BRANCH   5   6
ATOM      6  C   UNL     1     115.642  51.071  51.609  1.00  0.00     0.000 C 
BRANCH   6   7
ATOM      7  C   UNL     1     116.845  50.276  51.066  1.00  0.00     0.000 C 
BRANCH   7   8
ATOM      8  C   UNL     1     117.999  50.093  52.077  1.00  0.00     0.000 C 
BRANCH   8   9
ATOM      9  C   UNL     1     119.376  50.514  51.530  1.00  0.00     0.000 C 
BRANCH   9  10
ATOM     10  C   UNL     1     119.372  51.951  50.973  1.00  0.00     0.000 C 
BRANCH  10  11
ATOM     11  C   UNL     1     120.614  52.755  51.411  1.00  0.00     0.000 C 
BRANCH  11  12
ATOM     12  C   UNL     1     120.477  54.275  51.192  1.00  0.00     0.000 C 
BRANCH  12  13
ATOM     13  C   UNL     1     119.012  54.745  51.191  1.00  0.00     0.006 C 
BRANCH  13  14
ATOM     14  C   UNL     1     118.913  56.236  51.535  1.00  0.00     0.053 C 
BRANCH  14  15
ATOM     15  C   UNL     1     119.638  57.059  50.515  1.00  0.00     0.041 C 
ATOM     16  O   UNL     1     120.530  57.873  50.876  1.00  0.00    -0.550 OA
ATOM     17  O   UNL     1     119.278  56.976  49.175  1.00  0.00    -0.550 OA
ENDBRANCH  14  15
ENDBRANCH  13  14
ENDBRANCH  12  13
ENDBRANCH  11  12
ENDBRANCH  10  11
ENDBRANCH   9  10
ENDBRANCH   8   9
ENDBRANCH   7   8
ENDBRANCH   6   7
ENDBRANCH   5   6
ENDBRANCH   4   5
ENDBRANCH   3   4
ENDBRANCH   2   3
ENDBRANCH   1   2
BRANCH   1  18
ATOM     18  C   UNL     1     118.989  54.011  54.889  1.00  0.00     0.000 C 
BRANCH  18  19
ATOM     19  C   UNL     1     120.207  53.491  55.680  1.00  0.00     0.000 C 
BRANCH  19  20
ATOM     20  C   UNL     1     120.902  52.273  55.032  1.00  0.00     0.000 C 
BRANCH  20  21
ATOM     21  C   UNL     1     122.388  52.538  54.728  1.00  0.00     0.000 C 
BRANCH  21  22
ATOM     22  C   UNL     1     122.712  54.039  54.639  1.00  0.00     0.000 C 
BRANCH  22  23
ATOM     23  C   UNL     1     123.500  54.393  53.365  1.00  0.00     0.000 C 
BRANCH  23  24
ATOM     24  C   UNL     1     123.248  55.833  52.878  1.00  0.00    -0.000 C 
BRANCH  24  25
ATOM     25  C   UNL     1     124.493  56.589  52.380  1.00  0.00    -0.000 C 
BRANCH  25  26
ATOM     26  C   UNL     1     125.082  55.997  51.088  1.00  0.00    -0.000 C 
BRANCH  26  27
ATOM     27  C   UNL     1     124.011  55.748  50.014  1.00  0.00    -0.000 C 
BRANCH  27  28
ATOM     28  C   UNL     1     123.910  54.272  49.602  1.00  0.00    -0.000 C 
BRANCH  28  29
ATOM     29  C   UNL     1     125.270  53.750  49.113  1.00  0.00    -0.000 C 
BRANCH  29  30
ATOM     30  C   UNL     1     125.774  52.551  49.932  1.00  0.00    -0.000 C 
BRANCH  30  31
ATOM     31  C   UNL     1     127.175  52.779  50.519  1.00  0.00    -0.003 C 
ATOM     32  C   UNL     1     127.104  53.040  52.022  1.00  0.00     0.004 C 
ENDBRANCH  30  31
ENDBRANCH  29  30
ENDBRANCH  28  29
ENDBRANCH  27  28
ENDBRANCH  26  27
ENDBRANCH  25  26
ENDBRANCH  24  25
ENDBRANCH  23  24
ENDBRANCH  22  23
ENDBRANCH  21  22
ENDBRANCH  20  21
ENDBRANCH  19  20
ENDBRANCH  18  19
ENDBRANCH   1  18
TORSDOF 28
ENDMDL
MODEL 8
REMARK VINA RESULT:    -3.337      2.784      5.062
REMARK INTER + INTRA:         -14.448
REMARK INTER:                  -7.810
REMARK INTRA:                  -6.638
REMARK UNBOUND:                -5.649
REMARK SMILES CCCCCCCCCCCCCCCCCCCCCCCCCCCCCC(=O)[O-]
REMARK SMILES IDX 16 1 17 2 18 3 19 4 20 5 21 6 22 7 23 8 24 9 25 10 26 11
REMARK SMILES IDX 27 12 28 13 29 14 30 15 31 16 32 17 15 18 14 19 13 20 12 21
REMARK SMILES IDX 11 22 10 23 9 24 8 25 7 26 6 27 5 28 4 29 3 30 2 31 1 32
REMARK H PARENT
REMARK Flexibility Score: inf
ROOT
ATOM      1  C   UNL     1     120.160  53.861  55.083  1.00  0.00     0.000 C 
ENDROOT
BRANCH   1   2
ATOM      2  C   UNL     1     121.211  52.775  55.363  1.00  0.00     0.000 C 
BRANCH   2   3
ATOM      3  C   UNL     1     122.544  53.102  54.671  1.00  0.00     0.000 C 
BRANCH   3   4
ATOM      4  C   UNL     1     122.710  54.602  54.359  1.00  0.00     0.000 C 
BRANCH   4   5
ATOM      5  C   UNL     1     123.498  54.916  53.075  1.00  0.00     0.000 C 
BRANCH   5   6
ATOM      6  C   UNL     1     124.421  53.763  52.646  1.00  0.00     0.000 C 
BRANCH   6   7
ATOM      7  C   UNL     1     125.733  54.260  52.009  1.00  0.00     0.000 C 
BRANCH   7   8
ATOM      8  C   UNL     1     126.864  53.208  51.974  1.00  0.00     0.000 C 
BRANCH   8   9
ATOM      9  C   UNL     1     126.684  52.138  50.881  1.00  0.00     0.000 C 
BRANCH   9  10
ATOM     10  C   UNL     1     126.507  52.756  49.480  1.00  0.00     0.000 C 
BRANCH  10  11
ATOM     11  C   UNL     1     125.368  52.087  48.683  1.00  0.00     0.000 C 
BRANCH  11  12
ATOM     12  C   UNL     1     123.965  52.352  49.265  1.00  0.00     0.000 C 
BRANCH  12  13
ATOM     13  C   UNL     1     123.199  53.443  48.497  1.00  0.00     0.006 C 
BRANCH  13  14
ATOM     14  C   UNL     1     123.275  54.787  49.229  1.00  0.00     0.053 C 
BRANCH  14  15
ATOM     15  C   UNL     1     123.896  55.830  48.350  1.00  0.00     0.041 C 
ATOM     16  O   UNL     1     123.180  56.729  47.831  1.00  0.00    -0.550 OA
ATOM     17  O   UNL     1     125.250  55.764  48.049  1.00  0.00    -0.550 OA
ENDBRANCH  14  15
ENDBRANCH  13  14
ENDBRANCH  12  13
ENDBRANCH  11  12
ENDBRANCH  10  11
ENDBRANCH   9  10
ENDBRANCH   8   9
ENDBRANCH   7   8
ENDBRANCH   6   7
ENDBRANCH   5   6
ENDBRANCH   4   5
ENDBRANCH   3   4
ENDBRANCH   2   3
ENDBRANCH   1   2
BRANCH   1  18
ATOM     18  C   UNL     1     118.747  53.282  54.890  1.00  0.00     0.000 C 
BRANCH  18  19
ATOM     19  C   UNL     1     118.695  51.904  54.199  1.00  0.00     0.000 C 
BRANCH  19  20
ATOM     20  C   UNL     1     117.475  51.713  53.271  1.00  0.00     0.000 C 
BRANCH  20  21
ATOM     21  C   UNL     1     116.233  52.474  53.768  1.00  0.00     0.000 C 
BRANCH  21  22
ATOM     22  C   UNL     1     115.725  53.504  52.744  1.00  0.00     0.000 C 
BRANCH  22  23
ATOM     23  C   UNL     1     116.528  53.468  51.431  1.00  0.00     0.000 C 
BRANCH  23  24
ATOM     24  C   UNL     1     117.200  54.814  51.096  1.00  0.00    -0.000 C 
BRANCH  24  25
ATOM     25  C   UNL     1     118.373  55.212  52.010  1.00  0.00    -0.000 C 
BRANCH  25  26
ATOM     26  C   UNL     1     119.737  55.156  51.300  1.00  0.00    -0.000 C 
BRANCH  26  27
ATOM     27  C   UNL     1     120.423  53.788  51.454  1.00  0.00    -0.000 C 
BRANCH  27  28
ATOM     28  C   UNL     1     120.085  52.818  50.312  1.00  0.00    -0.000 C 
BRANCH  28  29
ATOM     29  C   UNL     1     120.378  51.368  50.726  1.00  0.00    -0.000 C 
BRANCH  29  30
ATOM     30  C   UNL     1     121.403  51.272  51.867  1.00  0.00    -0.000 C 
BRANCH  30  31
ATOM     31  C   UNL     1     122.310  50.037  51.750  1.00  0.00    -0.003 C 
ATOM     32  C   UNL     1     123.684  50.307  52.360  1.00  0.00     0.004 C 
ENDBRANCH  30  31
ENDBRANCH  29  30
ENDBRANCH  28  29
ENDBRANCH  27  28
ENDBRANCH  26  27
ENDBRANCH  25  26
ENDBRANCH  24  25
ENDBRANCH  23  24
ENDBRANCH  22  23
ENDBRANCH  21  22
ENDBRANCH  20  21
ENDBRANCH  19  20
ENDBRANCH  18  19
ENDBRANCH   1  18
TORSDOF 28
ENDMDL
MODEL 9
REMARK VINA RESULT:    -3.295      6.608     10.099
REMARK INTER + INTRA:         -14.339
REMARK INTER:                  -8.524
REMARK INTRA:                  -5.814
REMARK UNBOUND:                -5.649
REMARK SMILES CCCCCCCCCCCCCCCCCCCCCCCCCCCCCC(=O)[O-]
REMARK SMILES IDX 16 1 17 2 18 3 19 4 20 5 21 6 22 7 23 8 24 9 25 10 26 11
REMARK SMILES IDX 27 12 28 13 29 14 30 15 31 16 32 17 15 18 14 19 13 20 12 21
REMARK SMILES IDX 11 22 10 23 9 24 8 25 7 26 6 27 5 28 4 29 3 30 2 31 1 32
REMARK H PARENT
REMARK Flexibility Score: inf
ROOT
ATOM      1  C   UNL     1     123.903  56.341  43.987  1.00  0.00     0.000 C 
ENDROOT
BRANCH   1   2
ATOM      2  C   UNL     1     125.420  56.205  43.781  1.00  0.00     0.000 C 
BRANCH   2   3
ATOM      3  C   UNL     1     125.760  54.936  42.982  1.00  0.00     0.000 C 
BRANCH   3   4
ATOM      4  C   UNL     1     126.681  53.968  43.750  1.00  0.00     0.000 C 
BRANCH   4   5
ATOM      5  C   UNL     1     126.218  53.624  45.176  1.00  0.00     0.000 C 
BRANCH   5   6
ATOM      6  C   UNL     1     126.001  52.115  45.383  1.00  0.00     0.000 C 
BRANCH   6   7
ATOM      7  C   UNL     1     124.717  51.805  46.176  1.00  0.00     0.000 C 
BRANCH   7   8
ATOM      8  C   UNL     1     123.575  52.825  45.969  1.00  0.00     0.000 C 
BRANCH   8   9
ATOM      9  C   UNL     1     122.479  52.343  45.000  1.00  0.00     0.000 C 
BRANCH   9  10
ATOM     10  C   UNL     1     122.581  53.015  43.617  1.00  0.00     0.000 C 
BRANCH  10  11
ATOM     11  C   UNL     1     123.428  52.192  42.625  1.00  0.00     0.000 C 
BRANCH  11  12
ATOM     12  C   UNL     1     122.924  50.748  42.429  1.00  0.00     0.000 C 
BRANCH  12  13
ATOM     13  C   UNL     1     124.071  49.731  42.302  1.00  0.00     0.006 C 
BRANCH  13  14
ATOM     14  C   UNL     1     124.430  49.134  43.667  1.00  0.00     0.053 C 
BRANCH  14  15
ATOM     15  C   UNL     1     123.264  48.385  44.235  1.00  0.00     0.041 C 
ATOM     16  O   UNL     1     122.771  47.409  43.607  1.00  0.00    -0.550 OA
ATOM     17  O   UNL     1     122.680  48.809  45.422  1.00  0.00    -0.550 OA
ENDBRANCH  14  15
ENDBRANCH  13  14
ENDBRANCH  12  13
ENDBRANCH  11  12
ENDBRANCH  10  11
ENDBRANCH   9  10
ENDBRANCH   8   9
ENDBRANCH   7   8
ENDBRANCH   6   7
ENDBRANCH   5   6
ENDBRANCH   4   5
ENDBRANCH   3   4
ENDBRANCH   2   3
ENDBRANCH   1   2
BRANCH   1  18
ATOM     18  C   UNL     1     123.530  56.690  45.439  1.00  0.00     0.000 C 
BRANCH  18  19
ATOM     19  C   UNL     1     124.610  56.356  46.488  1.00  0.00     0.000 C 
BRANCH  19  20
ATOM     20  C   UNL     1     124.059  56.168  47.919  1.00  0.00     0.000 C 
BRANCH  20  21
ATOM     21  C   UNL     1     122.555  55.841  47.930  1.00  0.00     0.000 C 
BRANCH  21  22
ATOM     22  C   UNL     1     121.953  55.893  49.345  1.00  0.00     0.000 C 
BRANCH  22  23
ATOM     23  C   UNL     1     122.896  56.568  50.358  1.00  0.00     0.000 C 
BRANCH  23  24
ATOM     24  C   UNL     1     122.716  56.041  51.795  1.00  0.00    -0.000 C 
BRANCH  24  25
ATOM     25  C   UNL     1     124.019  55.805  52.579  1.00  0.00    -0.000 C 
BRANCH  25  26
ATOM     26  C   UNL     1     124.479  54.336  52.558  1.00  0.00    -0.000 C 
BRANCH  26  27
ATOM     27  C   UNL     1     125.545  54.070  51.483  1.00  0.00    -0.000 C 
BRANCH  27  28
ATOM     28  C   UNL     1     124.977  53.378  50.236  1.00  0.00    -0.000 C 
BRANCH  28  29
ATOM     29  C   UNL     1     125.996  53.407  49.086  1.00  0.00    -0.000 C 
BRANCH  29  30
ATOM     30  C   UNL     1     127.106  52.358  49.250  1.00  0.00    -0.000 C 
BRANCH  30  31
ATOM     31  C   UNL     1     126.557  50.943  49.488  1.00  0.00    -0.003 C 
ATOM     32  C   UNL     1     127.122  49.957  48.468  1.00  0.00     0.004 C 
ENDBRANCH  30  31
ENDBRANCH  29  30
ENDBRANCH  28  29
ENDBRANCH  27  28
ENDBRANCH  26  27
ENDBRANCH  25  26
ENDBRANCH  24  25
ENDBRANCH  23  24
ENDBRANCH  22  23
ENDBRANCH  21  22
ENDBRANCH  20  21
ENDBRANCH  19  20
ENDBRANCH  18  19
ENDBRANCH   1  18
TORSDOF 28
ENDMDL
