MODEL 1
REMARK VINA RESULT:    -4.108      0.000      0.000
REMARK INTER + INTRA:          -4.679
REMARK INTER:                  -4.468
REMARK INTRA:                  -0.211
REMARK UNBOUND:                -0.211
REMARK SMILES O=C([O-])c1ccccc1O
REMARK SMILES IDX 4 1 9 2 5 3 8 4 6 5 7 6 2 7 1 8 3 9 10 10
REMARK H PARENT 10 11
REMARK Flexibility Score: inf
ROOT
ATOM      1  C   UNL     1     -15.436 -20.884  12.652  1.00  0.00     0.039 A 
ATOM      2  C   UNL     1     -16.763 -20.898  13.153  1.00  0.00     0.124 A 
ATOM      3  C   UNL     1     -14.506 -19.988  13.213  1.00  0.00     0.014 A 
ATOM      4  C   UNL     1     -17.139 -19.984  14.144  1.00  0.00     0.047 A 
ATOM      5  C   UNL     1     -14.892 -19.097  14.217  1.00  0.00     0.001 A 
ATOM      6  C   UNL     1     -16.209 -19.087  14.675  1.00  0.00     0.004 A 
ENDROOT
BRANCH   1   7
ATOM      7  C   UNL     1     -15.000 -21.751  11.535  1.00  0.00     0.075 C 
ATOM      8  O   UNL     1     -15.561 -21.663  10.410  1.00  0.00    -0.545 OA
ATOM      9  O   UNL     1     -14.019 -22.717  11.725  1.00  0.00    -0.545 OA
ENDBRANCH   1   7
BRANCH   2  10
ATOM     10  O   UNL     1     -17.719 -21.820  12.721  1.00  0.00    -0.507 OA
ATOM     11  H   UNL     1     -17.735 -22.211  11.789  1.00  0.00     0.293 HD
ENDBRANCH   2  10
TORSDOF 2
ENDMDL
MODEL 2
REMARK VINA RESULT:    -3.981      2.916      3.898
REMARK INTER + INTRA:          -4.541
REMARK INTER:                  -4.293
REMARK INTRA:                  -0.248
REMARK UNBOUND:                -0.211
REMARK SMILES O=C([O-])c1ccccc1O
REMARK SMILES IDX 4 1 9 2 5 3 8 4 6 5 7 6 2 7 1 8 3 9 10 10
REMARK H PARENT 10 11
REMARK Flexibility Score: inf
ROOT
ATOM      1  C   UNL     1     -16.611 -18.565  13.259  1.00  0.00     0.039 A 
ATOM      2  C   UNL     1     -15.780 -17.744  14.063  1.00  0.00     0.124 A 
ATOM      3  C   UNL     1     -17.117 -18.044  12.053  1.00  0.00     0.014 A 
ATOM      4  C   UNL     1     -15.531 -16.421  13.678  1.00  0.00     0.047 A 
ATOM      5  C   UNL     1     -16.842 -16.729  11.672  1.00  0.00     0.001 A 
ATOM      6  C   UNL     1     -16.059 -15.915  12.489  1.00  0.00     0.004 A 
ENDROOT
BRANCH   1   7
ATOM      7  C   UNL     1     -16.997 -19.936  13.657  1.00  0.00     0.075 C 
ATOM      8  O   UNL     1     -17.394 -20.165  14.831  1.00  0.00    -0.545 OA
ATOM      9  O   UNL     1     -16.865 -20.998  12.772  1.00  0.00    -0.545 OA
ENDBRANCH   1   7
BRANCH   2  10
ATOM     10  O   UNL     1     -15.157 -18.212  15.222  1.00  0.00    -0.507 OA
ATOM     11  H   UNL     1     -14.435 -18.920  15.220  1.00  0.00     0.293 HD
ENDBRANCH   2  10
TORSDOF 2
ENDMDL
MODEL 3
REMARK VINA RESULT:    -3.864      3.263      3.977
REMARK INTER + INTRA:          -4.414
REMARK INTER:                  -4.163
REMARK INTRA:                  -0.251
REMARK UNBOUND:                -0.211
REMARK SMILES O=C([O-])c1ccccc1O
REMARK SMILES IDX 4 1 9 2 5 3 8 4 6 5 7 6 2 7 1 8 3 9 10 10
REMARK H PARENT 10 11
REMARK Flexibility Score: inf
ROOT
ATOM      1  C   UNL     1     -16.316 -17.832  13.296  1.00  0.00     0.039 A 
ATOM      2  C   UNL     1     -17.278 -17.735  12.258  1.00  0.00     0.124 A 
ATOM      3  C   UNL     1     -15.549 -16.697  13.620  1.00  0.00     0.014 A 
ATOM      4  C   UNL     1     -17.402 -16.541  11.538  1.00  0.00     0.047 A 
ATOM      5  C   UNL     1     -15.700 -15.506  12.906  1.00  0.00     0.001 A 
ATOM      6  C   UNL     1     -16.618 -15.431  11.859  1.00  0.00     0.004 A 
ENDROOT
BRANCH   1   7
ATOM      7  C   UNL     1     -16.061 -19.092  14.027  1.00  0.00     0.075 C 
ATOM      8  O   UNL     1     -14.886 -19.531  14.141  1.00  0.00    -0.545 OA
ATOM      9  O   UNL     1     -17.112 -19.844  14.538  1.00  0.00    -0.545 OA
ENDBRANCH   1   7
BRANCH   2  10
ATOM     10  O   UNL     1     -18.146 -18.781  11.940  1.00  0.00    -0.507 OA
ATOM     11  H   UNL     1     -19.131 -18.776  12.167  1.00  0.00     0.293 HD
ENDBRANCH   2  10
TORSDOF 2
ENDMDL
MODEL 4
REMARK VINA RESULT:    -3.802     16.614     16.833
REMARK INTER + INTRA:          -4.346
REMARK INTER:                  -4.096
REMARK INTRA:                  -0.250
REMARK UNBOUND:                -0.211
REMARK SMILES O=C([O-])c1ccccc1O
REMARK SMILES IDX 4 1 9 2 5 3 8 4 6 5 7 6 2 7 1 8 3 9 10 10
REMARK H PARENT 10 11
REMARK Flexibility Score: inf
ROOT
ATOM      1  C   UNL     1     -18.999 -11.224  -0.604  1.00  0.00     0.039 A 
ATOM      2  C   UNL     1     -20.349 -11.309  -0.176  1.00  0.00     0.124 A 
ATOM      3  C   UNL     1     -18.211 -10.146  -0.158  1.00  0.00     0.014 A 
ATOM      4  C   UNL     1     -20.887 -10.294   0.625  1.00  0.00     0.047 A 
ATOM      5  C   UNL     1     -18.757  -9.153   0.658  1.00  0.00     0.001 A 
ATOM      6  C   UNL     1     -20.096  -9.221   1.040  1.00  0.00     0.004 A 
ENDROOT
BRANCH   1   7
ATOM      7  C   UNL     1     -18.398 -12.206  -1.532  1.00  0.00     0.075 C 
ATOM      8  O   UNL     1     -17.807 -11.812  -2.573  1.00  0.00    -0.545 OA
ATOM      9  O   UNL     1     -18.532 -13.571  -1.310  1.00  0.00    -0.545 OA
ENDBRANCH   1   7
BRANCH   2  10
ATOM     10  O   UNL     1     -21.169 -12.394  -0.490  1.00  0.00    -0.507 OA
ATOM     11  H   UNL     1     -22.169 -12.317  -0.621  1.00  0.00     0.293 HD
ENDBRANCH   2  10
TORSDOF 2
ENDMDL
MODEL 5
REMARK VINA RESULT:    -3.746      3.754      4.500
REMARK INTER + INTRA:          -4.285
REMARK INTER:                  -4.040
REMARK INTRA:                  -0.245
REMARK UNBOUND:                -0.211
REMARK SMILES O=C([O-])c1ccccc1O
REMARK SMILES IDX 4 1 9 2 5 3 8 4 6 5 7 6 2 7 1 8 3 9 10 10
REMARK H PARENT 10 11
REMARK Flexibility Score: inf
ROOT
ATOM      1  C   UNL     1     -16.359 -17.491  12.590  1.00  0.00     0.039 A 
ATOM      2  C   UNL     1     -15.614 -17.404  13.794  1.00  0.00     0.124 A 
ATOM      3  C   UNL     1     -17.208 -18.597  12.394  1.00  0.00     0.014 A 
ATOM      4  C   UNL     1     -15.688 -18.441  14.731  1.00  0.00     0.047 A 
ATOM      5  C   UNL     1     -17.287 -19.613  13.349  1.00  0.00     0.001 A 
ATOM      6  C   UNL     1     -16.520 -19.541  14.511  1.00  0.00     0.004 A 
ENDROOT
BRANCH   1   7
ATOM      7  C   UNL     1     -16.249 -16.482  11.514  1.00  0.00     0.075 C 
ATOM      8  O   UNL     1     -16.400 -15.259  11.775  1.00  0.00    -0.545 OA
ATOM      9  O   UNL     1     -16.048 -16.868  10.194  1.00  0.00    -0.545 OA
ENDBRANCH   1   7
BRANCH   2  10
ATOM     10  O   UNL     1     -14.826 -16.296  14.110  1.00  0.00    -0.507 OA
ATOM     11  H   UNL     1     -15.194 -15.360  14.209  1.00  0.00     0.293 HD
ENDBRANCH   2  10
TORSDOF 2
ENDMDL
MODEL 6
REMARK VINA RESULT:    -3.745      1.677      3.381
REMARK INTER + INTRA:          -4.284
REMARK INTER:                  -4.096
REMARK INTRA:                  -0.188
REMARK UNBOUND:                -0.211
REMARK SMILES O=C([O-])c1ccccc1O
REMARK SMILES IDX 4 1 9 2 5 3 8 4 6 5 7 6 2 7 1 8 3 9 10 10
REMARK H PARENT 10 11
REMARK Flexibility Score: inf
ROOT
ATOM      1  C   UNL     1     -15.570 -20.459  13.174  1.00  0.00     0.039 A 
ATOM      2  C   UNL     1     -15.732 -21.698  12.503  1.00  0.00     0.124 A 
ATOM      3  C   UNL     1     -14.267 -19.992  13.434  1.00  0.00     0.014 A 
ATOM      4  C   UNL     1     -14.605 -22.458  12.168  1.00  0.00     0.047 A 
ATOM      5  C   UNL     1     -13.153 -20.753  13.075  1.00  0.00     0.001 A 
ATOM      6  C   UNL     1     -13.321 -21.989  12.452  1.00  0.00     0.004 A 
ENDROOT
BRANCH   1   7
ATOM      7  C   UNL     1     -16.719 -19.656  13.647  1.00  0.00     0.075 C 
ATOM      8  O   UNL     1     -16.943 -19.540  14.882  1.00  0.00    -0.545 OA
ATOM      9  O   UNL     1     -17.603 -19.078  12.745  1.00  0.00    -0.545 OA
ENDBRANCH   1   7
BRANCH   2  10
ATOM     10  O   UNL     1     -16.983 -22.187  12.120  1.00  0.00    -0.507 OA
ATOM     11  H   UNL     1     -17.703 -21.611  11.706  1.00  0.00     0.293 HD
ENDBRANCH   2  10
TORSDOF 2
ENDMDL
MODEL 7
REMARK VINA RESULT:    -3.744      3.801      4.541
REMARK INTER + INTRA:          -4.283
REMARK INTER:                  -4.066
REMARK INTRA:                  -0.217
REMARK UNBOUND:                -0.211
REMARK SMILES O=C([O-])c1ccccc1O
REMARK SMILES IDX 4 1 9 2 5 3 8 4 6 5 7 6 2 7 1 8 3 9 10 10
REMARK H PARENT 10 11
REMARK Flexibility Score: inf
ROOT
ATOM      1  C   UNL     1     -15.696 -17.579  13.461  1.00  0.00     0.039 A 
ATOM      2  C   UNL     1     -15.789 -18.555  14.486  1.00  0.00     0.124 A 
ATOM      3  C   UNL     1     -16.500 -17.719  12.314  1.00  0.00     0.014 A 
ATOM      4  C   UNL     1     -16.626 -19.664  14.313  1.00  0.00     0.047 A 
ATOM      5  C   UNL     1     -17.346 -18.820  12.166  1.00  0.00     0.001 A 
ATOM      6  C   UNL     1     -17.401 -19.797  13.160  1.00  0.00     0.004 A 
ENDROOT
BRANCH   1   7
ATOM      7  C   UNL     1     -14.756 -16.439  13.533  1.00  0.00     0.075 C 
ATOM      8  O   UNL     1     -13.519 -16.645  13.654  1.00  0.00    -0.545 OA
ATOM      9  O   UNL     1     -15.224 -15.131  13.539  1.00  0.00    -0.545 OA
ENDBRANCH   1   7
BRANCH   2  10
ATOM     10  O   UNL     1     -15.101 -18.441  15.695  1.00  0.00    -0.507 OA
ATOM     11  H   UNL     1     -15.557 -18.277  16.583  1.00  0.00     0.293 HD
ENDBRANCH   2  10
TORSDOF 2
ENDMDL
MODEL 8
REMARK VINA RESULT:    -3.699      2.451      3.549
REMARK INTER + INTRA:          -4.234
REMARK INTER:                  -4.035
REMARK INTRA:                  -0.200
REMARK UNBOUND:                -0.211
REMARK SMILES O=C([O-])c1ccccc1O
REMARK SMILES IDX 4 1 9 2 5 3 8 4 6 5 7 6 2 7 1 8 3 9 10 10
REMARK H PARENT 10 11
REMARK Flexibility Score: inf
ROOT
ATOM      1  C   UNL     1     -15.471 -19.708  13.452  1.00  0.00     0.039 A 
ATOM      2  C   UNL     1     -16.548 -20.185  12.662  1.00  0.00     0.124 A 
ATOM      3  C   UNL     1     -14.225 -20.359  13.366  1.00  0.00     0.014 A 
ATOM      4  C   UNL     1     -16.373 -21.322  11.865  1.00  0.00     0.047 A 
ATOM      5  C   UNL     1     -14.061 -21.480  12.550  1.00  0.00     0.001 A 
ATOM      6  C   UNL     1     -15.137 -21.968  11.808  1.00  0.00     0.004 A 
ENDROOT
BRANCH   1   7
ATOM      7  C   UNL     1     -15.616 -18.576  14.393  1.00  0.00     0.075 C 
ATOM      8  O   UNL     1     -15.832 -17.414  13.955  1.00  0.00    -0.545 OA
ATOM      9  O   UNL     1     -15.449 -18.760  15.759  1.00  0.00    -0.545 OA
ENDBRANCH   1   7
BRANCH   2  10
ATOM     10  O   UNL     1     -17.786 -19.540  12.613  1.00  0.00    -0.507 OA
ATOM     11  H   UNL     1     -18.493 -19.637  13.329  1.00  0.00     0.293 HD
ENDBRANCH   2  10
TORSDOF 2
ENDMDL
MODEL 9
REMARK VINA RESULT:    -3.629      1.677      2.060
REMARK INTER + INTRA:          -4.158
REMARK INTER:                  -3.922
REMARK INTRA:                  -0.235
REMARK UNBOUND:                -0.211
REMARK SMILES O=C([O-])c1ccccc1O
REMARK SMILES IDX 4 1 9 2 5 3 8 4 6 5 7 6 2 7 1 8 3 9 10 10
REMARK H PARENT 10 11
REMARK Flexibility Score: inf
ROOT
ATOM      1  C   UNL     1     -16.018 -19.878  13.013  1.00  0.00     0.039 A 
ATOM      2  C   UNL     1     -16.886 -18.846  12.574  1.00  0.00     0.124 A 
ATOM      3  C   UNL     1     -14.887 -19.535  13.779  1.00  0.00     0.014 A 
ATOM      4  C   UNL     1     -16.573 -17.511  12.854  1.00  0.00     0.047 A 
ATOM      5  C   UNL     1     -14.600 -18.200  14.067  1.00  0.00     0.001 A 
ATOM      6  C   UNL     1     -15.436 -17.188  13.596  1.00  0.00     0.004 A 
ENDROOT
BRANCH   1   7
ATOM      7  C   UNL     1     -16.235 -21.300  12.666  1.00  0.00     0.075 C 
ATOM      8  O   UNL     1     -17.405 -21.747  12.530  1.00  0.00    -0.545 OA
ATOM      9  O   UNL     1     -15.162 -22.175  12.550  1.00  0.00    -0.545 OA
ENDBRANCH   1   7
BRANCH   2  10
ATOM     10  O   UNL     1     -18.079 -19.107  11.896  1.00  0.00    -0.507 OA
ATOM     11  H   UNL     1     -18.510 -18.454  11.255  1.00  0.00     0.293 HD
ENDBRANCH   2  10
TORSDOF 2
ENDMDL
