MODEL 1
REMARK VINA RESULT:    -3.759      0.000      0.000
REMARK INTER + INTRA:          -9.071
REMARK INTER:                  -7.056
REMARK INTRA:                  -2.015
REMARK UNBOUND:                -2.015
REMARK SMILES CCCCCCCCC=CCCCCCCCC(=O)[O-]
REMARK SMILES IDX 10 1 9 2 11 3 12 4 13 5 14 6 15 7 16 8 17 9 18 10 19 11
REMARK SMILES IDX 20 12 8 13 7 14 6 15 5 16 4 17 3 18 2 19 1 20
REMARK H PARENT
REMARK Flexibility Score: inf
ROOT
ATOM      1  C   UNL     1      16.950   1.788  41.093  1.00  0.00    -0.031 C 
ATOM      2  C   UNL     1      18.215   1.336  41.201  1.00  0.00    -0.031 C 
ENDROOT
BRANCH   1   3
ATOM      3  C   UNL     1      16.514   3.215  41.316  1.00  0.00     0.027 C 
BRANCH   3   4
ATOM      4  C   UNL     1      15.817   3.790  40.074  1.00  0.00     0.004 C 
BRANCH   4   5
ATOM      5  C   UNL     1      15.811   2.811  38.886  1.00  0.00     0.000 C 
BRANCH   5   6
ATOM      6  C   UNL     1      14.412   2.372  38.407  1.00  0.00     0.000 C 
BRANCH   6   7
ATOM      7  C   UNL     1      14.349   0.965  37.785  1.00  0.00     0.000 C 
BRANCH   7   8
ATOM      8  C   UNL     1      15.650   0.571  37.067  1.00  0.00     0.006 C 
BRANCH   8   9
ATOM      9  C   UNL     1      15.402  -0.427  35.928  1.00  0.00     0.053 C 
BRANCH   9  10
ATOM     10  C   UNL     1      15.232   0.264  34.611  1.00  0.00     0.041 C 
ATOM     11  O   UNL     1      15.799   1.369  34.398  1.00  0.00    -0.550 OA
ATOM     12  O   UNL     1      14.416  -0.291  33.633  1.00  0.00    -0.550 OA
ENDBRANCH   9  10
ENDBRANCH   8   9
ENDBRANCH   7   8
ENDBRANCH   6   7
ENDBRANCH   5   6
ENDBRANCH   4   5
ENDBRANCH   3   4
ENDBRANCH   1   3
BRANCH   2  13
ATOM     13  C   UNL     1      19.412   2.170  41.595  1.00  0.00     0.027 C 
BRANCH  13  14
ATOM     14  C   UNL     1      20.313   1.430  42.597  1.00  0.00     0.004 C 
BRANCH  14  15
ATOM     15  C   UNL     1      19.636   1.238  43.963  1.00  0.00     0.000 C 
BRANCH  15  16
ATOM     16  C   UNL     1      19.589   2.533  44.795  1.00  0.00     0.000 C 
BRANCH  16  17
ATOM     17  C   UNL     1      18.182   3.121  45.010  1.00  0.00    -0.000 C 
BRANCH  17  18
ATOM     18  C   UNL     1      17.159   2.158  45.640  1.00  0.00    -0.000 C 
BRANCH  18  19
ATOM     19  C   UNL     1      15.994   1.783  44.700  1.00  0.00    -0.003 C 
ATOM     20  C   UNL     1      15.933   0.285  44.402  1.00  0.00     0.004 C 
ENDBRANCH  18  19
ENDBRANCH  17  18
ENDBRANCH  16  17
ENDBRANCH  15  16
ENDBRANCH  14  15
ENDBRANCH  13  14
ENDBRANCH   2  13
TORSDOF 15
ENDMDL
MODEL 2
REMARK VINA RESULT:    -3.753      2.481      4.015
REMARK INTER + INTRA:          -9.059
REMARK INTER:                  -6.728
REMARK INTRA:                  -2.331
REMARK UNBOUND:                -2.015
REMARK SMILES CCCCCCCCC=CCCCCCCCC(=O)[O-]
REMARK SMILES IDX 10 1 9 2 11 3 12 4 13 5 14 6 15 7 16 8 17 9 18 10 19 11
REMARK SMILES IDX 20 12 8 13 7 14 6 15 5 16 4 17 3 18 2 19 1 20
REMARK H PARENT
REMARK Flexibility Score: inf
ROOT
ATOM      1  C   UNL     1      18.896   1.891  44.480  1.00  0.00    -0.031 C 
ATOM      2  C   UNL     1      20.052   1.699  43.814  1.00  0.00    -0.031 C 
ENDROOT
BRANCH   1   3
ATOM      3  C   UNL     1      17.669   2.564  43.920  1.00  0.00     0.027 C 
BRANCH   3   4
ATOM      4  C   UNL     1      16.666   1.537  43.372  1.00  0.00     0.004 C 
BRANCH   4   5
ATOM      5  C   UNL     1      16.372   1.732  41.874  1.00  0.00     0.000 C 
BRANCH   5   6
ATOM      6  C   UNL     1      16.928   3.034  41.262  1.00  0.00     0.000 C 
BRANCH   6   7
ATOM      7  C   UNL     1      15.939   3.810  40.373  1.00  0.00     0.000 C 
BRANCH   7   8
ATOM      8  C   UNL     1      15.953   3.337  38.910  1.00  0.00     0.006 C 
BRANCH   8   9
ATOM      9  C   UNL     1      14.613   2.722  38.487  1.00  0.00     0.053 C 
BRANCH   9  10
ATOM     10  C   UNL     1      14.695   1.230  38.385  1.00  0.00     0.041 C 
ATOM     11  O   UNL     1      15.810   0.650  38.464  1.00  0.00    -0.550 OA
ATOM     12  O   UNL     1      13.545   0.483  38.163  1.00  0.00    -0.550 OA
ENDBRANCH   9  10
ENDBRANCH   8   9
ENDBRANCH   7   8
ENDBRANCH   6   7
ENDBRANCH   5   6
ENDBRANCH   4   5
ENDBRANCH   3   4
ENDBRANCH   1   3
BRANCH   2  13
ATOM     13  C   UNL     1      20.331   2.152  42.399  1.00  0.00     0.027 C 
BRANCH  13  14
ATOM     14  C   UNL     1      20.583   0.961  41.462  1.00  0.00     0.004 C 
BRANCH  14  15
ATOM     15  C   UNL     1      19.455  -0.081  41.523  1.00  0.00     0.000 C 
BRANCH  15  16
ATOM     16  C   UNL     1      19.979  -1.523  41.653  1.00  0.00     0.000 C 
BRANCH  16  17
ATOM     17  C   UNL     1      20.191  -2.014  43.097  1.00  0.00    -0.000 C 
BRANCH  17  18
ATOM     18  C   UNL     1      18.986  -1.825  44.036  1.00  0.00    -0.000 C 
BRANCH  18  19
ATOM     19  C   UNL     1      17.864  -2.865  43.830  1.00  0.00    -0.003 C 
ATOM     20  C   UNL     1      18.386  -4.301  43.811  1.00  0.00     0.004 C 
ENDBRANCH  18  19
ENDBRANCH  17  18
ENDBRANCH  16  17
ENDBRANCH  15  16
ENDBRANCH  14  15
ENDBRANCH  13  14
ENDBRANCH   2  13
TORSDOF 15
ENDMDL
MODEL 3
REMARK VINA RESULT:    -3.678      3.089      5.029
REMARK INTER + INTRA:          -8.918
REMARK INTER:                  -6.240
REMARK INTRA:                  -2.678
REMARK UNBOUND:                -2.015
REMARK SMILES CCCCCCCCC=CCCCCCCCC(=O)[O-]
REMARK SMILES IDX 10 1 9 2 11 3 12 4 13 5 14 6 15 7 16 8 17 9 18 10 19 11
REMARK SMILES IDX 20 12 8 13 7 14 6 15 5 16 4 17 3 18 2 19 1 20
REMARK H PARENT
REMARK Flexibility Score: inf
ROOT
ATOM      1  C   UNL     1      20.260   1.960  42.738  1.00  0.00    -0.031 C 
ATOM      2  C   UNL     1      19.958   1.108  41.737  1.00  0.00    -0.031 C 
ENDROOT
BRANCH   1   3
ATOM      3  C   UNL     1      19.930   1.744  44.194  1.00  0.00     0.027 C 
BRANCH   3   4
ATOM      4  C   UNL     1      18.654   2.497  44.599  1.00  0.00     0.004 C 
BRANCH   4   5
ATOM      5  C   UNL     1      17.388   1.631  44.482  1.00  0.00     0.000 C 
BRANCH   5   6
ATOM      6  C   UNL     1      16.513   1.916  43.244  1.00  0.00     0.000 C 
BRANCH   6   7
ATOM      7  C   UNL     1      16.683   3.319  42.634  1.00  0.00     0.000 C 
BRANCH   7   8
ATOM      8  C   UNL     1      16.507   3.332  41.107  1.00  0.00     0.006 C 
BRANCH   8   9
ATOM      9  C   UNL     1      16.322   1.921  40.534  1.00  0.00     0.053 C 
BRANCH   9  10
ATOM     10  C   UNL     1      17.181   1.694  39.328  1.00  0.00     0.041 C 
ATOM     11  O   UNL     1      17.681   2.674  38.713  1.00  0.00    -0.550 OA
ATOM     12  O   UNL     1      17.398   0.405  38.859  1.00  0.00    -0.550 OA
ENDBRANCH   9  10
ENDBRANCH   8   9
ENDBRANCH   7   8
ENDBRANCH   6   7
ENDBRANCH   5   6
ENDBRANCH   4   5
ENDBRANCH   3   4
ENDBRANCH   1   3
BRANCH   2  13
ATOM     13  C   UNL     1      19.210  -0.195  41.894  1.00  0.00     0.027 C 
BRANCH  13  14
ATOM     14  C   UNL     1      20.000  -1.376  41.308  1.00  0.00     0.004 C 
BRANCH  14  15
ATOM     15  C   UNL     1      20.577  -2.293  42.398  1.00  0.00     0.000 C 
BRANCH  15  16
ATOM     16  C   UNL     1      20.063  -1.945  43.807  1.00  0.00     0.000 C 
BRANCH  16  17
ATOM     17  C   UNL     1      19.180  -3.021  44.465  1.00  0.00    -0.000 C 
BRANCH  17  18
ATOM     18  C   UNL     1      17.694  -2.984  44.064  1.00  0.00    -0.000 C 
BRANCH  18  19
ATOM     19  C   UNL     1      17.267  -4.144  43.140  1.00  0.00    -0.003 C 
ATOM     20  C   UNL     1      18.332  -5.235  43.032  1.00  0.00     0.004 C 
ENDBRANCH  18  19
ENDBRANCH  17  18
ENDBRANCH  16  17
ENDBRANCH  15  16
ENDBRANCH  14  15
ENDBRANCH  13  14
ENDBRANCH   2  13
TORSDOF 15
ENDMDL
MODEL 4
REMARK VINA RESULT:    -3.670      2.225      4.076
REMARK INTER + INTRA:          -8.904
REMARK INTER:                  -7.161
REMARK INTRA:                  -1.743
REMARK UNBOUND:                -2.015
REMARK SMILES CCCCCCCCC=CCCCCCCCC(=O)[O-]
REMARK SMILES IDX 10 1 9 2 11 3 12 4 13 5 14 6 15 7 16 8 17 9 18 10 19 11
REMARK SMILES IDX 20 12 8 13 7 14 6 15 5 16 4 17 3 18 2 19 1 20
REMARK H PARENT
REMARK Flexibility Score: inf
ROOT
ATOM      1  C   UNL     1      19.594   0.986  43.243  1.00  0.00    -0.031 C 
ATOM      2  C   UNL     1      18.717   0.943  44.265  1.00  0.00    -0.031 C 
ENDROOT
BRANCH   1   3
ATOM      3  C   UNL     1      20.063   2.241  42.550  1.00  0.00     0.027 C 
BRANCH   3   4
ATOM      4  C   UNL     1      19.531   2.320  41.111  1.00  0.00     0.004 C 
BRANCH   4   5
ATOM      5  C   UNL     1      18.652   3.559  40.868  1.00  0.00     0.000 C 
BRANCH   5   6
ATOM      6  C   UNL     1      17.148   3.359  41.146  1.00  0.00     0.000 C 
BRANCH   6   7
ATOM      7  C   UNL     1      16.539   2.078  40.549  1.00  0.00     0.000 C 
BRANCH   7   8
ATOM      8  C   UNL     1      15.739   2.340  39.262  1.00  0.00     0.006 C 
BRANCH   8   9
ATOM      9  C   UNL     1      15.997   1.271  38.193  1.00  0.00     0.053 C 
BRANCH   9  10
ATOM     10  C   UNL     1      14.719   0.727  37.633  1.00  0.00     0.041 C 
ATOM     11  O   UNL     1      13.702   0.615  38.368  1.00  0.00    -0.550 OA
ATOM     12  O   UNL     1      14.661   0.306  36.310  1.00  0.00    -0.550 OA
ENDBRANCH   9  10
ENDBRANCH   8   9
ENDBRANCH   7   8
ENDBRANCH   6   7
ENDBRANCH   5   6
ENDBRANCH   4   5
ENDBRANCH   3   4
ENDBRANCH   1   3
BRANCH   2  13
ATOM     13  C   UNL     1      18.025   2.140  44.875  1.00  0.00     0.027 C 
BRANCH  13  14
ATOM     14  C   UNL     1      16.546   2.209  44.465  1.00  0.00     0.004 C 
BRANCH  14  15
ATOM     15  C   UNL     1      16.012   0.856  43.967  1.00  0.00     0.000 C 
BRANCH  15  16
ATOM     16  C   UNL     1      15.080   0.170  44.983  1.00  0.00     0.000 C 
BRANCH  16  17
ATOM     17  C   UNL     1      14.409  -1.122  44.484  1.00  0.00    -0.000 C 
BRANCH  17  18
ATOM     18  C   UNL     1      13.004  -1.393  45.055  1.00  0.00    -0.000 C 
BRANCH  18  19
ATOM     19  C   UNL     1      11.916  -0.440  44.516  1.00  0.00    -0.003 C 
ATOM     20  C   UNL     1      10.867  -0.086  45.569  1.00  0.00     0.004 C 
ENDBRANCH  18  19
ENDBRANCH  17  18
ENDBRANCH  16  17
ENDBRANCH  15  16
ENDBRANCH  14  15
ENDBRANCH  13  14
ENDBRANCH   2  13
TORSDOF 15
ENDMDL
MODEL 5
REMARK VINA RESULT:    -3.642      1.498      2.329
REMARK INTER + INTRA:          -8.850
REMARK INTER:                  -6.157
REMARK INTRA:                  -2.694
REMARK UNBOUND:                -2.015
REMARK SMILES CCCCCCCCC=CCCCCCCCC(=O)[O-]
REMARK SMILES IDX 10 1 9 2 11 3 12 4 13 5 14 6 15 7 16 8 17 9 18 10 19 11
REMARK SMILES IDX 20 12 8 13 7 14 6 15 5 16 4 17 3 18 2 19 1 20
REMARK H PARENT
REMARK Flexibility Score: inf
ROOT
ATOM      1  C   UNL     1      19.014   1.955  39.599  1.00  0.00    -0.031 C 
ATOM      2  C   UNL     1      19.717   1.100  40.367  1.00  0.00    -0.031 C 
ENDROOT
BRANCH   1   3
ATOM      3  C   UNL     1      19.271   3.437  39.483  1.00  0.00     0.027 C 
BRANCH   3   4
ATOM      4  C   UNL     1      18.094   4.162  38.813  1.00  0.00     0.004 C 
BRANCH   4   5
ATOM      5  C   UNL     1      17.063   3.192  38.209  1.00  0.00     0.000 C 
BRANCH   5   6
ATOM      6  C   UNL     1      15.698   3.158  38.926  1.00  0.00     0.000 C 
BRANCH   6   7
ATOM      7  C   UNL     1      15.090   1.755  39.102  1.00  0.00     0.000 C 
BRANCH   7   8
ATOM      8  C   UNL     1      15.639   0.735  38.090  1.00  0.00     0.006 C 
BRANCH   8   9
ATOM      9  C   UNL     1      14.634   0.430  36.972  1.00  0.00     0.053 C 
BRANCH   9  10
ATOM     10  C   UNL     1      15.261   0.544  35.617  1.00  0.00     0.041 C 
ATOM     11  O   UNL     1      15.388  -0.477  34.890  1.00  0.00    -0.550 OA
ATOM     12  O   UNL     1      15.740   1.769  35.171  1.00  0.00    -0.550 OA
ENDBRANCH   9  10
ENDBRANCH   8   9
ENDBRANCH   7   8
ENDBRANCH   6   7
ENDBRANCH   5   6
ENDBRANCH   4   5
ENDBRANCH   3   4
ENDBRANCH   1   3
BRANCH   2  13
ATOM     13  C   UNL     1      20.867   1.481  41.271  1.00  0.00     0.027 C 
BRANCH  13  14
ATOM     14  C   UNL     1      20.390   1.765  42.704  1.00  0.00     0.004 C 
BRANCH  14  15
ATOM     15  C   UNL     1      19.533   0.624  43.274  1.00  0.00     0.000 C 
BRANCH  15  16
ATOM     16  C   UNL     1      18.368   1.128  44.146  1.00  0.00     0.000 C 
BRANCH  16  17
ATOM     17  C   UNL     1      16.975   1.024  43.499  1.00  0.00    -0.000 C 
BRANCH  17  18
ATOM     18  C   UNL     1      16.704   2.025  42.360  1.00  0.00    -0.000 C 
BRANCH  18  19
ATOM     19  C   UNL     1      16.484   3.475  42.843  1.00  0.00    -0.003 C 
ATOM     20  C   UNL     1      17.666   4.390  42.524  1.00  0.00     0.004 C 
ENDBRANCH  18  19
ENDBRANCH  17  18
ENDBRANCH  16  17
ENDBRANCH  15  16
ENDBRANCH  14  15
ENDBRANCH  13  14
ENDBRANCH   2  13
TORSDOF 15
ENDMDL
MODEL 6
REMARK VINA RESULT:    -3.625      2.085      3.586
REMARK INTER + INTRA:          -8.819
REMARK INTER:                  -5.751
REMARK INTRA:                  -3.068
REMARK UNBOUND:                -2.015
REMARK SMILES CCCCCCCCC=CCCCCCCCC(=O)[O-]
REMARK SMILES IDX 10 1 9 2 11 3 12 4 13 5 14 6 15 7 16 8 17 9 18 10 19 11
REMARK SMILES IDX 20 12 8 13 7 14 6 15 5 16 4 17 3 18 2 19 1 20
REMARK H PARENT
REMARK Flexibility Score: inf
ROOT
ATOM      1  C   UNL     1      18.431   4.612  40.367  1.00  0.00    -0.031 C 
ATOM      2  C   UNL     1      17.891   3.989  41.433  1.00  0.00    -0.031 C 
ENDROOT
BRANCH   1   3
ATOM      3  C   UNL     1      17.756   4.794  39.031  1.00  0.00     0.027 C 
BRANCH   3   4
ATOM      4  C   UNL     1      18.566   4.144  37.899  1.00  0.00     0.004 C 
BRANCH   4   5
ATOM      5  C   UNL     1      19.349   2.903  38.363  1.00  0.00     0.000 C 
BRANCH   5   6
ATOM      6  C   UNL     1      18.782   1.553  37.880  1.00  0.00     0.000 C 
BRANCH   6   7
ATOM      7  C   UNL     1      17.796   0.877  38.850  1.00  0.00     0.000 C 
BRANCH   7   8
ATOM      8  C   UNL     1      16.435   0.571  38.201  1.00  0.00     0.006 C 
BRANCH   8   9
ATOM      9  C   UNL     1      15.451   1.738  38.345  1.00  0.00     0.053 C 
BRANCH   9  10
ATOM     10  C   UNL     1      15.315   2.509  37.068  1.00  0.00     0.041 C 
ATOM     11  O   UNL     1      15.579   1.961  35.965  1.00  0.00    -0.550 OA
ATOM     12  O   UNL     1      14.934   3.845  37.099  1.00  0.00    -0.550 OA
ENDBRANCH   9  10
ENDBRANCH   8   9
ENDBRANCH   7   8
ENDBRANCH   6   7
ENDBRANCH   5   6
ENDBRANCH   4   5
ENDBRANCH   3   4
ENDBRANCH   1   3
BRANCH   2  13
ATOM     13  C   UNL     1      16.527   3.338  41.467  1.00  0.00     0.027 C 
BRANCH  13  14
ATOM     14  C   UNL     1      16.589   1.926  42.072  1.00  0.00     0.004 C 
BRANCH  14  15
ATOM     15  C   UNL     1      17.055   1.937  43.537  1.00  0.00     0.000 C 
BRANCH  15  16
ATOM     16  C   UNL     1      17.706   0.609  43.968  1.00  0.00     0.000 C 
BRANCH  16  17
ATOM     17  C   UNL     1      19.245   0.620  44.010  1.00  0.00    -0.000 C 
BRANCH  17  18
ATOM     18  C   UNL     1      19.896   2.003  43.823  1.00  0.00    -0.000 C 
BRANCH  18  19
ATOM     19  C   UNL     1      20.837   2.089  42.603  1.00  0.00    -0.003 C 
ATOM     20  C   UNL     1      20.411   1.168  41.461  1.00  0.00     0.004 C 
ENDBRANCH  18  19
ENDBRANCH  17  18
ENDBRANCH  16  17
ENDBRANCH  15  16
ENDBRANCH  14  15
ENDBRANCH  13  14
ENDBRANCH   2  13
TORSDOF 15
ENDMDL
MODEL 7
REMARK VINA RESULT:    -3.616      4.227      5.712
REMARK INTER + INTRA:          -8.801
REMARK INTER:                  -6.267
REMARK INTRA:                  -2.534
REMARK UNBOUND:                -2.015
REMARK SMILES CCCCCCCCC=CCCCCCCCC(=O)[O-]
REMARK SMILES IDX 10 1 9 2 11 3 12 4 13 5 14 6 15 7 16 8 17 9 18 10 19 11
REMARK SMILES IDX 20 12 8 13 7 14 6 15 5 16 4 17 3 18 2 19 1 20
REMARK H PARENT
REMARK Flexibility Score: inf
ROOT
ATOM      1  C   UNL     1      19.055  -1.093  42.624  1.00  0.00    -0.031 C 
ATOM      2  C   UNL     1      19.253  -0.058  41.783  1.00  0.00    -0.031 C 
ENDROOT
BRANCH   1   3
ATOM      3  C   UNL     1      19.907  -1.414  43.826  1.00  0.00     0.027 C 
BRANCH   3   4
ATOM      4  C   UNL     1      19.472  -2.730  44.488  1.00  0.00     0.004 C 
BRANCH   4   5
ATOM      5  C   UNL     1      18.061  -3.172  44.064  1.00  0.00     0.000 C 
BRANCH   5   6
ATOM      6  C   UNL     1      18.004  -4.468  43.229  1.00  0.00     0.000 C 
BRANCH   6   7
ATOM      7  C   UNL     1      19.371  -5.010  42.774  1.00  0.00     0.000 C 
BRANCH   7   8
ATOM      8  C   UNL     1      19.601  -4.857  41.261  1.00  0.00     0.006 C 
BRANCH   8   9
ATOM      9  C   UNL     1      18.474  -4.068  40.582  1.00  0.00     0.053 C 
BRANCH   9  10
ATOM     10  C   UNL     1      18.996  -3.175  39.499  1.00  0.00     0.041 C 
ATOM     11  O   UNL     1      20.169  -2.719  39.564  1.00  0.00    -0.550 OA
ATOM     12  O   UNL     1      18.176  -2.814  38.438  1.00  0.00    -0.550 OA
ENDBRANCH   9  10
ENDBRANCH   8   9
ENDBRANCH   7   8
ENDBRANCH   6   7
ENDBRANCH   5   6
ENDBRANCH   4   5
ENDBRANCH   3   4
ENDBRANCH   1   3
BRANCH   2  13
ATOM     13  C   UNL     1      20.382   0.942  41.878  1.00  0.00     0.027 C 
BRANCH  13  14
ATOM     14  C   UNL     1      19.890   2.302  42.398  1.00  0.00     0.004 C 
BRANCH  14  15
ATOM     15  C   UNL     1      19.739   2.325  43.928  1.00  0.00     0.000 C 
BRANCH  15  16
ATOM     16  C   UNL     1      18.356   2.826  44.385  1.00  0.00     0.000 C 
BRANCH  16  17
ATOM     17  C   UNL     1      17.439   1.748  44.991  1.00  0.00    -0.000 C 
BRANCH  17  18
ATOM     18  C   UNL     1      16.431   1.119  44.012  1.00  0.00    -0.000 C 
BRANCH  18  19
ATOM     19  C   UNL     1      15.893  -0.255  44.465  1.00  0.00    -0.003 C 
ATOM     20  C   UNL     1      14.367  -0.300  44.528  1.00  0.00     0.004 C 
ENDBRANCH  18  19
ENDBRANCH  17  18
ENDBRANCH  16  17
ENDBRANCH  15  16
ENDBRANCH  14  15
ENDBRANCH  13  14
ENDBRANCH   2  13
TORSDOF 15
ENDMDL
MODEL 8
REMARK VINA RESULT:    -3.592      1.955      4.226
REMARK INTER + INTRA:          -8.757
REMARK INTER:                  -5.912
REMARK INTRA:                  -2.844
REMARK UNBOUND:                -2.015
REMARK SMILES CCCCCCCCC=CCCCCCCCC(=O)[O-]
REMARK SMILES IDX 10 1 9 2 11 3 12 4 13 5 14 6 15 7 16 8 17 9 18 10 19 11
REMARK SMILES IDX 20 12 8 13 7 14 6 15 5 16 4 17 3 18 2 19 1 20
REMARK H PARENT
REMARK Flexibility Score: inf
ROOT
ATOM      1  C   UNL     1      17.196   3.351  36.029  1.00  0.00    -0.031 C 
ATOM      2  C   UNL     1      15.869   3.159  36.167  1.00  0.00    -0.031 C 
ENDROOT
BRANCH   1   3
ATOM      3  C   UNL     1      18.121   3.843  37.114  1.00  0.00     0.027 C 
BRANCH   3   4
ATOM      4  C   UNL     1      18.874   2.681  37.780  1.00  0.00     0.004 C 
BRANCH   4   5
ATOM      5  C   UNL     1      18.829   1.387  36.948  1.00  0.00     0.000 C 
BRANCH   5   6
ATOM      6  C   UNL     1      18.465   0.113  37.738  1.00  0.00     0.000 C 
BRANCH   6   7
ATOM      7  C   UNL     1      17.240  -0.654  37.208  1.00  0.00     0.000 C 
BRANCH   7   8
ATOM      8  C   UNL     1      16.959  -0.377  35.722  1.00  0.00     0.006 C 
BRANCH   8   9
ATOM      9  C   UNL     1      15.457  -0.341  35.414  1.00  0.00     0.053 C 
BRANCH   9  10
ATOM     10  C   UNL     1      15.189   0.113  34.012  1.00  0.00     0.041 C 
ATOM     11  O   UNL     1      14.165  -0.292  33.400  1.00  0.00    -0.550 OA
ATOM     12  O   UNL     1      16.089   0.952  33.368  1.00  0.00    -0.550 OA
ENDBRANCH   9  10
ENDBRANCH   8   9
ENDBRANCH   7   8
ENDBRANCH   6   7
ENDBRANCH   5   6
ENDBRANCH   4   5
ENDBRANCH   3   4
ENDBRANCH   1   3
BRANCH   2  13
ATOM     13  C   UNL     1      15.071   3.431  37.421  1.00  0.00     0.027 C 
BRANCH  13  14
ATOM     14  C   UNL     1      14.671   2.130  38.133  1.00  0.00     0.004 C 
BRANCH  14  15
ATOM     15  C   UNL     1      15.542   1.845  39.367  1.00  0.00     0.000 C 
BRANCH  15  16
ATOM     16  C   UNL     1      15.975   3.128  40.103  1.00  0.00     0.000 C 
BRANCH  16  17
ATOM     17  C   UNL     1      17.101   2.940  41.136  1.00  0.00    -0.000 C 
BRANCH  17  18
ATOM     18  C   UNL     1      16.693   3.185  42.600  1.00  0.00    -0.000 C 
BRANCH  18  19
ATOM     19  C   UNL     1      17.211   2.111  43.580  1.00  0.00    -0.003 C 
ATOM     20  C   UNL     1      16.245   0.937  43.735  1.00  0.00     0.004 C 
ENDBRANCH  18  19
ENDBRANCH  17  18
ENDBRANCH  16  17
ENDBRANCH  15  16
ENDBRANCH  14  15
ENDBRANCH  13  14
ENDBRANCH   2  13
TORSDOF 15
ENDMDL
MODEL 9
REMARK VINA RESULT:    -3.588      3.649      7.150
REMARK INTER + INTRA:          -8.750
REMARK INTER:                  -6.047
REMARK INTRA:                  -2.703
REMARK UNBOUND:                -2.015
REMARK SMILES CCCCCCCCC=CCCCCCCCC(=O)[O-]
REMARK SMILES IDX 10 1 9 2 11 3 12 4 13 5 14 6 15 7 16 8 17 9 18 10 19 11
REMARK SMILES IDX 20 12 8 13 7 14 6 15 5 16 4 17 3 18 2 19 1 20
REMARK H PARENT
REMARK Flexibility Score: inf
ROOT
ATOM      1  C   UNL     1      18.263   0.124  38.241  1.00  0.00    -0.031 C 
ATOM      2  C   UNL     1      17.018  -0.233  37.867  1.00  0.00    -0.031 C 
ENDROOT
BRANCH   1   3
ATOM      3  C   UNL     1      18.913   1.452  37.944  1.00  0.00     0.027 C 
BRANCH   3   4
ATOM      4  C   UNL     1      19.600   2.033  39.189  1.00  0.00     0.004 C 
BRANCH   4   5
ATOM      5  C   UNL     1      20.392   0.977  39.980  1.00  0.00     0.000 C 
BRANCH   5   6
ATOM      6  C   UNL     1      20.010   0.853  41.470  1.00  0.00     0.000 C 
BRANCH   6   7
ATOM      7  C   UNL     1      20.657   1.899  42.397  1.00  0.00     0.000 C 
BRANCH   7   8
ATOM      8  C   UNL     1      19.954   2.003  43.761  1.00  0.00     0.006 C 
BRANCH   8   9
ATOM      9  C   UNL     1      18.929   0.882  43.971  1.00  0.00     0.053 C 
BRANCH   9  10
ATOM     10  C   UNL     1      17.634   1.408  44.509  1.00  0.00     0.041 C 
ATOM     11  O   UNL     1      16.590   0.706  44.446  1.00  0.00    -0.550 OA
ATOM     12  O   UNL     1      17.571   2.688  45.045  1.00  0.00    -0.550 OA
ENDBRANCH   9  10
ENDBRANCH   8   9
ENDBRANCH   7   8
ENDBRANCH   6   7
ENDBRANCH   5   6
ENDBRANCH   4   5
ENDBRANCH   3   4
ENDBRANCH   1   3
BRANCH   2  13
ATOM     13  C   UNL     1      16.069   0.620  37.059  1.00  0.00     0.027 C 
BRANCH  13  14
ATOM     14  C   UNL     1      14.678   0.692  37.709  1.00  0.00     0.004 C 
BRANCH  14  15
ATOM     15  C   UNL     1      14.326   2.111  38.184  1.00  0.00     0.000 C 
BRANCH  15  16
ATOM     16  C   UNL     1      15.431   3.137  37.875  1.00  0.00     0.000 C 
BRANCH  16  17
ATOM     17  C   UNL     1      16.166   3.697  39.107  1.00  0.00    -0.000 C 
BRANCH  17  18
ATOM     18  C   UNL     1      16.210   2.756  40.326  1.00  0.00    -0.000 C 
BRANCH  18  19
ATOM     19  C   UNL     1      16.475   3.480  41.664  1.00  0.00    -0.003 C 
ATOM     20  C   UNL     1      17.826   4.194  41.692  1.00  0.00     0.004 C 
ENDBRANCH  18  19
ENDBRANCH  17  18
ENDBRANCH  16  17
ENDBRANCH  15  16
ENDBRANCH  14  15
ENDBRANCH  13  14
ENDBRANCH   2  13
TORSDOF 15
ENDMDL
