MODEL 1
REMARK VINA RESULT:    -6.931      0.000      0.000
REMARK INTER + INTRA:          -8.673
REMARK INTER:                  -8.349
REMARK INTRA:                  -0.324
REMARK UNBOUND:                -0.324
REMARK SMILES O=c1c(O)c(-c2ccc(O)c(O)c2)oc2cc(O)cc(O)c12
REMARK SMILES IDX 5 1 3 2 2 3 1 4 22 5 20 6 19 7 17 8 16 9 15 10 14 11 6 12
REMARK SMILES IDX 7 13 8 14 9 15 13 16 11 17 10 18 12 20 4 22 21 24 18 26
REMARK H PARENT 10 19 12 21 4 23 21 25 18 27
REMARK Flexibility Score: inf
ROOT
ATOM      1  C   UNL     1      13.042  21.337 -10.237  1.00  0.00     0.180 A 
ATOM      2  C   UNL     1      13.945  21.344  -9.159  1.00  0.00     0.208 A 
ATOM      3  C   UNL     1      15.229  21.879  -9.350  1.00  0.00     0.238 A 
ATOM      4  O   UNL     1      16.013  21.933  -8.366  1.00  0.00    -0.285 OA
ATOM      5  C   UNL     1      15.600  22.385 -10.619  1.00  0.00     0.111 A 
ATOM      6  C   UNL     1      16.888  22.912 -10.935  1.00  0.00     0.134 A 
ATOM      7  C   UNL     1      17.104  23.504 -12.186  1.00  0.00     0.093 A 
ATOM      8  C   UNL     1      16.101  23.529 -13.154  1.00  0.00     0.123 A 
ATOM      9  C   UNL     1      14.855  22.962 -12.876  1.00  0.00     0.094 A 
ATOM     10  C   UNL     1      14.599  22.396 -11.624  1.00  0.00     0.146 A 
ATOM     11  O   UNL     1      13.398  21.878 -11.396  1.00  0.00    -0.452 OA
ENDROOT
BRANCH   1  12
ATOM     12  C   UNL     1      11.681  20.768 -10.121  1.00  0.00     0.025 A 
ATOM     13  C   UNL     1      10.623  21.589  -9.701  1.00  0.00     0.016 A 
ATOM     14  C   UNL     1       9.326  21.078  -9.604  1.00  0.00     0.051 A 
ATOM     15  C   UNL     1       9.064  19.744  -9.940  1.00  0.00     0.157 A 
ATOM     16  C   UNL     1      11.411  19.434 -10.477  1.00  0.00     0.062 A 
ATOM     17  C   UNL     1      10.113  18.920 -10.383  1.00  0.00     0.158 A 
BRANCH  15  18
ATOM     18  O   UNL     1       7.770  19.236  -9.839  1.00  0.00    -0.504 OA
ATOM     19  H   UNL     1       7.365  18.666 -10.573  1.00  0.00     0.293 HD
ENDBRANCH  15  18
BRANCH  17  20
ATOM     20  O   UNL     1       9.884  17.591 -10.739  1.00  0.00    -0.504 OA
ATOM     21  H   UNL     1      10.605  16.883 -10.667  1.00  0.00     0.293 HD
ENDBRANCH  17  20
ENDBRANCH   1  12
BRANCH   2  22
ATOM     22  O   UNL     1      13.550  20.861  -7.908  1.00  0.00    -0.502 OA
ATOM     23  H   UNL     1      13.956  20.032  -7.492  1.00  0.00     0.293 HD
ENDBRANCH   2  22
BRANCH   6  24
ATOM     24  O   UNL     1      17.988  22.856 -10.074  1.00  0.00    -0.507 OA
ATOM     25  H   UNL     1      18.730  23.539 -10.043  1.00  0.00     0.293 HD
ENDBRANCH   6  24
BRANCH   8  26
ATOM     26  O   UNL     1      16.355  24.111 -14.394  1.00  0.00    -0.508 OA
ATOM     27  H   UNL     1      16.584  23.549 -15.206  1.00  0.00     0.293 HD
ENDBRANCH   8  26
TORSDOF 6
ENDMDL
MODEL 2
REMARK VINA RESULT:    -6.898      2.496      7.555
REMARK INTER + INTRA:          -8.633
REMARK INTER:                  -8.420
REMARK INTRA:                  -0.213
REMARK UNBOUND:                -0.324
REMARK SMILES O=c1c(O)c(-c2ccc(O)c(O)c2)oc2cc(O)cc(O)c12
REMARK SMILES IDX 5 1 3 2 2 3 1 4 22 5 20 6 19 7 17 8 16 9 15 10 14 11 6 12
REMARK SMILES IDX 7 13 8 14 9 15 13 16 11 17 10 18 12 20 4 22 21 24 18 26
REMARK H PARENT 10 19 12 21 4 23 21 25 18 27
REMARK Flexibility Score: inf
ROOT
ATOM      1  C   UNL     1      10.886  20.783  -9.596  1.00  0.00     0.180 A 
ATOM      2  C   UNL     1       9.508  21.042  -9.692  1.00  0.00     0.208 A 
ATOM      3  C   UNL     1       8.605  20.166  -9.068  1.00  0.00     0.238 A 
ATOM      4  O   UNL     1       7.376  20.434  -9.113  1.00  0.00    -0.285 OA
ATOM      5  C   UNL     1       9.090  19.034  -8.371  1.00  0.00     0.111 A 
ATOM      6  C   UNL     1       8.263  18.058  -7.737  1.00  0.00     0.134 A 
ATOM      7  C   UNL     1       8.854  17.050  -6.965  1.00  0.00     0.093 A 
ATOM      8  C   UNL     1      10.240  16.943  -6.857  1.00  0.00     0.123 A 
ATOM      9  C   UNL     1      11.059  17.857  -7.522  1.00  0.00     0.094 A 
ATOM     10  C   UNL     1      10.499  18.895  -8.271  1.00  0.00     0.146 A 
ATOM     11  O   UNL     1      11.313  19.750  -8.879  1.00  0.00    -0.452 OA
ENDROOT
BRANCH   1  12
ATOM     12  C   UNL     1      11.898  21.646 -10.246  1.00  0.00     0.025 A 
ATOM     13  C   UNL     1      12.151  22.925  -9.727  1.00  0.00     0.016 A 
ATOM     14  C   UNL     1      13.116  23.749 -10.312  1.00  0.00     0.051 A 
ATOM     15  C   UNL     1      13.853  23.301 -11.416  1.00  0.00     0.157 A 
ATOM     16  C   UNL     1      12.653  21.191 -11.342  1.00  0.00     0.062 A 
ATOM     17  C   UNL     1      13.622  22.013 -11.930  1.00  0.00     0.158 A 
BRANCH  15  18
ATOM     18  O   UNL     1      14.813  24.125 -12.000  1.00  0.00    -0.504 OA
ATOM     19  H   UNL     1      15.053  25.025 -11.601  1.00  0.00     0.293 HD
ENDBRANCH  15  18
BRANCH  17  20
ATOM     20  O   UNL     1      14.348  21.531 -13.018  1.00  0.00    -0.504 OA
ATOM     21  H   UNL     1      14.785  22.151 -13.690  1.00  0.00     0.293 HD
ENDBRANCH  17  20
ENDBRANCH   1  12
BRANCH   2  22
ATOM     22  O   UNL     1       9.052  22.178 -10.367  1.00  0.00    -0.502 OA
ATOM     23  H   UNL     1       9.600  23.027 -10.436  1.00  0.00     0.293 HD
ENDBRANCH   2  22
BRANCH   6  24
ATOM     24  O   UNL     1       6.871  18.018  -7.856  1.00  0.00    -0.507 OA
ATOM     25  H   UNL     1       6.296  18.795  -8.147  1.00  0.00     0.293 HD
ENDBRANCH   6  24
BRANCH   8  26
ATOM     26  O   UNL     1      10.793  15.918  -6.093  1.00  0.00    -0.508 OA
ATOM     27  H   UNL     1      10.253  15.433  -5.386  1.00  0.00     0.293 HD
ENDBRANCH   8  26
TORSDOF 6
ENDMDL
MODEL 3
REMARK VINA RESULT:    -6.766      3.228      8.495
REMARK INTER + INTRA:          -8.474
REMARK INTER:                  -8.308
REMARK INTRA:                  -0.166
REMARK UNBOUND:                -0.324
REMARK SMILES O=c1c(O)c(-c2ccc(O)c(O)c2)oc2cc(O)cc(O)c12
REMARK SMILES IDX 5 1 3 2 2 3 1 4 22 5 20 6 19 7 17 8 16 9 15 10 14 11 6 12
REMARK SMILES IDX 7 13 8 14 9 15 13 16 11 17 10 18 12 20 4 22 21 24 18 26
REMARK H PARENT 10 19 12 21 4 23 21 25 18 27
REMARK Flexibility Score: inf
ROOT
ATOM      1  C   UNL     1      10.018  18.687  -8.943  1.00  0.00     0.180 A 
ATOM      2  C   UNL     1       8.879  19.229  -8.323  1.00  0.00     0.208 A 
ATOM      3  C   UNL     1       7.955  18.362  -7.717  1.00  0.00     0.238 A 
ATOM      4  O   UNL     1       6.965  18.858  -7.117  1.00  0.00    -0.285 OA
ATOM      5  C   UNL     1       8.172  16.964  -7.753  1.00  0.00     0.111 A 
ATOM      6  C   UNL     1       7.281  15.992  -7.208  1.00  0.00     0.134 A 
ATOM      7  C   UNL     1       7.660  14.644  -7.185  1.00  0.00     0.093 A 
ATOM      8  C   UNL     1       8.866  14.225  -7.746  1.00  0.00     0.123 A 
ATOM      9  C   UNL     1       9.718  15.160  -8.335  1.00  0.00     0.094 A 
ATOM     10  C   UNL     1       9.384  16.517  -8.341  1.00  0.00     0.146 A 
ATOM     11  O   UNL     1      10.227  17.376  -8.902  1.00  0.00    -0.452 OA
ENDROOT
BRANCH   1  12
ATOM     12  C   UNL     1      11.023  19.534  -9.623  1.00  0.00     0.025 A 
ATOM     13  C   UNL     1      11.819  20.406  -8.864  1.00  0.00     0.016 A 
ATOM     14  C   UNL     1      12.788  21.199  -9.482  1.00  0.00     0.051 A 
ATOM     15  C   UNL     1      12.988  21.122 -10.867  1.00  0.00     0.157 A 
ATOM     16  C   UNL     1      11.240  19.443 -11.009  1.00  0.00     0.062 A 
ATOM     17  C   UNL     1      12.212  20.235 -11.632  1.00  0.00     0.158 A 
BRANCH  15  18
ATOM     18  O   UNL     1      13.954  21.916 -11.481  1.00  0.00    -0.504 OA
ATOM     19  H   UNL     1      14.900  21.584 -11.626  1.00  0.00     0.293 HD
ENDBRANCH  15  18
BRANCH  17  20
ATOM     20  O   UNL     1      12.395  20.123 -13.010  1.00  0.00    -0.504 OA
ATOM     21  H   UNL     1      11.890  19.443 -13.567  1.00  0.00     0.293 HD
ENDBRANCH  17  20
ENDBRANCH   1  12
BRANCH   2  22
ATOM     22  O   UNL     1       8.695  20.614  -8.279  1.00  0.00    -0.502 OA
ATOM     23  H   UNL     1       9.466  21.268  -8.333  1.00  0.00     0.293 HD
ENDBRANCH   2  22
BRANCH   6  24
ATOM     24  O   UNL     1       6.012  16.291  -6.705  1.00  0.00    -0.507 OA
ATOM     25  H   UNL     1       5.795  17.089  -6.128  1.00  0.00     0.293 HD
ENDBRANCH   6  24
BRANCH   8  26
ATOM     26  O   UNL     1       9.204  12.874  -7.720  1.00  0.00    -0.508 OA
ATOM     27  H   UNL     1       9.867  12.506  -7.047  1.00  0.00     0.293 HD
ENDBRANCH   8  26
TORSDOF 6
ENDMDL
MODEL 4
REMARK VINA RESULT:    -6.736      3.768      5.916
REMARK INTER + INTRA:          -8.438
REMARK INTER:                  -8.185
REMARK INTRA:                  -0.254
REMARK UNBOUND:                -0.324
REMARK SMILES O=c1c(O)c(-c2ccc(O)c(O)c2)oc2cc(O)cc(O)c12
REMARK SMILES IDX 5 1 3 2 2 3 1 4 22 5 20 6 19 7 17 8 16 9 15 10 14 11 6 12
REMARK SMILES IDX 7 13 8 14 9 15 13 16 11 17 10 18 12 20 4 22 21 24 18 26
REMARK H PARENT 10 19 12 21 4 23 21 25 18 27
REMARK Flexibility Score: inf
ROOT
ATOM      1  C   UNL     1       9.887  17.884  -8.106  1.00  0.00     0.180 A 
ATOM      2  C   UNL     1       9.545  19.080  -7.451  1.00  0.00     0.208 A 
ATOM      3  C   UNL     1       9.925  20.304  -8.024  1.00  0.00     0.238 A 
ATOM      4  O   UNL     1       9.569  21.372  -7.461  1.00  0.00    -0.285 OA
ATOM      5  C   UNL     1      10.657  20.317  -9.236  1.00  0.00     0.111 A 
ATOM      6  C   UNL     1      11.129  21.498  -9.884  1.00  0.00     0.134 A 
ATOM      7  C   UNL     1      11.729  21.400 -11.146  1.00  0.00     0.093 A 
ATOM      8  C   UNL     1      11.933  20.161 -11.752  1.00  0.00     0.123 A 
ATOM      9  C   UNL     1      11.529  18.995 -11.100  1.00  0.00     0.094 A 
ATOM     10  C   UNL     1      10.895  19.063  -9.856  1.00  0.00     0.146 A 
ATOM     11  O   UNL     1      10.516  17.932  -9.275  1.00  0.00    -0.452 OA
ENDROOT
BRANCH   1  12
ATOM     12  C   UNL     1       9.543  16.556  -7.551  1.00  0.00     0.025 A 
ATOM     13  C   UNL     1      10.242  16.071  -6.435  1.00  0.00     0.016 A 
ATOM     14  C   UNL     1       9.920  14.829  -5.882  1.00  0.00     0.051 A 
ATOM     15  C   UNL     1       8.884  14.060  -6.427  1.00  0.00     0.157 A 
ATOM     16  C   UNL     1       8.490  15.790  -8.083  1.00  0.00     0.062 A 
ATOM     17  C   UNL     1       8.163  14.546  -7.530  1.00  0.00     0.158 A 
BRANCH  15  18
ATOM     18  O   UNL     1       8.567  12.821  -5.875  1.00  0.00    -0.504 OA
ATOM     19  H   UNL     1       8.895  12.549  -4.956  1.00  0.00     0.293 HD
ENDBRANCH  15  18
BRANCH  17  20
ATOM     20  O   UNL     1       7.117  13.812  -8.088  1.00  0.00    -0.504 OA
ATOM     21  H   UNL     1       7.230  12.846  -8.373  1.00  0.00     0.293 HD
ENDBRANCH  17  20
ENDBRANCH   1  12
BRANCH   2  22
ATOM     22  O   UNL     1       8.803  19.045  -6.267  1.00  0.00    -0.502 OA
ATOM     23  H   UNL     1       7.805  19.215  -6.245  1.00  0.00     0.293 HD
ENDBRANCH   2  22
BRANCH   6  24
ATOM     24  O   UNL     1      11.059  22.777  -9.325  1.00  0.00    -0.507 OA
ATOM     25  H   UNL     1      11.752  23.174  -8.708  1.00  0.00     0.293 HD
ENDBRANCH   6  24
BRANCH   8  26
ATOM     26  O   UNL     1      12.547  20.099 -13.001  1.00  0.00    -0.508 OA
ATOM     27  H   UNL     1      12.596  20.909 -13.608  1.00  0.00     0.293 HD
ENDBRANCH   8  26
TORSDOF 6
ENDMDL
MODEL 5
REMARK VINA RESULT:    -6.673      4.094      6.756
REMARK INTER + INTRA:          -8.362
REMARK INTER:                  -8.082
REMARK INTRA:                  -0.280
REMARK UNBOUND:                -0.324
REMARK SMILES O=c1c(O)c(-c2ccc(O)c(O)c2)oc2cc(O)cc(O)c12
REMARK SMILES IDX 5 1 3 2 2 3 1 4 22 5 20 6 19 7 17 8 16 9 15 10 14 11 6 12
REMARK SMILES IDX 7 13 8 14 9 15 13 16 11 17 10 18 12 20 4 22 21 24 18 26
REMARK H PARENT 10 19 12 21 4 23 21 25 18 27
REMARK Flexibility Score: inf
ROOT
ATOM      1  C   UNL     1      10.011  16.874  -8.163  1.00  0.00     0.180 A 
ATOM      2  C   UNL     1      11.380  17.143  -8.335  1.00  0.00     0.208 A 
ATOM      3  C   UNL     1      11.773  18.410  -8.795  1.00  0.00     0.238 A 
ATOM      4  O   UNL     1      13.003  18.661  -8.895  1.00  0.00    -0.285 OA
ATOM      5  C   UNL     1      10.793  19.387  -9.091  1.00  0.00     0.111 A 
ATOM      6  C   UNL     1      11.076  20.690  -9.601  1.00  0.00     0.134 A 
ATOM      7  C   UNL     1      10.037  21.619  -9.735  1.00  0.00     0.093 A 
ATOM      8  C   UNL     1       8.719  21.274  -9.440  1.00  0.00     0.123 A 
ATOM      9  C   UNL     1       8.422  19.984  -8.997  1.00  0.00     0.094 A 
ATOM     10  C   UNL     1       9.442  19.045  -8.820  1.00  0.00     0.146 A 
ATOM     11  O   UNL     1       9.120  17.832  -8.386  1.00  0.00    -0.452 OA
ENDROOT
BRANCH   1  12
ATOM     12  C   UNL     1       9.519  15.555  -7.706  1.00  0.00     0.025 A 
ATOM     13  C   UNL     1       9.575  15.231  -6.342  1.00  0.00     0.016 A 
ATOM     14  C   UNL     1       9.097  14.000  -5.885  1.00  0.00     0.051 A 
ATOM     15  C   UNL     1       8.541  13.080  -6.784  1.00  0.00     0.157 A 
ATOM     16  C   UNL     1       8.941  14.638  -8.603  1.00  0.00     0.062 A 
ATOM     17  C   UNL     1       8.459  13.405  -8.149  1.00  0.00     0.158 A 
BRANCH  15  18
ATOM     18  O   UNL     1       8.067  11.852  -6.327  1.00  0.00    -0.504 OA
ATOM     19  H   UNL     1       7.769  11.722  -5.367  1.00  0.00     0.293 HD
ENDBRANCH  15  18
BRANCH  17  20
ATOM     20  O   UNL     1       7.898  12.518  -9.068  1.00  0.00    -0.504 OA
ATOM     21  H   UNL     1       8.311  11.613  -9.262  1.00  0.00     0.293 HD
ENDBRANCH  17  20
ENDBRANCH   1  12
BRANCH   2  22
ATOM     22  O   UNL     1      12.333  16.171  -8.015  1.00  0.00    -0.502 OA
ATOM     23  H   UNL     1      13.016  16.300  -7.278  1.00  0.00     0.293 HD
ENDBRANCH   2  22
BRANCH   6  24
ATOM     24  O   UNL     1      12.344  21.108 -10.014  1.00  0.00    -0.507 OA
ATOM     25  H   UNL     1      12.672  22.061  -9.987  1.00  0.00     0.293 HD
ENDBRANCH   6  24
BRANCH   8  26
ATOM     26  O   UNL     1       7.708  22.219  -9.600  1.00  0.00    -0.508 OA
ATOM     27  H   UNL     1       7.491  22.891  -8.873  1.00  0.00     0.293 HD
ENDBRANCH   8  26
TORSDOF 6
ENDMDL
MODEL 6
REMARK VINA RESULT:    -6.626      1.865      7.217
REMARK INTER + INTRA:          -8.306
REMARK INTER:                  -8.248
REMARK INTRA:                  -0.058
REMARK UNBOUND:                -0.324
REMARK SMILES O=c1c(O)c(-c2ccc(O)c(O)c2)oc2cc(O)cc(O)c12
REMARK SMILES IDX 5 1 3 2 2 3 1 4 22 5 20 6 19 7 17 8 16 9 15 10 14 11 6 12
REMARK SMILES IDX 7 13 8 14 9 15 13 16 11 17 10 18 12 20 4 22 21 24 18 26
REMARK H PARENT 10 19 12 21 4 23 21 25 18 27
REMARK Flexibility Score: inf
ROOT
ATOM      1  C   UNL     1      12.512  21.093  -9.814  1.00  0.00     0.180 A 
ATOM      2  C   UNL     1      11.219  21.643  -9.774  1.00  0.00     0.208 A 
ATOM      3  C   UNL     1      10.135  20.812  -9.447  1.00  0.00     0.238 A 
ATOM      4  O   UNL     1       8.988  21.322  -9.360  1.00  0.00    -0.285 OA
ATOM      5  C   UNL     1      10.356  19.439  -9.179  1.00  0.00     0.111 A 
ATOM      6  C   UNL     1       9.326  18.498  -8.877  1.00  0.00     0.134 A 
ATOM      7  C   UNL     1       9.673  17.194  -8.501  1.00  0.00     0.093 A 
ATOM      8  C   UNL     1      11.004  16.780  -8.479  1.00  0.00     0.123 A 
ATOM      9  C   UNL     1      12.014  17.676  -8.831  1.00  0.00     0.094 A 
ATOM     10  C   UNL     1      11.703  18.994  -9.176  1.00  0.00     0.146 A 
ATOM     11  O   UNL     1      12.694  19.818  -9.493  1.00  0.00    -0.452 OA
ENDROOT
BRANCH   1  12
ATOM     12  C   UNL     1      13.700  21.899 -10.175  1.00  0.00     0.025 A 
ATOM     13  C   UNL     1      14.831  21.872  -9.345  1.00  0.00     0.016 A 
ATOM     14  C   UNL     1      15.971  22.608  -9.677  1.00  0.00     0.051 A 
ATOM     15  C   UNL     1      16.003  23.371 -10.852  1.00  0.00     0.157 A 
ATOM     16  C   UNL     1      13.742  22.650 -11.363  1.00  0.00     0.062 A 
ATOM     17  C   UNL     1      14.883  23.387 -11.700  1.00  0.00     0.158 A 
BRANCH  15  18
ATOM     18  O   UNL     1      17.140  24.107 -11.179  1.00  0.00    -0.504 OA
ATOM     19  H   UNL     1      17.755  24.480 -10.465  1.00  0.00     0.293 HD
ENDBRANCH  15  18
BRANCH  17  20
ATOM     20  O   UNL     1      14.887  24.125 -12.884  1.00  0.00    -0.504 OA
ATOM     21  H   UNL     1      14.461  23.778 -13.736  1.00  0.00     0.293 HD
ENDBRANCH  17  20
ENDBRANCH   1  12
BRANCH   2  22
ATOM     22  O   UNL     1      11.026  23.005 -10.020  1.00  0.00    -0.502 OA
ATOM     23  H   UNL     1      11.795  23.661 -10.083  1.00  0.00     0.293 HD
ENDBRANCH   2  22
BRANCH   6  24
ATOM     24  O   UNL     1       7.960  18.782  -8.957  1.00  0.00    -0.507 OA
ATOM     25  H   UNL     1       7.573  19.680  -9.206  1.00  0.00     0.293 HD
ENDBRANCH   6  24
BRANCH   8  26
ATOM     26  O   UNL     1      11.311  15.470  -8.116  1.00  0.00    -0.508 OA
ATOM     27  H   UNL     1      10.800  14.681  -8.495  1.00  0.00     0.293 HD
ENDBRANCH   8  26
TORSDOF 6
ENDMDL
MODEL 7
REMARK VINA RESULT:    -6.595      5.706      8.071
REMARK INTER + INTRA:          -8.269
REMARK INTER:                  -7.961
REMARK INTRA:                  -0.308
REMARK UNBOUND:                -0.324
REMARK SMILES O=c1c(O)c(-c2ccc(O)c(O)c2)oc2cc(O)cc(O)c12
REMARK SMILES IDX 5 1 3 2 2 3 1 4 22 5 20 6 19 7 17 8 16 9 15 10 14 11 6 12
REMARK SMILES IDX 7 13 8 14 9 15 13 16 11 17 10 18 12 20 4 22 21 24 18 26
REMARK H PARENT 10 19 12 21 4 23 21 25 18 27
REMARK Flexibility Score: inf
ROOT
ATOM      1  C   UNL     1      19.563  19.460  -8.414  1.00  0.00     0.180 A 
ATOM      2  C   UNL     1      18.584  19.782  -7.459  1.00  0.00     0.208 A 
ATOM      3  C   UNL     1      17.870  20.983  -7.593  1.00  0.00     0.238 A 
ATOM      4  O   UNL     1      16.957  21.240  -6.765  1.00  0.00    -0.285 OA
ATOM      5  C   UNL     1      18.156  21.856  -8.671  1.00  0.00     0.111 A 
ATOM      6  C   UNL     1      17.523  23.118  -8.881  1.00  0.00     0.134 A 
ATOM      7  C   UNL     1      17.791  23.838 -10.051  1.00  0.00     0.093 A 
ATOM      8  C   UNL     1      18.716  23.375 -10.986  1.00  0.00     0.123 A 
ATOM      9  C   UNL     1      19.385  22.170 -10.762  1.00  0.00     0.094 A 
ATOM     10  C   UNL     1      19.112  21.412  -9.620  1.00  0.00     0.146 A 
ATOM     11  O   UNL     1      19.762  20.267  -9.449  1.00  0.00    -0.452 OA
ENDROOT
BRANCH   1  12
ATOM     12  C   UNL     1      20.373  18.224  -8.326  1.00  0.00     0.025 A 
ATOM     13  C   UNL     1      21.494  18.191  -7.482  1.00  0.00     0.016 A 
ATOM     14  C   UNL     1      22.261  17.029  -7.367  1.00  0.00     0.051 A 
ATOM     15  C   UNL     1      21.909  15.876  -8.082  1.00  0.00     0.157 A 
ATOM     16  C   UNL     1      20.011  17.059  -9.027  1.00  0.00     0.062 A 
ATOM     17  C   UNL     1      20.776  15.892  -8.913  1.00  0.00     0.158 A 
BRANCH  15  18
ATOM     18  O   UNL     1      22.677  14.719  -7.969  1.00  0.00    -0.504 OA
ATOM     19  H   UNL     1      23.613  14.664  -8.352  1.00  0.00     0.293 HD
ENDBRANCH  15  18
BRANCH  17  20
ATOM     20  O   UNL     1      20.391  14.758  -9.628  1.00  0.00    -0.504 OA
ATOM     21  H   UNL     1      20.009  14.817 -10.565  1.00  0.00     0.293 HD
ENDBRANCH  17  20
ENDBRANCH   1  12
BRANCH   2  22
ATOM     22  O   UNL     1      18.301  18.896  -6.415  1.00  0.00    -0.502 OA
ATOM     23  H   UNL     1      17.856  19.192  -5.555  1.00  0.00     0.293 HD
ENDBRANCH   2  22
BRANCH   6  24
ATOM     24  O   UNL     1      16.652  23.716  -7.966  1.00  0.00    -0.507 OA
ATOM     25  H   UNL     1      15.873  24.307  -8.215  1.00  0.00     0.293 HD
ENDBRANCH   6  24
BRANCH   8  26
ATOM     26  O   UNL     1      18.970  24.125 -12.132  1.00  0.00    -0.508 OA
ATOM     27  H   UNL     1      18.245  24.312 -12.815  1.00  0.00     0.293 HD
ENDBRANCH   8  26
TORSDOF 6
ENDMDL
MODEL 8
REMARK VINA RESULT:    -6.423      1.428      2.072
REMARK INTER + INTRA:          -8.061
REMARK INTER:                  -7.730
REMARK INTRA:                  -0.331
REMARK UNBOUND:                -0.324
REMARK SMILES O=c1c(O)c(-c2ccc(O)c(O)c2)oc2cc(O)cc(O)c12
REMARK SMILES IDX 5 1 3 2 2 3 1 4 22 5 20 6 19 7 17 8 16 9 15 10 14 11 6 12
REMARK SMILES IDX 7 13 8 14 9 15 13 16 11 17 10 18 12 20 4 22 21 24 18 26
REMARK H PARENT 10 19 12 21 4 23 21 25 18 27
REMARK Flexibility Score: inf
ROOT
ATOM      1  C   UNL     1      14.408  22.482 -10.788  1.00  0.00     0.180 A 
ATOM      2  C   UNL     1      15.481  22.783  -9.931  1.00  0.00     0.208 A 
ATOM      3  C   UNL     1      16.678  23.268 -10.483  1.00  0.00     0.238 A 
ATOM      4  O   UNL     1      17.616  23.586  -9.706  1.00  0.00    -0.285 OA
ATOM      5  C   UNL     1      16.793  23.431 -11.884  1.00  0.00     0.111 A 
ATOM      6  C   UNL     1      17.972  23.876 -12.554  1.00  0.00     0.134 A 
ATOM      7  C   UNL     1      17.931  24.124 -13.931  1.00  0.00     0.093 A 
ATOM      8  C   UNL     1      16.776  23.882 -14.674  1.00  0.00     0.123 A 
ATOM      9  C   UNL     1      15.635  23.390 -14.038  1.00  0.00     0.094 A 
ATOM     10  C   UNL     1      15.634  23.166 -12.659  1.00  0.00     0.146 A 
ATOM     11  O   UNL     1      14.524  22.708 -12.091  1.00  0.00    -0.452 OA
ENDROOT
BRANCH   1  12
ATOM     12  C   UNL     1      13.125  21.944 -10.284  1.00  0.00     0.025 A 
ATOM     13  C   UNL     1      12.051  22.820 -10.054  1.00  0.00     0.016 A 
ATOM     14  C   UNL     1      10.824  22.331  -9.598  1.00  0.00     0.051 A 
ATOM     15  C   UNL     1      10.646  20.959  -9.380  1.00  0.00     0.157 A 
ATOM     16  C   UNL     1      12.936  20.565 -10.084  1.00  0.00     0.062 A 
ATOM     17  C   UNL     1      11.708  20.072  -9.629  1.00  0.00     0.158 A 
BRANCH  15  18
ATOM     18  O   UNL     1       9.423  20.474  -8.923  1.00  0.00    -0.504 OA
ATOM     19  H   UNL     1       8.994  20.829  -8.076  1.00  0.00     0.293 HD
ENDBRANCH  15  18
BRANCH  17  20
ATOM     20  O   UNL     1      11.559  18.699  -9.436  1.00  0.00    -0.504 OA
ATOM     21  H   UNL     1      12.160  18.176  -8.808  1.00  0.00     0.293 HD
ENDBRANCH  17  20
ENDBRANCH   1  12
BRANCH   2  22
ATOM     22  O   UNL     1      15.339  22.637  -8.548  1.00  0.00    -0.502 OA
ATOM     23  H   UNL     1      14.448  22.436  -8.111  1.00  0.00     0.293 HD
ENDBRANCH   2  22
BRANCH   6  24
ATOM     24  O   UNL     1      19.205  24.060 -11.923  1.00  0.00    -0.507 OA
ATOM     25  H   UNL     1      19.628  24.958 -11.738  1.00  0.00     0.293 HD
ENDBRANCH   6  24
BRANCH   8  26
ATOM     26  O   UNL     1      16.776  24.125 -16.045  1.00  0.00    -0.508 OA
ATOM     27  H   UNL     1      17.437  23.670 -16.664  1.00  0.00     0.293 HD
ENDBRANCH   8  26
TORSDOF 6
ENDMDL
