MODEL 1
REMARK VINA RESULT:    -8.491      0.000      0.000
REMARK INTER + INTRA:         -15.317
REMARK INTER:                 -13.454
REMARK INTRA:                  -1.862
REMARK UNBOUND:                -1.862
REMARK SMILES C[C@H]1O[C@H](O[C@@H]2[C@@H](Oc3cc(O)c4c(c3)O[C@@H](c3ccc(O)cc3)CC4=O)O[C@H](CO)[C@H](O)[C@H]2O)[C@@H](O)[C@@H](O)[C@@H]1O
REMARK SMILES IDX 6 1 34 2 32 3 29 4 28 5 7 6 5 7 4 8 1 9 2 10 40 11 3 12
REMARK SMILES IDX 38 13 36 14 41 15 39 17 37 19 35 21 8 23 9 24 10 25 15 26
REMARK SMILES IDX 11 27 14 28 13 29 16 30 26 31 17 32 27 33 25 34 12 35 18 37
REMARK SMILES IDX 19 38 24 39 20 40 23 41 21 42 22 43 33 45 30 47 31 48
REMARK H PARENT 41 16 39 18 37 20 35 22 12 36 22 44 33 46 31 49
REMARK Flexibility Score: inf
ROOT
ATOM      1  C   UNL     1     173.093 144.068 156.500  1.00  0.00     0.221 C 
ATOM      2  C   UNL     1     173.711 143.774 157.882  1.00  0.00     0.181 C 
ATOM      3  C   UNL     1     174.365 142.368 157.879  1.00  0.00     0.177 C 
ATOM      4  C   UNL     1     175.470 142.309 156.773  1.00  0.00     0.179 C 
ATOM      5  O   UNL     1     175.327 143.322 155.779  1.00  0.00    -0.332 OA
ATOM      6  C   UNL     1     173.971 143.451 155.375  1.00  0.00     0.339 C 
ENDROOT
BRANCH   1   7
ATOM      7  O   UNL     1     171.805 143.465 156.471  1.00  0.00    -0.337 OA
BRANCH   7   8
ATOM      8  C   UNL     1     170.941 143.972 157.484  1.00  0.00     0.282 C 
ATOM      9  C   UNL     1     170.194 147.264 156.006  1.00  0.00     0.041 C 
ATOM     10  C   UNL     1     170.165 145.737 156.124  1.00  0.00     0.150 C 
ATOM     11  C   UNL     1     168.724 145.173 156.062  1.00  0.00     0.174 C 
ATOM     12  O   UNL     1     170.780 145.379 157.353  1.00  0.00    -0.344 OA
ATOM     13  C   UNL     1     168.790 143.638 156.179  1.00  0.00     0.179 C 
ATOM     14  C   UNL     1     169.595 143.230 157.421  1.00  0.00     0.202 C 
BRANCH  11  15
ATOM     15  O   UNL     1     168.125 145.511 154.838  1.00  0.00    -0.388 OA
ATOM     16  H   UNL     1     167.209 145.860 155.061  1.00  0.00     0.211 HD
ENDBRANCH  11  15
BRANCH  13  17
ATOM     17  O   UNL     1     167.495 143.108 156.275  1.00  0.00    -0.387 OA
ATOM     18  H   UNL     1     166.935 143.816 156.693  1.00  0.00     0.211 HD
ENDBRANCH  13  17
BRANCH  14  19
ATOM     19  O   UNL     1     168.854 143.499 158.584  1.00  0.00    -0.385 OA
ATOM     20  H   UNL     1     168.138 142.809 158.622  1.00  0.00     0.211 HD
ENDBRANCH  14  19
ENDBRANCH   7   8
ENDBRANCH   1   7
BRANCH   2  21
ATOM     21  O   UNL     1     174.673 144.755 158.186  1.00  0.00    -0.387 OA
ATOM     22  H   UNL     1     174.447 145.564 157.651  1.00  0.00     0.211 HD
ENDBRANCH   2  21
BRANCH   6  23
ATOM     23  O   UNL     1     173.880 144.206 154.179  1.00  0.00    -0.462 OA
BRANCH  23  24
ATOM     24  C   UNL     1     172.932 144.065 153.147  1.00  0.00     0.130 A 
ATOM     25  C   UNL     1     173.287 143.231 152.082  1.00  0.00     0.093 A 
ATOM     26  C   UNL     1     171.695 144.740 153.110  1.00  0.00     0.094 A 
ATOM     27  C   UNL     1     172.502 143.162 150.924  1.00  0.00     0.133 A 
ATOM     28  C   UNL     1     170.885 144.652 151.959  1.00  0.00     0.138 A 
ATOM     29  C   UNL     1     171.326 143.918 150.836  1.00  0.00     0.102 A 
ATOM     30  O   UNL     1     169.657 145.319 151.921  1.00  0.00    -0.484 OA
ATOM     31  C   UNL     1     170.557 144.066 149.574  1.00  0.00     0.174 C 
ATOM     32  C   UNL     1     168.693 145.097 150.880  1.00  0.00     0.211 C 
ATOM     33  O   UNL     1     170.918 143.487 148.511  1.00  0.00    -0.294 OA
ATOM     34  C   UNL     1     169.420 145.047 149.519  1.00  0.00     0.131 C 
BRANCH  27  35
ATOM     35  O   UNL     1     172.907 142.351 149.868  1.00  0.00    -0.507 OA
ATOM     36  H   UNL     1     172.399 141.502 149.619  1.00  0.00     0.293 HD
ENDBRANCH  27  35
BRANCH  32  37
ATOM     37  C   UNL     1     167.592 146.151 150.873  1.00  0.00    -0.007 A 
ATOM     38  C   UNL     1     167.341 146.899 149.700  1.00  0.00     0.011 A 
ATOM     39  C   UNL     1     166.749 146.340 151.986  1.00  0.00     0.011 A 
ATOM     40  C   UNL     1     166.319 147.850 149.666  1.00  0.00     0.046 A 
ATOM     41  C   UNL     1     165.720 147.286 151.943  1.00  0.00     0.046 A 
ATOM     42  C   UNL     1     165.496 148.043 150.790  1.00  0.00     0.115 A 
BRANCH  42  43
ATOM     43  O   UNL     1     164.472 148.984 150.765  1.00  0.00    -0.508 OA
ATOM     44  H   UNL     1     164.602 149.922 150.402  1.00  0.00     0.293 HD
ENDBRANCH  42  43
ENDBRANCH  32  37
ENDBRANCH  23  24
ENDBRANCH   6  23
BRANCH   3  45
ATOM     45  O   UNL     1     173.383 141.385 157.662  1.00  0.00    -0.387 OA
ATOM     46  H   UNL     1     173.491 140.714 158.393  1.00  0.00     0.211 HD
ENDBRANCH   3  45
BRANCH   4  47
ATOM     47  C   UNL     1     175.669 140.915 156.133  1.00  0.00     0.191 C 
BRANCH  47  48
ATOM     48  O   UNL     1     176.125 141.044 154.808  1.00  0.00    -0.394 OA
ATOM     49  H   UNL     1     175.565 140.439 154.242  1.00  0.00     0.210 HD
ENDBRANCH  47  48
ENDBRANCH   4  47
TORSDOF 14
ENDMDL
MODEL 2
REMARK VINA RESULT:    -8.274      1.822      3.825
REMARK INTER + INTRA:         -14.973
REMARK INTER:                 -13.158
REMARK INTRA:                  -1.815
REMARK UNBOUND:                -1.862
REMARK SMILES C[C@H]1O[C@H](O[C@@H]2[C@@H](Oc3cc(O)c4c(c3)O[C@@H](c3ccc(O)cc3)CC4=O)O[C@H](CO)[C@H](O)[C@H]2O)[C@@H](O)[C@@H](O)[C@@H]1O
REMARK SMILES IDX 6 1 34 2 32 3 29 4 28 5 7 6 5 7 4 8 1 9 2 10 40 11 3 12
REMARK SMILES IDX 38 13 36 14 41 15 39 17 37 19 35 21 8 23 9 24 10 25 15 26
REMARK SMILES IDX 11 27 14 28 13 29 16 30 26 31 17 32 27 33 25 34 12 35 18 37
REMARK SMILES IDX 19 38 24 39 20 40 23 41 21 42 22 43 33 45 30 47 31 48
REMARK H PARENT 41 16 39 18 37 20 35 22 12 36 22 44 33 46 31 49
REMARK Flexibility Score: inf
ROOT
ATOM      1  C   UNL     1     173.589 142.999 157.386  1.00  0.00     0.221 C 
ATOM      2  C   UNL     1     173.031 142.268 158.624  1.00  0.00     0.181 C 
ATOM      3  C   UNL     1     171.512 142.547 158.763  1.00  0.00     0.177 C 
ATOM      4  C   UNL     1     170.772 142.062 157.474  1.00  0.00     0.179 C 
ATOM      5  O   UNL     1     171.638 141.909 156.351  1.00  0.00    -0.332 OA
ATOM      6  C   UNL     1     172.533 143.006 156.244  1.00  0.00     0.339 C 
ENDROOT
BRANCH   1   7
ATOM      7  O   UNL     1     173.867 144.340 157.773  1.00  0.00    -0.337 OA
BRANCH   7   8
ATOM      8  C   UNL     1     173.306 145.295 156.878  1.00  0.00     0.282 C 
ATOM      9  C   UNL     1     172.084 147.745 159.345  1.00  0.00     0.041 C 
ATOM     10  C   UNL     1     173.125 146.952 158.548  1.00  0.00     0.150 C 
ATOM     11  C   UNL     1     174.172 147.872 157.873  1.00  0.00     0.174 C 
ATOM     12  O   UNL     1     172.439 146.187 157.568  1.00  0.00    -0.344 OA
ATOM     13  C   UNL     1     175.178 146.993 157.106  1.00  0.00     0.179 C 
ATOM     14  C   UNL     1     174.441 146.041 156.154  1.00  0.00     0.202 C 
BRANCH  11  15
ATOM     15  O   UNL     1     174.862 148.612 158.846  1.00  0.00    -0.388 OA
ATOM     16  H   UNL     1     174.167 148.942 159.493  1.00  0.00     0.211 HD
ENDBRANCH  11  15
BRANCH  13  17
ATOM     17  O   UNL     1     176.052 147.802 156.362  1.00  0.00    -0.387 OA
ATOM     18  H   UNL     1     176.740 148.128 157.003  1.00  0.00     0.211 HD
ENDBRANCH  13  17
BRANCH  14  19
ATOM     19  O   UNL     1     173.914 146.759 155.067  1.00  0.00    -0.385 OA
ATOM     20  H   UNL     1     173.902 146.127 154.298  1.00  0.00     0.211 HD
ENDBRANCH  14  19
ENDBRANCH   7   8
ENDBRANCH   1   7
BRANCH   2  21
ATOM     21  O   UNL     1     173.259 140.884 158.495  1.00  0.00    -0.387 OA
ATOM     22  H   UNL     1     174.068 140.668 159.035  1.00  0.00     0.211 HD
ENDBRANCH   2  21
BRANCH   6  23
ATOM     23  O   UNL     1     173.154 143.018 154.970  1.00  0.00    -0.462 OA
BRANCH  23  24
ATOM     24  C   UNL     1     172.539 143.228 153.720  1.00  0.00     0.130 A 
ATOM     25  C   UNL     1     173.229 142.758 152.598  1.00  0.00     0.093 A 
ATOM     26  C   UNL     1     171.319 143.910 153.542  1.00  0.00     0.094 A 
ATOM     27  C   UNL     1     172.801 143.071 151.301  1.00  0.00     0.133 A 
ATOM     28  C   UNL     1     170.866 144.204 152.239  1.00  0.00     0.138 A 
ATOM     29  C   UNL     1     171.648 143.845 151.119  1.00  0.00     0.102 A 
ATOM     30  O   UNL     1     169.656 144.880 152.059  1.00  0.00    -0.484 OA
ATOM     31  C   UNL     1     171.250 144.397 149.798  1.00  0.00     0.174 C 
ATOM     32  C   UNL     1     169.033 145.016 150.772  1.00  0.00     0.211 C 
ATOM     33  O   UNL     1     171.928 144.168 148.757  1.00  0.00    -0.294 OA
ATOM     34  C   UNL     1     170.111 145.373 149.725  1.00  0.00     0.131 C 
BRANCH  27  35
ATOM     35  O   UNL     1     173.535 142.619 150.209  1.00  0.00    -0.507 OA
ATOM     36  H   UNL     1     173.168 142.671 149.258  1.00  0.00     0.293 HD
ENDBRANCH  27  35
BRANCH  32  37
ATOM     37  C   UNL     1     167.910 146.045 150.775  1.00  0.00    -0.007 A 
ATOM     38  C   UNL     1     167.564 146.713 149.578  1.00  0.00     0.011 A 
ATOM     39  C   UNL     1     167.139 146.289 151.929  1.00  0.00     0.011 A 
ATOM     40  C   UNL     1     166.521 147.640 149.555  1.00  0.00     0.046 A 
ATOM     41  C   UNL     1     166.088 147.210 151.897  1.00  0.00     0.046 A 
ATOM     42  C   UNL     1     165.770 147.888 150.718  1.00  0.00     0.115 A 
BRANCH  42  43
ATOM     43  O   UNL     1     164.724 148.806 150.704  1.00  0.00    -0.508 OA
ATOM     44  H   UNL     1     164.380 149.253 151.547  1.00  0.00     0.293 HD
ENDBRANCH  42  43
ENDBRANCH  32  37
ENDBRANCH  23  24
ENDBRANCH   6  23
BRANCH   3  45
ATOM     45  O   UNL     1     171.298 143.920 158.980  1.00  0.00    -0.387 OA
ATOM     46  H   UNL     1     171.033 144.306 158.098  1.00  0.00     0.211 HD
ENDBRANCH   3  45
BRANCH   4  47
ATOM     47  C   UNL     1     169.512 142.880 157.106  1.00  0.00     0.191 C 
BRANCH  47  48
ATOM     48  O   UNL     1     168.724 143.110 158.250  1.00  0.00    -0.394 OA
ATOM     49  H   UNL     1     168.241 142.259 158.454  1.00  0.00     0.210 HD
ENDBRANCH  47  48
ENDBRANCH   4  47
TORSDOF 14
ENDMDL
MODEL 3
REMARK VINA RESULT:    -8.113      1.786      3.325
REMARK INTER + INTRA:         -14.718
REMARK INTER:                 -14.188
REMARK INTRA:                  -0.530
REMARK UNBOUND:                -1.862
REMARK SMILES C[C@H]1O[C@H](O[C@@H]2[C@@H](Oc3cc(O)c4c(c3)O[C@@H](c3ccc(O)cc3)CC4=O)O[C@H](CO)[C@H](O)[C@H]2O)[C@@H](O)[C@@H](O)[C@@H]1O
REMARK SMILES IDX 6 1 34 2 32 3 29 4 28 5 7 6 5 7 4 8 1 9 2 10 40 11 3 12
REMARK SMILES IDX 38 13 36 14 41 15 39 17 37 19 35 21 8 23 9 24 10 25 15 26
REMARK SMILES IDX 11 27 14 28 13 29 16 30 26 31 17 32 27 33 25 34 12 35 18 37
REMARK SMILES IDX 19 38 24 39 20 40 23 41 21 42 22 43 33 45 30 47 31 48
REMARK H PARENT 41 16 39 18 37 20 35 22 12 36 22 44 33 46 31 49
REMARK Flexibility Score: inf
ROOT
ATOM      1  C   UNL     1     171.507 145.616 156.832  1.00  0.00     0.221 C 
ATOM      2  C   UNL     1     171.241 147.012 157.430  1.00  0.00     0.181 C 
ATOM      3  C   UNL     1     172.268 147.310 158.553  1.00  0.00     0.177 C 
ATOM      4  C   UNL     1     173.716 147.244 157.967  1.00  0.00     0.179 C 
ATOM      5  O   UNL     1     173.794 146.525 156.737  1.00  0.00    -0.332 OA
ATOM      6  C   UNL     1     173.034 145.326 156.799  1.00  0.00     0.339 C 
ENDROOT
BRANCH   1   7
ATOM      7  O   UNL     1     170.868 144.663 157.673  1.00  0.00    -0.337 OA
BRANCH   7   8
ATOM      8  C   UNL     1     170.380 143.537 156.951  1.00  0.00     0.282 C 
ATOM      9  C   UNL     1     172.192 140.875 158.743  1.00  0.00     0.041 C 
ATOM     10  C   UNL     1     171.167 141.998 158.557  1.00  0.00     0.150 C 
ATOM     11  C   UNL     1     169.739 141.560 158.966  1.00  0.00     0.174 C 
ATOM     12  O   UNL     1     171.188 142.391 157.193  1.00  0.00    -0.344 OA
ATOM     13  C   UNL     1     168.779 142.748 158.756  1.00  0.00     0.179 C 
ATOM     14  C   UNL     1     168.908 143.293 157.326  1.00  0.00     0.202 C 
BRANCH  11  15
ATOM     15  O   UNL     1     169.716 141.190 160.321  1.00  0.00    -0.388 OA
ATOM     16  H   UNL     1     169.856 142.037 160.844  1.00  0.00     0.211 HD
ENDBRANCH  11  15
BRANCH  13  17
ATOM     17  O   UNL     1     167.455 142.340 158.976  1.00  0.00    -0.387 OA
ATOM     18  H   UNL     1     167.442 141.354 158.840  1.00  0.00     0.211 HD
ENDBRANCH  13  17
BRANCH  14  19
ATOM     19  O   UNL     1     168.332 142.391 156.414  1.00  0.00    -0.385 OA
ATOM     20  H   UNL     1     168.818 142.520 155.555  1.00  0.00     0.211 HD
ENDBRANCH  14  19
ENDBRANCH   7   8
ENDBRANCH   1   7
BRANCH   2  21
ATOM     21  O   UNL     1     171.336 147.985 156.416  1.00  0.00    -0.387 OA
ATOM     22  H   UNL     1     172.304 148.117 156.226  1.00  0.00     0.211 HD
ENDBRANCH   2  21
BRANCH   6  23
ATOM     23  O   UNL     1     173.372 144.469 155.722  1.00  0.00    -0.462 OA
BRANCH  23  24
ATOM     24  C   UNL     1     172.665 144.286 154.519  1.00  0.00     0.130 A 
ATOM     25  C   UNL     1     173.282 143.493 153.545  1.00  0.00     0.093 A 
ATOM     26  C   UNL     1     171.421 144.883 154.232  1.00  0.00     0.094 A 
ATOM     27  C   UNL     1     172.755 143.394 152.251  1.00  0.00     0.133 A 
ATOM     28  C   UNL     1     170.870 144.764 152.940  1.00  0.00     0.138 A 
ATOM     29  C   UNL     1     171.575 144.077 151.928  1.00  0.00     0.102 A 
ATOM     30  O   UNL     1     169.635 145.355 152.653  1.00  0.00    -0.484 OA
ATOM     31  C   UNL     1     171.072 144.198 150.536  1.00  0.00     0.174 C 
ATOM     32  C   UNL     1     168.919 145.090 151.437  1.00  0.00     0.211 C 
ATOM     33  O   UNL     1     171.678 143.660 149.567  1.00  0.00    -0.294 OA
ATOM     34  C   UNL     1     169.910 145.107 150.253  1.00  0.00     0.131 C 
BRANCH  27  35
ATOM     35  O   UNL     1     173.417 142.627 151.298  1.00  0.00    -0.507 OA
ATOM     36  H   UNL     1     174.281 142.129 151.517  1.00  0.00     0.293 HD
ENDBRANCH  27  35
BRANCH  32  37
ATOM     37  C   UNL     1     167.777 146.073 151.209  1.00  0.00    -0.007 A 
ATOM     38  C   UNL     1     167.625 146.696 149.949  1.00  0.00     0.011 A 
ATOM     39  C   UNL     1     166.806 146.315 152.201  1.00  0.00     0.011 A 
ATOM     40  C   UNL     1     166.570 147.578 149.712  1.00  0.00     0.046 A 
ATOM     41  C   UNL     1     165.745 147.192 151.955  1.00  0.00     0.046 A 
ATOM     42  C   UNL     1     165.617 147.826 150.717  1.00  0.00     0.115 A 
BRANCH  42  43
ATOM     43  O   UNL     1     164.559 148.700 150.490  1.00  0.00    -0.508 OA
ATOM     44  H   UNL     1     164.213 148.907 149.560  1.00  0.00     0.293 HD
ENDBRANCH  42  43
ENDBRANCH  32  37
ENDBRANCH  23  24
ENDBRANCH   6  23
BRANCH   3  45
ATOM     45  O   UNL     1     172.108 146.388 159.603  1.00  0.00    -0.387 OA
ATOM     46  H   UNL     1     172.841 145.718 159.503  1.00  0.00     0.211 HD
ENDBRANCH   3  45
BRANCH   4  47
ATOM     47  C   UNL     1     174.797 146.770 158.966  1.00  0.00     0.191 C 
BRANCH  47  48
ATOM     48  O   UNL     1     176.068 147.224 158.568  1.00  0.00    -0.394 OA
ATOM     49  H   UNL     1     176.064 148.221 158.642  1.00  0.00     0.210 HD
ENDBRANCH  47  48
ENDBRANCH   4  47
TORSDOF 14
ENDMDL
MODEL 4
REMARK VINA RESULT:    -7.221      1.871      3.131
REMARK INTER + INTRA:         -13.305
REMARK INTER:                 -11.757
REMARK INTRA:                  -1.547
REMARK UNBOUND:                -1.862
REMARK SMILES C[C@H]1O[C@H](O[C@@H]2[C@@H](Oc3cc(O)c4c(c3)O[C@@H](c3ccc(O)cc3)CC4=O)O[C@H](CO)[C@H](O)[C@H]2O)[C@@H](O)[C@@H](O)[C@@H]1O
REMARK SMILES IDX 6 1 34 2 32 3 29 4 28 5 7 6 5 7 4 8 1 9 2 10 40 11 3 12
REMARK SMILES IDX 38 13 36 14 41 15 39 17 37 19 35 21 8 23 9 24 10 25 15 26
REMARK SMILES IDX 11 27 14 28 13 29 16 30 26 31 17 32 27 33 25 34 12 35 18 37
REMARK SMILES IDX 19 38 24 39 20 40 23 41 21 42 22 43 33 45 30 47 31 48
REMARK H PARENT 41 16 39 18 37 20 35 22 12 36 22 44 33 46 31 49
REMARK Flexibility Score: inf
ROOT
ATOM      1  C   UNL     1     172.834 146.149 158.229  1.00  0.00     0.221 C 
ATOM      2  C   UNL     1     174.180 146.330 158.959  1.00  0.00     0.181 C 
ATOM      3  C   UNL     1     175.301 145.580 158.195  1.00  0.00     0.177 C 
ATOM      4  C   UNL     1     175.402 146.137 156.737  1.00  0.00     0.179 C 
ATOM      5  O   UNL     1     174.228 146.831 156.317  1.00  0.00    -0.332 OA
ATOM      6  C   UNL     1     173.055 146.121 156.690  1.00  0.00     0.339 C 
ENDROOT
BRANCH   1   7
ATOM      7  O   UNL     1     172.288 144.902 158.644  1.00  0.00    -0.337 OA
BRANCH   7   8
ATOM      8  C   UNL     1     171.843 144.108 157.549  1.00  0.00     0.282 C 
ATOM      9  C   UNL     1     173.297 140.875 158.558  1.00  0.00     0.041 C 
ATOM     10  C   UNL     1     172.354 142.079 158.641  1.00  0.00     0.150 C 
ATOM     11  C   UNL     1     170.868 141.654 158.735  1.00  0.00     0.174 C 
ATOM     12  O   UNL     1     172.563 142.882 157.488  1.00  0.00    -0.344 OA
ATOM     13  C   UNL     1     169.997 142.922 158.823  1.00  0.00     0.179 C 
ATOM     14  C   UNL     1     170.326 143.879 157.670  1.00  0.00     0.202 C 
BRANCH  11  15
ATOM     15  O   UNL     1     170.660 140.877 159.886  1.00  0.00    -0.388 OA
ATOM     16  H   UNL     1     171.422 141.088 160.508  1.00  0.00     0.211 HD
ENDBRANCH  11  15
BRANCH  13  17
ATOM     17  O   UNL     1     168.638 142.576 158.761  1.00  0.00    -0.387 OA
ATOM     18  H   UNL     1     168.549 141.712 159.248  1.00  0.00     0.211 HD
ENDBRANCH  13  17
BRANCH  14  19
ATOM     19  O   UNL     1     169.830 143.365 156.460  1.00  0.00    -0.385 OA
ATOM     20  H   UNL     1     170.326 143.834 155.736  1.00  0.00     0.211 HD
ENDBRANCH  14  19
ENDBRANCH   7   8
ENDBRANCH   1   7
BRANCH   2  21
ATOM     21  O   UNL     1     174.487 147.701 159.046  1.00  0.00    -0.387 OA
ATOM     22  H   UNL     1     173.622 148.193 159.097  1.00  0.00     0.211 HD
ENDBRANCH   2  21
BRANCH   6  23
ATOM     23  O   UNL     1     171.927 146.629 155.998  1.00  0.00    -0.462 OA
BRANCH  23  24
ATOM     24  C   UNL     1     171.327 146.104 154.838  1.00  0.00     0.130 A 
ATOM     25  C   UNL     1     172.058 145.139 154.137  1.00  0.00     0.093 A 
ATOM     26  C   UNL     1     170.080 146.524 154.331  1.00  0.00     0.094 A 
ATOM     27  C   UNL     1     171.641 144.686 152.879  1.00  0.00     0.133 A 
ATOM     28  C   UNL     1     169.639 146.050 153.078  1.00  0.00     0.138 A 
ATOM     29  C   UNL     1     170.457 145.184 152.320  1.00  0.00     0.102 A 
ATOM     30  O   UNL     1     168.402 146.463 152.575  1.00  0.00    -0.484 OA
ATOM     31  C   UNL     1     170.059 144.920 150.913  1.00  0.00     0.174 C 
ATOM     32  C   UNL     1     167.798 145.856 151.422  1.00  0.00     0.211 C 
ATOM     33  O   UNL     1     170.767 144.202 150.152  1.00  0.00    -0.294 OA
ATOM     34  C   UNL     1     168.878 145.648 150.337  1.00  0.00     0.131 C 
BRANCH  27  35
ATOM     35  O   UNL     1     172.415 143.755 152.194  1.00  0.00    -0.507 OA
ATOM     36  H   UNL     1     172.332 142.754 152.372  1.00  0.00     0.293 HD
ENDBRANCH  27  35
BRANCH  32  37
ATOM     37  C   UNL     1     166.629 146.670 150.881  1.00  0.00    -0.007 A 
ATOM     38  C   UNL     1     166.598 147.037 149.516  1.00  0.00     0.011 A 
ATOM     39  C   UNL     1     165.522 146.994 151.691  1.00  0.00     0.011 A 
ATOM     40  C   UNL     1     165.523 147.759 148.996  1.00  0.00     0.046 A 
ATOM     41  C   UNL     1     164.443 147.708 151.162  1.00  0.00     0.046 A 
ATOM     42  C   UNL     1     164.433 148.094 149.819  1.00  0.00     0.115 A 
BRANCH  42  43
ATOM     43  O   UNL     1     163.353 148.809 149.310  1.00  0.00    -0.508 OA
ATOM     44  H   UNL     1     162.736 148.432 148.599  1.00  0.00     0.293 HD
ENDBRANCH  42  43
ENDBRANCH  32  37
ENDBRANCH  23  24
ENDBRANCH   6  23
BRANCH   3  45
ATOM     45  O   UNL     1     175.032 144.200 158.188  1.00  0.00    -0.387 OA
ATOM     46  H   UNL     1     174.461 144.020 158.987  1.00  0.00     0.211 HD
ENDBRANCH   3  45
BRANCH   4  47
ATOM     47  C   UNL     1     175.854 145.103 155.680  1.00  0.00     0.191 C 
BRANCH  47  48
ATOM     48  O   UNL     1     174.895 144.081 155.551  1.00  0.00    -0.394 OA
ATOM     49  H   UNL     1     175.322 143.232 155.862  1.00  0.00     0.210 HD
ENDBRANCH  47  48
ENDBRANCH   4  47
TORSDOF 14
ENDMDL
MODEL 5
REMARK VINA RESULT:    -7.026      2.391      5.817
REMARK INTER + INTRA:         -12.996
REMARK INTER:                 -11.631
REMARK INTRA:                  -1.365
REMARK UNBOUND:                -1.862
REMARK SMILES C[C@H]1O[C@H](O[C@@H]2[C@@H](Oc3cc(O)c4c(c3)O[C@@H](c3ccc(O)cc3)CC4=O)O[C@H](CO)[C@H](O)[C@H]2O)[C@@H](O)[C@@H](O)[C@@H]1O
REMARK SMILES IDX 6 1 34 2 32 3 29 4 28 5 7 6 5 7 4 8 1 9 2 10 40 11 3 12
REMARK SMILES IDX 38 13 36 14 41 15 39 17 37 19 35 21 8 23 9 24 10 25 15 26
REMARK SMILES IDX 11 27 14 28 13 29 16 30 26 31 17 32 27 33 25 34 12 35 18 37
REMARK SMILES IDX 19 38 24 39 20 40 23 41 21 42 22 43 33 45 30 47 31 48
REMARK H PARENT 41 16 39 18 37 20 35 22 12 36 22 44 33 46 31 49
REMARK Flexibility Score: inf
ROOT
ATOM      1  C   UNL     1     171.483 143.089 157.135  1.00  0.00     0.221 C 
ATOM      2  C   UNL     1     172.000 141.636 157.122  1.00  0.00     0.181 C 
ATOM      3  C   UNL     1     171.492 140.883 158.379  1.00  0.00     0.177 C 
ATOM      4  C   UNL     1     169.928 140.897 158.399  1.00  0.00     0.179 C 
ATOM      5  O   UNL     1     169.363 141.915 157.575  1.00  0.00    -0.332 OA
ATOM      6  C   UNL     1     170.052 143.146 157.742  1.00  0.00     0.339 C 
ENDROOT
BRANCH   1   7
ATOM      7  O   UNL     1     172.367 143.848 157.952  1.00  0.00    -0.337 OA
BRANCH   7   8
ATOM      8  C   UNL     1     173.235 144.681 157.190  1.00  0.00     0.282 C 
ATOM      9  C   UNL     1     170.999 147.575 156.734  1.00  0.00     0.041 C 
ATOM     10  C   UNL     1     171.891 146.595 157.503  1.00  0.00     0.150 C 
ATOM     11  C   UNL     1     172.967 147.321 158.347  1.00  0.00     0.174 C 
ATOM     12  O   UNL     1     172.507 145.730 156.561  1.00  0.00    -0.344 OA
ATOM     13  C   UNL     1     173.807 146.264 159.089  1.00  0.00     0.179 C 
ATOM     14  C   UNL     1     174.350 145.222 158.101  1.00  0.00     0.202 C 
BRANCH  11  15
ATOM     15  O   UNL     1     172.355 148.161 159.291  1.00  0.00    -0.388 OA
ATOM     16  H   UNL     1     172.158 149.023 158.812  1.00  0.00     0.211 HD
ENDBRANCH  11  15
BRANCH  13  17
ATOM     17  O   UNL     1     174.883 146.881 159.746  1.00  0.00    -0.387 OA
ATOM     18  H   UNL     1     175.678 146.748 159.161  1.00  0.00     0.211 HD
ENDBRANCH  13  17
BRANCH  14  19
ATOM     19  O   UNL     1     175.368 145.788 157.315  1.00  0.00    -0.385 OA
ATOM     20  H   UNL     1     175.676 146.599 157.804  1.00  0.00     0.211 HD
ENDBRANCH  14  19
ENDBRANCH   7   8
ENDBRANCH   1   7
BRANCH   2  21
ATOM     21  O   UNL     1     171.552 140.988 155.955  1.00  0.00    -0.387 OA
ATOM     22  H   UNL     1     172.332 140.915 155.342  1.00  0.00     0.211 HD
ENDBRANCH   2  21
BRANCH   6  23
ATOM     23  O   UNL     1     169.301 144.214 157.189  1.00  0.00    -0.462 OA
BRANCH  23  24
ATOM     24  C   UNL     1     169.276 144.637 155.846  1.00  0.00     0.130 A 
ATOM     25  C   UNL     1     168.200 145.447 155.466  1.00  0.00     0.093 A 
ATOM     26  C   UNL     1     170.227 144.258 154.877  1.00  0.00     0.094 A 
ATOM     27  C   UNL     1     167.979 145.773 154.122  1.00  0.00     0.133 A 
ATOM     28  C   UNL     1     170.027 144.608 153.526  1.00  0.00     0.138 A 
ATOM     29  C   UNL     1     168.862 145.305 153.140  1.00  0.00     0.102 A 
ATOM     30  O   UNL     1     170.970 144.235 152.564  1.00  0.00    -0.484 OA
ATOM     31  C   UNL     1     168.583 145.425 151.686  1.00  0.00     0.174 C 
ATOM     32  C   UNL     1     170.941 144.741 151.220  1.00  0.00     0.211 C 
ATOM     33  O   UNL     1     167.533 145.985 151.259  1.00  0.00    -0.294 OA
ATOM     34  C   UNL     1     169.484 144.727 150.707  1.00  0.00     0.131 C 
BRANCH  27  35
ATOM     35  O   UNL     1     166.876 146.548 153.777  1.00  0.00    -0.507 OA
ATOM     36  H   UNL     1     165.922 146.218 153.925  1.00  0.00     0.293 HD
ENDBRANCH  27  35
BRANCH  32  37
ATOM     37  C   UNL     1     171.857 143.962 150.285  1.00  0.00    -0.007 A 
ATOM     38  C   UNL     1     172.541 142.818 150.760  1.00  0.00     0.011 A 
ATOM     39  C   UNL     1     171.976 144.299 148.922  1.00  0.00     0.011 A 
ATOM     40  C   UNL     1     173.364 142.076 149.912  1.00  0.00     0.046 A 
ATOM     41  C   UNL     1     172.793 143.545 148.074  1.00  0.00     0.046 A 
ATOM     42  C   UNL     1     173.489 142.434 148.557  1.00  0.00     0.115 A 
BRANCH  42  43
ATOM     43  O   UNL     1     174.302 141.698 147.702  1.00  0.00    -0.508 OA
ATOM     44  H   UNL     1     174.541 140.728 147.877  1.00  0.00     0.293 HD
ENDBRANCH  42  43
ENDBRANCH  32  37
ENDBRANCH  23  24
ENDBRANCH   6  23
BRANCH   3  45
ATOM     45  O   UNL     1     172.015 141.483 159.538  1.00  0.00    -0.387 OA
ATOM     46  H   UNL     1     171.390 141.251 160.282  1.00  0.00     0.211 HD
ENDBRANCH   3  45
BRANCH   4  47
ATOM     47  C   UNL     1     169.300 140.903 159.813  1.00  0.00     0.191 C 
BRANCH  47  48
ATOM     48  O   UNL     1     167.925 141.196 159.739  1.00  0.00    -0.394 OA
ATOM     49  H   UNL     1     167.438 140.324 159.694  1.00  0.00     0.210 HD
ENDBRANCH  47  48
ENDBRANCH   4  47
TORSDOF 14
ENDMDL
MODEL 6
REMARK VINA RESULT:    -6.982      2.199      4.337
REMARK INTER + INTRA:         -12.926
REMARK INTER:                 -11.878
REMARK INTRA:                  -1.048
REMARK UNBOUND:                -1.862
REMARK SMILES C[C@H]1O[C@H](O[C@@H]2[C@@H](Oc3cc(O)c4c(c3)O[C@@H](c3ccc(O)cc3)CC4=O)O[C@H](CO)[C@H](O)[C@H]2O)[C@@H](O)[C@@H](O)[C@@H]1O
REMARK SMILES IDX 6 1 34 2 32 3 29 4 28 5 7 6 5 7 4 8 1 9 2 10 40 11 3 12
REMARK SMILES IDX 38 13 36 14 41 15 39 17 37 19 35 21 8 23 9 24 10 25 15 26
REMARK SMILES IDX 11 27 14 28 13 29 16 30 26 31 17 32 27 33 25 34 12 35 18 37
REMARK SMILES IDX 19 38 24 39 20 40 23 41 21 42 22 43 33 45 30 47 31 48
REMARK H PARENT 41 16 39 18 37 20 35 22 12 36 22 44 33 46 31 49
REMARK Flexibility Score: inf
ROOT
ATOM      1  C   UNL     1     173.158 145.718 158.217  1.00  0.00     0.221 C 
ATOM      2  C   UNL     1     174.134 145.848 159.404  1.00  0.00     0.181 C 
ATOM      3  C   UNL     1     175.348 146.722 158.997  1.00  0.00     0.177 C 
ATOM      4  C   UNL     1     174.849 148.137 158.554  1.00  0.00     0.179 C 
ATOM      5  O   UNL     1     173.465 148.162 158.205  1.00  0.00    -0.332 OA
ATOM      6  C   UNL     1     173.122 147.042 157.402  1.00  0.00     0.339 C 
ENDROOT
BRANCH   1   7
ATOM      7  O   UNL     1     173.637 144.669 157.385  1.00  0.00    -0.337 OA
BRANCH   7   8
ATOM      8  C   UNL     1     173.880 143.466 158.107  1.00  0.00     0.282 C 
ATOM      9  C   UNL     1     170.811 141.631 157.217  1.00  0.00     0.041 C 
ATOM     10  C   UNL     1     172.174 142.288 156.981  1.00  0.00     0.150 C 
ATOM     11  C   UNL     1     173.173 141.329 156.287  1.00  0.00     0.174 C 
ATOM     12  O   UNL     1     172.686 142.704 158.238  1.00  0.00    -0.344 OA
ATOM     13  C   UNL     1     174.508 142.072 156.081  1.00  0.00     0.179 C 
ATOM     14  C   UNL     1     174.997 142.671 157.407  1.00  0.00     0.202 C 
BRANCH  11  15
ATOM     15  O   UNL     1     172.674 140.935 155.035  1.00  0.00    -0.388 OA
ATOM     16  H   UNL     1     173.173 140.098 154.786  1.00  0.00     0.211 HD
ENDBRANCH  11  15
BRANCH  13  17
ATOM     17  O   UNL     1     175.479 141.186 155.590  1.00  0.00    -0.387 OA
ATOM     18  H   UNL     1     176.019 141.703 154.933  1.00  0.00     0.211 HD
ENDBRANCH  13  17
BRANCH  14  19
ATOM     19  O   UNL     1     175.451 141.649 158.259  1.00  0.00    -0.385 OA
ATOM     20  H   UNL     1     176.442 141.632 158.165  1.00  0.00     0.211 HD
ENDBRANCH  14  19
ENDBRANCH   7   8
ENDBRANCH   1   7
BRANCH   2  21
ATOM     21  O   UNL     1     173.466 146.428 160.501  1.00  0.00    -0.387 OA
ATOM     22  H   UNL     1     174.164 146.785 161.114  1.00  0.00     0.211 HD
ENDBRANCH   2  21
BRANCH   6  23
ATOM     23  O   UNL     1     171.857 147.237 156.793  1.00  0.00    -0.462 OA
BRANCH  23  24
ATOM     24  C   UNL     1     171.308 146.522 155.711  1.00  0.00     0.130 A 
ATOM     25  C   UNL     1     172.046 145.429 155.245  1.00  0.00     0.093 A 
ATOM     26  C   UNL     1     170.107 146.869 155.059  1.00  0.00     0.094 A 
ATOM     27  C   UNL     1     171.687 144.762 154.067  1.00  0.00     0.133 A 
ATOM     28  C   UNL     1     169.724 146.183 153.889  1.00  0.00     0.138 A 
ATOM     29  C   UNL     1     170.555 145.175 153.353  1.00  0.00     0.102 A 
ATOM     30  O   UNL     1     168.532 146.524 153.242  1.00  0.00    -0.484 OA
ATOM     31  C   UNL     1     170.230 144.666 151.996  1.00  0.00     0.174 C 
ATOM     32  C   UNL     1     167.976 145.729 152.183  1.00  0.00     0.211 C 
ATOM     33  O   UNL     1     170.956 143.804 151.424  1.00  0.00    -0.294 OA
ATOM     34  C   UNL     1     169.109 145.301 151.224  1.00  0.00     0.131 C 
BRANCH  27  35
ATOM     35  O   UNL     1     172.468 143.704 153.613  1.00  0.00    -0.507 OA
ATOM     36  H   UNL     1     172.243 142.735 153.841  1.00  0.00     0.293 HD
ENDBRANCH  27  35
BRANCH  32  37
ATOM     37  C   UNL     1     166.868 146.456 151.431  1.00  0.00    -0.007 A 
ATOM     38  C   UNL     1     165.672 146.801 152.100  1.00  0.00     0.011 A 
ATOM     39  C   UNL     1     167.040 146.878 150.097  1.00  0.00     0.011 A 
ATOM     40  C   UNL     1     164.656 147.490 151.436  1.00  0.00     0.046 A 
ATOM     41  C   UNL     1     166.023 147.579 149.440  1.00  0.00     0.046 A 
ATOM     42  C   UNL     1     164.831 147.890 150.098  1.00  0.00     0.115 A 
BRANCH  42  43
ATOM     43  O   UNL     1     163.827 148.582 149.428  1.00  0.00    -0.508 OA
ATOM     44  H   UNL     1     163.996 149.088 148.566  1.00  0.00     0.293 HD
ENDBRANCH  42  43
ENDBRANCH  32  37
ENDBRANCH  23  24
ENDBRANCH   6  23
BRANCH   3  45
ATOM     45  O   UNL     1     176.061 146.094 157.960  1.00  0.00    -0.387 OA
ATOM     46  H   UNL     1     175.379 145.751 157.317  1.00  0.00     0.211 HD
ENDBRANCH   3  45
BRANCH   4  47
ATOM     47  C   UNL     1     175.716 148.818 157.471  1.00  0.00     0.191 C 
BRANCH  47  48
ATOM     48  O   UNL     1     175.717 148.054 156.289  1.00  0.00    -0.394 OA
ATOM     49  H   UNL     1     175.118 147.268 156.444  1.00  0.00     0.210 HD
ENDBRANCH  47  48
ENDBRANCH   4  47
TORSDOF 14
ENDMDL
MODEL 7
REMARK VINA RESULT:    -6.895      2.195      4.226
REMARK INTER + INTRA:         -12.789
REMARK INTER:                 -12.021
REMARK INTRA:                  -0.767
REMARK UNBOUND:                -1.862
REMARK SMILES C[C@H]1O[C@H](O[C@@H]2[C@@H](Oc3cc(O)c4c(c3)O[C@@H](c3ccc(O)cc3)CC4=O)O[C@H](CO)[C@H](O)[C@H]2O)[C@@H](O)[C@@H](O)[C@@H]1O
REMARK SMILES IDX 6 1 34 2 32 3 29 4 28 5 7 6 5 7 4 8 1 9 2 10 40 11 3 12
REMARK SMILES IDX 38 13 36 14 41 15 39 17 37 19 35 21 8 23 9 24 10 25 15 26
REMARK SMILES IDX 11 27 14 28 13 29 16 30 26 31 17 32 27 33 25 34 12 35 18 37
REMARK SMILES IDX 19 38 24 39 20 40 23 41 21 42 22 43 33 45 30 47 31 48
REMARK H PARENT 41 16 39 18 37 20 35 22 12 36 22 44 33 46 31 49
REMARK Flexibility Score: inf
ROOT
ATOM      1  C   UNL     1     171.918 143.141 156.865  1.00  0.00     0.221 C 
ATOM      2  C   UNL     1     172.375 141.670 156.950  1.00  0.00     0.181 C 
ATOM      3  C   UNL     1     171.714 140.981 158.171  1.00  0.00     0.177 C 
ATOM      4  C   UNL     1     170.158 141.053 158.032  1.00  0.00     0.179 C 
ATOM      5  O   UNL     1     169.720 142.062 157.124  1.00  0.00    -0.332 OA
ATOM      6  C   UNL     1     170.438 143.272 157.321  1.00  0.00     0.339 C 
ENDROOT
BRANCH   1   7
ATOM      7  O   UNL     1     172.746 143.895 157.743  1.00  0.00    -0.337 OA
BRANCH   7   8
ATOM      8  C   UNL     1     173.566 144.831 157.051  1.00  0.00     0.282 C 
ATOM      9  C   UNL     1     171.176 147.627 156.816  1.00  0.00     0.041 C 
ATOM     10  C   UNL     1     172.120 146.639 157.509  1.00  0.00     0.150 C 
ATOM     11  C   UNL     1     173.157 147.354 158.411  1.00  0.00     0.174 C 
ATOM     12  O   UNL     1     172.782 145.885 156.504  1.00  0.00    -0.344 OA
ATOM     13  C   UNL     1     174.054 146.289 159.070  1.00  0.00     0.179 C 
ATOM     14  C   UNL     1     174.652 145.358 158.006  1.00  0.00     0.202 C 
BRANCH  11  15
ATOM     15  O   UNL     1     172.501 148.083 159.416  1.00  0.00    -0.388 OA
ATOM     16  H   UNL     1     171.594 147.660 159.522  1.00  0.00     0.211 HD
ENDBRANCH  11  15
BRANCH  13  17
ATOM     17  O   UNL     1     175.095 146.910 159.777  1.00  0.00    -0.387 OA
ATOM     18  H   UNL     1     175.792 146.212 159.915  1.00  0.00     0.211 HD
ENDBRANCH  13  17
BRANCH  14  19
ATOM     19  O   UNL     1     175.636 146.039 157.270  1.00  0.00    -0.385 OA
ATOM     20  H   UNL     1     176.508 145.792 157.680  1.00  0.00     0.211 HD
ENDBRANCH  14  19
ENDBRANCH   7   8
ENDBRANCH   1   7
BRANCH   2  21
ATOM     21  O   UNL     1     172.021 140.999 155.764  1.00  0.00    -0.387 OA
ATOM     22  H   UNL     1     171.503 141.641 155.206  1.00  0.00     0.211 HD
ENDBRANCH   2  21
BRANCH   6  23
ATOM     23  O   UNL     1     169.789 144.346 156.662  1.00  0.00    -0.462 OA
BRANCH  23  24
ATOM     24  C   UNL     1     169.796 144.634 155.284  1.00  0.00     0.130 A 
ATOM     25  C   UNL     1     171.030 144.543 154.631  1.00  0.00     0.093 A 
ATOM     26  C   UNL     1     168.661 145.045 154.554  1.00  0.00     0.094 A 
ATOM     27  C   UNL     1     171.184 144.981 153.310  1.00  0.00     0.133 A 
ATOM     28  C   UNL     1     168.804 145.459 153.214  1.00  0.00     0.138 A 
ATOM     29  C   UNL     1     170.082 145.495 152.615  1.00  0.00     0.102 A 
ATOM     30  O   UNL     1     167.679 145.865 152.489  1.00  0.00    -0.484 OA
ATOM     31  C   UNL     1     170.205 146.172 151.299  1.00  0.00     0.174 C 
ATOM     32  C   UNL     1     167.718 146.088 151.070  1.00  0.00     0.211 C 
ATOM     33  O   UNL     1     171.323 146.295 150.723  1.00  0.00    -0.294 OA
ATOM     34  C   UNL     1     169.005 146.862 150.715  1.00  0.00     0.131 C 
BRANCH  27  35
ATOM     35  O   UNL     1     172.436 144.912 152.707  1.00  0.00    -0.507 OA
ATOM     36  H   UNL     1     173.271 145.283 153.161  1.00  0.00     0.293 HD
ENDBRANCH  27  35
BRANCH  32  37
ATOM     37  C   UNL     1     166.481 146.819 150.563  1.00  0.00    -0.007 A 
ATOM     38  C   UNL     1     166.386 147.179 149.199  1.00  0.00     0.011 A 
ATOM     39  C   UNL     1     165.379 147.070 151.404  1.00  0.00     0.011 A 
ATOM     40  C   UNL     1     165.250 147.826 148.710  1.00  0.00     0.046 A 
ATOM     41  C   UNL     1     164.239 147.708 150.906  1.00  0.00     0.046 A 
ATOM     42  C   UNL     1     164.164 148.088 149.564  1.00  0.00     0.115 A 
BRANCH  42  43
ATOM     43  O   UNL     1     163.024 148.728 149.085  1.00  0.00    -0.508 OA
ATOM     44  H   UNL     1     162.218 148.219 148.740  1.00  0.00     0.293 HD
ENDBRANCH  42  43
ENDBRANCH  32  37
ENDBRANCH  23  24
ENDBRANCH   6  23
BRANCH   3  45
ATOM     45  O   UNL     1     172.142 141.602 159.358  1.00  0.00    -0.387 OA
ATOM     46  H   UNL     1     172.606 142.442 159.085  1.00  0.00     0.211 HD
ENDBRANCH   3  45
BRANCH   4  47
ATOM     47  C   UNL     1     169.392 141.131 159.373  1.00  0.00     0.191 C 
BRANCH  47  48
ATOM     48  O   UNL     1     168.080 141.596 159.164  1.00  0.00    -0.394 OA
ATOM     49  H   UNL     1     167.682 141.041 158.434  1.00  0.00     0.210 HD
ENDBRANCH  47  48
ENDBRANCH   4  47
TORSDOF 14
ENDMDL
MODEL 8
REMARK VINA RESULT:    -6.811      1.616      2.660
REMARK INTER + INTRA:         -12.656
REMARK INTER:                 -11.237
REMARK INTRA:                  -1.418
REMARK UNBOUND:                -1.862
REMARK SMILES C[C@H]1O[C@H](O[C@@H]2[C@@H](Oc3cc(O)c4c(c3)O[C@@H](c3ccc(O)cc3)CC4=O)O[C@H](CO)[C@H](O)[C@H]2O)[C@@H](O)[C@@H](O)[C@@H]1O
REMARK SMILES IDX 6 1 34 2 32 3 29 4 28 5 7 6 5 7 4 8 1 9 2 10 40 11 3 12
REMARK SMILES IDX 38 13 36 14 41 15 39 17 37 19 35 21 8 23 9 24 10 25 15 26
REMARK SMILES IDX 11 27 14 28 13 29 16 30 26 31 17 32 27 33 25 34 12 35 18 37
REMARK SMILES IDX 19 38 24 39 20 40 23 41 21 42 22 43 33 45 30 47 31 48
REMARK H PARENT 41 16 39 18 37 20 35 22 12 36 22 44 33 46 31 49
REMARK Flexibility Score: inf
ROOT
ATOM      1  C   UNL     1     173.995 144.559 155.312  1.00  0.00     0.221 C 
ATOM      2  C   UNL     1     175.530 144.623 155.447  1.00  0.00     0.181 C 
ATOM      3  C   UNL     1     175.970 143.979 156.787  1.00  0.00     0.177 C 
ATOM      4  C   UNL     1     175.487 142.492 156.836  1.00  0.00     0.179 C 
ATOM      5  O   UNL     1     174.432 142.212 155.918  1.00  0.00    -0.332 OA
ATOM      6  C   UNL     1     173.453 143.242 155.936  1.00  0.00     0.339 C 
ENDROOT
BRANCH   1   7
ATOM      7  O   UNL     1     173.459 145.668 156.024  1.00  0.00    -0.337 OA
BRANCH   7   8
ATOM      8  C   UNL     1     172.336 145.313 156.825  1.00  0.00     0.282 C 
ATOM      9  C   UNL     1     173.377 146.873 159.998  1.00  0.00     0.041 C 
ATOM     10  C   UNL     1     172.910 146.829 158.539  1.00  0.00     0.150 C 
ATOM     11  C   UNL     1     171.661 147.712 158.298  1.00  0.00     0.174 C 
ATOM     12  O   UNL     1     172.628 145.478 158.208  1.00  0.00    -0.344 OA
ATOM     13  C   UNL     1     171.269 147.615 156.811  1.00  0.00     0.179 C 
ATOM     14  C   UNL     1     171.118 146.146 156.391  1.00  0.00     0.202 C 
BRANCH  11  15
ATOM     15  O   UNL     1     171.948 149.051 158.607  1.00  0.00    -0.388 OA
ATOM     16  H   UNL     1     171.103 149.566 158.432  1.00  0.00     0.211 HD
ENDBRANCH  11  15
BRANCH  13  17
ATOM     17  O   UNL     1     170.056 148.285 156.590  1.00  0.00    -0.387 OA
ATOM     18  H   UNL     1     169.338 147.663 156.887  1.00  0.00     0.211 HD
ENDBRANCH  13  17
BRANCH  14  19
ATOM     19  O   UNL     1     169.951 145.603 156.954  1.00  0.00    -0.385 OA
ATOM     20  H   UNL     1     169.693 144.839 156.371  1.00  0.00     0.211 HD
ENDBRANCH  14  19
ENDBRANCH   7   8
ENDBRANCH   1   7
BRANCH   2  21
ATOM     21  O   UNL     1     176.125 143.944 154.366  1.00  0.00    -0.387 OA
ATOM     22  H   UNL     1     175.605 144.179 153.549  1.00  0.00     0.211 HD
ENDBRANCH   2  21
BRANCH   6  23
ATOM     23  O   UNL     1     172.269 142.813 155.286  1.00  0.00    -0.462 OA
BRANCH  23  24
ATOM     24  C   UNL     1     171.826 143.163 153.996  1.00  0.00     0.130 A 
ATOM     25  C   UNL     1     172.678 142.844 152.934  1.00  0.00     0.093 A 
ATOM     26  C   UNL     1     170.621 143.844 153.730  1.00  0.00     0.094 A 
ATOM     27  C   UNL     1     172.422 143.306 151.636  1.00  0.00     0.133 A 
ATOM     28  C   UNL     1     170.342 144.287 152.421  1.00  0.00     0.138 A 
ATOM     29  C   UNL     1     171.281 144.079 151.387  1.00  0.00     0.102 A 
ATOM     30  O   UNL     1     169.147 144.961 152.155  1.00  0.00    -0.484 OA
ATOM     31  C   UNL     1     171.051 144.781 150.099  1.00  0.00     0.174 C 
ATOM     32  C   UNL     1     168.703 145.243 150.818  1.00  0.00     0.211 C 
ATOM     33  O   UNL     1     171.873 144.691 149.143  1.00  0.00    -0.294 OA
ATOM     34  C   UNL     1     169.902 145.742 149.983  1.00  0.00     0.131 C 
BRANCH  27  35
ATOM     35  O   UNL     1     173.313 143.002 150.613  1.00  0.00    -0.507 OA
ATOM     36  H   UNL     1     173.136 143.281 149.647  1.00  0.00     0.293 HD
ENDBRANCH  27  35
BRANCH  32  37
ATOM     37  C   UNL     1     167.558 146.248 150.785  1.00  0.00    -0.007 A 
ATOM     38  C   UNL     1     167.205 146.874 149.568  1.00  0.00     0.011 A 
ATOM     39  C   UNL     1     166.774 146.506 151.928  1.00  0.00     0.011 A 
ATOM     40  C   UNL     1     166.142 147.776 149.512  1.00  0.00     0.046 A 
ATOM     41  C   UNL     1     165.703 147.403 151.864  1.00  0.00     0.046 A 
ATOM     42  C   UNL     1     165.379 148.041 150.664  1.00  0.00     0.115 A 
BRANCH  42  43
ATOM     43  O   UNL     1     164.313 148.935 150.618  1.00  0.00    -0.508 OA
ATOM     44  H   UNL     1     164.306 149.743 150.006  1.00  0.00     0.293 HD
ENDBRANCH  42  43
ENDBRANCH  32  37
ENDBRANCH  23  24
ENDBRANCH   6  23
BRANCH   3  45
ATOM     45  O   UNL     1     175.444 144.715 157.864  1.00  0.00    -0.387 OA
ATOM     46  H   UNL     1     174.618 144.235 158.156  1.00  0.00     0.211 HD
ENDBRANCH   3  45
BRANCH   4  47
ATOM     47  C   UNL     1     175.156 141.967 158.252  1.00  0.00     0.191 C 
BRANCH  47  48
ATOM     48  O   UNL     1     174.110 141.027 158.196  1.00  0.00    -0.394 OA
ATOM     49  H   UNL     1     174.527 140.127 158.066  1.00  0.00     0.210 HD
ENDBRANCH  47  48
ENDBRANCH   4  47
TORSDOF 14
ENDMDL
