MODEL 1
REMARK VINA RESULT:    -2.917      0.000      0.000
REMARK INTER + INTRA:          -2.917
REMARK INTER:                  -2.917
REMARK INTRA:                   0.000
REMARK UNBOUND:                 0.000
REMARK SMILES O=C1CCCCC1
REMARK SMILES IDX 5 1 4 2 3 3 2 4 1 5 7 6 6 7
REMARK H PARENT
REMARK Flexibility Score: inf
ROOT
ATOM      1  C   UNL     1     168.185 166.009 170.168  1.00  0.00     0.001 C 
ATOM      2  C   UNL     1     167.177 165.715 169.046  1.00  0.00     0.008 C 
ATOM      3  C   UNL     1     167.800 164.849 167.945  1.00  0.00     0.075 C 
ATOM      4  C   UNL     1     168.465 163.640 168.543  1.00  0.00     0.132 C 
ATOM      5  O   UNL     1     168.328 162.541 168.027  1.00  0.00    -0.300 OA
ATOM      6  C   UNL     1     169.376 163.813 169.728  1.00  0.00     0.075 C 
ATOM      7  C   UNL     1     168.713 164.706 170.784  1.00  0.00     0.008 C 
ENDROOT
TORSDOF 0
ENDMDL
MODEL 2
REMARK VINA RESULT:    -2.879      3.517      4.093
REMARK INTER + INTRA:          -2.879
REMARK INTER:                  -2.879
REMARK INTRA:                   0.000
REMARK UNBOUND:                 0.000
REMARK SMILES O=C1CCCCC1
REMARK SMILES IDX 5 1 4 2 3 3 2 4 1 5 7 6 6 7
REMARK H PARENT
REMARK Flexibility Score: inf
ROOT
ATOM      1  C   UNL     1     168.500 167.099 169.872  1.00  0.00     0.001 C 
ATOM      2  C   UNL     1     169.237 166.014 169.073  1.00  0.00     0.008 C 
ATOM      3  C   UNL     1     169.986 166.611 167.875  1.00  0.00     0.075 C 
ATOM      4  C   UNL     1     170.835 167.773 168.314  1.00  0.00     0.132 C 
ATOM      5  O   UNL     1     171.973 167.900 167.891  1.00  0.00    -0.300 OA
ATOM      6  C   UNL     1     170.234 168.826 169.204  1.00  0.00     0.075 C 
ATOM      7  C   UNL     1     169.479 168.173 170.369  1.00  0.00     0.008 C 
ENDROOT
TORSDOF 0
ENDMDL
MODEL 3
REMARK VINA RESULT:    -2.878      5.477      6.459
REMARK INTER + INTRA:          -2.878
REMARK INTER:                  -2.878
REMARK INTRA:                   0.000
REMARK UNBOUND:                 0.000
REMARK SMILES O=C1CCCCC1
REMARK SMILES IDX 5 1 4 2 3 3 2 4 1 5 7 6 6 7
REMARK H PARENT
REMARK Flexibility Score: inf
ROOT
ATOM      1  C   UNL     1     167.598 168.719 170.047  1.00  0.00     0.001 C 
ATOM      2  C   UNL     1     168.628 169.156 168.994  1.00  0.00     0.008 C 
ATOM      3  C   UNL     1     167.985 170.028 167.909  1.00  0.00     0.075 C 
ATOM      4  C   UNL     1     167.195 171.145 168.536  1.00  0.00     0.132 C 
ATOM      5  O   UNL     1     167.263 172.278 168.084  1.00  0.00    -0.300 OA
ATOM      6  C   UNL     1     166.249 170.834 169.663  1.00  0.00     0.075 C 
ATOM      7  C   UNL     1     166.936 169.940 170.703  1.00  0.00     0.008 C 
ENDROOT
TORSDOF 0
ENDMDL
MODEL 4
REMARK VINA RESULT:    -2.870      5.149      6.069
REMARK INTER + INTRA:          -2.870
REMARK INTER:                  -2.870
REMARK INTRA:                   0.000
REMARK UNBOUND:                 0.000
REMARK SMILES O=C1CCCCC1
REMARK SMILES IDX 5 1 4 2 3 3 2 4 1 5 7 6 6 7
REMARK H PARENT
REMARK Flexibility Score: inf
ROOT
ATOM      1  C   UNL     1     167.467 168.021 169.062  1.00  0.00     0.001 C 
ATOM      2  C   UNL     1     166.150 168.812 169.076  1.00  0.00     0.008 C 
ATOM      3  C   UNL     1     166.386 170.287 169.422  1.00  0.00     0.075 C 
ATOM      4  C   UNL     1     167.469 170.862 168.551  1.00  0.00     0.132 C 
ATOM      5  O   UNL     1     167.340 171.971 168.056  1.00  0.00    -0.300 OA
ATOM      6  C   UNL     1     168.753 170.097 168.374  1.00  0.00     0.075 C 
ATOM      7  C   UNL     1     168.457 168.626 168.056  1.00  0.00     0.008 C 
ENDROOT
TORSDOF 0
ENDMDL
MODEL 5
REMARK VINA RESULT:    -2.856      3.810      4.385
REMARK INTER + INTRA:          -2.856
REMARK INTER:                  -2.856
REMARK INTRA:                   0.000
REMARK UNBOUND:                 0.000
REMARK SMILES O=C1CCCCC1
REMARK SMILES IDX 5 1 4 2 3 3 2 4 1 5 7 6 6 7
REMARK H PARENT
REMARK Flexibility Score: inf
ROOT
ATOM      1  C   UNL     1     167.933 167.926 168.740  1.00  0.00     0.001 C 
ATOM      2  C   UNL     1     168.699 169.248 168.574  1.00  0.00     0.008 C 
ATOM      3  C   UNL     1     170.162 169.106 169.010  1.00  0.00     0.075 C 
ATOM      4  C   UNL     1     170.792 167.912 168.346  1.00  0.00     0.132 C 
ATOM      5  O   UNL     1     171.919 167.988 167.880  1.00  0.00    -0.300 OA
ATOM      6  C   UNL     1     170.059 166.599 168.348  1.00  0.00     0.075 C 
ATOM      7  C   UNL     1     168.597 166.804 167.930  1.00  0.00     0.008 C 
ENDROOT
TORSDOF 0
ENDMDL
MODEL 6
REMARK VINA RESULT:    -2.819      4.379      4.754
REMARK INTER + INTRA:          -2.819
REMARK INTER:                  -2.819
REMARK INTRA:                   0.000
REMARK UNBOUND:                 0.000
REMARK SMILES O=C1CCCCC1
REMARK SMILES IDX 5 1 4 2 3 3 2 4 1 5 7 6 6 7
REMARK H PARENT
REMARK Flexibility Score: inf
ROOT
ATOM      1  C   UNL     1     166.763 168.189 170.170  1.00  0.00     0.001 C 
ATOM      2  C   UNL     1     166.146 169.231 169.225  1.00  0.00     0.008 C 
ATOM      3  C   UNL     1     165.474 168.564 168.018  1.00  0.00     0.075 C 
ATOM      4  C   UNL     1     164.540 167.477 168.473  1.00  0.00     0.132 C 
ATOM      5  O   UNL     1     163.436 167.358 167.963  1.00  0.00    -0.300 OA
ATOM      6  C   UNL     1     165.015 166.479 169.494  1.00  0.00     0.075 C 
ATOM      7  C   UNL     1     165.698 167.199 170.664  1.00  0.00     0.008 C 
ENDROOT
TORSDOF 0
ENDMDL
MODEL 7
REMARK VINA RESULT:    -2.804      3.440      4.625
REMARK INTER + INTRA:          -2.804
REMARK INTER:                  -2.804
REMARK INTRA:                   0.000
REMARK UNBOUND:                 0.000
REMARK SMILES O=C1CCCCC1
REMARK SMILES IDX 5 1 4 2 3 3 2 4 1 5 7 6 6 7
REMARK H PARENT
REMARK Flexibility Score: inf
ROOT
ATOM      1  C   UNL     1     167.547 167.145 169.055  1.00  0.00     0.001 C 
ATOM      2  C   UNL     1     166.672 165.898 168.859  1.00  0.00     0.008 C 
ATOM      3  C   UNL     1     165.209 166.176 169.228  1.00  0.00     0.075 C 
ATOM      4  C   UNL     1     164.721 167.417 168.533  1.00  0.00     0.132 C 
ATOM      5  O   UNL     1     163.614 167.442 168.017  1.00  0.00    -0.300 OA
ATOM      6  C   UNL     1     165.571 168.659 168.564  1.00  0.00     0.075 C 
ATOM      7  C   UNL     1     167.024 168.318 168.213  1.00  0.00     0.008 C 
ENDROOT
TORSDOF 0
ENDMDL
MODEL 8
REMARK VINA RESULT:    -2.793      1.591      2.529
REMARK INTER + INTRA:          -2.793
REMARK INTER:                  -2.793
REMARK INTRA:                   0.000
REMARK UNBOUND:                 0.000
REMARK SMILES O=C1CCCCC1
REMARK SMILES IDX 5 1 4 2 3 3 2 4 1 5 7 6 6 7
REMARK H PARENT
REMARK Flexibility Score: inf
ROOT
ATOM      1  C   UNL     1     168.094 167.539 168.459  1.00  0.00     0.001 C 
ATOM      2  C   UNL     1     169.376 166.719 168.247  1.00  0.00     0.008 C 
ATOM      3  C   UNL     1     169.265 165.329 168.885  1.00  0.00     0.075 C 
ATOM      4  C   UNL     1     167.993 164.654 168.450  1.00  0.00     0.132 C 
ATOM      5  O   UNL     1     167.998 163.475 168.131  1.00  0.00    -0.300 OA
ATOM      6  C   UNL     1     166.699 165.420 168.503  1.00  0.00     0.075 C 
ATOM      7  C   UNL     1     166.876 166.808 167.875  1.00  0.00     0.008 C 
ENDROOT
TORSDOF 0
ENDMDL
MODEL 9
REMARK VINA RESULT:    -2.742      2.604      3.702
REMARK INTER + INTRA:          -2.742
REMARK INTER:                  -2.742
REMARK INTRA:                   0.000
REMARK UNBOUND:                 0.000
REMARK SMILES O=C1CCCCC1
REMARK SMILES IDX 5 1 4 2 3 3 2 4 1 5 7 6 6 7
REMARK H PARENT
REMARK Flexibility Score: inf
ROOT
ATOM      1  C   UNL     1     166.130 168.699 168.565  1.00  0.00     0.001 C 
ATOM      2  C   UNL     1     167.344 168.056 167.877  1.00  0.00     0.008 C 
ATOM      3  C   UNL     1     167.666 166.683 168.478  1.00  0.00     0.075 C 
ATOM      4  C   UNL     1     166.429 165.829 168.525  1.00  0.00     0.132 C 
ATOM      5  O   UNL     1     166.478 164.653 168.198  1.00  0.00    -0.300 OA
ATOM      6  C   UNL     1     165.154 166.412 169.069  1.00  0.00     0.075 C 
ATOM      7  C   UNL     1     164.895 167.793 168.454  1.00  0.00     0.008 C 
ENDROOT
TORSDOF 0
ENDMDL
