MODEL 1
REMARK VINA RESULT:     7.498      0.000      0.000
REMARK INTER + INTRA:          29.522
REMARK INTER:                  17.799
REMARK INTRA:                  11.723
REMARK UNBOUND:                11.723
REMARK SMILES O=C(OC[C@@H]1O[C@@H](OC(=O)c2cc(O)c(O)c(O)c2)[C@@H](OC(=O)c2cc(O)c(O)c(O)c2)[C@H](OC(=O)c2cc(O)c(O)c(O)c2)[C@@H]1OC(=O)c1cc(O)c(O)c(O)c1)c1cc(O)c(O)c(O)c1
REMARK SMILES IDX 5 1 46 2 33 3 20 4 7 5 6 6 4 7 3 8 2 9 1 10 59 11 60 12
REMARK SMILES IDX 61 13 67 14 63 15 65 16 62 17 64 19 66 21 47 23 48 24 49 25
REMARK SMILES IDX 50 26 58 27 51 28 56 29 52 30 54 31 57 32 53 34 55 36 34 38
REMARK SMILES IDX 35 39 36 40 37 41 45 42 38 43 43 44 39 45 41 46 44 47 40 49
REMARK SMILES IDX 42 51 8 53 9 54 10 55 11 56 19 57 12 58 17 59 13 60 15 61
REMARK SMILES IDX 18 62 14 64 16 66 21 68 22 69 23 70 24 71 32 72 25 73 30 74
REMARK SMILES IDX 26 75 28 76 31 77 27 79 29 81
REMARK H PARENT 62 18 64 20 66 22 57 33 53 35 55 37 44 48 40 50 42 52 18 63
REMARK H PARENT 14 65 16 67 31 78 27 80 29 82
REMARK Flexibility Score: inf
ROOT
ATOM      1  C   UNL     1     -12.880  22.098  10.283  1.00  0.00     0.205 C 
ATOM      2  C   UNL     1     -13.370  22.125   8.819  1.00  0.00     0.254 C 
ATOM      3  C   UNL     1     -13.224  23.555   8.263  1.00  0.00     0.267 C 
ATOM      4  C   UNL     1     -13.911  24.561   9.204  1.00  0.00     0.290 C 
ATOM      5  C   UNL     1     -13.428  24.350  10.650  1.00  0.00     0.357 C 
ATOM      6  O   UNL     1     -13.628  23.010  11.073  1.00  0.00    -0.329 OA
ENDROOT
BRANCH   1   7
ATOM      7  C   UNL     1     -13.007  20.688  10.884  1.00  0.00     0.269 C 
BRANCH   7   8
ATOM      8  O   UNL     1     -13.193  19.717   9.855  1.00  0.00    -0.459 OA
BRANCH   8   9
ATOM      9  C   UNL     1     -13.526  18.378  10.089  1.00  0.00     0.338 C 
ATOM     10  O   UNL     1     -14.171  18.056  11.123  1.00  0.00    -0.246 OA
BRANCH   9  11
ATOM     11  C   UNL     1     -13.147  17.347   9.099  1.00  0.00     0.067 A 
ATOM     12  C   UNL     1     -12.528  16.162   9.517  1.00  0.00     0.066 A 
ATOM     13  C   UNL     1     -12.149  15.187   8.591  1.00  0.00     0.162 A 
ATOM     14  C   UNL     1     -13.395  17.541   7.732  1.00  0.00     0.066 A 
ATOM     15  C   UNL     1     -12.387  15.387   7.219  1.00  0.00     0.200 A 
ATOM     16  C   UNL     1     -13.026  16.576   6.788  1.00  0.00     0.162 A 
BRANCH  13  17
ATOM     17  O   UNL     1     -11.519  14.029   9.052  1.00  0.00    -0.504 OA
ATOM     18  H   UNL     1     -10.917  14.027   9.866  1.00  0.00     0.293 HD
ENDBRANCH  13  17
BRANCH  15  19
ATOM     19  O   UNL     1     -11.974  14.397   6.322  1.00  0.00    -0.502 OA
ATOM     20  H   UNL     1     -12.584  13.945   5.659  1.00  0.00     0.293 HD
ENDBRANCH  15  19
BRANCH  16  21
ATOM     21  O   UNL     1     -13.317  16.834   5.446  1.00  0.00    -0.504 OA
ATOM     22  H   UNL     1     -12.888  16.358   4.670  1.00  0.00     0.293 HD
ENDBRANCH  16  21
ENDBRANCH   9  11
ENDBRANCH   8   9
ENDBRANCH   7   8
ENDBRANCH   1   7
BRANCH   2  23
ATOM     23  O   UNL     1     -14.739  21.723   8.768  1.00  0.00    -0.452 OA
BRANCH  23  24
ATOM     24  C   UNL     1     -15.568  21.620   9.894  1.00  0.00     0.338 C 
ATOM     25  O   UNL     1     -15.552  22.518  10.780  1.00  0.00    -0.246 OA
BRANCH  24  26
ATOM     26  C   UNL     1     -16.463  20.454  10.035  1.00  0.00     0.067 A 
ATOM     27  C   UNL     1     -17.770  20.610  10.529  1.00  0.00     0.066 A 
ATOM     28  C   UNL     1     -16.019  19.176   9.666  1.00  0.00     0.066 A 
ATOM     29  C   UNL     1     -18.620  19.507  10.652  1.00  0.00     0.162 A 
ATOM     30  C   UNL     1     -16.859  18.067   9.793  1.00  0.00     0.162 A 
ATOM     31  C   UNL     1     -18.165  18.228  10.289  1.00  0.00     0.200 A 
BRANCH  29  32
ATOM     32  O   UNL     1     -19.921  19.703  11.119  1.00  0.00    -0.504 OA
ATOM     33  H   UNL     1     -20.153  19.628  12.103  1.00  0.00     0.293 HD
ENDBRANCH  29  32
BRANCH  30  34
ATOM     34  O   UNL     1     -16.401  16.798   9.433  1.00  0.00    -0.504 OA
ATOM     35  H   UNL     1     -16.104  16.596   8.484  1.00  0.00     0.293 HD
ENDBRANCH  30  34
BRANCH  31  36
ATOM     36  O   UNL     1     -19.019  17.131  10.416  1.00  0.00    -0.502 OA
ATOM     37  H   UNL     1     -19.470  16.700   9.615  1.00  0.00     0.293 HD
ENDBRANCH  31  36
ENDBRANCH  24  26
ENDBRANCH  23  24
ENDBRANCH   2  23
BRANCH   3  38
ATOM     38  O   UNL     1     -13.810  23.657   6.965  1.00  0.00    -0.450 OA
BRANCH  38  39
ATOM     39  C   UNL     1     -13.662  22.705   5.951  1.00  0.00     0.338 C 
ATOM     40  O   UNL     1     -13.453  21.496   6.244  1.00  0.00    -0.246 OA
BRANCH  39  41
ATOM     41  C   UNL     1     -13.742  23.129   4.534  1.00  0.00     0.067 A 
ATOM     42  C   UNL     1     -14.543  22.435   3.610  1.00  0.00     0.066 A 
ATOM     43  C   UNL     1     -13.002  24.237   4.092  1.00  0.00     0.066 A 
ATOM     44  C   UNL     1     -14.580  22.819   2.262  1.00  0.00     0.162 A 
ATOM     45  C   UNL     1     -13.030  24.627   2.750  1.00  0.00     0.162 A 
ATOM     46  C   UNL     1     -13.815  23.915   1.828  1.00  0.00     0.200 A 
BRANCH  44  47
ATOM     47  O   UNL     1     -15.372  22.115   1.350  1.00  0.00    -0.504 OA
ATOM     48  H   UNL     1     -16.277  22.460   1.049  1.00  0.00     0.293 HD
ENDBRANCH  44  47
BRANCH  45  49
ATOM     49  O   UNL     1     -12.275  25.728   2.348  1.00  0.00    -0.504 OA
ATOM     50  H   UNL     1     -12.587  26.678   2.502  1.00  0.00     0.293 HD
ENDBRANCH  45  49
BRANCH  46  51
ATOM     51  O   UNL     1     -13.830  24.310   0.491  1.00  0.00    -0.502 OA
ATOM     52  H   UNL     1     -14.440  25.043   0.145  1.00  0.00     0.293 HD
ENDBRANCH  46  51
ENDBRANCH  39  41
ENDBRANCH  38  39
ENDBRANCH   3  38
BRANCH   5  53
ATOM     53  O   UNL     1     -12.055  24.723  10.787  1.00  0.00    -0.428 OA
BRANCH  53  54
ATOM     54  C   UNL     1     -11.349  25.439   9.812  1.00  0.00     0.340 C 
ATOM     55  O   UNL     1     -11.180  24.948   8.663  1.00  0.00    -0.246 OA
BRANCH  54  56
ATOM     56  C   UNL     1     -10.780  26.763  10.151  1.00  0.00     0.067 A 
ATOM     57  C   UNL     1     -11.626  27.871  10.319  1.00  0.00     0.066 A 
ATOM     58  C   UNL     1      -9.395  26.923  10.320  1.00  0.00     0.066 A 
ATOM     59  C   UNL     1     -11.095  29.128  10.643  1.00  0.00     0.162 A 
ATOM     60  C   UNL     1      -8.859  28.174  10.652  1.00  0.00     0.162 A 
ATOM     61  C   UNL     1      -9.707  29.283  10.806  1.00  0.00     0.200 A 
BRANCH  59  62
ATOM     62  O   UNL     1     -11.939  30.224  10.803  1.00  0.00    -0.504 OA
ATOM     63  H   UNL     1     -12.846  30.137  11.246  1.00  0.00     0.293 HD
ENDBRANCH  59  62
BRANCH  60  64
ATOM     64  O   UNL     1      -7.481  28.309  10.811  1.00  0.00    -0.504 OA
ATOM     65  H   UNL     1      -6.871  28.531  10.032  1.00  0.00     0.293 HD
ENDBRANCH  60  64
BRANCH  61  66
ATOM     66  O   UNL     1      -9.158  30.527  11.125  1.00  0.00    -0.502 OA
ATOM     67  H   UNL     1      -9.010  30.819  12.091  1.00  0.00     0.293 HD
ENDBRANCH  61  66
ENDBRANCH  54  56
ENDBRANCH  53  54
ENDBRANCH   5  53
BRANCH   4  68
ATOM     68  O   UNL     1     -13.619  25.901   8.797  1.00  0.00    -0.448 OA
BRANCH  68  69
ATOM     69  C   UNL     1     -14.124  27.037   9.447  1.00  0.00     0.339 C 
ATOM     70  O   UNL     1     -14.581  26.942  10.619  1.00  0.00    -0.246 OA
BRANCH  69  71
ATOM     71  C   UNL     1     -14.086  28.353   8.776  1.00  0.00     0.067 A 
ATOM     72  C   UNL     1     -13.875  28.443   7.389  1.00  0.00     0.066 A 
ATOM     73  C   UNL     1     -14.264  29.533   9.517  1.00  0.00     0.066 A 
ATOM     74  C   UNL     1     -13.875  29.690   6.747  1.00  0.00     0.162 A 
ATOM     75  C   UNL     1     -14.251  30.787   8.891  1.00  0.00     0.162 A 
ATOM     76  C   UNL     1     -14.074  30.865   7.487  1.00  0.00     0.200 A 
BRANCH  74  77
ATOM     77  O   UNL     1     -13.692  29.772   5.367  1.00  0.00    -0.504 OA
ATOM     78  H   UNL     1     -14.118  29.107   4.738  1.00  0.00     0.293 HD
ENDBRANCH  74  77
BRANCH  75  79
ATOM     79  O   UNL     1     -14.406  31.916   9.701  1.00  0.00    -0.504 OA
ATOM     80  H   UNL     1     -14.179  32.854   9.412  1.00  0.00     0.293 HD
ENDBRANCH  75  79
BRANCH  76  81
ATOM     81  O   UNL     1     -14.102  32.080   6.799  1.00  0.00    -0.502 OA
ATOM     82  H   UNL     1     -13.393  32.786   6.893  1.00  0.00     0.293 HD
ENDBRANCH  76  81
ENDBRANCH  69  71
ENDBRANCH  68  69
ENDBRANCH   4  68
TORSDOF 31
ENDMDL
MODEL 2
REMARK VINA RESULT:     7.598      3.050      9.568
REMARK INTER + INTRA:          29.760
REMARK INTER:                  27.800
REMARK INTRA:                   1.960
REMARK UNBOUND:                11.723
REMARK SMILES O=C(OC[C@@H]1O[C@@H](OC(=O)c2cc(O)c(O)c(O)c2)[C@@H](OC(=O)c2cc(O)c(O)c(O)c2)[C@H](OC(=O)c2cc(O)c(O)c(O)c2)[C@@H]1OC(=O)c1cc(O)c(O)c(O)c1)c1cc(O)c(O)c(O)c1
REMARK SMILES IDX 5 1 46 2 33 3 20 4 7 5 6 6 4 7 3 8 2 9 1 10 59 11 60 12
REMARK SMILES IDX 61 13 67 14 63 15 65 16 62 17 64 19 66 21 47 23 48 24 49 25
REMARK SMILES IDX 50 26 58 27 51 28 56 29 52 30 54 31 57 32 53 34 55 36 34 38
REMARK SMILES IDX 35 39 36 40 37 41 45 42 38 43 43 44 39 45 41 46 44 47 40 49
REMARK SMILES IDX 42 51 8 53 9 54 10 55 11 56 19 57 12 58 17 59 13 60 15 61
REMARK SMILES IDX 18 62 14 64 16 66 21 68 22 69 23 70 24 71 32 72 25 73 30 74
REMARK SMILES IDX 26 75 28 76 31 77 27 79 29 81
REMARK H PARENT 62 18 64 20 66 22 57 33 53 35 55 37 44 48 40 50 42 52 18 63
REMARK H PARENT 14 65 16 67 31 78 27 80 29 82
REMARK Flexibility Score: inf
ROOT
ATOM      1  C   UNL     1     -13.767  28.160   9.612  1.00  0.00     0.205 C 
ATOM      2  C   UNL     1     -14.349  29.281  10.501  1.00  0.00     0.254 C 
ATOM      3  C   UNL     1     -15.179  30.241   9.626  1.00  0.00     0.267 C 
ATOM      4  C   UNL     1     -14.342  30.721   8.426  1.00  0.00     0.290 C 
ATOM      5  C   UNL     1     -13.720  29.516   7.698  1.00  0.00     0.357 C 
ATOM      6  O   UNL     1     -12.958  28.711   8.584  1.00  0.00    -0.329 OA
ENDROOT
BRANCH   1   7
ATOM      7  C   UNL     1     -12.927  27.174  10.442  1.00  0.00     0.269 C 
BRANCH   7   8
ATOM      8  O   UNL     1     -12.576  26.032   9.664  1.00  0.00    -0.459 OA
BRANCH   8   9
ATOM      9  C   UNL     1     -12.123  24.822  10.204  1.00  0.00     0.338 C 
ATOM     10  O   UNL     1     -10.913  24.686  10.529  1.00  0.00    -0.246 OA
BRANCH   9  11
ATOM     11  C   UNL     1     -13.081  23.716  10.423  1.00  0.00     0.067 A 
ATOM     12  C   UNL     1     -14.452  23.983  10.538  1.00  0.00     0.066 A 
ATOM     13  C   UNL     1     -15.364  22.950  10.762  1.00  0.00     0.162 A 
ATOM     14  C   UNL     1     -12.633  22.391  10.525  1.00  0.00     0.066 A 
ATOM     15  C   UNL     1     -14.914  21.622  10.875  1.00  0.00     0.200 A 
ATOM     16  C   UNL     1     -13.531  21.341  10.746  1.00  0.00     0.162 A 
BRANCH  13  17
ATOM     17  O   UNL     1     -16.719  23.264  10.887  1.00  0.00    -0.504 OA
ATOM     18  H   UNL     1     -17.087  24.181  10.662  1.00  0.00     0.293 HD
ENDBRANCH  13  17
BRANCH  15  19
ATOM     19  O   UNL     1     -15.857  20.619  11.120  1.00  0.00    -0.502 OA
ATOM     20  H   UNL     1     -16.713  20.762  11.633  1.00  0.00     0.293 HD
ENDBRANCH  15  19
BRANCH  16  21
ATOM     21  O   UNL     1     -13.012  20.046  10.823  1.00  0.00    -0.504 OA
ATOM     22  H   UNL     1     -12.030  19.824  10.787  1.00  0.00     0.293 HD
ENDBRANCH  16  21
ENDBRANCH   9  11
ENDBRANCH   8   9
ENDBRANCH   7   8
ENDBRANCH   1   7
BRANCH   2  23
ATOM     23  O   UNL     1     -13.281  29.995  11.124  1.00  0.00    -0.452 OA
BRANCH  23  24
ATOM     24  C   UNL     1     -12.476  30.934  10.464  1.00  0.00     0.338 C 
ATOM     25  O   UNL     1     -13.003  31.876   9.809  1.00  0.00    -0.246 OA
BRANCH  24  26
ATOM     26  C   UNL     1     -11.006  30.817  10.543  1.00  0.00     0.067 A 
ATOM     27  C   UNL     1     -10.187  31.951  10.395  1.00  0.00     0.066 A 
ATOM     28  C   UNL     1     -10.411  29.569  10.777  1.00  0.00     0.066 A 
ATOM     29  C   UNL     1      -8.797  31.840  10.479  1.00  0.00     0.162 A 
ATOM     30  C   UNL     1      -9.021  29.447  10.856  1.00  0.00     0.162 A 
ATOM     31  C   UNL     1      -8.207  30.584  10.705  1.00  0.00     0.200 A 
BRANCH  29  32
ATOM     32  O   UNL     1      -8.017  32.991  10.356  1.00  0.00    -0.504 OA
ATOM     33  H   UNL     1      -7.562  33.417  11.154  1.00  0.00     0.293 HD
ENDBRANCH  29  32
BRANCH  30  34
ATOM     34  O   UNL     1      -8.440  28.198  11.077  1.00  0.00    -0.504 OA
ATOM     35  H   UNL     1      -8.468  27.472  10.368  1.00  0.00     0.293 HD
ENDBRANCH  30  34
BRANCH  31  36
ATOM     36  O   UNL     1      -6.818  30.481  10.787  1.00  0.00    -0.502 OA
ATOM     37  H   UNL     1      -6.231  31.267  11.050  1.00  0.00     0.293 HD
ENDBRANCH  31  36
ENDBRANCH  24  26
ENDBRANCH  23  24
ENDBRANCH   2  23
BRANCH   3  38
ATOM     38  O   UNL     1     -15.603  31.376  10.380  1.00  0.00    -0.450 OA
BRANCH  38  39
ATOM     39  C   UNL     1     -16.135  32.544   9.823  1.00  0.00     0.338 C 
ATOM     40  O   UNL     1     -15.393  33.546   9.628  1.00  0.00    -0.246 OA
BRANCH  39  41
ATOM     41  C   UNL     1     -17.574  32.599   9.475  1.00  0.00     0.067 A 
ATOM     42  C   UNL     1     -18.020  32.298   8.177  1.00  0.00     0.066 A 
ATOM     43  C   UNL     1     -18.516  32.964  10.449  1.00  0.00     0.066 A 
ATOM     44  C   UNL     1     -19.380  32.393   7.846  1.00  0.00     0.162 A 
ATOM     45  C   UNL     1     -19.872  33.063  10.130  1.00  0.00     0.162 A 
ATOM     46  C   UNL     1     -20.310  32.783   8.825  1.00  0.00     0.200 A 
BRANCH  44  47
ATOM     47  O   UNL     1     -19.812  32.103   6.549  1.00  0.00    -0.504 OA
ATOM     48  H   UNL     1     -20.725  31.700   6.367  1.00  0.00     0.293 HD
ENDBRANCH  44  47
BRANCH  45  49
ATOM     49  O   UNL     1     -20.777  33.437  11.124  1.00  0.00    -0.504 OA
ATOM     50  H   UNL     1     -21.687  33.820  10.905  1.00  0.00     0.293 HD
ENDBRANCH  45  49
BRANCH  46  51
ATOM     51  O   UNL     1     -21.666  32.893   8.518  1.00  0.00    -0.502 OA
ATOM     52  H   UNL     1     -22.364  33.137   9.211  1.00  0.00     0.293 HD
ENDBRANCH  46  51
ENDBRANCH  39  41
ENDBRANCH  38  39
ENDBRANCH   3  38
BRANCH   5  53
ATOM     53  O   UNL     1     -14.728  28.737   7.050  1.00  0.00    -0.428 OA
BRANCH  53  54
ATOM     54  C   UNL     1     -14.566  28.168   5.780  1.00  0.00     0.340 C 
ATOM     55  O   UNL     1     -14.712  28.875   4.746  1.00  0.00    -0.246 OA
BRANCH  54  56
ATOM     56  C   UNL     1     -14.252  26.727   5.663  1.00  0.00     0.067 A 
ATOM     57  C   UNL     1     -14.327  25.895   6.793  1.00  0.00     0.066 A 
ATOM     58  C   UNL     1     -13.888  26.173   4.425  1.00  0.00     0.066 A 
ATOM     59  C   UNL     1     -14.033  24.528   6.690  1.00  0.00     0.162 A 
ATOM     60  C   UNL     1     -13.602  24.806   4.315  1.00  0.00     0.162 A 
ATOM     61  C   UNL     1     -13.666  23.981   5.449  1.00  0.00     0.200 A 
BRANCH  59  62
ATOM     62  O   UNL     1     -14.105  23.710   7.815  1.00  0.00    -0.504 OA
ATOM     63  H   UNL     1     -14.411  24.066   8.713  1.00  0.00     0.293 HD
ENDBRANCH  59  62
BRANCH  60  64
ATOM     64  O   UNL     1     -13.239  24.279   3.075  1.00  0.00    -0.504 OA
ATOM     65  H   UNL     1     -12.281  24.297   2.745  1.00  0.00     0.293 HD
ENDBRANCH  60  64
BRANCH  61  66
ATOM     66  O   UNL     1     -13.365  22.622   5.326  1.00  0.00    -0.502 OA
ATOM     67  H   UNL     1     -13.015  22.075   6.112  1.00  0.00     0.293 HD
ENDBRANCH  61  66
ENDBRANCH  54  56
ENDBRANCH  53  54
ENDBRANCH   5  53
BRANCH   4  68
ATOM     68  O   UNL     1     -15.161  31.457   7.512  1.00  0.00    -0.448 OA
BRANCH  68  69
ATOM     69  C   UNL     1     -14.684  32.512   6.721  1.00  0.00     0.339 C 
ATOM     70  O   UNL     1     -15.454  33.456   6.397  1.00  0.00    -0.246 OA
BRANCH  69  71
ATOM     71  C   UNL     1     -13.267  32.540   6.300  1.00  0.00     0.067 A 
ATOM     72  C   UNL     1     -12.334  33.343   6.981  1.00  0.00     0.066 A 
ATOM     73  C   UNL     1     -12.833  31.761   5.216  1.00  0.00     0.066 A 
ATOM     74  C   UNL     1     -10.984  33.341   6.605  1.00  0.00     0.162 A 
ATOM     75  C   UNL     1     -11.489  31.761   4.819  1.00  0.00     0.162 A 
ATOM     76  C   UNL     1     -10.550  32.545   5.535  1.00  0.00     0.200 A 
BRANCH  74  77
ATOM     77  O   UNL     1     -10.057  34.118   7.300  1.00  0.00    -0.504 OA
ATOM     78  H   UNL     1      -9.074  34.090   7.078  1.00  0.00     0.293 HD
ENDBRANCH  74  77
BRANCH  75  79
ATOM     79  O   UNL     1     -11.141  30.981   3.712  1.00  0.00    -0.504 OA
ATOM     80  H   UNL     1     -10.941  29.995   3.757  1.00  0.00     0.293 HD
ENDBRANCH  75  79
BRANCH  76  81
ATOM     81  O   UNL     1      -9.189  32.549   5.220  1.00  0.00    -0.502 OA
ATOM     82  H   UNL     1      -8.812  32.988   4.398  1.00  0.00     0.293 HD
ENDBRANCH  76  81
ENDBRANCH  69  71
ENDBRANCH  68  69
ENDBRANCH   4  68
TORSDOF 31
ENDMDL
MODEL 3
REMARK VINA RESULT:     9.007      1.503      7.065
REMARK INTER + INTRA:          33.103
REMARK INTER:                  24.599
REMARK INTRA:                   8.504
REMARK UNBOUND:                11.723
REMARK SMILES O=C(OC[C@@H]1O[C@@H](OC(=O)c2cc(O)c(O)c(O)c2)[C@@H](OC(=O)c2cc(O)c(O)c(O)c2)[C@H](OC(=O)c2cc(O)c(O)c(O)c2)[C@@H]1OC(=O)c1cc(O)c(O)c(O)c1)c1cc(O)c(O)c(O)c1
REMARK SMILES IDX 5 1 46 2 33 3 20 4 7 5 6 6 4 7 3 8 2 9 1 10 59 11 60 12
REMARK SMILES IDX 61 13 67 14 63 15 65 16 62 17 64 19 66 21 47 23 48 24 49 25
REMARK SMILES IDX 50 26 58 27 51 28 56 29 52 30 54 31 57 32 53 34 55 36 34 38
REMARK SMILES IDX 35 39 36 40 37 41 45 42 38 43 43 44 39 45 41 46 44 47 40 49
REMARK SMILES IDX 42 51 8 53 9 54 10 55 11 56 19 57 12 58 17 59 13 60 15 61
REMARK SMILES IDX 18 62 14 64 16 66 21 68 22 69 23 70 24 71 32 72 25 73 30 74
REMARK SMILES IDX 26 75 28 76 31 77 27 79 29 81
REMARK H PARENT 62 18 64 20 66 22 57 33 53 35 55 37 44 48 40 50 42 52 18 63
REMARK H PARENT 14 65 16 67 31 78 27 80 29 82
REMARK Flexibility Score: inf
ROOT
ATOM      1  C   UNL     1     -14.112  22.705   7.302  1.00  0.00     0.205 C 
ATOM      2  C   UNL     1     -14.703  21.764   8.375  1.00  0.00     0.254 C 
ATOM      3  C   UNL     1     -15.092  22.593   9.615  1.00  0.00     0.267 C 
ATOM      4  C   UNL     1     -13.898  23.448  10.076  1.00  0.00     0.290 C 
ATOM      5  C   UNL     1     -13.325  24.243   8.890  1.00  0.00     0.357 C 
ATOM      6  O   UNL     1     -12.977  23.388   7.812  1.00  0.00    -0.329 OA
ENDROOT
BRANCH   1   7
ATOM      7  C   UNL     1     -13.705  21.922   6.042  1.00  0.00     0.269 C 
BRANCH   7   8
ATOM      8  O   UNL     1     -14.217  22.553   4.870  1.00  0.00    -0.459 OA
BRANCH   8   9
ATOM      9  C   UNL     1     -13.540  23.547   4.154  1.00  0.00     0.338 C 
ATOM     10  O   UNL     1     -12.844  24.404   4.761  1.00  0.00    -0.246 OA
BRANCH   9  11
ATOM     11  C   UNL     1     -13.617  23.564   2.677  1.00  0.00     0.067 A 
ATOM     12  C   UNL     1     -13.758  22.366   1.964  1.00  0.00     0.066 A 
ATOM     13  C   UNL     1     -13.816  22.367   0.569  1.00  0.00     0.162 A 
ATOM     14  C   UNL     1     -13.545  24.773   1.969  1.00  0.00     0.066 A 
ATOM     15  C   UNL     1     -13.732  23.578  -0.141  1.00  0.00     0.200 A 
ATOM     16  C   UNL     1     -13.603  24.796   0.572  1.00  0.00     0.162 A 
BRANCH  13  17
ATOM     17  O   UNL     1     -13.939  21.147  -0.101  1.00  0.00    -0.504 OA
ATOM     18  H   UNL     1     -13.197  20.767  -0.677  1.00  0.00     0.293 HD
ENDBRANCH  13  17
BRANCH  15  19
ATOM     19  O   UNL     1     -13.772  23.534  -1.538  1.00  0.00    -0.502 OA
ATOM     20  H   UNL     1     -12.964  23.384  -2.122  1.00  0.00     0.293 HD
ENDBRANCH  15  19
BRANCH  16  21
ATOM     21  O   UNL     1     -13.538  26.040  -0.062  1.00  0.00    -0.504 OA
ATOM     22  H   UNL     1     -14.209  26.369  -0.737  1.00  0.00     0.293 HD
ENDBRANCH  16  21
ENDBRANCH   9  11
ENDBRANCH   8   9
ENDBRANCH   7   8
ENDBRANCH   1   7
BRANCH   2  23
ATOM     23  O   UNL     1     -13.730  20.783   8.735  1.00  0.00    -0.452 OA
BRANCH  23  24
ATOM     24  C   UNL     1     -13.240  19.806   7.856  1.00  0.00     0.338 C 
ATOM     25  O   UNL     1     -12.584  20.142   6.832  1.00  0.00    -0.246 OA
BRANCH  24  26
ATOM     26  C   UNL     1     -13.494  18.379   8.139  1.00  0.00     0.067 A 
ATOM     27  C   UNL     1     -14.137  17.564   7.191  1.00  0.00     0.066 A 
ATOM     28  C   UNL     1     -13.084  17.820   9.358  1.00  0.00     0.066 A 
ATOM     29  C   UNL     1     -14.368  16.211   7.456  1.00  0.00     0.162 A 
ATOM     30  C   UNL     1     -13.317  16.470   9.635  1.00  0.00     0.162 A 
ATOM     31  C   UNL     1     -13.963  15.659   8.684  1.00  0.00     0.200 A 
BRANCH  29  32
ATOM     32  O   UNL     1     -14.984  15.425   6.481  1.00  0.00    -0.504 OA
ATOM     33  H   UNL     1     -15.128  15.761   5.536  1.00  0.00     0.293 HD
ENDBRANCH  29  32
BRANCH  30  34
ATOM     34  O   UNL     1     -12.916  15.927  10.857  1.00  0.00    -0.504 OA
ATOM     35  H   UNL     1     -13.475  15.224  11.329  1.00  0.00     0.293 HD
ENDBRANCH  30  34
BRANCH  31  36
ATOM     36  O   UNL     1     -14.198  14.308   8.943  1.00  0.00    -0.502 OA
ATOM     37  H   UNL     1     -15.007  13.818   8.572  1.00  0.00     0.293 HD
ENDBRANCH  31  36
ENDBRANCH  24  26
ENDBRANCH  23  24
ENDBRANCH   2  23
BRANCH   3  38
ATOM     38  O   UNL     1     -15.496  21.742  10.688  1.00  0.00    -0.450 OA
BRANCH  38  39
ATOM     39  C   UNL     1     -15.105  20.406  10.829  1.00  0.00     0.338 C 
ATOM     40  O   UNL     1     -13.882  20.111  10.923  1.00  0.00    -0.246 OA
BRANCH  39  41
ATOM     41  C   UNL     1     -16.136  19.343  10.860  1.00  0.00     0.067 A 
ATOM     42  C   UNL     1     -15.782  17.984  10.805  1.00  0.00     0.066 A 
ATOM     43  C   UNL     1     -17.495  19.687  10.937  1.00  0.00     0.066 A 
ATOM     44  C   UNL     1     -16.767  16.986  10.793  1.00  0.00     0.162 A 
ATOM     45  C   UNL     1     -18.484  18.701  10.923  1.00  0.00     0.162 A 
ATOM     46  C   UNL     1     -18.125  17.346  10.845  1.00  0.00     0.200 A 
BRANCH  44  47
ATOM     47  O   UNL     1     -16.404  15.637  10.727  1.00  0.00    -0.504 OA
ATOM     48  H   UNL     1     -16.266  15.079  11.562  1.00  0.00     0.293 HD
ENDBRANCH  44  47
BRANCH  45  49
ATOM     49  O   UNL     1     -19.824  19.084  10.993  1.00  0.00    -0.504 OA
ATOM     50  H   UNL     1     -20.559  18.548  10.549  1.00  0.00     0.293 HD
ENDBRANCH  45  49
BRANCH  46  51
ATOM     51  O   UNL     1     -19.122  16.371  10.826  1.00  0.00    -0.502 OA
ATOM     52  H   UNL     1     -19.215  15.701  10.070  1.00  0.00     0.293 HD
ENDBRANCH  46  51
ENDBRANCH  39  41
ENDBRANCH  38  39
ENDBRANCH   3  38
BRANCH   5  53
ATOM     53  O   UNL     1     -14.246  25.248   8.458  1.00  0.00    -0.428 OA
BRANCH  53  54
ATOM     54  C   UNL     1     -13.938  26.214   7.493  1.00  0.00     0.340 C 
ATOM     55  O   UNL     1     -13.633  25.863   6.320  1.00  0.00    -0.246 OA
BRANCH  54  56
ATOM     56  C   UNL     1     -13.942  27.646   7.868  1.00  0.00     0.067 A 
ATOM     57  C   UNL     1     -13.565  28.621   6.930  1.00  0.00     0.066 A 
ATOM     58  C   UNL     1     -14.334  28.046   9.156  1.00  0.00     0.066 A 
ATOM     59  C   UNL     1     -13.569  29.980   7.276  1.00  0.00     0.162 A 
ATOM     60  C   UNL     1     -14.348  29.403   9.505  1.00  0.00     0.162 A 
ATOM     61  C   UNL     1     -13.958  30.374   8.568  1.00  0.00     0.200 A 
BRANCH  59  62
ATOM     62  O   UNL     1     -13.190  30.941   6.342  1.00  0.00    -0.504 OA
ATOM     63  H   UNL     1     -12.217  31.185   6.195  1.00  0.00     0.293 HD
ENDBRANCH  59  62
BRANCH  60  64
ATOM     64  O   UNL     1     -14.737  29.776  10.791  1.00  0.00    -0.504 OA
ATOM     65  H   UNL     1     -14.941  30.739  11.031  1.00  0.00     0.293 HD
ENDBRANCH  60  64
BRANCH  61  66
ATOM     66  O   UNL     1     -13.966  31.722   8.935  1.00  0.00    -0.502 OA
ATOM     67  H   UNL     1     -13.898  32.468   8.243  1.00  0.00     0.293 HD
ENDBRANCH  61  66
ENDBRANCH  54  56
ENDBRANCH  53  54
ENDBRANCH   5  53
BRANCH   4  68
ATOM     68  O   UNL     1     -14.306  24.357  11.104  1.00  0.00    -0.448 OA
BRANCH  68  69
ATOM     69  C   UNL     1     -14.098  25.743  11.040  1.00  0.00     0.339 C 
ATOM     70  O   UNL     1     -15.084  26.527  10.985  1.00  0.00    -0.246 OA
BRANCH  69  71
ATOM     71  C   UNL     1     -12.725  26.288  11.078  1.00  0.00     0.067 A 
ATOM     72  C   UNL     1     -11.614  25.427  11.109  1.00  0.00     0.066 A 
ATOM     73  C   UNL     1     -12.512  27.676  11.080  1.00  0.00     0.066 A 
ATOM     74  C   UNL     1     -10.311  25.945  11.107  1.00  0.00     0.162 A 
ATOM     75  C   UNL     1     -11.216  28.208  11.094  1.00  0.00     0.162 A 
ATOM     76  C   UNL     1     -10.102  27.332  11.088  1.00  0.00     0.200 A 
BRANCH  74  77
ATOM     77  O   UNL     1      -9.211  25.086  11.110  1.00  0.00    -0.504 OA
ATOM     78  H   UNL     1      -9.306  24.109  11.343  1.00  0.00     0.293 HD
ENDBRANCH  74  77
BRANCH  75  79
ATOM     79  O   UNL     1     -11.088  29.600  11.125  1.00  0.00    -0.504 OA
ATOM     80  H   UNL     1     -11.848  30.241  10.965  1.00  0.00     0.293 HD
ENDBRANCH  75  79
BRANCH  76  81
ATOM     81  O   UNL     1      -8.786  27.799  11.051  1.00  0.00    -0.502 OA
ATOM     82  H   UNL     1      -8.223  27.807  10.219  1.00  0.00     0.293 HD
ENDBRANCH  76  81
ENDBRANCH  69  71
ENDBRANCH  68  69
ENDBRANCH   4  68
TORSDOF 31
ENDMDL
MODEL 4
REMARK VINA RESULT:    10.495      0.819      2.180
REMARK INTER + INTRA:          36.636
REMARK INTER:                  23.899
REMARK INTRA:                  12.737
REMARK UNBOUND:                11.723
REMARK SMILES O=C(OC[C@@H]1O[C@@H](OC(=O)c2cc(O)c(O)c(O)c2)[C@@H](OC(=O)c2cc(O)c(O)c(O)c2)[C@H](OC(=O)c2cc(O)c(O)c(O)c2)[C@@H]1OC(=O)c1cc(O)c(O)c(O)c1)c1cc(O)c(O)c(O)c1
REMARK SMILES IDX 5 1 46 2 33 3 20 4 7 5 6 6 4 7 3 8 2 9 1 10 59 11 60 12
REMARK SMILES IDX 61 13 67 14 63 15 65 16 62 17 64 19 66 21 47 23 48 24 49 25
REMARK SMILES IDX 50 26 58 27 51 28 56 29 52 30 54 31 57 32 53 34 55 36 34 38
REMARK SMILES IDX 35 39 36 40 37 41 45 42 38 43 43 44 39 45 41 46 44 47 40 49
REMARK SMILES IDX 42 51 8 53 9 54 10 55 11 56 19 57 12 58 17 59 13 60 15 61
REMARK SMILES IDX 18 62 14 64 16 66 21 68 22 69 23 70 24 71 32 72 25 73 30 74
REMARK SMILES IDX 26 75 28 76 31 77 27 79 29 81
REMARK H PARENT 62 18 64 20 66 22 57 33 53 35 55 37 44 48 40 50 42 52 18 63
REMARK H PARENT 14 65 16 67 31 78 27 80 29 82
REMARK Flexibility Score: inf
ROOT
ATOM      1  C   UNL     1     -13.197  22.289  10.400  1.00  0.00     0.205 C 
ATOM      2  C   UNL     1     -13.595  22.316   8.908  1.00  0.00     0.254 C 
ATOM      3  C   UNL     1     -13.229  23.690   8.311  1.00  0.00     0.267 C 
ATOM      4  C   UNL     1     -13.831  24.816   9.171  1.00  0.00     0.290 C 
ATOM      5  C   UNL     1     -13.463  24.607  10.651  1.00  0.00     0.357 C 
ATOM      6  O   UNL     1     -13.862  23.324  11.108  1.00  0.00    -0.329 OA
ENDROOT
BRANCH   1   7
ATOM      7  C   UNL     1     -13.544  20.935  11.041  1.00  0.00     0.269 C 
BRANCH   7   8
ATOM      8  O   UNL     1     -12.981  19.862  10.288  1.00  0.00    -0.459 OA
BRANCH   8   9
ATOM      9  C   UNL     1     -13.702  19.073   9.385  1.00  0.00     0.338 C 
ATOM     10  O   UNL     1     -14.748  19.523   8.842  1.00  0.00    -0.246 OA
BRANCH   9  11
ATOM     11  C   UNL     1     -13.212  17.719   9.044  1.00  0.00     0.067 A 
ATOM     12  C   UNL     1     -12.723  16.873  10.048  1.00  0.00     0.066 A 
ATOM     13  C   UNL     1     -12.242  15.599   9.738  1.00  0.00     0.162 A 
ATOM     14  C   UNL     1     -13.223  17.266   7.717  1.00  0.00     0.066 A 
ATOM     15  C   UNL     1     -12.243  15.149   8.406  1.00  0.00     0.200 A 
ATOM     16  C   UNL     1     -12.748  15.993   7.385  1.00  0.00     0.162 A 
BRANCH  13  17
ATOM     17  O   UNL     1     -11.749  14.797  10.769  1.00  0.00    -0.504 OA
ATOM     18  H   UNL     1     -10.760  14.734  10.981  1.00  0.00     0.293 HD
ENDBRANCH  13  17
BRANCH  15  19
ATOM     19  O   UNL     1     -11.733  13.876   8.134  1.00  0.00    -0.502 OA
ATOM     20  H   UNL     1     -10.758  13.629   8.209  1.00  0.00     0.293 HD
ENDBRANCH  15  19
BRANCH  16  21
ATOM     21  O   UNL     1     -12.803  15.607   6.043  1.00  0.00    -0.504 OA
ATOM     22  H   UNL     1     -12.224  14.892   5.633  1.00  0.00     0.293 HD
ENDBRANCH  16  21
ENDBRANCH   9  11
ENDBRANCH   8   9
ENDBRANCH   7   8
ENDBRANCH   1   7
BRANCH   2  23
ATOM     23  O   UNL     1     -15.000  22.093   8.786  1.00  0.00    -0.452 OA
BRANCH  23  24
ATOM     24  C   UNL     1     -15.849  21.833   9.870  1.00  0.00     0.338 C 
ATOM     25  O   UNL     1     -16.006  22.696  10.777  1.00  0.00    -0.246 OA
BRANCH  24  26
ATOM     26  C   UNL     1     -16.563  20.542   9.944  1.00  0.00     0.067 A 
ATOM     27  C   UNL     1     -15.935  19.405  10.481  1.00  0.00     0.066 A 
ATOM     28  C   UNL     1     -17.884  20.441   9.484  1.00  0.00     0.066 A 
ATOM     29  C   UNL     1     -16.614  18.187  10.559  1.00  0.00     0.162 A 
ATOM     30  C   UNL     1     -18.569  19.225   9.551  1.00  0.00     0.162 A 
ATOM     31  C   UNL     1     -17.936  18.091  10.088  1.00  0.00     0.200 A 
BRANCH  29  32
ATOM     32  O   UNL     1     -15.970  17.086  11.125  1.00  0.00    -0.504 OA
ATOM     33  H   UNL     1     -16.482  16.348  11.592  1.00  0.00     0.293 HD
ENDBRANCH  29  32
BRANCH  30  34
ATOM     34  O   UNL     1     -19.880  19.134   9.079  1.00  0.00    -0.504 OA
ATOM     35  H   UNL     1     -20.656  18.972   9.712  1.00  0.00     0.293 HD
ENDBRANCH  30  34
BRANCH  31  36
ATOM     36  O   UNL     1     -18.608  16.870  10.167  1.00  0.00    -0.502 OA
ATOM     37  H   UNL     1     -18.689  16.352  11.037  1.00  0.00     0.293 HD
ENDBRANCH  31  36
ENDBRANCH  24  26
ENDBRANCH  23  24
ENDBRANCH   2  23
BRANCH   3  38
ATOM     38  O   UNL     1     -13.722  23.811   6.977  1.00  0.00    -0.450 OA
BRANCH  38  39
ATOM     39  C   UNL     1     -13.634  22.808   6.006  1.00  0.00     0.338 C 
ATOM     40  O   UNL     1     -13.501  21.602   6.352  1.00  0.00    -0.246 OA
BRANCH  39  41
ATOM     41  C   UNL     1     -13.689  23.173   4.571  1.00  0.00     0.067 A 
ATOM     42  C   UNL     1     -12.873  24.190   4.047  1.00  0.00     0.066 A 
ATOM     43  C   UNL     1     -14.573  22.503   3.712  1.00  0.00     0.066 A 
ATOM     44  C   UNL     1     -12.962  24.556   2.696  1.00  0.00     0.162 A 
ATOM     45  C   UNL     1     -14.671  22.861   2.365  1.00  0.00     0.162 A 
ATOM     46  C   UNL     1     -13.869  23.893   1.852  1.00  0.00     0.200 A 
BRANCH  44  47
ATOM     47  O   UNL     1     -12.153  25.577   2.188  1.00  0.00    -0.504 OA
ATOM     48  H   UNL     1     -11.183  25.417   1.936  1.00  0.00     0.293 HD
ENDBRANCH  44  47
BRANCH  45  49
ATOM     49  O   UNL     1     -15.569  22.176   1.544  1.00  0.00    -0.504 OA
ATOM     50  H   UNL     1     -16.176  21.451   1.902  1.00  0.00     0.293 HD
ENDBRANCH  45  49
BRANCH  46  51
ATOM     51  O   UNL     1     -13.981  24.246   0.507  1.00  0.00    -0.502 OA
ATOM     52  H   UNL     1     -14.112  23.559  -0.228  1.00  0.00     0.293 HD
ENDBRANCH  46  51
ENDBRANCH  39  41
ENDBRANCH  38  39
ENDBRANCH   3  38
BRANCH   5  53
ATOM     53  O   UNL     1     -12.063  24.804  10.860  1.00  0.00    -0.428 OA
BRANCH  53  54
ATOM     54  C   UNL     1     -11.225  25.432   9.930  1.00  0.00     0.340 C 
ATOM     55  O   UNL     1     -10.927  24.849   8.852  1.00  0.00    -0.246 OA
BRANCH  54  56
ATOM     56  C   UNL     1     -10.669  26.769  10.237  1.00  0.00     0.067 A 
ATOM     57  C   UNL     1      -9.280  26.977  10.213  1.00  0.00     0.066 A 
ATOM     58  C   UNL     1     -11.520  27.843  10.541  1.00  0.00     0.066 A 
ATOM     59  C   UNL     1      -8.745  28.241  10.499  1.00  0.00     0.162 A 
ATOM     60  C   UNL     1     -10.992  29.111  10.821  1.00  0.00     0.162 A 
ATOM     61  C   UNL     1      -9.603  29.312  10.808  1.00  0.00     0.200 A 
BRANCH  59  62
ATOM     62  O   UNL     1      -7.367  28.440  10.478  1.00  0.00    -0.504 OA
ATOM     63  H   UNL     1      -6.721  27.670  10.348  1.00  0.00     0.293 HD
ENDBRANCH  59  62
BRANCH  60  64
ATOM     64  O   UNL     1     -11.857  30.162  11.125  1.00  0.00    -0.504 OA
ATOM     65  H   UNL     1     -12.252  30.280  12.051  1.00  0.00     0.293 HD
ENDBRANCH  60  64
BRANCH  61  66
ATOM     66  O   UNL     1      -9.091  30.578  11.101  1.00  0.00    -0.502 OA
ATOM     67  H   UNL     1      -8.120  30.714  11.380  1.00  0.00     0.293 HD
ENDBRANCH  61  66
ENDBRANCH  54  56
ENDBRANCH  53  54
ENDBRANCH   5  53
BRANCH   4  68
ATOM     68  O   UNL     1     -13.341  26.088   8.736  1.00  0.00    -0.448 OA
BRANCH  68  69
ATOM     69  C   UNL     1     -14.087  26.978   7.950  1.00  0.00     0.339 C 
ATOM     70  O   UNL     1     -14.857  26.537   7.054  1.00  0.00    -0.246 OA
BRANCH  69  71
ATOM     71  C   UNL     1     -14.004  28.433   8.197  1.00  0.00     0.067 A 
ATOM     72  C   UNL     1     -14.310  28.962   9.464  1.00  0.00     0.066 A 
ATOM     73  C   UNL     1     -13.613  29.307   7.169  1.00  0.00     0.066 A 
ATOM     74  C   UNL     1     -14.195  30.338   9.708  1.00  0.00     0.162 A 
ATOM     75  C   UNL     1     -13.510  30.686   7.395  1.00  0.00     0.162 A 
ATOM     76  C   UNL     1     -13.785  31.205   8.685  1.00  0.00     0.200 A 
BRANCH  74  77
ATOM     77  O   UNL     1     -14.474  30.855  10.973  1.00  0.00    -0.504 OA
ATOM     78  H   UNL     1     -14.079  31.729  11.284  1.00  0.00     0.293 HD
ENDBRANCH  74  77
BRANCH  75  79
ATOM     79  O   UNL     1     -13.143  31.493   6.313  1.00  0.00    -0.504 OA
ATOM     80  H   UNL     1     -13.294  32.488   6.275  1.00  0.00     0.293 HD
ENDBRANCH  75  79
BRANCH  76  81
ATOM     81  O   UNL     1     -13.651  32.562   8.986  1.00  0.00    -0.502 OA
ATOM     82  H   UNL     1     -12.784  32.986   9.266  1.00  0.00     0.293 HD
ENDBRANCH  76  81
ENDBRANCH  69  71
ENDBRANCH  68  69
ENDBRANCH   4  68
TORSDOF 31
ENDMDL
