MODEL 1
REMARK VINA RESULT:    -7.429      0.000      0.000
REMARK INTER + INTRA:         -10.032
REMARK INTER:                  -9.383
REMARK INTRA:                  -0.648
REMARK UNBOUND:                -0.648
REMARK SMILES CC(C)[C@@H](C)C=C[C@@H](C)[C@H]1CC[C@@H]2C3=CC=C4C[C@H](O)CC[C@@]4(C)[C@H]3CC[C@@]21C
REMARK SMILES IDX 8 1 9 2 7 3 6 4 4 5 5 6 2 7 1 8 3 9 10 10 11 11 28 12 12 13
REMARK SMILES IDX 13 14 27 15 29 16 14 17 26 18 25 19 15 20 23 21 16 22 17 23
REMARK SMILES IDX 22 24 24 25 18 26 21 27 19 28 20 29
REMARK H PARENT 20 30
REMARK Flexibility Score: inf
ROOT
ATOM      1  C   UNL     1       7.705  20.235  43.472  1.00  0.00     0.012 C 
ATOM      2  C   UNL     1       9.233  20.369  43.585  1.00  0.00     0.012 C 
ENDROOT
BRANCH   1   3
ATOM      3  C   UNL     1       7.329  18.764  43.519  1.00  0.00    -0.028 C 
ATOM      4  C   UNL     1       6.794  18.190  44.615  1.00  0.00    -0.028 C 
BRANCH   4   5
ATOM      5  C   UNL     1       6.474  16.712  44.775  1.00  0.00     0.011 C 
ATOM      6  C   UNL     1       4.961  16.542  44.987  1.00  0.00     0.012 C 
BRANCH   5   7
ATOM      7  C   UNL     1       7.344  15.941  45.823  1.00  0.00    -0.011 C 
ATOM      8  C   UNL     1       6.712  16.010  47.223  1.00  0.00     0.008 C 
ATOM      9  C   UNL     1       8.805  16.428  45.898  1.00  0.00     0.008 C 
ENDBRANCH   5   7
ENDBRANCH   4   5
ENDBRANCH   1   3
BRANCH   1  10
ATOM     10  C   UNL     1       7.136  20.936  42.192  1.00  0.00     0.002 C 
ATOM     11  C   UNL     1       7.152  20.030  40.963  1.00  0.00     0.005 C 
ATOM     12  C   UNL     1       5.671  21.517  42.242  1.00  0.00    -0.023 C 
ATOM     13  C   UNL     1       6.269  20.742  39.964  1.00  0.00     0.009 C 
ATOM     14  C   UNL     1       5.107  21.296  40.789  1.00  0.00     0.021 C 
ATOM     15  C   UNL     1       5.723  23.019  42.655  1.00  0.00     0.008 C 
ATOM     16  C   UNL     1       4.755  20.741  43.230  1.00  0.00     0.012 C 
ATOM     17  C   UNL     1       4.422  22.473  40.094  1.00  0.00    -0.063 C 
ATOM     18  C   UNL     1       4.479  23.786  42.227  1.00  0.00     0.009 C 
ATOM     19  C   UNL     1       4.409  23.867  40.689  1.00  0.00     0.025 C 
ATOM     20  C   UNL     1       3.929  22.284  38.863  1.00  0.00    -0.000 C 
ATOM     21  C   UNL     1       3.238  24.796  40.159  1.00  0.00    -0.005 C 
ATOM     22  C   UNL     1       3.249  23.346  38.121  1.00  0.00    -0.000 C 
ATOM     23  C   UNL     1       2.922  24.515  38.689  1.00  0.00    -0.061 C 
ATOM     24  C   UNL     1       1.904  24.581  40.938  1.00  0.00     0.014 C 
ATOM     25  C   UNL     1       3.707  26.272  40.309  1.00  0.00     0.017 C 
ATOM     26  C   UNL     1       1.824  25.327  38.048  1.00  0.00     0.063 C 
ATOM     27  C   UNL     1       0.703  25.346  40.333  1.00  0.00     0.033 C 
ATOM     28  C   UNL     1       0.521  25.075  38.822  1.00  0.00     0.118 C 
BRANCH  28  29
ATOM     29  O   UNL     1      -0.486  25.903  38.305  1.00  0.00    -0.393 OA
ATOM     30  H   UNL     1      -0.059  26.478  37.616  1.00  0.00     0.210 HD
ENDBRANCH  28  29
ENDBRANCH   1  10
TORSDOF 5
ENDMDL
MODEL 2
REMARK VINA RESULT:    -7.409      5.688      8.413
REMARK INTER + INTRA:         -10.006
REMARK INTER:                  -9.376
REMARK INTRA:                  -0.629
REMARK UNBOUND:                -0.648
REMARK SMILES CC(C)[C@@H](C)C=C[C@@H](C)[C@H]1CC[C@@H]2C3=CC=C4C[C@H](O)CC[C@@]4(C)[C@H]3CC[C@@]21C
REMARK SMILES IDX 8 1 9 2 7 3 6 4 4 5 5 6 2 7 1 8 3 9 10 10 11 11 28 12 12 13
REMARK SMILES IDX 13 14 27 15 29 16 14 17 26 18 25 19 15 20 23 21 16 22 17 23
REMARK SMILES IDX 22 24 24 25 18 26 21 27 19 28 20 29
REMARK H PARENT 20 30
REMARK Flexibility Score: inf
ROOT
ATOM      1  C   UNL     1       7.128  18.076  46.183  1.00  0.00     0.012 C 
ATOM      2  C   UNL     1       7.272  19.592  46.405  1.00  0.00     0.012 C 
ENDROOT
BRANCH   1   3
ATOM      3  C   UNL     1       8.078  17.641  45.080  1.00  0.00    -0.028 C 
ATOM      4  C   UNL     1       7.973  18.098  43.817  1.00  0.00    -0.028 C 
BRANCH   4   5
ATOM      5  C   UNL     1       8.823  17.647  42.638  1.00  0.00     0.011 C 
ATOM      6  C   UNL     1      10.010  16.821  43.158  1.00  0.00     0.012 C 
BRANCH   5   7
ATOM      7  C   UNL     1       9.235  18.774  41.632  1.00  0.00    -0.011 C 
ATOM      8  C   UNL     1      10.653  19.289  41.930  1.00  0.00     0.008 C 
ATOM      9  C   UNL     1       8.257  19.965  41.596  1.00  0.00     0.008 C 
ENDBRANCH   5   7
ENDBRANCH   4   5
ENDBRANCH   1   3
BRANCH   1  10
ATOM     10  C   UNL     1       5.651  17.654  45.874  1.00  0.00     0.002 C 
ATOM     11  C   UNL     1       5.528  16.194  45.445  1.00  0.00     0.005 C 
ATOM     12  C   UNL     1       4.566  17.833  47.003  1.00  0.00    -0.023 C 
ATOM     13  C   UNL     1       4.048  15.902  45.537  1.00  0.00     0.009 C 
ATOM     14  C   UNL     1       3.582  16.620  46.803  1.00  0.00     0.021 C 
ATOM     15  C   UNL     1       3.871  19.218  46.841  1.00  0.00     0.008 C 
ATOM     16  C   UNL     1       5.170  17.722  48.432  1.00  0.00     0.012 C 
ATOM     17  C   UNL     1       2.080  16.907  46.779  1.00  0.00    -0.063 C 
ATOM     18  C   UNL     1       2.502  19.266  47.507  1.00  0.00     0.009 C 
ATOM     19  C   UNL     1       1.526  18.318  46.784  1.00  0.00     0.025 C 
ATOM     20  C   UNL     1       1.240  15.875  46.622  1.00  0.00    -0.000 C 
ATOM     21  C   UNL     1       0.032  18.434  47.304  1.00  0.00    -0.005 C 
ATOM     22  C   UNL     1      -0.213  16.047  46.596  1.00  0.00    -0.000 C 
ATOM     23  C   UNL     1      -0.798  17.214  46.899  1.00  0.00    -0.061 C 
ATOM     24  C   UNL     1      -0.055  18.522  48.859  1.00  0.00     0.014 C 
ATOM     25  C   UNL     1      -0.588  19.710  46.666  1.00  0.00     0.017 C 
ATOM     26  C   UNL     1      -2.244  17.186  47.328  1.00  0.00     0.063 C 
ATOM     27  C   UNL     1      -1.503  18.462  49.402  1.00  0.00     0.033 C 
ATOM     28  C   UNL     1      -2.295  17.250  48.863  1.00  0.00     0.118 C 
BRANCH  28  29
ATOM     29  O   UNL     1      -3.634  17.332  49.273  1.00  0.00    -0.393 OA
ATOM     30  H   UNL     1      -3.723  18.174  49.793  1.00  0.00     0.210 HD
ENDBRANCH  28  29
ENDBRANCH   1  10
TORSDOF 5
ENDMDL
MODEL 3
REMARK VINA RESULT:    -7.401      8.352     10.114
REMARK INTER + INTRA:          -9.996
REMARK INTER:                  -9.669
REMARK INTRA:                  -0.327
REMARK UNBOUND:                -0.648
REMARK SMILES CC(C)[C@@H](C)C=C[C@@H](C)[C@H]1CC[C@@H]2C3=CC=C4C[C@H](O)CC[C@@]4(C)[C@H]3CC[C@@]21C
REMARK SMILES IDX 8 1 9 2 7 3 6 4 4 5 5 6 2 7 1 8 3 9 10 10 11 11 28 12 12 13
REMARK SMILES IDX 13 14 27 15 29 16 14 17 26 18 25 19 15 20 23 21 16 22 17 23
REMARK SMILES IDX 22 24 24 25 18 26 21 27 19 28 20 29
REMARK H PARENT 20 30
REMARK Flexibility Score: inf
ROOT
ATOM      1  C   UNL     1       0.245  18.657  46.774  1.00  0.00     0.012 C 
ATOM      2  C   UNL     1      -0.434  17.594  45.893  1.00  0.00     0.012 C 
ENDROOT
BRANCH   1   3
ATOM      3  C   UNL     1       1.266  17.981  47.673  1.00  0.00    -0.028 C 
ATOM      4  C   UNL     1       2.550  17.807  47.303  1.00  0.00    -0.028 C 
BRANCH   4   5
ATOM      5  C   UNL     1       3.609  17.064  48.103  1.00  0.00     0.011 C 
ATOM      6  C   UNL     1       4.586  18.080  48.715  1.00  0.00     0.012 C 
BRANCH   5   7
ATOM      7  C   UNL     1       4.318  15.885  47.354  1.00  0.00    -0.011 C 
ATOM      8  C   UNL     1       5.830  15.881  47.636  1.00  0.00     0.008 C 
ATOM      9  C   UNL     1       4.083  15.885  45.830  1.00  0.00     0.008 C 
ENDBRANCH   5   7
ENDBRANCH   4   5
ENDBRANCH   1   3
BRANCH   1  10
ATOM     10  C   UNL     1      -0.788  19.496  47.602  1.00  0.00     0.002 C 
ATOM     11  C   UNL     1      -1.423  18.700  48.740  1.00  0.00     0.005 C 
ATOM     12  C   UNL     1      -0.301  20.836  48.274  1.00  0.00    -0.023 C 
ATOM     13  C   UNL     1      -2.091  19.748  49.601  1.00  0.00     0.009 C 
ATOM     14  C   UNL     1      -1.113  20.923  49.620  1.00  0.00     0.021 C 
ATOM     15  C   UNL     1      -0.579  22.030  47.313  1.00  0.00     0.008 C 
ATOM     16  C   UNL     1       1.212  20.806  48.635  1.00  0.00     0.012 C 
ATOM     17  C   UNL     1      -1.811  22.242  49.956  1.00  0.00    -0.063 C 
ATOM     18  C   UNL     1      -0.648  23.365  48.043  1.00  0.00     0.009 C 
ATOM     19  C   UNL     1      -1.874  23.396  48.976  1.00  0.00     0.025 C 
ATOM     20  C   UNL     1      -2.493  22.323  51.107  1.00  0.00    -0.000 C 
ATOM     21  C   UNL     1      -2.120  24.813  49.647  1.00  0.00    -0.005 C 
ATOM     22  C   UNL     1      -3.185  23.543  51.521  1.00  0.00    -0.000 C 
ATOM     23  C   UNL     1      -3.038  24.703  50.866  1.00  0.00    -0.061 C 
ATOM     24  C   UNL     1      -0.801  25.472  50.155  1.00  0.00     0.014 C 
ATOM     25  C   UNL     1      -2.791  25.725  48.581  1.00  0.00     0.017 C 
ATOM     26  C   UNL     1      -3.360  25.977  51.608  1.00  0.00     0.063 C 
ATOM     27  C   UNL     1      -1.029  26.770  50.965  1.00  0.00     0.033 C 
ATOM     28  C   UNL     1      -2.044  26.588  52.116  1.00  0.00     0.118 C 
BRANCH  28  29
ATOM     29  O   UNL     1      -2.316  27.826  52.715  1.00  0.00    -0.393 OA
ATOM     30  H   UNL     1      -3.019  28.263  52.166  1.00  0.00     0.210 HD
ENDBRANCH  28  29
ENDBRANCH   1  10
TORSDOF 5
ENDMDL
MODEL 4
REMARK VINA RESULT:    -7.320      7.047     10.611
REMARK INTER + INTRA:          -9.893
REMARK INTER:                  -9.840
REMARK INTRA:                  -0.053
REMARK UNBOUND:                -0.648
REMARK SMILES CC(C)[C@@H](C)C=C[C@@H](C)[C@H]1CC[C@@H]2C3=CC=C4C[C@H](O)CC[C@@]4(C)[C@H]3CC[C@@]21C
REMARK SMILES IDX 8 1 9 2 7 3 6 4 4 5 5 6 2 7 1 8 3 9 10 10 11 11 28 12 12 13
REMARK SMILES IDX 13 14 27 15 29 16 14 17 26 18 25 19 15 20 23 21 16 22 17 23
REMARK SMILES IDX 22 24 24 25 18 26 21 27 19 28 20 29
REMARK H PARENT 20 30
REMARK Flexibility Score: inf
ROOT
ATOM      1  C   UNL     1      -2.669  18.950  48.804  1.00  0.00     0.012 C 
ATOM      2  C   UNL     1      -3.798  18.795  47.770  1.00  0.00     0.012 C 
ENDROOT
BRANCH   1   3
ATOM      3  C   UNL     1      -2.302  20.419  48.923  1.00  0.00    -0.028 C 
ATOM      4  C   UNL     1      -2.030  21.001  50.109  1.00  0.00    -0.028 C 
BRANCH   4   5
ATOM      5  C   UNL     1      -1.743  22.479  50.325  1.00  0.00     0.011 C 
ATOM      6  C   UNL     1      -0.303  22.784  49.886  1.00  0.00     0.012 C 
BRANCH   5   7
ATOM      7  C   UNL     1      -2.096  23.035  51.745  1.00  0.00    -0.011 C 
ATOM      8  C   UNL     1      -3.134  24.166  51.654  1.00  0.00     0.008 C 
ATOM      9  C   UNL     1      -0.872  23.529  52.542  1.00  0.00     0.008 C 
ENDBRANCH   5   7
ENDBRANCH   4   5
ENDBRANCH   1   3
BRANCH   1  10
ATOM     10  C   UNL     1      -1.420  18.068  48.461  1.00  0.00     0.002 C 
ATOM     11  C   UNL     1      -1.795  16.719  47.853  1.00  0.00     0.005 C 
ATOM     12  C   UNL     1      -0.329  18.657  47.488  1.00  0.00    -0.023 C 
ATOM     13  C   UNL     1      -0.496  16.191  47.288  1.00  0.00     0.009 C 
ATOM     14  C   UNL     1       0.192  17.412  46.677  1.00  0.00     0.021 C 
ATOM     15  C   UNL     1       0.788  19.355  48.320  1.00  0.00     0.008 C 
ATOM     16  C   UNL     1      -0.923  19.670  46.469  1.00  0.00     0.012 C 
ATOM     17  C   UNL     1       1.704  17.213  46.553  1.00  0.00    -0.063 C 
ATOM     18  C   UNL     1       2.099  19.475  47.556  1.00  0.00     0.009 C 
ATOM     19  C   UNL     1       2.697  18.076  47.306  1.00  0.00     0.025 C 
ATOM     20  C   UNL     1       2.150  16.162  45.853  1.00  0.00    -0.000 C 
ATOM     21  C   UNL     1       4.148  18.116  46.667  1.00  0.00    -0.005 C 
ATOM     22  C   UNL     1       3.577  15.893  45.670  1.00  0.00    -0.000 C 
ATOM     23  C   UNL     1       4.520  16.771  46.039  1.00  0.00    -0.061 C 
ATOM     24  C   UNL     1       4.272  19.175  45.529  1.00  0.00     0.014 C 
ATOM     25  C   UNL     1       5.153  18.444  47.807  1.00  0.00     0.017 C 
ATOM     26  C   UNL     1       5.878  16.660  45.390  1.00  0.00     0.063 C 
ATOM     27  C   UNL     1       5.622  19.116  44.773  1.00  0.00     0.033 C 
ATOM     28  C   UNL     1       5.959  17.698  44.259  1.00  0.00     0.118 C 
BRANCH  28  29
ATOM     29  O   UNL     1       7.251  17.681  43.715  1.00  0.00    -0.393 OA
ATOM     30  H   UNL     1       7.421  18.590  43.350  1.00  0.00     0.210 HD
ENDBRANCH  28  29
ENDBRANCH   1  10
TORSDOF 5
ENDMDL
MODEL 5
REMARK VINA RESULT:    -7.271      1.145      1.721
REMARK INTER + INTRA:          -9.832
REMARK INTER:                  -9.094
REMARK INTRA:                  -0.738
REMARK UNBOUND:                -0.648
REMARK SMILES CC(C)[C@@H](C)C=C[C@@H](C)[C@H]1CC[C@@H]2C3=CC=C4C[C@H](O)CC[C@@]4(C)[C@H]3CC[C@@]21C
REMARK SMILES IDX 8 1 9 2 7 3 6 4 4 5 5 6 2 7 1 8 3 9 10 10 11 11 28 12 12 13
REMARK SMILES IDX 13 14 27 15 29 16 14 17 26 18 25 19 15 20 23 21 16 22 17 23
REMARK SMILES IDX 22 24 24 25 18 26 21 27 19 28 20 29
REMARK H PARENT 20 30
REMARK Flexibility Score: inf
ROOT
ATOM      1  C   UNL     1       7.837  20.501  43.370  1.00  0.00     0.012 C 
ATOM      2  C   UNL     1       9.015  21.285  43.975  1.00  0.00     0.012 C 
ENDROOT
BRANCH   1   3
ATOM      3  C   UNL     1       8.282  19.077  43.084  1.00  0.00    -0.028 C 
ATOM      4  C   UNL     1       9.432  18.569  43.569  1.00  0.00    -0.028 C 
BRANCH   4   5
ATOM      5  C   UNL     1       9.992  17.189  43.257  1.00  0.00     0.011 C 
ATOM      6  C   UNL     1      10.085  17.013  41.734  1.00  0.00     0.012 C 
BRANCH   5   7
ATOM      7  C   UNL     1       9.288  15.995  43.985  1.00  0.00    -0.011 C 
ATOM      8  C   UNL     1       7.816  15.876  43.556  1.00  0.00     0.008 C 
ATOM      9  C   UNL     1       9.367  16.069  45.523  1.00  0.00     0.008 C 
ENDBRANCH   5   7
ENDBRANCH   4   5
ENDBRANCH   1   3
BRANCH   1  10
ATOM     10  C   UNL     1       7.254  21.192  42.091  1.00  0.00     0.002 C 
ATOM     11  C   UNL     1       7.351  20.314  40.845  1.00  0.00     0.005 C 
ATOM     12  C   UNL     1       5.756  21.682  42.119  1.00  0.00    -0.023 C 
ATOM     13  C   UNL     1       6.447  20.991  39.840  1.00  0.00     0.009 C 
ATOM     14  C   UNL     1       5.237  21.456  40.650  1.00  0.00     0.021 C 
ATOM     15  C   UNL     1       5.706  23.175  42.562  1.00  0.00     0.008 C 
ATOM     16  C   UNL     1       4.868  20.831  43.071  1.00  0.00     0.012 C 
ATOM     17  C   UNL     1       4.496  22.604  39.962  1.00  0.00    -0.063 C 
ATOM     18  C   UNL     1       4.428  23.874  42.120  1.00  0.00     0.009 C 
ATOM     19  C   UNL     1       4.385  23.982  40.584  1.00  0.00     0.025 C 
ATOM     20  C   UNL     1       4.041  22.410  38.717  1.00  0.00    -0.000 C 
ATOM     21  C   UNL     1       3.171  24.849  40.045  1.00  0.00    -0.005 C 
ATOM     22  C   UNL     1       3.313  23.443  37.980  1.00  0.00    -0.000 C 
ATOM     23  C   UNL     1       2.904  24.579  38.563  1.00  0.00    -0.061 C 
ATOM     24  C   UNL     1       1.837  24.537  40.790  1.00  0.00     0.014 C 
ATOM     25  C   UNL     1       3.545  26.347  40.233  1.00  0.00     0.017 C 
ATOM     26  C   UNL     1       1.771  25.336  37.913  1.00  0.00     0.063 C 
ATOM     27  C   UNL     1       0.604  25.240  40.172  1.00  0.00     0.033 C 
ATOM     28  C   UNL     1       0.470  24.989  38.653  1.00  0.00     0.118 C 
BRANCH  28  29
ATOM     29  O   UNL     1      -0.574  25.764  38.130  1.00  0.00    -0.393 OA
ATOM     30  H   UNL     1      -1.422  25.356  38.449  1.00  0.00     0.210 HD
ENDBRANCH  28  29
ENDBRANCH   1  10
TORSDOF 5
ENDMDL
MODEL 6
REMARK VINA RESULT:    -7.182      2.971      5.893
REMARK INTER + INTRA:          -9.719
REMARK INTER:                  -8.808
REMARK INTRA:                  -0.911
REMARK UNBOUND:                -0.648
REMARK SMILES CC(C)[C@@H](C)C=C[C@@H](C)[C@H]1CC[C@@H]2C3=CC=C4C[C@H](O)CC[C@@]4(C)[C@H]3CC[C@@]21C
REMARK SMILES IDX 8 1 9 2 7 3 6 4 4 5 5 6 2 7 1 8 3 9 10 10 11 11 28 12 12 13
REMARK SMILES IDX 13 14 27 15 29 16 14 17 26 18 25 19 15 20 23 21 16 22 17 23
REMARK SMILES IDX 22 24 24 25 18 26 21 27 19 28 20 29
REMARK H PARENT 20 30
REMARK Flexibility Score: inf
ROOT
ATOM      1  C   UNL     1       3.407  23.151  40.994  1.00  0.00     0.012 C 
ATOM      2  C   UNL     1       3.926  23.726  42.324  1.00  0.00     0.012 C 
ENDROOT
BRANCH   1   3
ATOM      3  C   UNL     1       4.447  22.202  40.423  1.00  0.00    -0.028 C 
ATOM      4  C   UNL     1       5.646  22.009  41.007  1.00  0.00    -0.028 C 
BRANCH   4   5
ATOM      5  C   UNL     1       6.772  21.149  40.454  1.00  0.00     0.011 C 
ATOM      6  C   UNL     1       6.478  20.816  38.983  1.00  0.00     0.012 C 
BRANCH   5   7
ATOM      7  C   UNL     1       7.153  19.898  41.315  1.00  0.00    -0.011 C 
ATOM      8  C   UNL     1       6.360  19.872  42.632  1.00  0.00     0.008 C 
ATOM      9  C   UNL     1       8.660  19.791  41.624  1.00  0.00     0.008 C 
ENDBRANCH   5   7
ENDBRANCH   4   5
ENDBRANCH   1   3
BRANCH   1  10
ATOM     10  C   UNL     1       3.022  24.271  39.969  1.00  0.00     0.002 C 
ATOM     11  C   UNL     1       3.267  23.859  38.519  1.00  0.00     0.005 C 
ATOM     12  C   UNL     1       1.547  24.827  39.982  1.00  0.00    -0.023 C 
ATOM     13  C   UNL     1       2.527  24.896  37.706  1.00  0.00     0.009 C 
ATOM     14  C   UNL     1       1.229  25.146  38.474  1.00  0.00     0.021 C 
ATOM     15  C   UNL     1       1.474  26.084  40.901  1.00  0.00     0.008 C 
ATOM     16  C   UNL     1       0.516  23.770  40.471  1.00  0.00     0.012 C 
ATOM     17  C   UNL     1       0.618  26.506  38.137  1.00  0.00    -0.063 C 
ATOM     18  C   UNL     1       0.285  26.978  40.575  1.00  0.00     0.009 C 
ATOM     19  C   UNL     1       0.457  27.600  39.175  1.00  0.00     0.025 C 
ATOM     20  C   UNL     1       0.334  26.775  36.855  1.00  0.00    -0.000 C 
ATOM     21  C   UNL     1      -0.651  28.679  38.824  1.00  0.00    -0.005 C 
ATOM     22  C   UNL     1      -0.261  28.044  36.436  1.00  0.00    -0.000 C 
ATOM     23  C   UNL     1      -0.718  28.943  37.319  1.00  0.00    -0.061 C 
ATOM     24  C   UNL     1      -2.082  28.229  39.250  1.00  0.00     0.014 C 
ATOM     25  C   UNL     1      -0.269  29.997  39.558  1.00  0.00     0.017 C 
ATOM     26  C   UNL     1      -1.732  29.952  36.836  1.00  0.00     0.063 C 
ATOM     27  C   UNL     1      -3.200  29.183  38.767  1.00  0.00     0.033 C 
ATOM     28  C   UNL     1      -3.130  29.468  37.249  1.00  0.00     0.118 C 
BRANCH  28  29
ATOM     29  O   UNL     1      -4.074  30.445  36.902  1.00  0.00    -0.393 OA
ATOM     30  H   UNL     1      -4.909  30.225  37.392  1.00  0.00     0.210 HD
ENDBRANCH  28  29
ENDBRANCH   1  10
TORSDOF 5
ENDMDL
MODEL 7
REMARK VINA RESULT:    -7.042      3.256      9.422
REMARK INTER + INTRA:          -9.543
REMARK INTER:                  -8.602
REMARK INTRA:                  -0.942
REMARK UNBOUND:                -0.648
REMARK SMILES CC(C)[C@@H](C)C=C[C@@H](C)[C@H]1CC[C@@H]2C3=CC=C4C[C@H](O)CC[C@@]4(C)[C@H]3CC[C@@]21C
REMARK SMILES IDX 8 1 9 2 7 3 6 4 4 5 5 6 2 7 1 8 3 9 10 10 11 11 28 12 12 13
REMARK SMILES IDX 13 14 27 15 29 16 14 17 26 18 25 19 15 20 23 21 16 22 17 23
REMARK SMILES IDX 22 24 24 25 18 26 21 27 19 28 20 29
REMARK H PARENT 20 30
REMARK Flexibility Score: inf
ROOT
ATOM      1  C   UNL     1       1.439  24.578  40.568  1.00  0.00     0.012 C 
ATOM      2  C   UNL     1       0.123  24.079  41.190  1.00  0.00     0.012 C 
ENDROOT
BRANCH   1   3
ATOM      3  C   UNL     1       1.124  25.402  39.331  1.00  0.00    -0.028 C 
ATOM      4  C   UNL     1      -0.097  25.408  38.760  1.00  0.00    -0.028 C 
BRANCH   4   5
ATOM      5  C   UNL     1      -0.470  26.131  37.475  1.00  0.00     0.011 C 
ATOM      6  C   UNL     1       0.796  26.743  36.853  1.00  0.00     0.012 C 
BRANCH   5   7
ATOM      7  C   UNL     1      -1.662  27.139  37.588  1.00  0.00    -0.011 C 
ATOM      8  C   UNL     1      -1.211  28.570  37.248  1.00  0.00     0.008 C 
ATOM      9  C   UNL     1      -2.352  27.135  38.967  1.00  0.00     0.008 C 
ENDBRANCH   5   7
ENDBRANCH   4   5
ENDBRANCH   1   3
BRANCH   1  10
ATOM     10  C   UNL     1       2.430  23.408  40.246  1.00  0.00     0.002 C 
ATOM     11  C   UNL     1       2.781  23.319  38.763  1.00  0.00     0.005 C 
ATOM     12  C   UNL     1       3.820  23.375  40.989  1.00  0.00    -0.023 C 
ATOM     13  C   UNL     1       3.975  22.393  38.718  1.00  0.00     0.009 C 
ATOM     14  C   UNL     1       4.822  22.784  39.929  1.00  0.00     0.021 C 
ATOM     15  C   UNL     1       3.701  22.499  42.273  1.00  0.00     0.008 C 
ATOM     16  C   UNL     1       4.322  24.794  41.377  1.00  0.00     0.012 C 
ATOM     17  C   UNL     1       5.750  21.650  40.367  1.00  0.00    -0.063 C 
ATOM     18  C   UNL     1       5.049  21.976  42.750  1.00  0.00     0.009 C 
ATOM     19  C   UNL     1       5.627  20.983  41.723  1.00  0.00     0.025 C 
ATOM     20  C   UNL     1       6.614  21.154  39.471  1.00  0.00    -0.000 C 
ATOM     21  C   UNL     1       6.948  20.258  42.220  1.00  0.00    -0.005 C 
ATOM     22  C   UNL     1       7.547  20.076  39.798  1.00  0.00    -0.000 C 
ATOM     23  C   UNL     1       7.719  19.639  41.053  1.00  0.00    -0.061 C 
ATOM     24  C   UNL     1       7.938  21.236  42.924  1.00  0.00     0.014 C 
ATOM     25  C   UNL     1       6.522  19.134  43.207  1.00  0.00     0.017 C 
ATOM     26  C   UNL     1       9.003  18.914  41.377  1.00  0.00     0.063 C 
ATOM     27  C   UNL     1       9.305  20.595  43.264  1.00  0.00     0.033 C 
ATOM     28  C   UNL     1       9.964  19.909  42.046  1.00  0.00     0.118 C 
BRANCH  28  29
ATOM     29  O   UNL     1      11.121  19.227  42.449  1.00  0.00    -0.393 OA
ATOM     30  H   UNL     1      11.879  19.860  42.342  1.00  0.00     0.210 HD
ENDBRANCH  28  29
ENDBRANCH   1  10
TORSDOF 5
ENDMDL
MODEL 8
REMARK VINA RESULT:    -6.899      9.656     11.416
REMARK INTER + INTRA:          -9.362
REMARK INTER:                  -8.508
REMARK INTRA:                  -0.855
REMARK UNBOUND:                -0.648
REMARK SMILES CC(C)[C@@H](C)C=C[C@@H](C)[C@H]1CC[C@@H]2C3=CC=C4C[C@H](O)CC[C@@]4(C)[C@H]3CC[C@@]21C
REMARK SMILES IDX 8 1 9 2 7 3 6 4 4 5 5 6 2 7 1 8 3 9 10 10 11 11 28 12 12 13
REMARK SMILES IDX 13 14 27 15 29 16 14 17 26 18 25 19 15 20 23 21 16 22 17 23
REMARK SMILES IDX 22 24 24 25 18 26 21 27 19 28 20 29
REMARK H PARENT 20 30
REMARK Flexibility Score: inf
ROOT
ATOM      1  C   UNL     1      -1.586  19.858  48.321  1.00  0.00     0.012 C 
ATOM      2  C   UNL     1      -3.024  19.453  48.689  1.00  0.00     0.012 C 
ENDROOT
BRANCH   1   3
ATOM      3  C   UNL     1      -0.775  18.608  48.028  1.00  0.00    -0.028 C 
ATOM      4  C   UNL     1      -0.233  18.366  46.818  1.00  0.00    -0.028 C 
BRANCH   4   5
ATOM      5  C   UNL     1       0.513  17.103  46.417  1.00  0.00     0.011 C 
ATOM      6  C   UNL     1      -0.298  15.875  46.860  1.00  0.00     0.012 C 
BRANCH   5   7
ATOM      7  C   UNL     1       2.019  17.045  46.840  1.00  0.00    -0.011 C 
ATOM      8  C   UNL     1       2.604  18.458  47.000  1.00  0.00     0.008 C 
ATOM      9  C   UNL     1       2.906  16.232  45.875  1.00  0.00     0.008 C 
ENDBRANCH   5   7
ENDBRANCH   4   5
ENDBRANCH   1   3
BRANCH   1  10
ATOM     10  C   UNL     1      -0.911  20.738  49.428  1.00  0.00     0.002 C 
ATOM     11  C   UNL     1       0.614  20.675  49.388  1.00  0.00     0.005 C 
ATOM     12  C   UNL     1      -1.246  22.278  49.473  1.00  0.00    -0.023 C 
ATOM     13  C   UNL     1       1.058  21.822  50.267  1.00  0.00     0.009 C 
ATOM     14  C   UNL     1       0.091  22.961  49.944  1.00  0.00     0.021 C 
ATOM     15  C   UNL     1      -2.435  22.522  50.450  1.00  0.00     0.008 C 
ATOM     16  C   UNL     1      -1.603  22.851  48.072  1.00  0.00     0.012 C 
ATOM     17  C   UNL     1       0.017  23.986  51.077  1.00  0.00    -0.063 C 
ATOM     18  C   UNL     1      -2.486  23.954  50.963  1.00  0.00     0.009 C 
ATOM     19  C   UNL     1      -1.261  24.243  51.853  1.00  0.00     0.025 C 
ATOM     20  C   UNL     1       1.151  24.579  51.472  1.00  0.00    -0.000 C 
ATOM     21  C   UNL     1      -1.320  25.657  52.569  1.00  0.00    -0.005 C 
ATOM     22  C   UNL     1       1.181  25.579  52.540  1.00  0.00    -0.000 C 
ATOM     23  C   UNL     1       0.060  26.089  53.069  1.00  0.00    -0.061 C 
ATOM     24  C   UNL     1      -1.811  26.790  51.617  1.00  0.00     0.014 C 
ATOM     25  C   UNL     1      -2.286  25.528  53.781  1.00  0.00     0.017 C 
ATOM     26  C   UNL     1       0.157  27.421  53.773  1.00  0.00     0.063 C 
ATOM     27  C   UNL     1      -1.715  28.205  52.236  1.00  0.00     0.033 C 
ATOM     28  C   UNL     1      -0.311  28.516  52.802  1.00  0.00     0.118 C 
BRANCH  28  29
ATOM     29  O   UNL     1      -0.328  29.747  53.474  1.00  0.00    -0.393 OA
ATOM     30  H   UNL     1       0.558  30.170  53.320  1.00  0.00     0.210 HD
ENDBRANCH  28  29
ENDBRANCH   1  10
TORSDOF 5
ENDMDL
MODEL 9
REMARK VINA RESULT:    -6.862      1.904      2.705
REMARK INTER + INTRA:          -9.315
REMARK INTER:                  -9.372
REMARK INTRA:                   0.057
REMARK UNBOUND:                -0.648
REMARK SMILES CC(C)[C@@H](C)C=C[C@@H](C)[C@H]1CC[C@@H]2C3=CC=C4C[C@H](O)CC[C@@]4(C)[C@H]3CC[C@@]21C
REMARK SMILES IDX 8 1 9 2 7 3 6 4 4 5 5 6 2 7 1 8 3 9 10 10 11 11 28 12 12 13
REMARK SMILES IDX 13 14 27 15 29 16 14 17 26 18 25 19 15 20 23 21 16 22 17 23
REMARK SMILES IDX 22 24 24 25 18 26 21 27 19 28 20 29
REMARK H PARENT 20 30
REMARK Flexibility Score: inf
ROOT
ATOM      1  C   UNL     1       8.109  20.092  42.369  1.00  0.00     0.012 C 
ATOM      2  C   UNL     1       7.492  18.692  42.537  1.00  0.00     0.012 C 
ENDROOT
BRANCH   1   3
ATOM      3  C   UNL     1       8.133  20.791  43.717  1.00  0.00    -0.028 C 
ATOM      4  C   UNL     1       8.749  20.263  44.793  1.00  0.00    -0.028 C 
BRANCH   4   5
ATOM      5  C   UNL     1       8.744  20.853  46.195  1.00  0.00     0.011 C 
ATOM      6  C   UNL     1       7.774  22.044  46.239  1.00  0.00     0.012 C 
BRANCH   5   7
ATOM      7  C   UNL     1      10.152  21.168  46.801  1.00  0.00    -0.011 C 
ATOM      8  C   UNL     1      10.029  22.050  48.056  1.00  0.00     0.008 C 
ATOM      9  C   UNL     1      11.125  21.831  45.805  1.00  0.00     0.008 C 
ENDBRANCH   5   7
ENDBRANCH   4   5
ENDBRANCH   1   3
BRANCH   1  10
ATOM     10  C   UNL     1       7.365  20.947  41.287  1.00  0.00     0.002 C 
ATOM     11  C   UNL     1       7.304  20.259  39.925  1.00  0.00     0.005 C 
ATOM     12  C   UNL     1       5.882  21.398  41.575  1.00  0.00    -0.023 C 
ATOM     13  C   UNL     1       6.278  21.055  39.152  1.00  0.00     0.009 C 
ATOM     14  C   UNL     1       5.180  21.375  40.167  1.00  0.00     0.021 C 
ATOM     15  C   UNL     1       5.887  22.810  42.233  1.00  0.00     0.008 C 
ATOM     16  C   UNL     1       5.126  20.401  42.499  1.00  0.00     0.012 C 
ATOM     17  C   UNL     1       4.355  22.594  39.752  1.00  0.00    -0.063 C 
ATOM     18  C   UNL     1       4.561  23.539  42.062  1.00  0.00     0.009 C 
ATOM     19  C   UNL     1       4.323  23.866  40.576  1.00  0.00     0.025 C 
ATOM     20  C   UNL     1       3.745  22.571  38.559  1.00  0.00    -0.000 C 
ATOM     21  C   UNL     1       3.047  24.776  40.326  1.00  0.00    -0.005 C 
ATOM     22  C   UNL     1       2.927  23.685  38.078  1.00  0.00    -0.000 C 
ATOM     23  C   UNL     1       2.594  24.716  38.867  1.00  0.00    -0.061 C 
ATOM     24  C   UNL     1       1.820  24.333  41.181  1.00  0.00     0.014 C 
ATOM     25  C   UNL     1       3.440  26.239  40.681  1.00  0.00     0.017 C 
ATOM     26  C   UNL     1       1.386  25.535  38.482  1.00  0.00     0.063 C 
ATOM     27  C   UNL     1       0.517  25.092  40.832  1.00  0.00     0.033 C 
ATOM     28  C   UNL     1       0.191  25.059  39.322  1.00  0.00     0.118 C 
BRANCH  28  29
ATOM     29  O   UNL     1      -0.914  25.880  39.053  1.00  0.00    -0.393 OA
ATOM     30  H   UNL     1      -0.620  26.543  38.373  1.00  0.00     0.210 HD
ENDBRANCH  28  29
ENDBRANCH   1  10
TORSDOF 5
ENDMDL
