MODEL 1
REMARK VINA RESULT:    -4.890      0.000      0.000
REMARK INTER + INTRA:          -6.801
REMARK INTER:                  -6.462
REMARK INTRA:                  -0.339
REMARK UNBOUND:                -0.339
REMARK SMILES CCCCC=CC=CCO
REMARK SMILES IDX 5 1 6 2 4 3 3 4 2 5 1 6 7 7 8 8 9 9 10 10
REMARK H PARENT 10 11
REMARK Flexibility Score: inf
ROOT
ATOM      1  C   UNL     1      17.353   7.208  11.460  1.00  0.00    -0.027 C 
ATOM      2  C   UNL     1      17.157   8.126  10.510  1.00  0.00    -0.005 C 
ENDROOT
BRANCH   1   3
ATOM      3  C   UNL     1      16.361   6.107  11.707  1.00  0.00     0.027 C 
BRANCH   3   4
ATOM      4  C   UNL     1      17.067   4.788  12.038  1.00  0.00     0.004 C 
BRANCH   4   5
ATOM      5  C   UNL     1      18.588   4.936  11.923  1.00  0.00    -0.003 C 
ATOM      6  C   UNL     1      19.309   3.979  12.870  1.00  0.00     0.004 C 
ENDBRANCH   4   5
ENDBRANCH   3   4
ENDBRANCH   1   3
BRANCH   2   7
ATOM      7  C   UNL     1      18.143   9.192  10.271  1.00  0.00    -0.002 C 
ATOM      8  C   UNL     1      19.228   9.310  11.039  1.00  0.00     0.001 C 
BRANCH   8   9
ATOM      9  C   UNL     1      20.234  10.397  10.803  1.00  0.00     0.183 C 
BRANCH   9  10
ATOM     10  O   UNL     1      21.520   9.856  10.672  1.00  0.00    -0.392 OA
ATOM     11  H   UNL     1      21.422   8.871  10.745  1.00  0.00     0.210 HD
ENDBRANCH   9  10
ENDBRANCH   8   9
ENDBRANCH   2   7
TORSDOF 6
ENDMDL
MODEL 2
REMARK VINA RESULT:    -4.835     10.610     11.721
REMARK INTER + INTRA:          -6.729
REMARK INTER:                  -6.436
REMARK INTRA:                  -0.292
REMARK UNBOUND:                -0.339
REMARK SMILES CCCCC=CC=CCO
REMARK SMILES IDX 5 1 6 2 4 3 3 4 2 5 1 6 7 7 8 8 9 9 10 10
REMARK H PARENT 10 11
REMARK Flexibility Score: inf
ROOT
ATOM      1  C   UNL     1      28.343   9.072   8.645  1.00  0.00    -0.027 C 
ATOM      2  C   UNL     1      28.398   7.775   8.958  1.00  0.00    -0.005 C 
ENDROOT
BRANCH   1   3
ATOM      3  C   UNL     1      28.364  10.138   9.703  1.00  0.00     0.027 C 
BRANCH   3   4
ATOM      4  C   UNL     1      28.826   9.574  11.051  1.00  0.00     0.004 C 
BRANCH   4   5
ATOM      5  C   UNL     1      30.157  10.200  11.481  1.00  0.00    -0.003 C 
ATOM      6  C   UNL     1      30.276  11.638  10.985  1.00  0.00     0.004 C 
ENDBRANCH   4   5
ENDBRANCH   3   4
ENDBRANCH   1   3
BRANCH   2   7
ATOM      7  C   UNL     1      28.390   6.741   7.911  1.00  0.00    -0.002 C 
ATOM      8  C   UNL     1      28.172   5.459   8.211  1.00  0.00     0.001 C 
BRANCH   8   9
ATOM      9  C   UNL     1      28.168   4.401   7.149  1.00  0.00     0.183 C 
BRANCH   9  10
ATOM     10  O   UNL     1      29.184   3.464   7.385  1.00  0.00    -0.392 OA
ATOM     11  H   UNL     1      29.783   3.491   6.594  1.00  0.00     0.210 HD
ENDBRANCH   9  10
ENDBRANCH   8   9
ENDBRANCH   2   7
TORSDOF 6
ENDMDL
MODEL 3
REMARK VINA RESULT:    -4.777     10.346     12.085
REMARK INTER + INTRA:          -6.652
REMARK INTER:                  -6.329
REMARK INTRA:                  -0.323
REMARK UNBOUND:                -0.339
REMARK SMILES CCCCC=CC=CCO
REMARK SMILES IDX 5 1 6 2 4 3 3 4 2 5 1 6 7 7 8 8 9 9 10 10
REMARK H PARENT 10 11
REMARK Flexibility Score: inf
ROOT
ATOM      1  C   UNL     1      28.808   3.794   6.477  1.00  0.00    -0.027 C 
ATOM      2  C   UNL     1      28.012   3.065   5.690  1.00  0.00    -0.005 C 
ENDROOT
BRANCH   1   3
ATOM      3  C   UNL     1      29.669   4.892   5.923  1.00  0.00     0.027 C 
BRANCH   3   4
ATOM      4  C   UNL     1      29.368   6.232   6.605  1.00  0.00     0.004 C 
BRANCH   4   5
ATOM      5  C   UNL     1      28.307   6.064   7.698  1.00  0.00    -0.003 C 
ATOM      6  C   UNL     1      28.391   7.189   8.727  1.00  0.00     0.004 C 
ENDBRANCH   4   5
ENDBRANCH   3   4
ENDBRANCH   1   3
BRANCH   2   7
ATOM      7  C   UNL     1      27.163   2.000   6.248  1.00  0.00    -0.002 C 
ATOM      8  C   UNL     1      27.094   1.794   7.565  1.00  0.00     0.001 C 
BRANCH   8   9
ATOM      9  C   UNL     1      26.236   0.707   8.139  1.00  0.00     0.183 C 
BRANCH   9  10
ATOM     10  O   UNL     1      25.259   1.249   8.986  1.00  0.00    -0.392 OA
ATOM     11  H   UNL     1      24.954   0.511   9.575  1.00  0.00     0.210 HD
ENDBRANCH   9  10
ENDBRANCH   8   9
ENDBRANCH   2   7
TORSDOF 6
ENDMDL
MODEL 4
REMARK VINA RESULT:    -4.742     10.423     11.038
REMARK INTER + INTRA:          -6.605
REMARK INTER:                  -6.482
REMARK INTRA:                  -0.123
REMARK UNBOUND:                -0.339
REMARK SMILES CCCCC=CC=CCO
REMARK SMILES IDX 5 1 6 2 4 3 3 4 2 5 1 6 7 7 8 8 9 9 10 10
REMARK H PARENT 10 11
REMARK Flexibility Score: inf
ROOT
ATOM      1  C   UNL     1      28.361   6.359   7.556  1.00  0.00    -0.027 C 
ATOM      2  C   UNL     1      28.347   7.047   8.701  1.00  0.00    -0.005 C 
ENDROOT
BRANCH   1   3
ATOM      3  C   UNL     1      28.365   4.857   7.541  1.00  0.00     0.027 C 
BRANCH   3   4
ATOM      4  C   UNL     1      29.016   4.317   6.263  1.00  0.00     0.004 C 
BRANCH   4   5
ATOM      5  C   UNL     1      28.144   3.233   5.619  1.00  0.00    -0.003 C 
ATOM      6  C   UNL     1      28.854   2.586   4.433  1.00  0.00     0.004 C 
ENDBRANCH   4   5
ENDBRANCH   3   4
ENDBRANCH   1   3
BRANCH   2   7
ATOM      7  C   UNL     1      28.330   8.518   8.701  1.00  0.00    -0.002 C 
ATOM      8  C   UNL     1      28.520   9.209   9.828  1.00  0.00     0.001 C 
BRANCH   8   9
ATOM      9  C   UNL     1      28.498  10.708   9.835  1.00  0.00     0.183 C 
BRANCH   9  10
ATOM     10  O   UNL     1      28.145  11.199   8.571  1.00  0.00    -0.392 OA
ATOM     11  H   UNL     1      28.856  10.905   7.944  1.00  0.00     0.210 HD
ENDBRANCH   9  10
ENDBRANCH   8   9
ENDBRANCH   2   7
TORSDOF 6
ENDMDL
MODEL 5
REMARK VINA RESULT:    -4.572     10.510     11.117
REMARK INTER + INTRA:          -6.381
REMARK INTER:                  -6.164
REMARK INTRA:                  -0.217
REMARK UNBOUND:                -0.339
REMARK SMILES CCCCC=CC=CCO
REMARK SMILES IDX 5 1 6 2 4 3 3 4 2 5 1 6 7 7 8 8 9 9 10 10
REMARK H PARENT 10 11
REMARK Flexibility Score: inf
ROOT
ATOM      1  C   UNL     1      28.547   7.287   8.996  1.00  0.00    -0.027 C 
ATOM      2  C   UNL     1      28.354   8.608   9.026  1.00  0.00    -0.005 C 
ENDROOT
BRANCH   1   3
ATOM      3  C   UNL     1      28.302   6.484   7.751  1.00  0.00     0.027 C 
BRANCH   3   4
ATOM      4  C   UNL     1      28.011   5.016   8.085  1.00  0.00     0.004 C 
BRANCH   4   5
ATOM      5  C   UNL     1      28.646   4.081   7.050  1.00  0.00    -0.003 C 
ATOM      6  C   UNL     1      29.452   4.866   6.018  1.00  0.00     0.004 C 
ENDBRANCH   4   5
ENDBRANCH   3   4
ENDBRANCH   1   3
BRANCH   2   7
ATOM      7  C   UNL     1      28.610   9.385  10.249  1.00  0.00    -0.002 C 
ATOM      8  C   UNL     1      29.611   9.063  11.071  1.00  0.00     0.001 C 
BRANCH   8   9
ATOM      9  C   UNL     1      29.873   9.847  12.322  1.00  0.00     0.183 C 
BRANCH   9  10
ATOM     10  O   UNL     1      30.869   9.227  13.090  1.00  0.00    -0.392 OA
ATOM     11  H   UNL     1      31.070   9.842  13.843  1.00  0.00     0.210 HD
ENDBRANCH   9  10
ENDBRANCH   8   9
ENDBRANCH   2   7
TORSDOF 6
ENDMDL
MODEL 6
REMARK VINA RESULT:    -4.535      3.669      6.205
REMARK INTER + INTRA:          -6.331
REMARK INTER:                  -6.111
REMARK INTRA:                  -0.220
REMARK UNBOUND:                -0.339
REMARK SMILES CCCCC=CC=CCO
REMARK SMILES IDX 5 1 6 2 4 3 3 4 2 5 1 6 7 7 8 8 9 9 10 10
REMARK H PARENT 10 11
REMARK Flexibility Score: inf
ROOT
ATOM      1  C   UNL     1      18.407   4.831  11.902  1.00  0.00    -0.027 C 
ATOM      2  C   UNL     1      19.292   4.653  12.887  1.00  0.00    -0.005 C 
ENDROOT
BRANCH   1   3
ATOM      3  C   UNL     1      18.042   6.203  11.410  1.00  0.00     0.027 C 
BRANCH   3   4
ATOM      4  C   UNL     1      16.662   6.627  11.925  1.00  0.00     0.004 C 
BRANCH   4   5
ATOM      5  C   UNL     1      16.107   7.797  11.105  1.00  0.00    -0.003 C 
ATOM      6  C   UNL     1      17.113   8.263  10.056  1.00  0.00     0.004 C 
ENDBRANCH   4   5
ENDBRANCH   3   4
ENDBRANCH   1   3
BRANCH   2   7
ATOM      7  C   UNL     1      19.650   3.304  13.350  1.00  0.00    -0.002 C 
ATOM      8  C   UNL     1      19.353   2.225  12.622  1.00  0.00     0.001 C 
BRANCH   8   9
ATOM      9  C   UNL     1      19.710   0.847  13.091  1.00  0.00     0.183 C 
BRANCH   9  10
ATOM     10  O   UNL     1      19.192  -0.119  12.217  1.00  0.00    -0.392 OA
ATOM     11  H   UNL     1      18.206  -0.006  12.222  1.00  0.00     0.210 HD
ENDBRANCH   9  10
ENDBRANCH   8   9
ENDBRANCH   2   7
TORSDOF 6
ENDMDL
MODEL 7
REMARK VINA RESULT:    -4.467     10.565     10.994
REMARK INTER + INTRA:          -6.243
REMARK INTER:                  -6.087
REMARK INTRA:                  -0.156
REMARK UNBOUND:                -0.339
REMARK SMILES CCCCC=CC=CCO
REMARK SMILES IDX 5 1 6 2 4 3 3 4 2 5 1 6 7 7 8 8 9 9 10 10
REMARK H PARENT 10 11
REMARK Flexibility Score: inf
ROOT
ATOM      1  C   UNL     1      28.620   8.201   9.082  1.00  0.00    -0.027 C 
ATOM      2  C   UNL     1      28.684   8.733  10.306  1.00  0.00    -0.005 C 
ENDROOT
BRANCH   1   3
ATOM      3  C   UNL     1      28.330   6.743   8.873  1.00  0.00     0.027 C 
BRANCH   3   4
ATOM      4  C   UNL     1      28.544   6.338   7.410  1.00  0.00     0.004 C 
BRANCH   4   5
ATOM      5  C   UNL     1      28.373   4.826   7.228  1.00  0.00    -0.003 C 
ATOM      6  C   UNL     1      29.240   4.306   6.084  1.00  0.00     0.004 C 
ENDBRANCH   4   5
ENDBRANCH   3   4
ENDBRANCH   1   3
BRANCH   2   7
ATOM      7  C   UNL     1      28.956  10.167  10.496  1.00  0.00    -0.002 C 
ATOM      8  C   UNL     1      28.582  11.065   9.583  1.00  0.00     0.001 C 
BRANCH   8   9
ATOM      9  C   UNL     1      28.863  12.526   9.768  1.00  0.00     0.183 C 
BRANCH   9  10
ATOM     10  O   UNL     1      30.077  12.711  10.445  1.00  0.00    -0.392 OA
ATOM     11  H   UNL     1      29.897  12.531  11.404  1.00  0.00     0.210 HD
ENDBRANCH   9  10
ENDBRANCH   8   9
ENDBRANCH   2   7
TORSDOF 6
ENDMDL
MODEL 8
REMARK VINA RESULT:    -4.446     10.341     10.971
REMARK INTER + INTRA:          -6.214
REMARK INTER:                  -6.033
REMARK INTRA:                  -0.181
REMARK UNBOUND:                -0.339
REMARK SMILES CCCCC=CC=CCO
REMARK SMILES IDX 5 1 6 2 4 3 3 4 2 5 1 6 7 7 8 8 9 9 10 10
REMARK H PARENT 10 11
REMARK Flexibility Score: inf
ROOT
ATOM      1  C   UNL     1      26.778   5.048  17.851  1.00  0.00    -0.027 C 
ATOM      2  C   UNL     1      26.536   6.105  17.071  1.00  0.00    -0.005 C 
ENDROOT
BRANCH   1   3
ATOM      3  C   UNL     1      25.852   3.866  17.884  1.00  0.00     0.027 C 
BRANCH   3   4
ATOM      4  C   UNL     1      26.132   2.975  19.099  1.00  0.00     0.004 C 
BRANCH   4   5
ATOM      5  C   UNL     1      25.035   1.917  19.268  1.00  0.00    -0.003 C 
ATOM      6  C   UNL     1      24.713   1.239  17.940  1.00  0.00     0.004 C 
ENDBRANCH   4   5
ENDBRANCH   3   4
ENDBRANCH   1   3
BRANCH   2   7
ATOM      7  C   UNL     1      27.458   7.251  17.040  1.00  0.00    -0.002 C 
ATOM      8  C   UNL     1      27.865   7.838  18.167  1.00  0.00     0.001 C 
BRANCH   8   9
ATOM      9  C   UNL     1      28.800   9.009  18.141  1.00  0.00     0.183 C 
BRANCH   9  10
ATOM     10  O   UNL     1      29.582   8.987  16.978  1.00  0.00    -0.392 OA
ATOM     11  H   UNL     1      29.773   8.033  16.783  1.00  0.00     0.210 HD
ENDBRANCH   9  10
ENDBRANCH   8   9
ENDBRANCH   2   7
TORSDOF 6
ENDMDL
MODEL 9
REMARK VINA RESULT:    -4.328     10.590     12.261
REMARK INTER + INTRA:          -6.059
REMARK INTER:                  -5.753
REMARK INTRA:                  -0.306
REMARK UNBOUND:                -0.339
REMARK SMILES CCCCC=CC=CCO
REMARK SMILES IDX 5 1 6 2 4 3 3 4 2 5 1 6 7 7 8 8 9 9 10 10
REMARK H PARENT 10 11
REMARK Flexibility Score: inf
ROOT
ATOM      1  C   UNL     1      26.574   6.247  17.108  1.00  0.00    -0.027 C 
ATOM      2  C   UNL     1      26.813   5.166  17.856  1.00  0.00    -0.005 C 
ENDROOT
BRANCH   1   3
ATOM      3  C   UNL     1      27.593   7.340  16.956  1.00  0.00     0.027 C 
BRANCH   3   4
ATOM      4  C   UNL     1      28.542   7.385  18.158  1.00  0.00     0.004 C 
BRANCH   4   5
ATOM      5  C   UNL     1      28.420   8.718  18.904  1.00  0.00    -0.003 C 
ATOM      6  C   UNL     1      27.830   8.519  20.297  1.00  0.00     0.004 C 
ENDBRANCH   4   5
ENDBRANCH   3   4
ENDBRANCH   1   3
BRANCH   2   7
ATOM      7  C   UNL     1      25.810   4.097  17.985  1.00  0.00    -0.002 C 
ATOM      8  C   UNL     1      26.054   3.011  18.722  1.00  0.00     0.001 C 
BRANCH   8   9
ATOM      9  C   UNL     1      25.038   1.916  18.853  1.00  0.00     0.183 C 
BRANCH   9  10
ATOM     10  O   UNL     1      25.119   1.039  17.762  1.00  0.00    -0.392 OA
ATOM     11  H   UNL     1      25.081   1.600  16.944  1.00  0.00     0.210 HD
ENDBRANCH   9  10
ENDBRANCH   8   9
ENDBRANCH   2   7
TORSDOF 6
ENDMDL
