MODEL 1
REMARK VINA RESULT:    -4.162      0.000      0.000
REMARK INTER + INTRA:          -5.839
REMARK INTER:                  -5.379
REMARK INTRA:                  -0.460
REMARK UNBOUND:                -0.460
REMARK SMILES C=CC(=O)CCCCC
REMARK SMILES IDX 6 1 7 2 8 3 9 4 5 5 3 6 4 7 2 8 1 9
REMARK H PARENT
REMARK Flexibility Score: inf
ROOT
ATOM      1  C   UNL     1     -12.801 -16.597  32.410  1.00  0.00     0.008 C 
ENDROOT
BRANCH   1   2
ATOM      2  C   UNL     1     -14.143 -16.256  33.078  1.00  0.00     0.000 C 
BRANCH   2   3
ATOM      3  C   UNL     1     -14.510 -14.771  32.946  1.00  0.00    -0.003 C 
ATOM      4  C   UNL     1     -14.760 -14.395  31.488  1.00  0.00     0.004 C 
ENDBRANCH   2   3
ENDBRANCH   1   2
BRANCH   1   5
ATOM      5  C   UNL     1     -12.897 -17.808  31.465  1.00  0.00     0.080 C 
BRANCH   5   6
ATOM      6  C   UNL     1     -12.780 -17.429  30.007  1.00  0.00     0.155 C 
ATOM      7  O   UNL     1     -13.222 -18.203  29.115  1.00  0.00    -0.295 OA
BRANCH   6   8
ATOM      8  C   UNL     1     -12.173 -16.152  29.580  1.00  0.00     0.039 C 
ATOM      9  C   UNL     1     -12.676 -15.383  28.614  1.00  0.00     0.012 C 
ENDBRANCH   6   8
ENDBRANCH   5   6
ENDBRANCH   1   5
TORSDOF 5
ENDMDL
MODEL 2
REMARK VINA RESULT:    -4.135      2.031      3.644
REMARK INTER + INTRA:          -5.804
REMARK INTER:                  -5.353
REMARK INTRA:                  -0.450
REMARK UNBOUND:                -0.460
REMARK SMILES C=CC(=O)CCCCC
REMARK SMILES IDX 6 1 7 2 8 3 9 4 5 5 3 6 4 7 2 8 1 9
REMARK H PARENT
REMARK Flexibility Score: inf
ROOT
ATOM      1  C   UNL     1     -12.326 -18.400  31.627  1.00  0.00     0.008 C 
ENDROOT
BRANCH   1   2
ATOM      2  C   UNL     1     -13.044 -19.581  30.955  1.00  0.00     0.000 C 
BRANCH   2   3
ATOM      3  C   UNL     1     -12.687 -19.724  29.469  1.00  0.00    -0.003 C 
ATOM      4  C   UNL     1     -13.925 -20.032  28.633  1.00  0.00     0.004 C 
ENDBRANCH   2   3
ENDBRANCH   1   2
BRANCH   1   5
ATOM      5  C   UNL     1     -13.283 -17.252  31.994  1.00  0.00     0.080 C 
BRANCH   5   6
ATOM      6  C   UNL     1     -13.220 -16.098  31.021  1.00  0.00     0.155 C 
ATOM      7  O   UNL     1     -14.038 -15.143  31.118  1.00  0.00    -0.295 OA
BRANCH   6   8
ATOM      8  C   UNL     1     -12.204 -16.034  29.951  1.00  0.00     0.039 C 
ATOM      9  C   UNL     1     -12.483 -15.716  28.687  1.00  0.00     0.012 C 
ENDBRANCH   6   8
ENDBRANCH   5   6
ENDBRANCH   1   5
TORSDOF 5
ENDMDL
MODEL 3
REMARK VINA RESULT:    -4.096      2.101      3.338
REMARK INTER + INTRA:          -5.753
REMARK INTER:                  -5.285
REMARK INTRA:                  -0.468
REMARK UNBOUND:                -0.460
REMARK SMILES C=CC(=O)CCCCC
REMARK SMILES IDX 6 1 7 2 8 3 9 4 5 5 3 6 4 7 2 8 1 9
REMARK H PARENT
REMARK Flexibility Score: inf
ROOT
ATOM      1  C   UNL     1     -12.317 -17.156  31.420  1.00  0.00     0.008 C 
ENDROOT
BRANCH   1   2
ATOM      2  C   UNL     1     -13.052 -16.005  30.713  1.00  0.00     0.000 C 
BRANCH   2   3
ATOM      3  C   UNL     1     -12.679 -15.889  29.228  1.00  0.00    -0.003 C 
ATOM      4  C   UNL     1     -11.168 -15.770  29.048  1.00  0.00     0.004 C 
ENDBRANCH   2   3
ENDBRANCH   1   2
BRANCH   1   5
ATOM      5  C   UNL     1     -13.227 -18.369  31.681  1.00  0.00     0.080 C 
BRANCH   5   6
ATOM      6  C   UNL     1     -12.773 -19.614  30.954  1.00  0.00     0.155 C 
ATOM      7  O   UNL     1     -12.429 -20.637  31.606  1.00  0.00    -0.295 OA
BRANCH   6   8
ATOM      8  C   UNL     1     -12.735 -19.685  29.479  1.00  0.00     0.039 C 
ATOM      9  C   UNL     1     -13.822 -19.824  28.719  1.00  0.00     0.012 C 
ENDBRANCH   6   8
ENDBRANCH   5   6
ENDBRANCH   1   5
TORSDOF 5
ENDMDL
MODEL 4
REMARK VINA RESULT:    -4.080      2.029      2.682
REMARK INTER + INTRA:          -5.733
REMARK INTER:                  -5.491
REMARK INTRA:                  -0.242
REMARK UNBOUND:                -0.460
REMARK SMILES C=CC(=O)CCCCC
REMARK SMILES IDX 6 1 7 2 8 3 9 4 5 5 3 6 4 7 2 8 1 9
REMARK H PARENT
REMARK Flexibility Score: inf
ROOT
ATOM      1  C   UNL     1     -12.333 -17.186  31.020  1.00  0.00     0.008 C 
ENDROOT
BRANCH   1   2
ATOM      2  C   UNL     1     -13.285 -15.979  31.035  1.00  0.00     0.000 C 
BRANCH   2   3
ATOM      3  C   UNL     1     -13.748 -15.608  32.451  1.00  0.00    -0.003 C 
ATOM      4  C   UNL     1     -15.047 -14.808  32.413  1.00  0.00     0.004 C 
ENDBRANCH   2   3
ENDBRANCH   1   2
BRANCH   1   5
ATOM      5  C   UNL     1     -12.959 -18.444  31.648  1.00  0.00     0.080 C 
BRANCH   5   6
ATOM      6  C   UNL     1     -12.758 -19.684  30.809  1.00  0.00     0.155 C 
ATOM      7  O   UNL     1     -12.504 -20.788  31.362  1.00  0.00    -0.295 OA
BRANCH   6   8
ATOM      8  C   UNL     1     -12.869 -19.655  29.336  1.00  0.00     0.039 C 
ATOM      9  C   UNL     1     -13.958 -20.043  28.671  1.00  0.00     0.012 C 
ENDBRANCH   6   8
ENDBRANCH   5   6
ENDBRANCH   1   5
TORSDOF 5
ENDMDL
MODEL 5
REMARK VINA RESULT:    -4.077      1.907      4.610
REMARK INTER + INTRA:          -5.729
REMARK INTER:                  -5.545
REMARK INTRA:                  -0.184
REMARK UNBOUND:                -0.460
REMARK SMILES C=CC(=O)CCCCC
REMARK SMILES IDX 6 1 7 2 8 3 9 4 5 5 3 6 4 7 2 8 1 9
REMARK H PARENT
REMARK Flexibility Score: inf
ROOT
ATOM      1  C   UNL     1     -12.648 -15.460  28.667  1.00  0.00     0.008 C 
ENDROOT
BRANCH   1   2
ATOM      2  C   UNL     1     -12.777 -16.640  27.691  1.00  0.00     0.000 C 
BRANCH   2   3
ATOM      3  C   UNL     1     -11.430 -17.315  27.396  1.00  0.00    -0.003 C 
ATOM      4  C   UNL     1     -11.114 -17.283  25.903  1.00  0.00     0.004 C 
ENDBRANCH   2   3
ENDBRANCH   1   2
BRANCH   1   5
ATOM      5  C   UNL     1     -12.127 -15.887  30.050  1.00  0.00     0.080 C 
BRANCH   5   6
ATOM      6  C   UNL     1     -13.235 -16.139  31.046  1.00  0.00     0.155 C 
ATOM      7  O   UNL     1     -13.385 -17.285  31.549  1.00  0.00    -0.295 OA
BRANCH   6   8
ATOM      8  C   UNL     1     -14.156 -15.067  31.474  1.00  0.00     0.039 C 
ATOM      9  C   UNL     1     -14.446 -14.810  32.750  1.00  0.00     0.012 C 
ENDBRANCH   6   8
ENDBRANCH   5   6
ENDBRANCH   1   5
TORSDOF 5
ENDMDL
MODEL 6
REMARK VINA RESULT:    -4.053      1.311      2.620
REMARK INTER + INTRA:          -5.697
REMARK INTER:                  -5.340
REMARK INTRA:                  -0.357
REMARK UNBOUND:                -0.460
REMARK SMILES C=CC(=O)CCCCC
REMARK SMILES IDX 6 1 7 2 8 3 9 4 5 5 3 6 4 7 2 8 1 9
REMARK H PARENT
REMARK Flexibility Score: inf
ROOT
ATOM      1  C   UNL     1     -12.917 -16.361  30.512  1.00  0.00     0.008 C 
ENDROOT
BRANCH   1   2
ATOM      2  C   UNL     1     -12.801 -16.248  32.040  1.00  0.00     0.000 C 
BRANCH   2   3
ATOM      3  C   UNL     1     -14.170 -16.183  32.734  1.00  0.00    -0.003 C 
ATOM      4  C   UNL     1     -14.816 -14.813  32.547  1.00  0.00     0.004 C 
ENDBRANCH   2   3
ENDBRANCH   1   2
BRANCH   1   5
ATOM      5  C   UNL     1     -12.099 -17.533  29.940  1.00  0.00     0.080 C 
BRANCH   5   6
ATOM      6  C   UNL     1     -12.953 -18.726  29.578  1.00  0.00     0.155 C 
ATOM      7  O   UNL     1     -13.596 -18.738  28.493  1.00  0.00    -0.295 OA
BRANCH   6   8
ATOM      8  C   UNL     1     -13.050 -19.911  30.455  1.00  0.00     0.039 C 
ATOM      9  C   UNL     1     -12.559 -19.953  31.694  1.00  0.00     0.012 C 
ENDBRANCH   6   8
ENDBRANCH   5   6
ENDBRANCH   1   5
TORSDOF 5
ENDMDL
MODEL 7
REMARK VINA RESULT:    -4.026      2.337      4.088
REMARK INTER + INTRA:          -5.662
REMARK INTER:                  -5.089
REMARK INTRA:                  -0.573
REMARK UNBOUND:                -0.460
REMARK SMILES C=CC(=O)CCCCC
REMARK SMILES IDX 6 1 7 2 8 3 9 4 5 5 3 6 4 7 2 8 1 9
REMARK H PARENT
REMARK Flexibility Score: inf
ROOT
ATOM      1  C   UNL     1     -12.868 -16.256  30.012  1.00  0.00     0.008 C 
ENDROOT
BRANCH   1   2
ATOM      2  C   UNL     1     -12.266 -15.706  28.709  1.00  0.00     0.000 C 
BRANCH   2   3
ATOM      3  C   UNL     1     -12.699 -16.507  27.473  1.00  0.00    -0.003 C 
ATOM      4  C   UNL     1     -11.510 -17.223  26.838  1.00  0.00     0.004 C 
ENDBRANCH   2   3
ENDBRANCH   1   2
BRANCH   1   5
ATOM      5  C   UNL     1     -12.008 -17.367  30.641  1.00  0.00     0.080 C 
BRANCH   5   6
ATOM      6  C   UNL     1     -12.717 -18.700  30.695  1.00  0.00     0.155 C 
ATOM      7  O   UNL     1     -13.318 -19.055  31.746  1.00  0.00    -0.295 OA
BRANCH   6   8
ATOM      8  C   UNL     1     -12.749 -19.614  29.535  1.00  0.00     0.039 C 
ATOM      9  C   UNL     1     -13.847 -19.863  28.822  1.00  0.00     0.012 C 
ENDBRANCH   6   8
ENDBRANCH   5   6
ENDBRANCH   1   5
TORSDOF 5
ENDMDL
MODEL 8
REMARK VINA RESULT:    -3.965      1.679      2.173
REMARK INTER + INTRA:          -5.584
REMARK INTER:                  -5.413
REMARK INTRA:                  -0.172
REMARK UNBOUND:                -0.460
REMARK SMILES C=CC(=O)CCCCC
REMARK SMILES IDX 6 1 7 2 8 3 9 4 5 5 3 6 4 7 2 8 1 9
REMARK H PARENT
REMARK Flexibility Score: inf
ROOT
ATOM      1  C   UNL     1     -11.896 -16.274  30.653  1.00  0.00     0.008 C 
ENDROOT
BRANCH   1   2
ATOM      2  C   UNL     1     -12.961 -16.160  31.755  1.00  0.00     0.000 C 
BRANCH   2   3
ATOM      3  C   UNL     1     -14.059 -15.144  31.413  1.00  0.00    -0.003 C 
ATOM      4  C   UNL     1     -14.877 -14.781  32.649  1.00  0.00     0.004 C 
ENDBRANCH   2   3
ENDBRANCH   1   2
BRANCH   1   5
ATOM      5  C   UNL     1     -12.450 -15.949  29.254  1.00  0.00     0.080 C 
BRANCH   5   6
ATOM      6  C   UNL     1     -12.345 -17.111  28.294  1.00  0.00     0.155 C 
ATOM      7  O   UNL     1     -13.228 -18.012  28.292  1.00  0.00    -0.295 OA
BRANCH   6   8
ATOM      8  C   UNL     1     -11.236 -17.224  27.325  1.00  0.00     0.039 C 
ATOM      9  C   UNL     1     -11.401 -17.148  26.004  1.00  0.00     0.012 C 
ENDBRANCH   6   8
ENDBRANCH   5   6
ENDBRANCH   1   5
TORSDOF 5
ENDMDL
MODEL 9
REMARK VINA RESULT:    -3.910      1.374      3.536
REMARK INTER + INTRA:          -5.513
REMARK INTER:                  -5.029
REMARK INTRA:                  -0.484
REMARK UNBOUND:                -0.460
REMARK SMILES C=CC(=O)CCCCC
REMARK SMILES IDX 6 1 7 2 8 3 9 4 5 5 3 6 4 7 2 8 1 9
REMARK H PARENT
REMARK Flexibility Score: inf
ROOT
ATOM      1  C   UNL     1     -11.106 -16.818  30.563  1.00  0.00     0.008 C 
ENDROOT
BRANCH   1   2
ATOM      2  C   UNL     1     -11.128 -15.877  29.348  1.00  0.00     0.000 C 
BRANCH   2   3
ATOM      3  C   UNL     1     -12.390 -16.045  28.491  1.00  0.00    -0.003 C 
ATOM      4  C   UNL     1     -13.280 -14.808  28.574  1.00  0.00     0.004 C 
ENDBRANCH   2   3
ENDBRANCH   1   2
BRANCH   1   5
ATOM      5  C   UNL     1     -11.791 -16.209  31.799  1.00  0.00     0.080 C 
BRANCH   5   6
ATOM      6  C   UNL     1     -13.134 -16.834  32.097  1.00  0.00     0.155 C 
ATOM      7  O   UNL     1     -13.284 -18.083  32.011  1.00  0.00    -0.295 OA
BRANCH   6   8
ATOM      8  C   UNL     1     -14.297 -16.024  32.513  1.00  0.00     0.039 C 
ATOM      9  C   UNL     1     -14.501 -14.768  32.114  1.00  0.00     0.012 C 
ENDBRANCH   6   8
ENDBRANCH   5   6
ENDBRANCH   1   5
TORSDOF 5
ENDMDL
