MODEL 1
REMARK VINA RESULT:    -7.090      0.000      0.000
REMARK INTER + INTRA:          -7.937
REMARK INTER:                  -7.711
REMARK INTRA:                  -0.225
REMARK UNBOUND:                -0.225
REMARK SMILES C=C1C[C@@]2(O)O[C@]3(C[C@@H]2C(C)C)[C@@H]1CC[C@@H]3C
REMARK SMILES IDX 17 1 16 2 15 3 14 4 13 5 7 6 8 7 9 8 4 9 6 10 3 11 2 12 1 13
REMARK SMILES IDX 10 14 11 15 12 16 5 17
REMARK H PARENT 5 18
REMARK Flexibility Score: inf
ROOT
ATOM      1  C   UNL     1      59.972 -14.142  -4.092  1.00  0.00     0.011 C 
ATOM      2  C   UNL     1      61.308 -14.605  -3.485  1.00  0.00     0.019 C 
ATOM      3  C   UNL     1      62.418 -13.537  -3.663  1.00  0.00     0.007 C 
ATOM      4  C   UNL     1      62.688 -12.913  -2.280  1.00  0.00     0.011 C 
ATOM      5  C   UNL     1      61.533 -13.406  -1.422  1.00  0.00     0.047 C 
ATOM      6  C   UNL     1      61.234 -14.808  -1.957  1.00  0.00     0.081 C 
ATOM      7  C   UNL     1      62.235 -15.887  -1.473  1.00  0.00     0.046 C 
ATOM      8  C   UNL     1      61.552 -16.527  -0.254  1.00  0.00     0.054 C 
ATOM      9  C   UNL     1      60.294 -15.617  -0.122  1.00  0.00     0.173 C 
ATOM     10  O   UNL     1      59.985 -15.195  -1.441  1.00  0.00    -0.342 OA
ATOM     11  C   UNL     1      60.634 -14.363   0.768  1.00  0.00     0.096 C 
ATOM     12  C   UNL     1      61.646 -13.461   0.079  1.00  0.00    -0.066 C 
ATOM     13  C   UNL     1      62.416 -12.616   0.777  1.00  0.00     0.008 C 
ENDROOT
BRANCH   8  14
ATOM     14  C   UNL     1      61.319 -18.068  -0.458  1.00  0.00    -0.009 C 
ATOM     15  C   UNL     1      61.688 -18.911   0.783  1.00  0.00     0.008 C 
ATOM     16  C   UNL     1      62.164 -18.596  -1.641  1.00  0.00     0.008 C 
ENDBRANCH   8  14
BRANCH   9  17
ATOM     17  O   UNL     1      59.175 -16.282   0.403  1.00  0.00    -0.365 OA
ATOM     18  H   UNL     1      58.904 -15.808   1.234  1.00  0.00     0.214 HD
ENDBRANCH   9  17
TORSDOF 2
ENDMDL
MODEL 2
REMARK VINA RESULT:    -6.915      3.123      5.019
REMARK INTER + INTRA:          -7.746
REMARK INTER:                  -7.572
REMARK INTRA:                  -0.174
REMARK UNBOUND:                -0.225
REMARK SMILES C=C1C[C@@]2(O)O[C@]3(C[C@@H]2C(C)C)[C@@H]1CC[C@@H]3C
REMARK SMILES IDX 17 1 16 2 15 3 14 4 13 5 7 6 8 7 9 8 4 9 6 10 3 11 2 12 1 13
REMARK SMILES IDX 10 14 11 15 12 16 5 17
REMARK H PARENT 5 18
REMARK Flexibility Score: inf
ROOT
ATOM      1  C   UNL     1      61.591 -17.606  -1.123  1.00  0.00     0.011 C 
ATOM      2  C   UNL     1      61.362 -17.529   0.397  1.00  0.00     0.019 C 
ATOM      3  C   UNL     1      61.329 -16.062   0.898  1.00  0.00     0.007 C 
ATOM      4  C   UNL     1      59.869 -15.729   1.262  1.00  0.00     0.011 C 
ATOM      5  C   UNL     1      59.071 -16.886   0.678  1.00  0.00     0.047 C 
ATOM      6  C   UNL     1      59.994 -18.097   0.827  1.00  0.00     0.081 C 
ATOM      7  C   UNL     1      60.038 -18.674   2.265  1.00  0.00     0.046 C 
ATOM      8  C   UNL     1      59.018 -19.823   2.251  1.00  0.00     0.054 C 
ATOM      9  C   UNL     1      58.419 -19.655   0.822  1.00  0.00     0.173 C 
ATOM     10  O   UNL     1      59.467 -19.125   0.026  1.00  0.00    -0.342 OA
ATOM     11  C   UNL     1      57.220 -18.634   0.863  1.00  0.00     0.096 C 
ATOM     12  C   UNL     1      57.704 -17.234   1.206  1.00  0.00    -0.066 C 
ATOM     13  C   UNL     1      56.879 -16.321   1.734  1.00  0.00     0.008 C 
ENDROOT
BRANCH   8  14
ATOM     14  C   UNL     1      59.687 -21.201   2.604  1.00  0.00    -0.009 C 
ATOM     15  C   UNL     1      59.844 -21.432   4.123  1.00  0.00     0.008 C 
ATOM     16  C   UNL     1      61.096 -21.300   1.976  1.00  0.00     0.008 C 
ENDBRANCH   8  14
BRANCH   9  17
ATOM     17  O   UNL     1      57.994 -20.862   0.248  1.00  0.00    -0.365 OA
ATOM     18  H   UNL     1      58.717 -21.532   0.379  1.00  0.00     0.214 HD
ENDBRANCH   9  17
TORSDOF 2
ENDMDL
MODEL 3
REMARK VINA RESULT:    -6.850      2.383      5.467
REMARK INTER + INTRA:          -7.677
REMARK INTER:                  -7.459
REMARK INTRA:                  -0.218
REMARK UNBOUND:                -0.225
REMARK SMILES C=C1C[C@@]2(O)O[C@]3(C[C@@H]2C(C)C)[C@@H]1CC[C@@H]3C
REMARK SMILES IDX 17 1 16 2 15 3 14 4 13 5 7 6 8 7 9 8 4 9 6 10 3 11 2 12 1 13
REMARK SMILES IDX 10 14 11 15 12 16 5 17
REMARK H PARENT 5 18
REMARK Flexibility Score: inf
ROOT
ATOM      1  C   UNL     1      61.624 -20.267   1.639  1.00  0.00     0.011 C 
ATOM      2  C   UNL     1      60.670 -19.808   0.523  1.00  0.00     0.019 C 
ATOM      3  C   UNL     1      59.407 -20.705   0.442  1.00  0.00     0.007 C 
ATOM      4  C   UNL     1      58.219 -19.882   0.978  1.00  0.00     0.011 C 
ATOM      5  C   UNL     1      58.873 -18.673   1.629  1.00  0.00     0.047 C 
ATOM      6  C   UNL     1      60.102 -18.393   0.763  1.00  0.00     0.081 C 
ATOM      7  C   UNL     1      59.775 -17.672  -0.570  1.00  0.00     0.046 C 
ATOM      8  C   UNL     1      60.013 -16.184  -0.271  1.00  0.00     0.054 C 
ATOM      9  C   UNL     1      60.315 -16.245   1.257  1.00  0.00     0.173 C 
ATOM     10  O   UNL     1      60.925 -17.507   1.478  1.00  0.00    -0.342 OA
ATOM     11  C   UNL     1      58.969 -16.160   2.071  1.00  0.00     0.096 C 
ATOM     12  C   UNL     1      58.108 -17.391   1.836  1.00  0.00    -0.066 C 
ATOM     13  C   UNL     1      56.784 -17.363   2.028  1.00  0.00     0.008 C 
ENDROOT
BRANCH   8  14
ATOM     14  C   UNL     1      61.115 -15.570  -1.208  1.00  0.00    -0.009 C 
ATOM     15  C   UNL     1      60.540 -14.952  -2.502  1.00  0.00     0.008 C 
ATOM     16  C   UNL     1      62.139 -16.649  -1.628  1.00  0.00     0.008 C 
ENDBRANCH   8  14
BRANCH   9  17
ATOM     17  O   UNL     1      61.196 -15.244   1.694  1.00  0.00    -0.365 OA
ATOM     18  H   UNL     1      61.933 -15.686   2.193  1.00  0.00     0.214 HD
ENDBRANCH   9  17
TORSDOF 2
ENDMDL
MODEL 4
REMARK VINA RESULT:    -6.675      3.533      5.842
REMARK INTER + INTRA:          -7.486
REMARK INTER:                  -7.296
REMARK INTRA:                  -0.189
REMARK UNBOUND:                -0.225
REMARK SMILES C=C1C[C@@]2(O)O[C@]3(C[C@@H]2C(C)C)[C@@H]1CC[C@@H]3C
REMARK SMILES IDX 17 1 16 2 15 3 14 4 13 5 7 6 8 7 9 8 4 9 6 10 3 11 2 12 1 13
REMARK SMILES IDX 10 14 11 15 12 16 5 17
REMARK H PARENT 5 18
REMARK Flexibility Score: inf
ROOT
ATOM      1  C   UNL     1      62.308 -17.748  -0.147  1.00  0.00     0.011 C 
ATOM      2  C   UNL     1      61.231 -17.520   0.928  1.00  0.00     0.019 C 
ATOM      3  C   UNL     1      60.389 -16.251   0.636  1.00  0.00     0.007 C 
ATOM      4  C   UNL     1      58.991 -16.716   0.182  1.00  0.00     0.011 C 
ATOM      5  C   UNL     1      59.163 -18.206  -0.070  1.00  0.00     0.047 C 
ATOM      6  C   UNL     1      60.185 -18.653   0.977  1.00  0.00     0.081 C 
ATOM      7  C   UNL     1      59.589 -18.822   2.398  1.00  0.00     0.046 C 
ATOM      8  C   UNL     1      59.264 -20.320   2.505  1.00  0.00     0.054 C 
ATOM      9  C   UNL     1      59.596 -20.787   1.056  1.00  0.00     0.173 C 
ATOM     10  O   UNL     1      60.635 -19.932   0.604  1.00  0.00    -0.342 OA
ATOM     11  C   UNL     1      58.330 -20.611   0.135  1.00  0.00     0.096 C 
ATOM     12  C   UNL     1      57.982 -19.142  -0.043  1.00  0.00    -0.066 C 
ATOM     13  C   UNL     1      56.745 -18.754  -0.378  1.00  0.00     0.008 C 
ENDROOT
BRANCH   8  14
ATOM     14  C   UNL     1      60.042 -21.003   3.687  1.00  0.00    -0.009 C 
ATOM     15  C   UNL     1      59.325 -20.865   5.049  1.00  0.00     0.008 C 
ATOM     16  C   UNL     1      61.450 -20.385   3.844  1.00  0.00     0.008 C 
ENDBRANCH   8  14
BRANCH   9  17
ATOM     17  O   UNL     1      60.052 -22.112   0.985  1.00  0.00    -0.365 OA
ATOM     18  H   UNL     1      59.280 -22.709   1.173  1.00  0.00     0.214 HD
ENDBRANCH   9  17
TORSDOF 2
ENDMDL
MODEL 5
REMARK VINA RESULT:    -6.662      2.429      6.000
REMARK INTER + INTRA:          -7.472
REMARK INTER:                  -7.351
REMARK INTRA:                  -0.120
REMARK UNBOUND:                -0.225
REMARK SMILES C=C1C[C@@]2(O)O[C@]3(C[C@@H]2C(C)C)[C@@H]1CC[C@@H]3C
REMARK SMILES IDX 17 1 16 2 15 3 14 4 13 5 7 6 8 7 9 8 4 9 6 10 3 11 2 12 1 13
REMARK SMILES IDX 10 14 11 15 12 16 5 17
REMARK H PARENT 5 18
REMARK Flexibility Score: inf
ROOT
ATOM      1  C   UNL     1      60.701 -20.053   3.589  1.00  0.00     0.011 C 
ATOM      2  C   UNL     1      60.947 -20.096   2.071  1.00  0.00     0.019 C 
ATOM      3  C   UNL     1      60.426 -21.415   1.443  1.00  0.00     0.007 C 
ATOM      4  C   UNL     1      59.163 -21.073   0.628  1.00  0.00     0.011 C 
ATOM      5  C   UNL     1      58.822 -19.654   1.055  1.00  0.00     0.047 C 
ATOM      6  C   UNL     1      60.180 -18.997   1.308  1.00  0.00     0.081 C 
ATOM      7  C   UNL     1      60.920 -18.576   0.012  1.00  0.00     0.046 C 
ATOM      8  C   UNL     1      60.566 -17.092  -0.169  1.00  0.00     0.054 C 
ATOM      9  C   UNL     1      59.543 -16.899   0.991  1.00  0.00     0.173 C 
ATOM     10  O   UNL     1      59.943 -17.802   2.010  1.00  0.00    -0.342 OA
ATOM     11  C   UNL     1      58.096 -17.272   0.495  1.00  0.00     0.096 C 
ATOM     12  C   UNL     1      57.990 -18.755   0.179  1.00  0.00    -0.066 C 
ATOM     13  C   UNL     1      57.056 -19.225  -0.658  1.00  0.00     0.008 C 
ENDROOT
BRANCH   8  14
ATOM     14  C   UNL     1      61.847 -16.182  -0.170  1.00  0.00    -0.009 C 
ATOM     15  C   UNL     1      61.651 -14.853  -0.932  1.00  0.00     0.008 C 
ATOM     16  C   UNL     1      63.038 -16.918  -0.825  1.00  0.00     0.008 C 
ENDBRANCH   8  14
BRANCH   9  17
ATOM     17  O   UNL     1      59.541 -15.602   1.526  1.00  0.00    -0.365 OA
ATOM     18  H   UNL     1      59.801 -14.974   0.801  1.00  0.00     0.214 HD
ENDBRANCH   9  17
TORSDOF 2
ENDMDL
MODEL 6
REMARK VINA RESULT:    -6.553      2.665      5.691
REMARK INTER + INTRA:          -7.353
REMARK INTER:                  -7.353
REMARK INTRA:                   0.000
REMARK UNBOUND:                -0.225
REMARK SMILES C=C1C[C@@]2(O)O[C@]3(C[C@@H]2C(C)C)[C@@H]1CC[C@@H]3C
REMARK SMILES IDX 17 1 16 2 15 3 14 4 13 5 7 6 8 7 9 8 4 9 6 10 3 11 2 12 1 13
REMARK SMILES IDX 10 14 11 15 12 16 5 17
REMARK H PARENT 5 18
REMARK Flexibility Score: inf
ROOT
ATOM      1  C   UNL     1      57.083 -18.861  -0.450  1.00  0.00     0.011 C 
ATOM      2  C   UNL     1      57.727 -18.005   0.655  1.00  0.00     0.019 C 
ATOM      3  C   UNL     1      57.203 -18.397   2.061  1.00  0.00     0.007 C 
ATOM      4  C   UNL     1      58.345 -19.132   2.792  1.00  0.00     0.011 C 
ATOM      5  C   UNL     1      59.363 -19.411   1.697  1.00  0.00     0.047 C 
ATOM      6  C   UNL     1      59.252 -18.208   0.759  1.00  0.00     0.081 C 
ATOM      7  C   UNL     1      59.965 -16.937   1.288  1.00  0.00     0.046 C 
ATOM      8  C   UNL     1      61.346 -16.962   0.615  1.00  0.00     0.054 C 
ATOM      9  C   UNL     1      61.285 -18.339  -0.112  1.00  0.00     0.173 C 
ATOM     10  O   UNL     1      59.918 -18.544  -0.433  1.00  0.00    -0.342 OA
ATOM     11  C   UNL     1      61.774 -19.478   0.861  1.00  0.00     0.096 C 
ATOM     12  C   UNL     1      60.813 -19.654   2.025  1.00  0.00    -0.066 C 
ATOM     13  C   UNL     1      61.210 -20.203   3.180  1.00  0.00     0.008 C 
ENDROOT
BRANCH   8  14
ATOM     14  C   UNL     1      61.588 -15.683  -0.266  1.00  0.00    -0.009 C 
ATOM     15  C   UNL     1      61.671 -14.380   0.560  1.00  0.00     0.008 C 
ATOM     16  C   UNL     1      60.449 -15.505  -1.295  1.00  0.00     0.008 C 
ENDBRANCH   8  14
BRANCH   9  17
ATOM     17  O   UNL     1      62.030 -18.379  -1.300  1.00  0.00    -0.365 OA
ATOM     18  H   UNL     1      62.960 -18.105  -1.084  1.00  0.00     0.214 HD
ENDBRANCH   9  17
TORSDOF 2
ENDMDL
MODEL 7
REMARK VINA RESULT:    -6.105      3.050      5.770
REMARK INTER + INTRA:          -6.865
REMARK INTER:                  -6.619
REMARK INTRA:                  -0.246
REMARK UNBOUND:                -0.225
REMARK SMILES C=C1C[C@@]2(O)O[C@]3(C[C@@H]2C(C)C)[C@@H]1CC[C@@H]3C
REMARK SMILES IDX 17 1 16 2 15 3 14 4 13 5 7 6 8 7 9 8 4 9 6 10 3 11 2 12 1 13
REMARK SMILES IDX 10 14 11 15 12 16 5 17
REMARK H PARENT 5 18
REMARK Flexibility Score: inf
ROOT
ATOM      1  C   UNL     1      59.803 -21.607   0.903  1.00  0.00     0.011 C 
ATOM      2  C   UNL     1      59.970 -20.351   1.775  1.00  0.00     0.019 C 
ATOM      3  C   UNL     1      61.414 -20.223   2.325  1.00  0.00     0.007 C 
ATOM      4  C   UNL     1      62.096 -19.064   1.572  1.00  0.00     0.011 C 
ATOM      5  C   UNL     1      61.151 -18.769   0.418  1.00  0.00     0.047 C 
ATOM      6  C   UNL     1      59.758 -19.041   0.988  1.00  0.00     0.081 C 
ATOM      7  C   UNL     1      59.223 -17.906   1.897  1.00  0.00     0.046 C 
ATOM      8  C   UNL     1      58.351 -17.046   0.968  1.00  0.00     0.054 C 
ATOM      9  C   UNL     1      58.623 -17.741  -0.400  1.00  0.00     0.173 C 
ATOM     10  O   UNL     1      58.866 -19.106  -0.097  1.00  0.00    -0.342 OA
ATOM     11  C   UNL     1      59.902 -17.114  -1.073  1.00  0.00     0.096 C 
ATOM     12  C   UNL     1      61.153 -17.427  -0.268  1.00  0.00    -0.066 C 
ATOM     13  C   UNL     1      62.250 -16.664  -0.359  1.00  0.00     0.008 C 
ENDROOT
BRANCH   8  14
ATOM     14  C   UNL     1      56.862 -16.974   1.466  1.00  0.00    -0.009 C 
ATOM     15  C   UNL     1      56.531 -15.660   2.208  1.00  0.00     0.008 C 
ATOM     16  C   UNL     1      56.553 -18.140   2.433  1.00  0.00     0.008 C 
ENDBRANCH   8  14
BRANCH   9  17
ATOM     17  O   UNL     1      57.539 -17.671  -1.288  1.00  0.00    -0.365 OA
ATOM     18  H   UNL     1      57.813 -18.109  -2.137  1.00  0.00     0.214 HD
ENDBRANCH   9  17
TORSDOF 2
ENDMDL
MODEL 8
REMARK VINA RESULT:    -6.007      1.660      5.049
REMARK INTER + INTRA:          -6.759
REMARK INTER:                  -6.662
REMARK INTRA:                  -0.097
REMARK UNBOUND:                -0.225
REMARK SMILES C=C1C[C@@]2(O)O[C@]3(C[C@@H]2C(C)C)[C@@H]1CC[C@@H]3C
REMARK SMILES IDX 17 1 16 2 15 3 14 4 13 5 7 6 8 7 9 8 4 9 6 10 3 11 2 12 1 13
REMARK SMILES IDX 10 14 11 15 12 16 5 17
REMARK H PARENT 5 18
REMARK Flexibility Score: inf
ROOT
ATOM      1  C   UNL     1      57.476 -16.160   1.308  1.00  0.00     0.011 C 
ATOM      2  C   UNL     1      58.938 -16.113   1.786  1.00  0.00     0.019 C 
ATOM      3  C   UNL     1      59.300 -17.351   2.646  1.00  0.00     0.007 C 
ATOM      4  C   UNL     1      60.229 -18.247   1.802  1.00  0.00     0.011 C 
ATOM      5  C   UNL     1      60.125 -17.666   0.400  1.00  0.00     0.047 C 
ATOM      6  C   UNL     1      59.951 -16.163   0.623  1.00  0.00     0.081 C 
ATOM      7  C   UNL     1      61.269 -15.429   0.978  1.00  0.00     0.046 C 
ATOM      8  C   UNL     1      61.773 -14.873  -0.363  1.00  0.00     0.054 C 
ATOM      9  C   UNL     1      60.730 -15.493  -1.339  1.00  0.00     0.173 C 
ATOM     10  O   UNL     1      59.526 -15.605  -0.596  1.00  0.00    -0.342 OA
ATOM     11  C   UNL     1      61.206 -16.925  -1.791  1.00  0.00     0.096 C 
ATOM     12  C   UNL     1      61.209 -17.895  -0.620  1.00  0.00    -0.066 C 
ATOM     13  C   UNL     1      61.973 -18.995  -0.628  1.00  0.00     0.008 C 
ENDROOT
BRANCH   8  14
ATOM     14  C   UNL     1      61.903 -13.307  -0.333  1.00  0.00    -0.009 C 
ATOM     15  C   UNL     1      62.897 -12.757  -1.380  1.00  0.00     0.008 C 
ATOM     16  C   UNL     1      62.383 -12.825   1.055  1.00  0.00     0.008 C 
ENDBRANCH   8  14
BRANCH   9  17
ATOM     17  O   UNL     1      60.479 -14.700  -2.469  1.00  0.00    -0.365 OA
ATOM     18  H   UNL     1      59.512 -14.775  -2.684  1.00  0.00     0.214 HD
ENDBRANCH   9  17
TORSDOF 2
ENDMDL
MODEL 9
REMARK VINA RESULT:    -5.925      5.052      7.720
REMARK INTER + INTRA:          -6.670
REMARK INTER:                  -6.643
REMARK INTRA:                  -0.028
REMARK UNBOUND:                -0.225
REMARK SMILES C=C1C[C@@]2(O)O[C@]3(C[C@@H]2C(C)C)[C@@H]1CC[C@@H]3C
REMARK SMILES IDX 17 1 16 2 15 3 14 4 13 5 7 6 8 7 9 8 4 9 6 10 3 11 2 12 1 13
REMARK SMILES IDX 10 14 11 15 12 16 5 17
REMARK H PARENT 5 18
REMARK Flexibility Score: inf
ROOT
ATOM      1  C   UNL     1      57.071 -21.875   4.109  1.00  0.00     0.011 C 
ATOM      2  C   UNL     1      57.964 -20.634   4.284  1.00  0.00     0.019 C 
ATOM      3  C   UNL     1      59.196 -20.936   5.176  1.00  0.00     0.007 C 
ATOM      4  C   UNL     1      60.436 -20.964   4.260  1.00  0.00     0.011 C 
ATOM      5  C   UNL     1      59.855 -20.987   2.855  1.00  0.00     0.047 C 
ATOM      6  C   UNL     1      58.581 -20.147   2.957  1.00  0.00     0.081 C 
ATOM      7  C   UNL     1      58.841 -18.618   2.972  1.00  0.00     0.046 C 
ATOM      8  C   UNL     1      58.660 -18.182   1.510  1.00  0.00     0.054 C 
ATOM      9  C   UNL     1      58.453 -19.565   0.823  1.00  0.00     0.173 C 
ATOM     10  O   UNL     1      57.826 -20.387   1.795  1.00  0.00    -0.342 OA
ATOM     11  C   UNL     1      59.849 -20.181   0.433  1.00  0.00     0.096 C 
ATOM     12  C   UNL     1      60.662 -20.524   1.671  1.00  0.00    -0.066 C 
ATOM     13  C   UNL     1      61.997 -20.623   1.623  1.00  0.00     0.008 C 
ENDROOT
BRANCH   8  14
ATOM     14  C   UNL     1      57.517 -17.114   1.358  1.00  0.00    -0.009 C 
ATOM     15  C   UNL     1      57.863 -15.754   2.003  1.00  0.00     0.008 C 
ATOM     16  C   UNL     1      56.210 -17.616   2.014  1.00  0.00     0.008 C 
ENDBRANCH   8  14
BRANCH   9  17
ATOM     17  O   UNL     1      57.626 -19.510  -0.309  1.00  0.00    -0.365 OA
ATOM     18  H   UNL     1      58.210 -19.401  -1.106  1.00  0.00     0.214 HD
ENDBRANCH   9  17
TORSDOF 2
ENDMDL
