MODEL 1
REMARK VINA RESULT:    -2.823      0.000      0.000
REMARK INTER + INTRA:          -8.701
REMARK INTER:                  -7.444
REMARK INTRA:                  -1.257
REMARK UNBOUND:                -1.257
REMARK SMILES CCCCCCCCCCCCCCCCCCCCCCCCCCCCCC(=O)[O-]
REMARK SMILES IDX 16 1 17 2 18 3 19 4 20 5 21 6 22 7 23 8 24 9 25 10 26 11
REMARK SMILES IDX 27 12 28 13 29 14 30 15 31 16 32 17 15 18 14 19 13 20 12 21
REMARK SMILES IDX 11 22 10 23 9 24 8 25 7 26 6 27 5 28 4 29 3 30 2 31 1 32
REMARK H PARENT
REMARK Flexibility Score: inf
ROOT
ATOM      1  C   UNL     1      10.695  32.832  19.684  1.00  0.00     0.000 C 
ENDROOT
BRANCH   1   2
ATOM      2  C   UNL     1      10.005  31.673  18.937  1.00  0.00     0.000 C 
BRANCH   2   3
ATOM      3  C   UNL     1       9.769  30.404  19.774  1.00  0.00     0.000 C 
BRANCH   3   4
ATOM      4  C   UNL     1       8.384  30.312  20.444  1.00  0.00     0.000 C 
BRANCH   4   5
ATOM      5  C   UNL     1       7.210  30.661  19.504  1.00  0.00     0.000 C 
BRANCH   5   6
ATOM      6  C   UNL     1       5.901  30.927  20.271  1.00  0.00     0.000 C 
BRANCH   6   7
ATOM      7  C   UNL     1       5.701  32.419  20.597  1.00  0.00     0.000 C 
BRANCH   7   8
ATOM      8  C   UNL     1       6.984  33.261  20.472  1.00  0.00     0.000 C 
BRANCH   8   9
ATOM      9  C   UNL     1       7.195  33.799  19.044  1.00  0.00     0.000 C 
BRANCH   9  10
ATOM     10  C   UNL     1       7.089  35.330  18.969  1.00  0.00     0.000 C 
BRANCH  10  11
ATOM     11  C   UNL     1       7.903  36.038  20.063  1.00  0.00     0.000 C 
BRANCH  11  12
ATOM     12  C   UNL     1       9.182  36.654  19.476  1.00  0.00     0.000 C 
BRANCH  12  13
ATOM     13  C   UNL     1      10.405  36.487  20.397  1.00  0.00     0.006 C 
BRANCH  13  14
ATOM     14  C   UNL     1      10.078  35.940  21.796  1.00  0.00     0.053 C 
BRANCH  14  15
ATOM     15  C   UNL     1      11.296  35.846  22.664  1.00  0.00     0.041 C 
ATOM     16  O   UNL     1      11.283  36.327  23.828  1.00  0.00    -0.550 OA
ATOM     17  O   UNL     1      12.463  35.279  22.166  1.00  0.00    -0.550 OA
ENDBRANCH  14  15
ENDBRANCH  13  14
ENDBRANCH  12  13
ENDBRANCH  11  12
ENDBRANCH  10  11
ENDBRANCH   9  10
ENDBRANCH   8   9
ENDBRANCH   7   8
ENDBRANCH   6   7
ENDBRANCH   5   6
ENDBRANCH   4   5
ENDBRANCH   3   4
ENDBRANCH   2   3
ENDBRANCH   1   2
BRANCH   1  18
ATOM     18  C   UNL     1      12.035  32.445  20.346  1.00  0.00     0.000 C 
BRANCH  18  19
ATOM     19  C   UNL     1      12.013  31.027  20.938  1.00  0.00     0.000 C 
BRANCH  19  20
ATOM     20  C   UNL     1      12.769  30.973  22.273  1.00  0.00     0.000 C 
BRANCH  20  21
ATOM     21  C   UNL     1      14.022  30.084  22.204  1.00  0.00     0.000 C 
BRANCH  21  22
ATOM     22  C   UNL     1      14.664  29.876  23.588  1.00  0.00     0.000 C 
BRANCH  22  23
ATOM     23  C   UNL     1      16.203  29.905  23.549  1.00  0.00     0.000 C 
BRANCH  23  24
ATOM     24  C   UNL     1      16.826  31.263  23.177  1.00  0.00    -0.000 C 
BRANCH  24  25
ATOM     25  C   UNL     1      17.534  31.247  21.810  1.00  0.00    -0.000 C 
BRANCH  25  26
ATOM     26  C   UNL     1      17.402  29.890  21.094  1.00  0.00    -0.000 C 
BRANCH  26  27
ATOM     27  C   UNL     1      16.498  29.911  19.847  1.00  0.00    -0.000 C 
BRANCH  27  28
ATOM     28  C   UNL     1      16.851  31.047  18.875  1.00  0.00    -0.000 C 
BRANCH  28  29
ATOM     29  C   UNL     1      15.815  32.176  18.945  1.00  0.00    -0.000 C 
BRANCH  29  30
ATOM     30  C   UNL     1      15.895  32.913  20.291  1.00  0.00    -0.000 C 
BRANCH  30  31
ATOM     31  C   UNL     1      14.917  34.096  20.372  1.00  0.00    -0.003 C 
ATOM     32  C   UNL     1      14.458  34.576  18.995  1.00  0.00     0.004 C 
ENDBRANCH  30  31
ENDBRANCH  29  30
ENDBRANCH  28  29
ENDBRANCH  27  28
ENDBRANCH  26  27
ENDBRANCH  25  26
ENDBRANCH  24  25
ENDBRANCH  23  24
ENDBRANCH  22  23
ENDBRANCH  21  22
ENDBRANCH  20  21
ENDBRANCH  19  20
ENDBRANCH  18  19
ENDBRANCH   1  18
TORSDOF 28
ENDMDL
MODEL 2
REMARK VINA RESULT:    -2.480      1.985      7.467
REMARK INTER + INTRA:          -7.796
REMARK INTER:                  -6.476
REMARK INTRA:                  -1.320
REMARK UNBOUND:                -1.257
REMARK SMILES CCCCCCCCCCCCCCCCCCCCCCCCCCCCCC(=O)[O-]
REMARK SMILES IDX 16 1 17 2 18 3 19 4 20 5 21 6 22 7 23 8 24 9 25 10 26 11
REMARK SMILES IDX 27 12 28 13 29 14 30 15 31 16 32 17 15 18 14 19 13 20 12 21
REMARK SMILES IDX 11 22 10 23 9 24 8 25 7 26 6 27 5 28 4 29 3 30 2 31 1 32
REMARK H PARENT
REMARK Flexibility Score: inf
ROOT
ATOM      1  C   UNL     1      13.608  35.286  19.299  1.00  0.00     0.000 C 
ENDROOT
BRANCH   1   2
ATOM      2  C   UNL     1      14.252  34.997  20.670  1.00  0.00     0.000 C 
BRANCH   2   3
ATOM      3  C   UNL     1      15.168  33.762  20.715  1.00  0.00     0.000 C 
BRANCH   3   4
ATOM      4  C   UNL     1      15.381  33.058  19.360  1.00  0.00     0.000 C 
BRANCH   4   5
ATOM      5  C   UNL     1      14.663  31.696  19.242  1.00  0.00     0.000 C 
BRANCH   5   6
ATOM      6  C   UNL     1      13.156  31.848  18.962  1.00  0.00     0.000 C 
BRANCH   6   7
ATOM      7  C   UNL     1      12.338  30.642  19.461  1.00  0.00     0.000 C 
BRANCH   7   8
ATOM      8  C   UNL     1      12.494  30.364  20.967  1.00  0.00     0.000 C 
BRANCH   8   9
ATOM      9  C   UNL     1      12.663  31.658  21.786  1.00  0.00     0.000 C 
BRANCH   9  10
ATOM     10  C   UNL     1      11.538  32.671  21.527  1.00  0.00     0.000 C 
BRANCH  10  11
ATOM     11  C   UNL     1      11.298  33.613  22.716  1.00  0.00     0.000 C 
BRANCH  11  12
ATOM     12  C   UNL     1      11.533  35.074  22.309  1.00  0.00     0.000 C 
BRANCH  12  13
ATOM     13  C   UNL     1      10.272  35.947  22.450  1.00  0.00     0.006 C 
BRANCH  13  14
ATOM     14  C   UNL     1      10.276  36.878  23.674  1.00  0.00     0.053 C 
BRANCH  14  15
ATOM     15  C   UNL     1      11.383  36.551  24.628  1.00  0.00     0.041 C 
ATOM     16  O   UNL     1      11.123  36.045  25.752  1.00  0.00    -0.550 OA
ATOM     17  O   UNL     1      12.698  36.860  24.300  1.00  0.00    -0.550 OA
ENDBRANCH  14  15
ENDBRANCH  13  14
ENDBRANCH  12  13
ENDBRANCH  11  12
ENDBRANCH  10  11
ENDBRANCH   9  10
ENDBRANCH   8   9
ENDBRANCH   7   8
ENDBRANCH   6   7
ENDBRANCH   5   6
ENDBRANCH   4   5
ENDBRANCH   3   4
ENDBRANCH   2   3
ENDBRANCH   1   2
BRANCH   1  18
ATOM     18  C   UNL     1      12.953  36.680  19.193  1.00  0.00     0.000 C 
BRANCH  18  19
ATOM     19  C   UNL     1      11.419  36.608  19.136  1.00  0.00     0.000 C 
BRANCH  19  20
ATOM     20  C   UNL     1      10.942  35.171  18.875  1.00  0.00     0.000 C 
BRANCH  20  21
ATOM     21  C   UNL     1       9.538  34.907  19.443  1.00  0.00     0.000 C 
BRANCH  21  22
ATOM     22  C   UNL     1       8.569  36.070  19.164  1.00  0.00     0.000 C 
BRANCH  22  23
ATOM     23  C   UNL     1       7.097  35.708  19.438  1.00  0.00     0.000 C 
BRANCH  23  24
ATOM     24  C   UNL     1       6.876  34.595  20.480  1.00  0.00    -0.000 C 
BRANCH  24  25
ATOM     25  C   UNL     1       6.778  33.194  19.852  1.00  0.00    -0.000 C 
BRANCH  25  26
ATOM     26  C   UNL     1       7.932  32.901  18.877  1.00  0.00    -0.000 C 
BRANCH  26  27
ATOM     27  C   UNL     1       8.641  31.554  19.110  1.00  0.00    -0.000 C 
BRANCH  27  28
ATOM     28  C   UNL     1       8.124  30.818  20.355  1.00  0.00    -0.000 C 
BRANCH  28  29
ATOM     29  C   UNL     1       6.864  30.004  20.032  1.00  0.00    -0.000 C 
BRANCH  29  30
ATOM     30  C   UNL     1       5.820  30.140  21.152  1.00  0.00    -0.000 C 
BRANCH  30  31
ATOM     31  C   UNL     1       4.529  30.820  20.670  1.00  0.00    -0.003 C 
ATOM     32  C   UNL     1       3.961  30.178  19.404  1.00  0.00     0.004 C 
ENDBRANCH  30  31
ENDBRANCH  29  30
ENDBRANCH  28  29
ENDBRANCH  27  28
ENDBRANCH  26  27
ENDBRANCH  25  26
ENDBRANCH  24  25
ENDBRANCH  23  24
ENDBRANCH  22  23
ENDBRANCH  21  22
ENDBRANCH  20  21
ENDBRANCH  19  20
ENDBRANCH  18  19
ENDBRANCH   1  18
TORSDOF 28
ENDMDL
MODEL 3
REMARK VINA RESULT:    -2.345      2.095      8.629
REMARK INTER + INTRA:          -7.442
REMARK INTER:                  -5.051
REMARK INTRA:                  -2.391
REMARK UNBOUND:                -1.257
REMARK SMILES CCCCCCCCCCCCCCCCCCCCCCCCCCCCCC(=O)[O-]
REMARK SMILES IDX 16 1 17 2 18 3 19 4 20 5 21 6 22 7 23 8 24 9 25 10 26 11
REMARK SMILES IDX 27 12 28 13 29 14 30 15 31 16 32 17 15 18 14 19 13 20 12 21
REMARK SMILES IDX 11 22 10 23 9 24 8 25 7 26 6 27 5 28 4 29 3 30 2 31 1 32
REMARK H PARENT
REMARK Flexibility Score: inf
ROOT
ATOM      1  C   UNL     1      10.797  36.499  24.606  1.00  0.00     0.000 C 
ENDROOT
BRANCH   1   2
ATOM      2  C   UNL     1      12.198  37.026  24.237  1.00  0.00     0.000 C 
BRANCH   2   3
ATOM      3  C   UNL     1      12.973  36.168  23.222  1.00  0.00     0.000 C 
BRANCH   3   4
ATOM      4  C   UNL     1      12.740  36.536  21.743  1.00  0.00     0.000 C 
BRANCH   4   5
ATOM      5  C   UNL     1      13.430  35.582  20.745  1.00  0.00     0.000 C 
BRANCH   5   6
ATOM      6  C   UNL     1      13.063  34.107  20.991  1.00  0.00     0.000 C 
BRANCH   6   7
ATOM      7  C   UNL     1      14.222  33.147  20.660  1.00  0.00     0.000 C 
BRANCH   7   8
ATOM      8  C   UNL     1      14.804  33.339  19.248  1.00  0.00     0.000 C 
BRANCH   8   9
ATOM      9  C   UNL     1      15.812  32.235  18.875  1.00  0.00     0.000 C 
BRANCH   9  10
ATOM     10  C   UNL     1      16.018  31.218  20.008  1.00  0.00     0.000 C 
BRANCH  10  11
ATOM     11  C   UNL     1      17.252  30.328  19.794  1.00  0.00     0.000 C 
BRANCH  11  12
ATOM     12  C   UNL     1      18.383  30.728  20.752  1.00  0.00     0.000 C 
BRANCH  12  13
ATOM     13  C   UNL     1      17.890  31.555  21.953  1.00  0.00     0.006 C 
BRANCH  13  14
ATOM     14  C   UNL     1      18.022  30.845  23.311  1.00  0.00     0.053 C 
BRANCH  14  15
ATOM     15  C   UNL     1      16.688  30.541  23.922  1.00  0.00     0.041 C 
ATOM     16  O   UNL     1      16.604  30.243  25.143  1.00  0.00    -0.550 OA
ATOM     17  O   UNL     1      15.547  30.529  23.129  1.00  0.00    -0.550 OA
ENDBRANCH  14  15
ENDBRANCH  13  14
ENDBRANCH  12  13
ENDBRANCH  11  12
ENDBRANCH  10  11
ENDBRANCH   9  10
ENDBRANCH   8   9
ENDBRANCH   7   8
ENDBRANCH   6   7
ENDBRANCH   5   6
ENDBRANCH   4   5
ENDBRANCH   3   4
ENDBRANCH   2   3
ENDBRANCH   1   2
BRANCH   1  18
ATOM     18  C   UNL     1      10.102  35.711  23.475  1.00  0.00     0.000 C 
BRANCH  18  19
ATOM     19  C   UNL     1       9.395  36.629  22.465  1.00  0.00     0.000 C 
BRANCH  19  20
ATOM     20  C   UNL     1       9.836  36.313  21.028  1.00  0.00     0.000 C 
BRANCH  20  21
ATOM     21  C   UNL     1       8.644  36.068  20.088  1.00  0.00     0.000 C 
BRANCH  21  22
ATOM     22  C   UNL     1       8.847  34.825  19.203  1.00  0.00     0.000 C 
BRANCH  22  23
ATOM     23  C   UNL     1       8.060  33.597  19.698  1.00  0.00     0.000 C 
BRANCH  23  24
ATOM     24  C   UNL     1       6.727  33.911  20.401  1.00  0.00    -0.000 C 
BRANCH  24  25
ATOM     25  C   UNL     1       5.917  32.649  20.748  1.00  0.00    -0.000 C 
BRANCH  25  26
ATOM     26  C   UNL     1       5.194  32.058  19.524  1.00  0.00    -0.000 C 
BRANCH  26  27
ATOM     27  C   UNL     1       5.491  30.569  19.263  1.00  0.00    -0.000 C 
BRANCH  27  28
ATOM     28  C   UNL     1       6.710  30.060  20.046  1.00  0.00    -0.000 C 
BRANCH  28  29
ATOM     29  C   UNL     1       7.922  29.876  19.122  1.00  0.00    -0.000 C 
BRANCH  29  30
ATOM     30  C   UNL     1       9.236  30.070  19.895  1.00  0.00    -0.000 C 
BRANCH  30  31
ATOM     31  C   UNL     1      10.311  30.778  19.055  1.00  0.00    -0.003 C 
ATOM     32  C   UNL     1      11.455  31.329  19.906  1.00  0.00     0.004 C 
ENDBRANCH  30  31
ENDBRANCH  29  30
ENDBRANCH  28  29
ENDBRANCH  27  28
ENDBRANCH  26  27
ENDBRANCH  25  26
ENDBRANCH  24  25
ENDBRANCH  23  24
ENDBRANCH  22  23
ENDBRANCH  21  22
ENDBRANCH  20  21
ENDBRANCH  19  20
ENDBRANCH  18  19
ENDBRANCH   1  18
TORSDOF 28
ENDMDL
MODEL 4
REMARK VINA RESULT:    -2.331      3.105      7.437
REMARK INTER + INTRA:          -7.404
REMARK INTER:                  -4.250
REMARK INTRA:                  -3.154
REMARK UNBOUND:                -1.257
REMARK SMILES CCCCCCCCCCCCCCCCCCCCCCCCCCCCCC(=O)[O-]
REMARK SMILES IDX 16 1 17 2 18 3 19 4 20 5 21 6 22 7 23 8 24 9 25 10 26 11
REMARK SMILES IDX 27 12 28 13 29 14 30 15 31 16 32 17 15 18 14 19 13 20 12 21
REMARK SMILES IDX 11 22 10 23 9 24 8 25 7 26 6 27 5 28 4 29 3 30 2 31 1 32
REMARK H PARENT
REMARK Flexibility Score: inf
ROOT
ATOM      1  C   UNL     1       8.165  35.656  19.045  1.00  0.00     0.000 C 
ENDROOT
BRANCH   1   2
ATOM      2  C   UNL     1       7.351  35.247  20.288  1.00  0.00     0.000 C 
BRANCH   2   3
ATOM      3  C   UNL     1       6.924  33.769  20.334  1.00  0.00     0.000 C 
BRANCH   3   4
ATOM      4  C   UNL     1       7.927  32.781  19.705  1.00  0.00     0.000 C 
BRANCH   4   5
ATOM      5  C   UNL     1       7.544  31.297  19.890  1.00  0.00     0.000 C 
BRANCH   5   6
ATOM      6  C   UNL     1       8.772  30.396  20.111  1.00  0.00     0.000 C 
BRANCH   6   7
ATOM      7  C   UNL     1      10.072  31.028  19.576  1.00  0.00     0.000 C 
BRANCH   7   8
ATOM      8  C   UNL     1      11.340  30.222  19.911  1.00  0.00     0.000 C 
BRANCH   8   9
ATOM      9  C   UNL     1      12.570  31.126  20.121  1.00  0.00     0.000 C 
BRANCH   9  10
ATOM     10  C   UNL     1      13.593  30.515  21.090  1.00  0.00     0.000 C 
BRANCH  10  11
ATOM     11  C   UNL     1      14.355  31.574  21.899  1.00  0.00     0.000 C 
BRANCH  11  12
ATOM     12  C   UNL     1      14.929  32.657  20.974  1.00  0.00     0.000 C 
BRANCH  12  13
ATOM     13  C   UNL     1      16.288  32.267  20.365  1.00  0.00     0.006 C 
BRANCH  13  14
ATOM     14  C   UNL     1      17.476  32.376  21.336  1.00  0.00     0.053 C 
BRANCH  14  15
ATOM     15  C   UNL     1      18.020  31.033  21.716  1.00  0.00     0.041 C 
ATOM     16  O   UNL     1      17.472  29.983  21.287  1.00  0.00    -0.550 OA
ATOM     17  O   UNL     1      19.096  30.940  22.591  1.00  0.00    -0.550 OA
ENDBRANCH  14  15
ENDBRANCH  13  14
ENDBRANCH  12  13
ENDBRANCH  11  12
ENDBRANCH  10  11
ENDBRANCH   9  10
ENDBRANCH   8   9
ENDBRANCH   7   8
ENDBRANCH   6   7
ENDBRANCH   5   6
ENDBRANCH   4   5
ENDBRANCH   3   4
ENDBRANCH   2   3
ENDBRANCH   1   2
BRANCH   1  18
ATOM     18  C   UNL     1       8.372  37.179  18.901  1.00  0.00     0.000 C 
BRANCH  18  19
ATOM     19  C   UNL     1       9.857  37.574  18.877  1.00  0.00     0.000 C 
BRANCH  19  20
ATOM     20  C   UNL     1      10.760  36.332  18.892  1.00  0.00     0.000 C 
BRANCH  20  21
ATOM     21  C   UNL     1      12.107  36.593  19.585  1.00  0.00     0.000 C 
BRANCH  21  22
ATOM     22  C   UNL     1      12.512  35.442  20.523  1.00  0.00     0.000 C 
BRANCH  22  23
ATOM     23  C   UNL     1      11.375  34.430  20.761  1.00  0.00     0.000 C 
BRANCH  23  24
ATOM     24  C   UNL     1      10.458  34.741  21.959  1.00  0.00    -0.000 C 
BRANCH  24  25
ATOM     25  C   UNL     1      10.295  36.250  22.217  1.00  0.00    -0.000 C 
BRANCH  25  26
ATOM     26  C   UNL     1      10.297  36.595  23.717  1.00  0.00    -0.000 C 
BRANCH  26  27
ATOM     27  C   UNL     1      11.263  35.748  24.568  1.00  0.00    -0.000 C 
BRANCH  27  28
ATOM     28  C   UNL     1      11.396  36.265  26.008  1.00  0.00    -0.000 C 
BRANCH  28  29
ATOM     29  C   UNL     1      10.608  35.384  26.986  1.00  0.00    -0.000 C 
BRANCH  29  30
ATOM     30  C   UNL     1      11.167  35.511  28.412  1.00  0.00    -0.000 C 
BRANCH  30  31
ATOM     31  C   UNL     1      12.476  34.730  28.601  1.00  0.00    -0.003 C 
ATOM     32  C   UNL     1      12.241  33.263  28.964  1.00  0.00     0.004 C 
ENDBRANCH  30  31
ENDBRANCH  29  30
ENDBRANCH  28  29
ENDBRANCH  27  28
ENDBRANCH  26  27
ENDBRANCH  25  26
ENDBRANCH  24  25
ENDBRANCH  23  24
ENDBRANCH  22  23
ENDBRANCH  21  22
ENDBRANCH  20  21
ENDBRANCH  19  20
ENDBRANCH  18  19
ENDBRANCH   1  18
TORSDOF 28
ENDMDL
MODEL 5
REMARK VINA RESULT:    -2.069      2.394      8.310
REMARK INTER + INTRA:          -6.713
REMARK INTER:                  -4.458
REMARK INTRA:                  -2.255
REMARK UNBOUND:                -1.257
REMARK SMILES CCCCCCCCCCCCCCCCCCCCCCCCCCCCCC(=O)[O-]
REMARK SMILES IDX 16 1 17 2 18 3 19 4 20 5 21 6 22 7 23 8 24 9 25 10 26 11
REMARK SMILES IDX 27 12 28 13 29 14 30 15 31 16 32 17 15 18 14 19 13 20 12 21
REMARK SMILES IDX 11 22 10 23 9 24 8 25 7 26 6 27 5 28 4 29 3 30 2 31 1 32
REMARK H PARENT
REMARK Flexibility Score: inf
ROOT
ATOM      1  C   UNL     1      12.612  36.544  23.705  1.00  0.00     0.000 C 
ENDROOT
BRANCH   1   2
ATOM      2  C   UNL     1      12.979  36.607  22.209  1.00  0.00     0.000 C 
BRANCH   2   3
ATOM      3  C   UNL     1      12.680  35.328  21.408  1.00  0.00     0.000 C 
BRANCH   3   4
ATOM      4  C   UNL     1      13.864  34.782  20.585  1.00  0.00     0.000 C 
BRANCH   4   5
ATOM      5  C   UNL     1      13.454  34.167  19.230  1.00  0.00     0.000 C 
BRANCH   5   6
ATOM      6  C   UNL     1      12.252  33.213  19.357  1.00  0.00     0.000 C 
BRANCH   6   7
ATOM      7  C   UNL     1      12.681  31.740  19.502  1.00  0.00     0.000 C 
BRANCH   7   8
ATOM      8  C   UNL     1      13.443  31.439  20.805  1.00  0.00     0.000 C 
BRANCH   8   9
ATOM      9  C   UNL     1      12.621  30.572  21.777  1.00  0.00     0.000 C 
BRANCH   9  10
ATOM     10  C   UNL     1      13.496  29.876  22.831  1.00  0.00     0.000 C 
BRANCH  10  11
ATOM     11  C   UNL     1      14.987  29.875  22.462  1.00  0.00     0.000 C 
BRANCH  11  12
ATOM     12  C   UNL     1      15.819  30.564  23.553  1.00  0.00     0.000 C 
BRANCH  12  13
ATOM     13  C   UNL     1      17.252  30.010  23.656  1.00  0.00     0.006 C 
BRANCH  13  14
ATOM     14  C   UNL     1      18.352  31.014  23.273  1.00  0.00     0.053 C 
BRANCH  14  15
ATOM     15  C   UNL     1      18.419  31.242  21.794  1.00  0.00     0.041 C 
ATOM     16  O   UNL     1      18.937  30.375  21.042  1.00  0.00    -0.550 OA
ATOM     17  O   UNL     1      17.961  32.438  21.253  1.00  0.00    -0.550 OA
ENDBRANCH  14  15
ENDBRANCH  13  14
ENDBRANCH  12  13
ENDBRANCH  11  12
ENDBRANCH  10  11
ENDBRANCH   9  10
ENDBRANCH   8   9
ENDBRANCH   7   8
ENDBRANCH   6   7
ENDBRANCH   5   6
ENDBRANCH   4   5
ENDBRANCH   3   4
ENDBRANCH   2   3
ENDBRANCH   1   2
BRANCH   1  18
ATOM     18  C   UNL     1      11.349  35.709  24.009  1.00  0.00     0.000 C 
BRANCH  18  19
ATOM     19  C   UNL     1      10.066  36.365  23.477  1.00  0.00     0.000 C 
BRANCH  19  20
ATOM     20  C   UNL     1       9.618  35.716  22.159  1.00  0.00     0.000 C 
BRANCH  20  21
ATOM     21  C   UNL     1       8.865  36.697  21.246  1.00  0.00     0.000 C 
BRANCH  21  22
ATOM     22  C   UNL     1       9.688  37.084  20.004  1.00  0.00     0.000 C 
BRANCH  22  23
ATOM     23  C   UNL     1       9.605  36.039  18.875  1.00  0.00     0.000 C 
BRANCH  23  24
ATOM     24  C   UNL     1       9.734  34.572  19.327  1.00  0.00    -0.000 C 
BRANCH  24  25
ATOM     25  C   UNL     1       8.552  33.697  18.876  1.00  0.00    -0.000 C 
BRANCH  25  26
ATOM     26  C   UNL     1       8.895  32.196  18.877  1.00  0.00    -0.000 C 
BRANCH  26  27
ATOM     27  C   UNL     1       9.020  31.569  20.278  1.00  0.00    -0.000 C 
BRANCH  27  28
ATOM     28  C   UNL     1       8.502  30.123  20.330  1.00  0.00    -0.000 C 
BRANCH  28  29
ATOM     29  C   UNL     1       7.023  30.051  19.929  1.00  0.00    -0.000 C 
BRANCH  29  30
ATOM     30  C   UNL     1       6.118  30.013  21.171  1.00  0.00    -0.000 C 
BRANCH  30  31
ATOM     31  C   UNL     1       5.369  31.336  21.392  1.00  0.00    -0.003 C 
ATOM     32  C   UNL     1       5.418  32.253  20.169  1.00  0.00     0.004 C 
ENDBRANCH  30  31
ENDBRANCH  29  30
ENDBRANCH  28  29
ENDBRANCH  27  28
ENDBRANCH  26  27
ENDBRANCH  25  26
ENDBRANCH  24  25
ENDBRANCH  23  24
ENDBRANCH  22  23
ENDBRANCH  21  22
ENDBRANCH  20  21
ENDBRANCH  19  20
ENDBRANCH  18  19
ENDBRANCH   1  18
TORSDOF 28
ENDMDL
MODEL 6
REMARK VINA RESULT:    -1.962      1.749      4.508
REMARK INTER + INTRA:          -6.432
REMARK INTER:                  -4.170
REMARK INTRA:                  -2.262
REMARK UNBOUND:                -1.257
REMARK SMILES CCCCCCCCCCCCCCCCCCCCCCCCCCCCCC(=O)[O-]
REMARK SMILES IDX 16 1 17 2 18 3 19 4 20 5 21 6 22 7 23 8 24 9 25 10 26 11
REMARK SMILES IDX 27 12 28 13 29 14 30 15 31 16 32 17 15 18 14 19 13 20 12 21
REMARK SMILES IDX 11 22 10 23 9 24 8 25 7 26 6 27 5 28 4 29 3 30 2 31 1 32
REMARK H PARENT
REMARK Flexibility Score: inf
ROOT
ATOM      1  C   UNL     1      11.682  36.251  21.271  1.00  0.00     0.000 C 
ENDROOT
BRANCH   1   2
ATOM      2  C   UNL     1      11.893  35.081  22.253  1.00  0.00     0.000 C 
BRANCH   2   3
ATOM      3  C   UNL     1      11.128  33.792  21.907  1.00  0.00     0.000 C 
BRANCH   3   4
ATOM      4  C   UNL     1      11.798  32.488  22.385  1.00  0.00     0.000 C 
BRANCH   4   5
ATOM      5  C   UNL     1      10.985  31.214  22.068  1.00  0.00     0.000 C 
BRANCH   5   6
ATOM      6  C   UNL     1      10.403  31.227  20.643  1.00  0.00     0.000 C 
BRANCH   6   7
ATOM      7  C   UNL     1       9.779  29.875  20.247  1.00  0.00     0.000 C 
BRANCH   7   8
ATOM      8  C   UNL     1       9.081  29.889  18.876  1.00  0.00     0.000 C 
BRANCH   8   9
ATOM      9  C   UNL     1       7.547  29.963  19.001  1.00  0.00     0.000 C 
BRANCH   9  10
ATOM     10  C   UNL     1       7.088  30.314  20.424  1.00  0.00     0.000 C 
BRANCH  10  11
ATOM     11  C   UNL     1       6.184  31.555  20.470  1.00  0.00     0.000 C 
BRANCH  11  12
ATOM     12  C   UNL     1       6.019  32.161  19.069  1.00  0.00     0.000 C 
BRANCH  12  13
ATOM     13  C   UNL     1       6.690  33.539  18.928  1.00  0.00     0.006 C 
BRANCH  13  14
ATOM     14  C   UNL     1       7.060  34.207  20.263  1.00  0.00     0.053 C 
BRANCH  14  15
ATOM     15  C   UNL     1       8.230  35.133  20.127  1.00  0.00     0.041 C 
ATOM     16  O   UNL     1       9.071  34.960  19.205  1.00  0.00    -0.550 OA
ATOM     17  O   UNL     1       8.422  36.151  21.053  1.00  0.00    -0.550 OA
ENDBRANCH  14  15
ENDBRANCH  13  14
ENDBRANCH  12  13
ENDBRANCH  11  12
ENDBRANCH  10  11
ENDBRANCH   9  10
ENDBRANCH   8   9
ENDBRANCH   7   8
ENDBRANCH   6   7
ENDBRANCH   5   6
ENDBRANCH   4   5
ENDBRANCH   3   4
ENDBRANCH   2   3
ENDBRANCH   1   2
BRANCH   1  18
ATOM     18  C   UNL     1      12.951  36.656  20.492  1.00  0.00     0.000 C 
BRANCH  18  19
ATOM     19  C   UNL     1      13.943  35.492  20.335  1.00  0.00     0.000 C 
BRANCH  19  20
ATOM     20  C   UNL     1      13.345  34.366  19.479  1.00  0.00     0.000 C 
BRANCH  20  21
ATOM     21  C   UNL     1      14.421  33.425  18.912  1.00  0.00     0.000 C 
BRANCH  21  22
ATOM     22  C   UNL     1      14.097  31.944  19.181  1.00  0.00     0.000 C 
BRANCH  22  23
ATOM     23  C   UNL     1      13.993  31.612  20.681  1.00  0.00     0.000 C 
BRANCH  23  24
ATOM     24  C   UNL     1      14.405  30.180  21.068  1.00  0.00    -0.000 C 
BRANCH  24  25
ATOM     25  C   UNL     1      14.593  29.995  22.584  1.00  0.00    -0.000 C 
BRANCH  25  26
ATOM     26  C   UNL     1      16.075  29.877  22.983  1.00  0.00    -0.000 C 
BRANCH  26  27
ATOM     27  C   UNL     1      16.461  30.664  24.250  1.00  0.00    -0.000 C 
BRANCH  27  28
ATOM     28  C   UNL     1      17.859  31.293  24.156  1.00  0.00    -0.000 C 
BRANCH  28  29
ATOM     29  C   UNL     1      18.485  31.045  22.777  1.00  0.00    -0.000 C 
BRANCH  29  30
ATOM     30  C   UNL     1      17.716  31.800  21.682  1.00  0.00    -0.000 C 
BRANCH  30  31
ATOM     31  C   UNL     1      18.163  31.398  20.268  1.00  0.00    -0.003 C 
ATOM     32  C   UNL     1      18.892  30.055  20.240  1.00  0.00     0.004 C 
ENDBRANCH  30  31
ENDBRANCH  29  30
ENDBRANCH  28  29
ENDBRANCH  27  28
ENDBRANCH  26  27
ENDBRANCH  25  26
ENDBRANCH  24  25
ENDBRANCH  23  24
ENDBRANCH  22  23
ENDBRANCH  21  22
ENDBRANCH  20  21
ENDBRANCH  19  20
ENDBRANCH  18  19
ENDBRANCH   1  18
TORSDOF 28
ENDMDL
MODEL 7
REMARK VINA RESULT:    -1.853     19.164     22.795
REMARK INTER + INTRA:          -6.144
REMARK INTER:                  -4.050
REMARK INTRA:                  -2.094
REMARK UNBOUND:                -1.257
REMARK SMILES CCCCCCCCCCCCCCCCCCCCCCCCCCCCCC(=O)[O-]
REMARK SMILES IDX 16 1 17 2 18 3 19 4 20 5 21 6 22 7 23 8 24 9 25 10 26 11
REMARK SMILES IDX 27 12 28 13 29 14 30 15 31 16 32 17 15 18 14 19 13 20 12 21
REMARK SMILES IDX 11 22 10 23 9 24 8 25 7 26 6 27 5 28 4 29 3 30 2 31 1 32
REMARK H PARENT
REMARK Flexibility Score: inf
ROOT
ATOM      1  C   UNL     1       9.829  47.392  33.336  1.00  0.00     0.000 C 
ENDROOT
BRANCH   1   2
ATOM      2  C   UNL     1       8.596  46.743  33.995  1.00  0.00     0.000 C 
BRANCH   2   3
ATOM      3  C   UNL     1       8.807  45.308  34.505  1.00  0.00     0.000 C 
BRANCH   3   4
ATOM      4  C   UNL     1       8.639  45.124  36.027  1.00  0.00     0.000 C 
BRANCH   4   5
ATOM      5  C   UNL     1       7.886  46.281  36.718  1.00  0.00     0.000 C 
BRANCH   5   6
ATOM      6  C   UNL     1       7.868  46.139  38.251  1.00  0.00     0.000 C 
BRANCH   6   7
ATOM      7  C   UNL     1       9.117  45.414  38.790  1.00  0.00     0.000 C 
BRANCH   7   8
ATOM      8  C   UNL     1      10.307  46.350  39.069  1.00  0.00     0.000 C 
BRANCH   8   9
ATOM      9  C   UNL     1      11.647  45.592  39.123  1.00  0.00     0.000 C 
BRANCH   9  10
ATOM     10  C   UNL     1      12.859  46.536  39.116  1.00  0.00     0.000 C 
BRANCH  10  11
ATOM     11  C   UNL     1      14.196  45.790  38.990  1.00  0.00     0.000 C 
BRANCH  11  12
ATOM     12  C   UNL     1      14.932  46.204  37.708  1.00  0.00     0.000 C 
BRANCH  12  13
ATOM     13  C   UNL     1      16.460  46.043  37.814  1.00  0.00     0.006 C 
BRANCH  13  14
ATOM     14  C   UNL     1      17.266  47.163  37.135  1.00  0.00     0.053 C 
BRANCH  14  15
ATOM     15  C   UNL     1      16.407  48.334  36.767  1.00  0.00     0.041 C 
ATOM     16  O   UNL     1      16.139  49.217  37.625  1.00  0.00    -0.550 OA
ATOM     17  O   UNL     1      15.855  48.420  35.495  1.00  0.00    -0.550 OA
ENDBRANCH  14  15
ENDBRANCH  13  14
ENDBRANCH  12  13
ENDBRANCH  11  12
ENDBRANCH  10  11
ENDBRANCH   9  10
ENDBRANCH   8   9
ENDBRANCH   7   8
ENDBRANCH   6   7
ENDBRANCH   5   6
ENDBRANCH   4   5
ENDBRANCH   3   4
ENDBRANCH   2   3
ENDBRANCH   1   2
BRANCH   1  18
ATOM     18  C   UNL     1       9.535  48.735  32.634  1.00  0.00     0.000 C 
BRANCH  18  19
ATOM     19  C   UNL     1       8.522  48.592  31.487  1.00  0.00     0.000 C 
BRANCH  19  20
ATOM     20  C   UNL     1       8.566  49.812  30.554  1.00  0.00     0.000 C 
BRANCH  20  21
ATOM     21  C   UNL     1       7.445  49.789  29.503  1.00  0.00     0.000 C 
BRANCH  21  22
ATOM     22  C   UNL     1       6.738  48.422  29.437  1.00  0.00     0.000 C 
BRANCH  22  23
ATOM     23  C   UNL     1       5.237  48.502  29.772  1.00  0.00     0.000 C 
BRANCH  23  24
ATOM     24  C   UNL     1       4.903  49.099  31.152  1.00  0.00    -0.000 C 
BRANCH  24  25
ATOM     25  C   UNL     1       5.739  48.488  32.291  1.00  0.00    -0.000 C 
BRANCH  25  26
ATOM     26  C   UNL     1       5.879  49.438  33.494  1.00  0.00    -0.000 C 
BRANCH  26  27
ATOM     27  C   UNL     1       5.590  48.787  34.860  1.00  0.00    -0.000 C 
BRANCH  27  28
ATOM     28  C   UNL     1       5.043  49.787  35.890  1.00  0.00    -0.000 C 
BRANCH  28  29
ATOM     29  C   UNL     1       4.961  49.153  37.285  1.00  0.00    -0.000 C 
BRANCH  29  30
ATOM     30  C   UNL     1       5.745  49.984  38.313  1.00  0.00    -0.000 C 
BRANCH  30  31
ATOM     31  C   UNL     1       7.047  49.297  38.753  1.00  0.00    -0.003 C 
ATOM     32  C   UNL     1       8.295  50.047  38.289  1.00  0.00     0.004 C 
ENDBRANCH  30  31
ENDBRANCH  29  30
ENDBRANCH  28  29
ENDBRANCH  27  28
ENDBRANCH  26  27
ENDBRANCH  25  26
ENDBRANCH  24  25
ENDBRANCH  23  24
ENDBRANCH  22  23
ENDBRANCH  21  22
ENDBRANCH  20  21
ENDBRANCH  19  20
ENDBRANCH  18  19
ENDBRANCH   1  18
TORSDOF 28
ENDMDL
MODEL 8
REMARK VINA RESULT:    -1.162      2.296      8.465
REMARK INTER + INTRA:          -4.321
REMARK INTER:                  -2.983
REMARK INTRA:                  -1.337
REMARK UNBOUND:                -1.257
REMARK SMILES CCCCCCCCCCCCCCCCCCCCCCCCCCCCCC(=O)[O-]
REMARK SMILES IDX 16 1 17 2 18 3 19 4 20 5 21 6 22 7 23 8 24 9 25 10 26 11
REMARK SMILES IDX 27 12 28 13 29 14 30 15 31 16 32 17 15 18 14 19 13 20 12 21
REMARK SMILES IDX 11 22 10 23 9 24 8 25 7 26 6 27 5 28 4 29 3 30 2 31 1 32
REMARK H PARENT
REMARK Flexibility Score: inf
ROOT
ATOM      1  C   UNL     1      10.855  35.619  23.213  1.00  0.00     0.000 C 
ENDROOT
BRANCH   1   2
ATOM      2  C   UNL     1      12.156  35.078  22.587  1.00  0.00     0.000 C 
BRANCH   2   3
ATOM      3  C   UNL     1      12.734  35.928  21.443  1.00  0.00     0.000 C 
BRANCH   3   4
ATOM      4  C   UNL     1      13.212  35.130  20.214  1.00  0.00     0.000 C 
BRANCH   4   5
ATOM      5  C   UNL     1      14.719  34.793  20.233  1.00  0.00     0.000 C 
BRANCH   5   6
ATOM      6  C   UNL     1      15.026  33.432  19.583  1.00  0.00     0.000 C 
BRANCH   6   7
ATOM      7  C   UNL     1      13.760  32.582  19.367  1.00  0.00     0.000 C 
BRANCH   7   8
ATOM      8  C   UNL     1      13.582  31.456  20.402  1.00  0.00     0.000 C 
BRANCH   8   9
ATOM      9  C   UNL     1      14.869  30.633  20.599  1.00  0.00     0.000 C 
BRANCH   9  10
ATOM     10  C   UNL     1      15.715  30.547  19.320  1.00  0.00     0.000 C 
BRANCH  10  11
ATOM     11  C   UNL     1      17.222  30.668  19.592  1.00  0.00     0.000 C 
BRANCH  11  12
ATOM     12  C   UNL     1      17.551  30.252  21.032  1.00  0.00     0.000 C 
BRANCH  12  13
ATOM     13  C   UNL     1      18.194  31.384  21.853  1.00  0.00     0.006 C 
BRANCH  13  14
ATOM     14  C   UNL     1      18.929  30.914  23.120  1.00  0.00     0.053 C 
BRANCH  14  15
ATOM     15  C   UNL     1      18.238  31.360  24.372  1.00  0.00     0.041 C 
ATOM     16  O   UNL     1      18.888  31.940  25.282  1.00  0.00    -0.550 OA
ATOM     17  O   UNL     1      16.889  31.083  24.558  1.00  0.00    -0.550 OA
ENDBRANCH  14  15
ENDBRANCH  13  14
ENDBRANCH  12  13
ENDBRANCH  11  12
ENDBRANCH  10  11
ENDBRANCH   9  10
ENDBRANCH   8   9
ENDBRANCH   7   8
ENDBRANCH   6   7
ENDBRANCH   5   6
ENDBRANCH   4   5
ENDBRANCH   3   4
ENDBRANCH   2   3
ENDBRANCH   1   2
BRANCH   1  18
ATOM     18  C   UNL     1      10.286  36.866  22.503  1.00  0.00     0.000 C 
BRANCH  18  19
ATOM     19  C   UNL     1      10.110  36.655  20.991  1.00  0.00     0.000 C 
BRANCH  19  20
ATOM     20  C   UNL     1       8.625  36.550  20.615  1.00  0.00     0.000 C 
BRANCH  20  21
ATOM     21  C   UNL     1       8.265  35.180  20.017  1.00  0.00     0.000 C 
BRANCH  21  22
ATOM     22  C   UNL     1       9.302  34.708  18.981  1.00  0.00     0.000 C 
BRANCH  22  23
ATOM     23  C   UNL     1      10.328  33.717  19.563  1.00  0.00     0.000 C 
BRANCH  23  24
ATOM     24  C   UNL     1       9.794  32.295  19.819  1.00  0.00    -0.000 C 
BRANCH  24  25
ATOM     25  C   UNL     1      10.404  31.243  18.875  1.00  0.00    -0.000 C 
BRANCH  25  26
ATOM     26  C   UNL     1       9.708  29.875  18.987  1.00  0.00    -0.000 C 
BRANCH  26  27
ATOM     27  C   UNL     1       8.199  29.948  19.289  1.00  0.00    -0.000 C 
BRANCH  27  28
ATOM     28  C   UNL     1       7.893  29.926  20.795  1.00  0.00    -0.000 C 
BRANCH  28  29
ATOM     29  C   UNL     1       6.380  29.954  21.051  1.00  0.00    -0.000 C 
BRANCH  29  30
ATOM     30  C   UNL     1       5.618  30.406  19.796  1.00  0.00    -0.000 C 
BRANCH  30  31
ATOM     31  C   UNL     1       4.414  31.300  20.131  1.00  0.00    -0.003 C 
ATOM     32  C   UNL     1       4.646  32.160  21.373  1.00  0.00     0.004 C 
ENDBRANCH  30  31
ENDBRANCH  29  30
ENDBRANCH  28  29
ENDBRANCH  27  28
ENDBRANCH  26  27
ENDBRANCH  25  26
ENDBRANCH  24  25
ENDBRANCH  23  24
ENDBRANCH  22  23
ENDBRANCH  21  22
ENDBRANCH  20  21
ENDBRANCH  19  20
ENDBRANCH  18  19
ENDBRANCH   1  18
TORSDOF 28
ENDMDL
