MODEL 1
REMARK VINA RESULT:    -6.442      0.000      0.000
REMARK INTER + INTRA:          -6.630
REMARK INTER:                  -6.630
REMARK INTRA:                   0.000
REMARK UNBOUND:                 0.000
REMARK SMILES Oc1ccc2[nH]ccc2c1
REMARK SMILES IDX 3 1 4 2 5 3 9 4 8 5 7 6 6 7 10 8 2 9 1 11
REMARK H PARENT 6 10 1 12
REMARK Flexibility Score: inf
ROOT
ATOM      1  C   UNL     1     129.126 124.902 127.126  1.00  0.00     0.048 A 
ATOM      2  C   UNL     1     129.440 125.531 128.346  1.00  0.00     0.030 A 
ATOM      3  C   UNL     1     129.173 124.837 129.524  1.00  0.00     0.046 A 
ATOM      4  C   UNL     1     128.622 123.583 129.512  1.00  0.00     0.003 A 
ATOM      5  C   UNL     1     128.487 123.180 130.823  1.00  0.00     0.028 A 
ATOM      6  C   UNL     1     128.976 124.240 131.581  1.00  0.00     0.083 A 
ATOM      7  N   UNL     1     129.394 125.249 130.783  1.00  0.00    -0.361 N 
ATOM      8  C   UNL     1     128.300 122.931 128.324  1.00  0.00     0.056 A 
ATOM      9  C   UNL     1     128.558 123.606 127.112  1.00  0.00     0.116 A 
ATOM     10  H   UNL     1     129.803 126.161 131.087  1.00  0.00     0.166 HD
ENDROOT
BRANCH   9  11
ATOM     11  O   UNL     1     128.256 123.005 125.892  1.00  0.00    -0.508 OA
ATOM     12  H   UNL     1     127.388 123.201 125.406  1.00  0.00     0.293 HD
ENDBRANCH   9  11
TORSDOF 1
ENDMDL
MODEL 2
REMARK VINA RESULT:    -6.125      2.601      4.075
REMARK INTER + INTRA:          -6.304
REMARK INTER:                  -6.304
REMARK INTRA:                   0.000
REMARK UNBOUND:                 0.000
REMARK SMILES Oc1ccc2[nH]ccc2c1
REMARK SMILES IDX 3 1 4 2 5 3 9 4 8 5 7 6 6 7 10 8 2 9 1 11
REMARK H PARENT 6 10 1 12
REMARK Flexibility Score: inf
ROOT
ATOM      1  C   UNL     1     128.418 123.229 130.722  1.00  0.00     0.048 A 
ATOM      2  C   UNL     1     128.099 122.615 129.496  1.00  0.00     0.030 A 
ATOM      3  C   UNL     1     128.436 123.288 128.323  1.00  0.00     0.046 A 
ATOM      4  C   UNL     1     129.058 124.508 128.347  1.00  0.00     0.003 A 
ATOM      5  C   UNL     1     129.250 124.897 127.039  1.00  0.00     0.028 A 
ATOM      6  C   UNL     1     128.720 123.865 126.271  1.00  0.00     0.083 A 
ATOM      7  N   UNL     1     128.224 122.885 127.060  1.00  0.00    -0.361 N 
ATOM      8  C   UNL     1     129.389 125.143 129.541  1.00  0.00     0.056 A 
ATOM      9  C   UNL     1     129.061 124.489 130.748  1.00  0.00     0.116 A 
ATOM     10  H   UNL     1     127.770 121.997 126.748  1.00  0.00     0.166 HD
ENDROOT
BRANCH   9  11
ATOM     11  O   UNL     1     129.367 125.077 131.974  1.00  0.00    -0.508 OA
ATOM     12  H   UNL     1     130.258 125.530 132.136  1.00  0.00     0.293 HD
ENDBRANCH   9  11
TORSDOF 1
ENDMDL
MODEL 3
REMARK VINA RESULT:    -6.004      1.372      1.778
REMARK INTER + INTRA:          -6.180
REMARK INTER:                  -6.180
REMARK INTRA:                   0.000
REMARK UNBOUND:                 0.000
REMARK SMILES Oc1ccc2[nH]ccc2c1
REMARK SMILES IDX 3 1 4 2 5 3 9 4 8 5 7 6 6 7 10 8 2 9 1 11
REMARK H PARENT 6 10 1 12
REMARK Flexibility Score: inf
ROOT
ATOM      1  C   UNL     1     130.456 125.843 126.823  1.00  0.00     0.048 A 
ATOM      2  C   UNL     1     130.060 125.992 128.166  1.00  0.00     0.030 A 
ATOM      3  C   UNL     1     129.358 124.944 128.758  1.00  0.00     0.046 A 
ATOM      4  C   UNL     1     129.057 123.800 128.069  1.00  0.00     0.003 A 
ATOM      5  C   UNL     1     128.367 122.972 128.928  1.00  0.00     0.028 A 
ATOM      6  C   UNL     1     128.285 123.676 130.124  1.00  0.00     0.083 A 
ATOM      7  N   UNL     1     128.891 124.881 130.016  1.00  0.00    -0.361 N 
ATOM      8  C   UNL     1     129.434 123.619 126.740  1.00  0.00     0.056 A 
ATOM      9  C   UNL     1     130.145 124.662 126.110  1.00  0.00     0.116 A 
ATOM     10  H   UNL     1     128.977 125.609 130.759  1.00  0.00     0.166 HD
ENDROOT
BRANCH   9  11
ATOM     11  O   UNL     1     130.549 124.538 124.782  1.00  0.00    -0.508 OA
ATOM     12  H   UNL     1     130.882 123.656 124.410  1.00  0.00     0.293 HD
ENDBRANCH   9  11
TORSDOF 1
ENDMDL
MODEL 4
REMARK VINA RESULT:    -5.959      1.945      2.576
REMARK INTER + INTRA:          -6.134
REMARK INTER:                  -6.134
REMARK INTRA:                   0.000
REMARK UNBOUND:                 0.000
REMARK SMILES Oc1ccc2[nH]ccc2c1
REMARK SMILES IDX 3 1 4 2 5 3 9 4 8 5 7 6 6 7 10 8 2 9 1 11
REMARK H PARENT 6 10 1 12
REMARK Flexibility Score: inf
ROOT
ATOM      1  C   UNL     1     129.555 124.591 126.247  1.00  0.00     0.048 A 
ATOM      2  C   UNL     1     129.054 123.410 126.827  1.00  0.00     0.030 A 
ATOM      3  C   UNL     1     128.826 123.405 128.201  1.00  0.00     0.046 A 
ATOM      4  C   UNL     1     129.076 124.505 128.976  1.00  0.00     0.003 A 
ATOM      5  C   UNL     1     128.749 124.178 130.274  1.00  0.00     0.028 A 
ATOM      6  C   UNL     1     128.306 122.861 130.216  1.00  0.00     0.083 A 
ATOM      7  N   UNL     1     128.355 122.393 128.948  1.00  0.00    -0.361 N 
ATOM      8  C   UNL     1     129.571 125.690 128.436  1.00  0.00     0.056 A 
ATOM      9  C   UNL     1     129.814 125.729 127.046  1.00  0.00     0.116 A 
ATOM     10  H   UNL     1     128.081 121.439 128.620  1.00  0.00     0.166 HD
ENDROOT
BRANCH   9  11
ATOM     11  O   UNL     1     130.310 126.886 126.449  1.00  0.00    -0.508 OA
ATOM     12  H   UNL     1     129.691 127.600 126.084  1.00  0.00     0.293 HD
ENDBRANCH   9  11
TORSDOF 1
ENDMDL
MODEL 5
REMARK VINA RESULT:    -5.832      2.824      4.427
REMARK INTER + INTRA:          -6.003
REMARK INTER:                  -6.003
REMARK INTRA:                   0.000
REMARK UNBOUND:                 0.000
REMARK SMILES Oc1ccc2[nH]ccc2c1
REMARK SMILES IDX 3 1 4 2 5 3 9 4 8 5 7 6 6 7 10 8 2 9 1 11
REMARK H PARENT 6 10 1 12
REMARK Flexibility Score: inf
ROOT
ATOM      1  C   UNL     1     128.861 123.564 128.009  1.00  0.00     0.048 A 
ATOM      2  C   UNL     1     129.354 123.507 126.692  1.00  0.00     0.030 A 
ATOM      3  C   UNL     1     130.088 124.596 126.224  1.00  0.00     0.046 A 
ATOM      4  C   UNL     1     130.329 125.692 127.009  1.00  0.00     0.003 A 
ATOM      5  C   UNL     1     131.073 126.578 126.262  1.00  0.00     0.028 A 
ATOM      6  C   UNL     1     131.248 125.956 125.029  1.00  0.00     0.083 A 
ATOM      7  N   UNL     1     130.645 124.746 125.012  1.00  0.00    -0.361 N 
ATOM      8  C   UNL     1     129.856 125.780 128.317  1.00  0.00     0.056 A 
ATOM      9  C   UNL     1     129.109 124.695 128.821  1.00  0.00     0.116 A 
ATOM     10  H   UNL     1     130.619 124.069 124.216  1.00  0.00     0.166 HD
ENDROOT
BRANCH   9  11
ATOM     11  O   UNL     1     128.610 124.726 130.122  1.00  0.00    -0.508 OA
ATOM     12  H   UNL     1     128.250 123.892 130.571  1.00  0.00     0.293 HD
ENDBRANCH   9  11
TORSDOF 1
ENDMDL
MODEL 6
REMARK VINA RESULT:    -5.802      3.320      4.392
REMARK INTER + INTRA:          -5.972
REMARK INTER:                  -5.972
REMARK INTRA:                   0.000
REMARK UNBOUND:                 0.000
REMARK SMILES Oc1ccc2[nH]ccc2c1
REMARK SMILES IDX 3 1 4 2 5 3 9 4 8 5 7 6 6 7 10 8 2 9 1 11
REMARK H PARENT 6 10 1 12
REMARK Flexibility Score: inf
ROOT
ATOM      1  C   UNL     1     131.685 126.442 125.159  1.00  0.00     0.048 A 
ATOM      2  C   UNL     1     130.878 125.299 125.006  1.00  0.00     0.030 A 
ATOM      3  C   UNL     1     130.106 124.897 126.094  1.00  0.00     0.046 A 
ATOM      4  C   UNL     1     130.121 125.581 127.280  1.00  0.00     0.003 A 
ATOM      5  C   UNL     1     129.260 124.935 128.139  1.00  0.00     0.028 A 
ATOM      6  C   UNL     1     128.754 123.864 127.410  1.00  0.00     0.083 A 
ATOM      7  N   UNL     1     129.273 123.845 126.161  1.00  0.00    -0.361 N 
ATOM      8  C   UNL     1     130.908 126.716 127.465  1.00  0.00     0.056 A 
ATOM      9  C   UNL     1     131.702 127.150 126.383  1.00  0.00     0.116 A 
ATOM     10  H   UNL     1     129.068 123.153 125.406  1.00  0.00     0.166 HD
ENDROOT
BRANCH   9  11
ATOM     11  O   UNL     1     132.510 128.279 126.510  1.00  0.00    -0.508 OA
ATOM     12  H   UNL     1     132.123 129.214 126.464  1.00  0.00     0.293 HD
ENDBRANCH   9  11
TORSDOF 1
ENDMDL
MODEL 7
REMARK VINA RESULT:    -5.763      2.170      3.728
REMARK INTER + INTRA:          -5.932
REMARK INTER:                  -5.932
REMARK INTRA:                   0.000
REMARK UNBOUND:                 0.000
REMARK SMILES Oc1ccc2[nH]ccc2c1
REMARK SMILES IDX 3 1 4 2 5 3 9 4 8 5 7 6 6 7 10 8 2 9 1 11
REMARK H PARENT 6 10 1 12
REMARK Flexibility Score: inf
ROOT
ATOM      1  C   UNL     1     128.833 124.568 128.794  1.00  0.00     0.048 A 
ATOM      2  C   UNL     1     129.758 125.619 128.642  1.00  0.00     0.030 A 
ATOM      3  C   UNL     1     130.425 125.728 127.424  1.00  0.00     0.046 A 
ATOM      4  C   UNL     1     130.199 124.849 126.398  1.00  0.00     0.003 A 
ATOM      5  C   UNL     1     131.004 125.228 125.346  1.00  0.00     0.028 A 
ATOM      6  C   UNL     1     131.695 126.346 125.802  1.00  0.00     0.083 A 
ATOM      7  N   UNL     1     131.338 126.648 127.071  1.00  0.00    -0.361 N 
ATOM      8  C   UNL     1     129.290 123.799 126.514  1.00  0.00     0.056 A 
ATOM      9  C   UNL     1     128.598 123.660 127.736  1.00  0.00     0.116 A 
ATOM     10  H   UNL     1     131.700 127.435 127.655  1.00  0.00     0.166 HD
ENDROOT
BRANCH   9  11
ATOM     11  O   UNL     1     127.678 122.628 127.911  1.00  0.00    -0.508 OA
ATOM     12  H   UNL     1     127.794 121.732 127.452  1.00  0.00     0.293 HD
ENDBRANCH   9  11
TORSDOF 1
ENDMDL
MODEL 8
REMARK VINA RESULT:    -5.761      2.212      3.474
REMARK INTER + INTRA:          -5.929
REMARK INTER:                  -5.929
REMARK INTRA:                   0.000
REMARK UNBOUND:                 0.000
REMARK SMILES Oc1ccc2[nH]ccc2c1
REMARK SMILES IDX 3 1 4 2 5 3 9 4 8 5 7 6 6 7 10 8 2 9 1 11
REMARK H PARENT 6 10 1 12
REMARK Flexibility Score: inf
ROOT
ATOM      1  C   UNL     1     128.936 124.231 130.899  1.00  0.00     0.048 A 
ATOM      2  C   UNL     1     129.265 125.140 129.876  1.00  0.00     0.030 A 
ATOM      3  C   UNL     1     129.124 124.715 128.557  1.00  0.00     0.046 A 
ATOM      4  C   UNL     1     128.679 123.457 128.250  1.00  0.00     0.003 A 
ATOM      5  C   UNL     1     128.651 123.354 126.876  1.00  0.00     0.028 A 
ATOM      6  C   UNL     1     129.092 124.589 126.410  1.00  0.00     0.083 A 
ATOM      7  N   UNL     1     129.380 125.417 127.441  1.00  0.00    -0.361 N 
ATOM      8  C   UNL     1     128.343 122.533 129.237  1.00  0.00     0.056 A 
ATOM      9  C   UNL     1     128.476 122.931 130.584  1.00  0.00     0.116 A 
ATOM     10  H   UNL     1     129.730 126.399 127.377  1.00  0.00     0.166 HD
ENDROOT
BRANCH   9  11
ATOM     11  O   UNL     1     128.155 122.050 131.614  1.00  0.00    -0.508 OA
ATOM     12  H   UNL     1     128.370 121.061 131.551  1.00  0.00     0.293 HD
ENDBRANCH   9  11
TORSDOF 1
ENDMDL
MODEL 9
REMARK VINA RESULT:    -5.713      2.631      3.554
REMARK INTER + INTRA:          -5.880
REMARK INTER:                  -5.880
REMARK INTRA:                   0.000
REMARK UNBOUND:                 0.000
REMARK SMILES Oc1ccc2[nH]ccc2c1
REMARK SMILES IDX 3 1 4 2 5 3 9 4 8 5 7 6 6 7 10 8 2 9 1 11
REMARK H PARENT 6 10 1 12
REMARK Flexibility Score: inf
ROOT
ATOM      1  C   UNL     1     131.334 127.393 126.290  1.00  0.00     0.048 A 
ATOM      2  C   UNL     1     130.668 127.215 127.517  1.00  0.00     0.030 A 
ATOM      3  C   UNL     1     130.036 125.994 127.745  1.00  0.00     0.046 A 
ATOM      4  C   UNL     1     130.055 124.991 126.814  1.00  0.00     0.003 A 
ATOM      5  C   UNL     1     129.350 123.929 127.338  1.00  0.00     0.028 A 
ATOM      6  C   UNL     1     128.929 124.357 128.593  1.00  0.00     0.083 A 
ATOM      7  N   UNL     1     129.351 125.620 128.837  1.00  0.00    -0.361 N 
ATOM      8  C   UNL     1     130.705 125.132 125.590  1.00  0.00     0.056 A 
ATOM      9  C   UNL     1     131.354 126.357 125.327  1.00  0.00     0.116 A 
ATOM     10  H   UNL     1     129.178 126.184 129.699  1.00  0.00     0.166 HD
ENDROOT
BRANCH   9  11
ATOM     11  O   UNL     1     132.020 126.558 124.120  1.00  0.00    -0.508 OA
ATOM     12  H   UNL     1     131.563 126.399 123.230  1.00  0.00     0.293 HD
ENDBRANCH   9  11
TORSDOF 1
ENDMDL
