MODEL 1
REMARK VINA RESULT:    -3.617      0.000      0.000
REMARK INTER + INTRA:          -5.162
REMARK INTER:                  -5.098
REMARK INTRA:                  -0.064
REMARK UNBOUND:                -0.064
REMARK SMILES CC1=CCC(=C(C)C)C(=O)CC(C)=CCC1
REMARK SMILES IDX 12 1 14 2 13 3 15 4 16 5 2 6 1 7 3 8 11 10 9 11 10 12 5 13
REMARK SMILES IDX 6 14 7 15 8 16 4 17
REMARK H PARENT
REMARK Flexibility Score: 60.00
ROOT
ATOM      1  C   UNL     1     -13.313  -2.115   5.318  1.00  0.00    -0.070 C 
ATOM      2  C   UNL     1     -13.908  -1.179   4.525  1.00  0.00    -0.027 C 
ATOM      3  C   UNL     1     -12.007  -1.719   5.969  1.00  0.00     0.039 C 
ENDROOT
BRANCH   2   4
ATOM      4  C   UNL     1     -15.174  -1.232   3.677  1.00  0.00     0.032 C 
BRANCH   4   5
ATOM      5  C   UNL     1     -16.507  -1.415   4.413  1.00  0.00     0.034 C 
BRANCH   5   6
ATOM      6  C   UNL     1     -17.247  -2.751   4.258  1.00  0.00    -0.077 C 
ATOM      7  C   UNL     1     -17.812  -3.023   2.880  1.00  0.00     0.039 C 
ATOM      8  C   UNL     1     -17.537  -3.690   5.207  1.00  0.00    -0.023 CG0
ATOM      9  G   UNL     1     -17.204  -3.741   6.686  1.00  0.00     0.000 G0
ENDBRANCH   5   6
ENDBRANCH   4   5
ENDBRANCH   2   4
BRANCH   1  10
ATOM     10  C   UNL     1     -13.828  -3.513   5.624  1.00  0.00     0.111 C 
BRANCH  10  11
ATOM     11  C   UNL     1     -14.673  -3.538   6.861  1.00  0.00     0.163 C 
ATOM     12  O   UNL     1     -14.334  -2.831   7.848  1.00  0.00    -0.294 OA
BRANCH  11  13
ATOM     13  C   UNL     1     -15.869  -4.416   6.946  1.00  0.00    -0.002 C 
ATOM     14  C   UNL     1     -15.759  -5.746   7.229  1.00  0.00    -0.069 C 
ATOM     15  C   UNL     1     -16.961  -6.663   7.211  1.00  0.00     0.039 C 
ATOM     16  C   UNL     1     -14.425  -6.359   7.591  1.00  0.00     0.039 C 
BRANCH  13  17
ATOM     17  C   UNL     1     -17.203  -3.749   6.683  1.00  0.00     0.066 CG0
ATOM     18  G   UNL     1     -17.520  -3.678   5.201  1.00  0.00     0.000 G0
ENDBRANCH  13  17
ENDBRANCH  11  13
ENDBRANCH  10  11
ENDBRANCH   1  10
TORSDOF 0
ENDMDL
MODEL 2
REMARK VINA RESULT:    -3.610     15.903     18.777
REMARK INTER + INTRA:          -5.151
REMARK INTER:                  -5.338
REMARK INTRA:                   0.186
REMARK UNBOUND:                -0.064
REMARK SMILES CC1=CCC(=C(C)C)C(=O)CC(C)=CCC1
REMARK SMILES IDX 12 1 14 2 13 3 15 4 16 5 2 6 1 7 3 8 11 10 9 11 10 12 5 13
REMARK SMILES IDX 6 14 7 15 8 16 4 17
REMARK H PARENT
REMARK Flexibility Score: 60.00
ROOT
ATOM      1  C   UNL     1      -2.617   8.779  14.301  1.00  0.00    -0.070 C 
ATOM      2  C   UNL     1      -1.284   8.728  14.579  1.00  0.00    -0.027 C 
ATOM      3  C   UNL     1      -3.362  10.004  14.780  1.00  0.00     0.039 C 
ENDROOT
BRANCH   2   4
ATOM      4  C   UNL     1      -0.237   7.652  14.311  1.00  0.00     0.032 C 
BRANCH   4   5
ATOM      5  C   UNL     1      -0.324   6.364  15.137  1.00  0.00     0.034 C 
BRANCH   5   6
ATOM      6  C   UNL     1      -0.749   5.071  14.428  1.00  0.00    -0.077 C 
ATOM      7  C   UNL     1      -0.722   3.822  15.284  1.00  0.00     0.039 C 
ATOM      8  C   UNL     1      -1.068   4.875  13.114  1.00  0.00    -0.023 CG0
ATOM      9  G   UNL     1      -1.142   5.850  11.955  1.00  0.00     0.000 G0
ENDBRANCH   5   6
ENDBRANCH   4   5
ENDBRANCH   2   4
BRANCH   1  10
ATOM     10  C   UNL     1      -3.434   7.736  13.554  1.00  0.00     0.111 C 
BRANCH  10  11
ATOM     11  C   UNL     1      -2.984   7.588  12.132  1.00  0.00     0.163 C 
ATOM     12  O   UNL     1      -2.999   8.597  11.378  1.00  0.00    -0.294 OA
BRANCH  11  13
ATOM     13  C   UNL     1      -2.566   6.264  11.602  1.00  0.00    -0.002 C 
ATOM     14  C   UNL     1      -3.424   5.481  10.885  1.00  0.00    -0.069 C 
ATOM     15  C   UNL     1      -3.039   4.089  10.436  1.00  0.00     0.039 C 
ATOM     16  C   UNL     1      -4.796   5.980  10.494  1.00  0.00     0.039 C 
BRANCH  13  17
ATOM     17  C   UNL     1      -1.149   5.837  11.921  1.00  0.00     0.066 CG0
ATOM     18  G   UNL     1      -1.094   4.889  13.105  1.00  0.00     0.000 G0
ENDBRANCH  13  17
ENDBRANCH  11  13
ENDBRANCH  10  11
ENDBRANCH   1  10
TORSDOF 0
ENDMDL
MODEL 3
REMARK VINA RESULT:    -3.501      1.940      4.697
REMARK INTER + INTRA:          -4.998
REMARK INTER:                  -5.220
REMARK INTRA:                   0.222
REMARK UNBOUND:                -0.064
REMARK SMILES CC1=CCC(=C(C)C)C(=O)CC(C)=CCC1
REMARK SMILES IDX 12 1 14 2 13 3 15 4 16 5 2 6 1 7 3 8 11 10 9 11 10 12 5 13
REMARK SMILES IDX 6 14 7 15 8 16 4 17
REMARK H PARENT
REMARK Flexibility Score: 60.00
ROOT
ATOM      1  C   UNL     1     -14.390  -6.678   7.187  1.00  0.00    -0.070 C 
ATOM      2  C   UNL     1     -14.909  -7.937   7.132  1.00  0.00    -0.027 C 
ATOM      3  C   UNL     1     -13.494  -6.264   6.042  1.00  0.00     0.039 C 
ENDROOT
BRANCH   2   4
ATOM      4  C   UNL     1     -15.788  -8.710   8.109  1.00  0.00     0.032 C 
BRANCH   4   5
ATOM      5  C   UNL     1     -17.085  -8.037   8.573  1.00  0.00     0.034 C 
BRANCH   5   6
ATOM      6  C   UNL     1     -17.961  -7.342   7.521  1.00  0.00    -0.077 C 
ATOM      7  C   UNL     1     -18.675  -8.266   6.558  1.00  0.00     0.039 C 
ATOM      8  C   UNL     1     -18.122  -6.007   7.282  1.00  0.00    -0.023 CG0
ATOM      9  G   UNL     1     -17.531  -4.796   7.978  1.00  0.00     0.000 G0
ENDBRANCH   5   6
ENDBRANCH   4   5
ENDBRANCH   2   4
BRANCH   1  10
ATOM     10  C   UNL     1     -14.624  -5.641   8.275  1.00  0.00     0.111 C 
BRANCH  10  11
ATOM     11  C   UNL     1     -15.047  -4.321   7.707  1.00  0.00     0.163 C 
ATOM     12  O   UNL     1     -14.227  -3.364   7.707  1.00  0.00    -0.294 OA
BRANCH  11  13
ATOM     13  C   UNL     1     -16.426  -4.124   7.190  1.00  0.00    -0.002 C 
ATOM     14  C   UNL     1     -16.669  -3.376   6.074  1.00  0.00    -0.069 C 
ATOM     15  C   UNL     1     -18.077  -3.084   5.606  1.00  0.00     0.039 C 
ATOM     16  C   UNL     1     -15.534  -2.819   5.245  1.00  0.00     0.039 C 
BRANCH  13  17
ATOM     17  C   UNL     1     -17.535  -4.783   7.984  1.00  0.00     0.066 CG0
ATOM     18  G   UNL     1     -18.094  -6.002   7.275  1.00  0.00     0.000 G0
ENDBRANCH  13  17
ENDBRANCH  11  13
ENDBRANCH  10  11
ENDBRANCH   1  10
TORSDOF 0
ENDMDL
MODEL 4
REMARK VINA RESULT:    -3.497      1.953      4.069
REMARK INTER + INTRA:          -4.992
REMARK INTER:                  -5.361
REMARK INTRA:                   0.369
REMARK UNBOUND:                -0.064
REMARK SMILES CC1=CCC(=C(C)C)C(=O)CC(C)=CCC1
REMARK SMILES IDX 12 1 14 2 13 3 15 4 16 5 2 6 1 7 3 8 11 10 9 11 10 12 5 13
REMARK SMILES IDX 6 14 7 15 8 16 4 17
REMARK H PARENT
REMARK Flexibility Score: 60.00
ROOT
ATOM      1  C   UNL     1     -14.723  -7.235   6.141  1.00  0.00    -0.070 C 
ATOM      2  C   UNL     1     -13.771  -6.669   5.346  1.00  0.00    -0.027 C 
ATOM      3  C   UNL     1     -15.637  -8.246   5.487  1.00  0.00     0.039 C 
ENDROOT
BRANCH   2   4
ATOM      4  C   UNL     1     -12.729  -5.593   5.630  1.00  0.00     0.032 C 
BRANCH   4   5
ATOM      5  C   UNL     1     -12.938  -4.221   4.979  1.00  0.00     0.034 C 
BRANCH   5   6
ATOM      6  C   UNL     1     -13.557  -3.100   5.825  1.00  0.00    -0.077 C 
ATOM      7  C   UNL     1     -12.598  -2.013   6.262  1.00  0.00     0.039 C 
ATOM      8  C   UNL     1     -14.830  -2.989   6.307  1.00  0.00    -0.023 CG0
ATOM      9  G   UNL     1     -16.036  -3.894   6.143  1.00  0.00     0.000 G0
ENDBRANCH   5   6
ENDBRANCH   4   5
ENDBRANCH   2   4
BRANCH   1  10
ATOM     10  C   UNL     1     -14.958  -6.963   7.619  1.00  0.00     0.111 C 
BRANCH  10  11
ATOM     11  C   UNL     1     -15.127  -5.501   7.897  1.00  0.00     0.163 C 
ATOM     12  O   UNL     1     -14.276  -4.913   8.618  1.00  0.00    -0.294 OA
BRANCH  11  13
ATOM     13  C   UNL     1     -16.301  -4.758   7.370  1.00  0.00    -0.002 C 
ATOM     14  C   UNL     1     -17.531  -4.862   7.953  1.00  0.00    -0.069 C 
ATOM     15  C   UNL     1     -18.750  -4.194   7.358  1.00  0.00     0.039 C 
ATOM     16  C   UNL     1     -17.723  -5.639   9.235  1.00  0.00     0.039 C 
BRANCH  13  17
ATOM     17  C   UNL     1     -16.052  -3.903   6.145  1.00  0.00     0.066 CG0
ATOM     18  G   UNL     1     -14.847  -2.999   6.318  1.00  0.00     0.000 G0
ENDBRANCH  13  17
ENDBRANCH  11  13
ENDBRANCH  10  11
ENDBRANCH   1  10
TORSDOF 0
ENDMDL
MODEL 5
REMARK VINA RESULT:    -3.490      2.537      4.950
REMARK INTER + INTRA:          -4.982
REMARK INTER:                  -5.270
REMARK INTRA:                   0.287
REMARK UNBOUND:                -0.064
REMARK SMILES CC1=CCC(=C(C)C)C(=O)CC(C)=CCC1
REMARK SMILES IDX 12 1 14 2 13 3 15 4 16 5 2 6 1 7 3 8 11 10 9 11 10 12 5 13
REMARK SMILES IDX 6 14 7 15 8 16 4 17
REMARK H PARENT
REMARK Flexibility Score: 60.00
ROOT
ATOM      1  C   UNL     1     -17.449  -4.523   7.350  1.00  0.00    -0.070 C 
ATOM      2  C   UNL     1     -18.529  -5.342   7.212  1.00  0.00    -0.027 C 
ATOM      3  C   UNL     1     -17.196  -3.541   6.229  1.00  0.00     0.039 C 
ENDROOT
BRANCH   2   4
ATOM      4  C   UNL     1     -19.058  -6.472   8.090  1.00  0.00     0.032 C 
BRANCH   4   5
ATOM      5  C   UNL     1     -18.148  -7.688   8.296  1.00  0.00     0.034 C 
BRANCH   5   6
ATOM      6  C   UNL     1     -17.209  -8.097   7.154  1.00  0.00    -0.077 C 
ATOM      7  C   UNL     1     -17.828  -8.975   6.087  1.00  0.00     0.039 C 
ATOM      8  C   UNL     1     -15.874  -7.848   7.006  1.00  0.00    -0.023 CG0
ATOM      9  G   UNL     1     -14.906  -7.076   7.882  1.00  0.00     0.000 G0
ENDBRANCH   5   6
ENDBRANCH   4   5
ENDBRANCH   2   4
BRANCH   1  10
ATOM     10  C   UNL     1     -16.474  -4.486   8.517  1.00  0.00     0.111 C 
BRANCH  10  11
ATOM     11  C   UNL     1     -15.050  -4.553   8.057  1.00  0.00     0.163 C 
ATOM     12  O   UNL     1     -14.281  -3.586   8.305  1.00  0.00    -0.294 OA
BRANCH  11  13
ATOM     13  C   UNL     1     -14.557  -5.721   7.282  1.00  0.00    -0.002 C 
ATOM     14  C   UNL     1     -13.872  -5.563   6.112  1.00  0.00    -0.069 C 
ATOM     15  C   UNL     1     -13.462  -6.747   5.266  1.00  0.00     0.039 C 
ATOM     16  C   UNL     1     -13.477  -4.189   5.619  1.00  0.00     0.039 C 
BRANCH  13  17
ATOM     17  C   UNL     1     -14.876  -7.085   7.858  1.00  0.00     0.066 CG0
ATOM     18  G   UNL     1     -15.872  -7.844   7.002  1.00  0.00     0.000 G0
ENDBRANCH  13  17
ENDBRANCH  11  13
ENDBRANCH  10  11
ENDBRANCH   1  10
TORSDOF 0
ENDMDL
MODEL 6
REMARK VINA RESULT:    -3.432     16.108     18.902
REMARK INTER + INTRA:          -4.901
REMARK INTER:                  -5.065
REMARK INTRA:                   0.164
REMARK UNBOUND:                -0.064
REMARK SMILES CC1=CCC(=C(C)C)C(=O)CC(C)=CCC1
REMARK SMILES IDX 12 1 14 2 13 3 15 4 16 5 2 6 1 7 3 8 11 10 9 11 10 12 5 13
REMARK SMILES IDX 6 14 7 15 8 16 4 17
REMARK H PARENT
REMARK Flexibility Score: 60.00
ROOT
ATOM      1  C   UNL     1      -0.653   5.455  14.922  1.00  0.00    -0.070 C 
ATOM      2  C   UNL     1      -0.000   6.641  15.076  1.00  0.00    -0.027 C 
ATOM      3  C   UNL     1      -0.202   4.314  15.805  1.00  0.00     0.039 C 
ENDROOT
BRANCH   2   4
ATOM      4  C   UNL     1      -0.136   7.971  14.342  1.00  0.00     0.032 C 
BRANCH   4   5
ATOM      5  C   UNL     1      -1.201   8.950  14.849  1.00  0.00     0.034 C 
BRANCH   5   6
ATOM      6  C   UNL     1      -2.660   8.716  14.435  1.00  0.00    -0.077 C 
ATOM      7  C   UNL     1      -3.687   8.942  15.525  1.00  0.00     0.039 C 
ATOM      8  C   UNL     1      -3.155   8.255  13.248  1.00  0.00    -0.023 CG0
ATOM      9  G   UNL     1      -2.450   7.863  11.964  1.00  0.00     0.000 G0
ENDBRANCH   5   6
ENDBRANCH   4   5
ENDBRANCH   2   4
BRANCH   1  10
ATOM     10  C   UNL     1      -1.794   5.159  13.960  1.00  0.00     0.111 C 
BRANCH  10  11
ATOM     11  C   UNL     1      -1.466   5.579  12.560  1.00  0.00     0.163 C 
ATOM     12  O   UNL     1      -0.330   5.301  12.088  1.00  0.00    -0.294 OA
BRANCH  11  13
ATOM     13  C   UNL     1      -2.444   6.349  11.749  1.00  0.00    -0.002 C 
ATOM     14  C   UNL     1      -3.271   5.733  10.854  1.00  0.00    -0.069 C 
ATOM     15  C   UNL     1      -4.191   6.523   9.952  1.00  0.00     0.039 C 
ATOM     16  C   UNL     1      -3.313   4.226  10.740  1.00  0.00     0.039 C 
BRANCH  13  17
ATOM     17  C   UNL     1      -2.451   7.848  11.964  1.00  0.00     0.066 CG0
ATOM     18  G   UNL     1      -3.147   8.234  13.255  1.00  0.00     0.000 G0
ENDBRANCH  13  17
ENDBRANCH  11  13
ENDBRANCH  10  11
ENDBRANCH   1  10
TORSDOF 0
ENDMDL
MODEL 7
REMARK VINA RESULT:    -3.390      2.389      3.764
REMARK INTER + INTRA:          -4.842
REMARK INTER:                  -4.948
REMARK INTRA:                   0.106
REMARK UNBOUND:                -0.064
REMARK SMILES CC1=CCC(=C(C)C)C(=O)CC(C)=CCC1
REMARK SMILES IDX 12 1 14 2 13 3 15 4 16 5 2 6 1 7 3 8 11 10 9 11 10 12 5 13
REMARK SMILES IDX 6 14 7 15 8 16 4 17
REMARK H PARENT
REMARK Flexibility Score: 60.00
ROOT
ATOM      1  C   UNL     1     -12.855  -2.828   5.418  1.00  0.00    -0.070 C 
ATOM      2  C   UNL     1     -11.844  -3.470   4.768  1.00  0.00    -0.027 C 
ATOM      3  C   UNL     1     -12.525  -1.483   6.023  1.00  0.00     0.039 C 
ENDROOT
BRANCH   2   4
ATOM      4  C   UNL     1     -11.784  -4.837   4.095  1.00  0.00     0.032 C 
BRANCH   4   5
ATOM      5  C   UNL     1     -11.783  -6.071   5.005  1.00  0.00     0.034 C 
BRANCH   5   6
ATOM      6  C   UNL     1     -13.061  -6.915   5.090  1.00  0.00    -0.077 C 
ATOM      7  C   UNL     1     -13.355  -7.772   3.877  1.00  0.00     0.039 C 
ATOM      8  C   UNL     1     -14.013  -6.940   6.070  1.00  0.00    -0.023 CG0
ATOM      9  G   UNL     1     -14.104  -6.187   7.384  1.00  0.00     0.000 G0
ENDBRANCH   5   6
ENDBRANCH   4   5
ENDBRANCH   2   4
BRANCH   1  10
ATOM     10  C   UNL     1     -14.284  -3.319   5.594  1.00  0.00     0.111 C 
BRANCH  10  11
ATOM     11  C   UNL     1     -14.571  -3.706   7.013  1.00  0.00     0.163 C 
ATOM     12  O   UNL     1     -14.315  -2.886   7.934  1.00  0.00    -0.294 OA
BRANCH  11  13
ATOM     13  C   UNL     1     -15.108  -5.053   7.339  1.00  0.00    -0.002 C 
ATOM     14  C   UNL     1     -16.435  -5.248   7.595  1.00  0.00    -0.069 C 
ATOM     15  C   UNL     1     -16.968  -6.594   8.031  1.00  0.00     0.039 C 
ATOM     16  C   UNL     1     -17.434  -4.126   7.437  1.00  0.00     0.039 C 
BRANCH  13  17
ATOM     17  C   UNL     1     -14.097  -6.179   7.386  1.00  0.00     0.066 CG0
ATOM     18  G   UNL     1     -14.017  -6.927   6.069  1.00  0.00     0.000 G0
ENDBRANCH  13  17
ENDBRANCH  11  13
ENDBRANCH  10  11
ENDBRANCH   1  10
TORSDOF 0
ENDMDL
MODEL 8
REMARK VINA RESULT:    -3.339     17.150     19.291
REMARK INTER + INTRA:          -4.769
REMARK INTER:                  -4.737
REMARK INTRA:                  -0.032
REMARK UNBOUND:                -0.064
REMARK SMILES CC1=CCC(=C(C)C)C(=O)CC(C)=CCC1
REMARK SMILES IDX 12 1 14 2 13 3 15 4 16 5 2 6 1 7 3 8 11 10 9 11 10 12 5 13
REMARK SMILES IDX 6 14 7 15 8 16 4 17
REMARK H PARENT
REMARK Flexibility Score: 60.00
ROOT
ATOM      1  C   UNL     1      -2.670   5.377  11.983  1.00  0.00    -0.070 C 
ATOM      2  C   UNL     1      -3.723   6.125  11.548  1.00  0.00    -0.027 C 
ATOM      3  C   UNL     1      -2.060   4.422  10.982  1.00  0.00     0.039 C 
ENDROOT
BRANCH   2   4
ATOM      4  C   UNL     1      -4.611   7.133  12.271  1.00  0.00     0.032 C 
BRANCH   4   5
ATOM      5  C   UNL     1      -3.983   8.478  12.652  1.00  0.00     0.034 C 
BRANCH   5   6
ATOM      6  C   UNL     1      -3.913   8.854  14.139  1.00  0.00    -0.077 C 
ATOM      7  C   UNL     1      -5.234   9.234  14.775  1.00  0.00     0.039 C 
ATOM      8  C   UNL     1      -2.818   8.973  14.946  1.00  0.00    -0.023 CG0
ATOM      9  G   UNL     1      -1.345   8.746  14.660  1.00  0.00     0.000 G0
ENDBRANCH   5   6
ENDBRANCH   4   5
ENDBRANCH   2   4
BRANCH   1  10
ATOM     10  C   UNL     1      -2.038   5.407  13.366  1.00  0.00     0.111 C 
BRANCH  10  11
ATOM     11  C   UNL     1      -1.030   6.507  13.496  1.00  0.00     0.163 C 
ATOM     12  O   UNL     1      -0.243   6.732  12.537  1.00  0.00    -0.294 OA
BRANCH  11  13
ATOM     13  C   UNL     1      -0.924   7.296  14.751  1.00  0.00    -0.002 C 
ATOM     14  C   UNL     1      -0.500   6.728  15.917  1.00  0.00    -0.069 C 
ATOM     15  C   UNL     1      -0.493   7.498  17.218  1.00  0.00     0.039 C 
ATOM     16  C   UNL     1      -0.000   5.301  15.953  1.00  0.00     0.039 C 
BRANCH  13  17
ATOM     17  C   UNL     1      -1.332   8.752  14.657  1.00  0.00     0.066 CG0
ATOM     18  G   UNL     1      -2.808   8.948  14.947  1.00  0.00     0.000 G0
ENDBRANCH  13  17
ENDBRANCH  11  13
ENDBRANCH  10  11
ENDBRANCH   1  10
TORSDOF 0
ENDMDL
MODEL 9
REMARK VINA RESULT:    -3.223      2.946      5.630
REMARK INTER + INTRA:          -4.607
REMARK INTER:                  -4.638
REMARK INTRA:                   0.032
REMARK UNBOUND:                -0.064
REMARK SMILES CC1=CCC(=C(C)C)C(=O)CC(C)=CCC1
REMARK SMILES IDX 12 1 14 2 13 3 15 4 16 5 2 6 1 7 3 8 11 10 9 11 10 12 5 13
REMARK SMILES IDX 6 14 7 15 8 16 4 17
REMARK H PARENT
REMARK Flexibility Score: 60.00
ROOT
ATOM      1  C   UNL     1     -14.829  -4.674   6.675  1.00  0.00    -0.070 C 
ATOM      2  C   UNL     1     -14.225  -5.887   6.528  1.00  0.00    -0.027 C 
ATOM      3  C   UNL     1     -15.629  -4.465   7.941  1.00  0.00     0.039 C 
ENDROOT
BRANCH   2   4
ATOM      4  C   UNL     1     -13.400  -6.472   5.387  1.00  0.00     0.032 C 
BRANCH   4   5
ATOM      5  C   UNL     1     -11.957  -5.976   5.235  1.00  0.00     0.034 C 
BRANCH   5   6
ATOM      6  C   UNL     1     -11.565  -5.264   3.933  1.00  0.00    -0.077 C 
ATOM      7  C   UNL     1     -11.340  -6.169   2.740  1.00  0.00     0.039 C 
ATOM      8  C   UNL     1     -11.311  -3.939   3.720  1.00  0.00    -0.023 CG0
ATOM      9  G   UNL     1     -11.364  -2.754   4.665  1.00  0.00     0.000 G0
ENDBRANCH   5   6
ENDBRANCH   4   5
ENDBRANCH   2   4
BRANCH   1  10
ATOM     10  C   UNL     1     -14.779  -3.505   5.703  1.00  0.00     0.111 C 
BRANCH  10  11
ATOM     11  C   UNL     1     -13.577  -2.640   5.932  1.00  0.00     0.163 C 
ATOM     12  O   UNL     1     -13.292  -2.288   7.109  1.00  0.00    -0.294 OA
BRANCH  11  13
ATOM     13  C   UNL     1     -12.755  -2.164   4.790  1.00  0.00    -0.002 C 
ATOM     14  C   UNL     1     -13.239  -1.257   3.892  1.00  0.00    -0.069 C 
ATOM     15  C   UNL     1     -12.447  -0.851   2.669  1.00  0.00     0.039 C 
ATOM     16  C   UNL     1     -14.588  -0.604   4.092  1.00  0.00     0.039 C 
BRANCH  13  17
ATOM     17  C   UNL     1     -11.367  -2.759   4.676  1.00  0.00     0.066 CG0
ATOM     18  G   UNL     1     -11.328  -3.932   3.715  1.00  0.00     0.000 G0
ENDBRANCH  13  17
ENDBRANCH  11  13
ENDBRANCH  10  11
ENDBRANCH   1  10
TORSDOF 0
ENDMDL
