MODEL 1
REMARK VINA RESULT:    -7.719      0.000      0.000
REMARK INTER + INTRA:          -9.142
REMARK INTER:                  -8.847
REMARK INTRA:                  -0.295
REMARK UNBOUND:                -0.295
REMARK SMILES O=C1C[C@H](c2ccc(O)cc2)Oc2cc(O)cc(O)c21
REMARK SMILES IDX 3 1 4 2 12 3 13 4 14 5 15 6 17 7 18 8 20 9 2 10 1 11 5 12
REMARK SMILES IDX 6 13 11 14 7 15 10 16 8 17 9 18 19 20 16 22
REMARK H PARENT 9 19 19 21 16 23
REMARK Flexibility Score: inf
ROOT
ATOM      1  C   UNL     1      47.557  65.921   3.155  1.00  0.00     0.131 C 
ATOM      2  C   UNL     1      46.099  65.537   3.446  1.00  0.00     0.211 C 
ATOM      3  O   UNL     1      46.041  64.450   4.375  1.00  0.00    -0.484 OA
ATOM      4  C   UNL     1      46.939  63.375   4.337  1.00  0.00     0.138 A 
ATOM      5  C   UNL     1      46.655  62.230   5.086  1.00  0.00     0.093 A 
ATOM      6  C   UNL     1      47.521  61.137   5.058  1.00  0.00     0.123 A 
ATOM      7  C   UNL     1      48.696  61.200   4.299  1.00  0.00     0.093 A 
ATOM      8  C   UNL     1      49.020  62.354   3.575  1.00  0.00     0.133 A 
ATOM      9  C   UNL     1      48.117  63.448   3.562  1.00  0.00     0.102 A 
ATOM     10  C   UNL     1      48.323  64.689   2.775  1.00  0.00     0.174 C 
ATOM     11  O   UNL     1      49.080  64.719   1.769  1.00  0.00    -0.294 OA
ENDROOT
BRANCH   2  12
ATOM     12  C   UNL     1      45.332  66.720   3.985  1.00  0.00    -0.007 A 
ATOM     13  C   UNL     1      45.997  67.927   4.262  1.00  0.00     0.011 A 
ATOM     14  C   UNL     1      43.960  66.612   4.270  1.00  0.00     0.011 A 
ATOM     15  C   UNL     1      45.295  69.015   4.790  1.00  0.00     0.046 A 
ATOM     16  C   UNL     1      43.261  67.702   4.799  1.00  0.00     0.046 A 
ATOM     17  C   UNL     1      43.924  68.905   5.058  1.00  0.00     0.115 A 
BRANCH  17  18
ATOM     18  O   UNL     1      43.214  69.982   5.585  1.00  0.00    -0.508 OA
ATOM     19  H   UNL     1      42.459  70.420   5.070  1.00  0.00     0.293 HD
ENDBRANCH  17  18
ENDBRANCH   2  12
BRANCH   8  20
ATOM     20  O   UNL     1      50.254  62.374   2.919  1.00  0.00    -0.507 OA
ATOM     21  H   UNL     1      51.138  62.516   3.384  1.00  0.00     0.293 HD
ENDBRANCH   8  20
BRANCH   6  22
ATOM     22  O   UNL     1      47.211  59.996   5.793  1.00  0.00    -0.508 OA
ATOM     23  H   UNL     1      47.424  59.068   5.446  1.00  0.00     0.293 HD
ENDBRANCH   6  22
TORSDOF 4
ENDMDL
MODEL 2
REMARK VINA RESULT:    -7.369      7.507      9.658
REMARK INTER + INTRA:          -8.742
REMARK INTER:                  -8.444
REMARK INTRA:                  -0.298
REMARK UNBOUND:                -0.295
REMARK SMILES O=C1C[C@H](c2ccc(O)cc2)Oc2cc(O)cc(O)c21
REMARK SMILES IDX 3 1 4 2 12 3 13 4 14 5 15 6 17 7 18 8 20 9 2 10 1 11 5 12
REMARK SMILES IDX 6 13 11 14 7 15 10 16 8 17 9 18 19 20 16 22
REMARK H PARENT 9 19 19 21 16 23
REMARK Flexibility Score: inf
ROOT
ATOM      1  C   UNL     1      51.492  60.392   3.494  1.00  0.00     0.131 C 
ATOM      2  C   UNL     1      52.455  59.316   4.016  1.00  0.00     0.211 C 
ATOM      3  O   UNL     1      53.496  59.069   3.066  1.00  0.00    -0.484 OA
ATOM      4  C   UNL     1      53.266  59.037   1.684  1.00  0.00     0.138 A 
ATOM      5  C   UNL     1      54.257  58.522   0.845  1.00  0.00     0.093 A 
ATOM      6  C   UNL     1      54.053  58.462  -0.534  1.00  0.00     0.123 A 
ATOM      7  C   UNL     1      52.860  58.948  -1.082  1.00  0.00     0.093 A 
ATOM      8  C   UNL     1      51.870  59.505  -0.263  1.00  0.00     0.133 A 
ATOM      9  C   UNL     1      52.055  59.523   1.144  1.00  0.00     0.102 A 
ATOM     10  C   UNL     1      51.046  60.023   2.111  1.00  0.00     0.174 C 
ATOM     11  O   UNL     1      49.824  60.095   1.816  1.00  0.00    -0.294 OA
ENDROOT
BRANCH   2  12
ATOM     12  C   UNL     1      53.050  59.727   5.340  1.00  0.00    -0.007 A 
ATOM     13  C   UNL     1      54.018  58.920   5.962  1.00  0.00     0.011 A 
ATOM     14  C   UNL     1      52.603  60.889   5.995  1.00  0.00     0.011 A 
ATOM     15  C   UNL     1      54.548  59.283   7.203  1.00  0.00     0.046 A 
ATOM     16  C   UNL     1      53.136  61.249   7.236  1.00  0.00     0.046 A 
ATOM     17  C   UNL     1      54.109  60.450   7.843  1.00  0.00     0.115 A 
BRANCH  17  18
ATOM     18  O   UNL     1      54.631  60.822   9.080  1.00  0.00    -0.508 OA
ATOM     19  H   UNL     1      55.008  61.749   9.239  1.00  0.00     0.293 HD
ENDBRANCH  17  18
ENDBRANCH   2  12
BRANCH   8  20
ATOM     20  O   UNL     1      50.750  60.054  -0.893  1.00  0.00    -0.507 OA
ATOM     21  H   UNL     1      50.356  60.953  -0.661  1.00  0.00     0.293 HD
ENDBRANCH   8  20
BRANCH   6  22
ATOM     22  O   UNL     1      55.043  57.925  -1.353  1.00  0.00    -0.508 OA
ATOM     23  H   UNL     1      55.977  57.741  -1.004  1.00  0.00     0.293 HD
ENDBRANCH   6  22
TORSDOF 4
ENDMDL
MODEL 3
REMARK VINA RESULT:    -7.351      4.846      7.611
REMARK INTER + INTRA:          -8.721
REMARK INTER:                  -8.410
REMARK INTRA:                  -0.312
REMARK UNBOUND:                -0.295
REMARK SMILES O=C1C[C@H](c2ccc(O)cc2)Oc2cc(O)cc(O)c21
REMARK SMILES IDX 3 1 4 2 12 3 13 4 14 5 15 6 17 7 18 8 20 9 2 10 1 11 5 12
REMARK SMILES IDX 6 13 11 14 7 15 10 16 8 17 9 18 19 20 16 22
REMARK H PARENT 9 19 19 21 16 23
REMARK Flexibility Score: inf
ROOT
ATOM      1  C   UNL     1      50.042  60.857   0.485  1.00  0.00     0.131 C 
ATOM      2  C   UNL     1      50.157  60.084   1.807  1.00  0.00     0.211 C 
ATOM      3  O   UNL     1      51.527  59.790   2.100  1.00  0.00    -0.484 OA
ATOM      4  C   UNL     1      52.446  59.412   1.112  1.00  0.00     0.138 A 
ATOM      5  C   UNL     1      53.676  58.876   1.503  1.00  0.00     0.093 A 
ATOM      6  C   UNL     1      54.607  58.477   0.544  1.00  0.00     0.123 A 
ATOM      7  C   UNL     1      54.319  58.640  -0.816  1.00  0.00     0.093 A 
ATOM      8  C   UNL     1      53.109  59.213  -1.228  1.00  0.00     0.133 A 
ATOM      9  C   UNL     1      52.140  59.576  -0.256  1.00  0.00     0.102 A 
ATOM     10  C   UNL     1      50.800  60.122  -0.580  1.00  0.00     0.174 C 
ATOM     11  O   UNL     1      50.263  59.940  -1.705  1.00  0.00    -0.294 OA
ENDROOT
BRANCH   2  12
ATOM     12  C   UNL     1      49.543  60.869   2.940  1.00  0.00    -0.007 A 
ATOM     13  C   UNL     1      50.312  61.201   4.069  1.00  0.00     0.011 A 
ATOM     14  C   UNL     1      48.183  61.226   2.908  1.00  0.00     0.011 A 
ATOM     15  C   UNL     1      49.738  61.902   5.133  1.00  0.00     0.046 A 
ATOM     16  C   UNL     1      47.612  61.926   3.975  1.00  0.00     0.046 A 
ATOM     17  C   UNL     1      48.386  62.267   5.089  1.00  0.00     0.115 A 
BRANCH  17  18
ATOM     18  O   UNL     1      47.802  62.965   6.144  1.00  0.00    -0.508 OA
ATOM     19  H   UNL     1      48.355  63.307   6.922  1.00  0.00     0.293 HD
ENDBRANCH  17  18
ENDBRANCH   2  12
BRANCH   8  20
ATOM     20  O   UNL     1      52.935  59.429  -2.597  1.00  0.00    -0.507 OA
ATOM     21  H   UNL     1      53.628  59.208  -3.296  1.00  0.00     0.293 HD
ENDBRANCH   8  20
BRANCH   6  22
ATOM     22  O   UNL     1      55.819  57.925   0.951  1.00  0.00    -0.508 OA
ATOM     23  H   UNL     1      56.539  58.489   1.388  1.00  0.00     0.293 HD
ENDBRANCH   6  22
TORSDOF 4
ENDMDL
MODEL 4
REMARK VINA RESULT:    -7.349      4.235      6.265
REMARK INTER + INTRA:          -8.719
REMARK INTER:                  -8.436
REMARK INTRA:                  -0.282
REMARK UNBOUND:                -0.295
REMARK SMILES O=C1C[C@H](c2ccc(O)cc2)Oc2cc(O)cc(O)c21
REMARK SMILES IDX 3 1 4 2 12 3 13 4 14 5 15 6 17 7 18 8 20 9 2 10 1 11 5 12
REMARK SMILES IDX 6 13 11 14 7 15 10 16 8 17 9 18 19 20 16 22
REMARK H PARENT 9 19 19 21 16 23
REMARK Flexibility Score: inf
ROOT
ATOM      1  C   UNL     1      50.837  61.137   4.727  1.00  0.00     0.131 C 
ATOM      2  C   UNL     1      49.750  61.399   5.779  1.00  0.00     0.211 C 
ATOM      3  O   UNL     1      50.334  61.855   7.004  1.00  0.00    -0.484 OA
ATOM      4  C   UNL     1      51.533  61.333   7.509  1.00  0.00     0.138 A 
ATOM      5  C   UNL     1      51.894  61.623   8.827  1.00  0.00     0.093 A 
ATOM      6  C   UNL     1      53.073  61.107   9.365  1.00  0.00     0.123 A 
ATOM      7  C   UNL     1      53.914  60.320   8.569  1.00  0.00     0.093 A 
ATOM      8  C   UNL     1      53.592  60.053   7.233  1.00  0.00     0.133 A 
ATOM      9  C   UNL     1      52.369  60.536   6.698  1.00  0.00     0.102 A 
ATOM     10  C   UNL     1      51.893  60.254   5.321  1.00  0.00     0.174 C 
ATOM     11  O   UNL     1      52.313  59.266   4.663  1.00  0.00    -0.294 OA
ENDROOT
BRANCH   2  12
ATOM     12  C   UNL     1      48.750  62.410   5.275  1.00  0.00    -0.007 A 
ATOM     13  C   UNL     1      47.412  62.356   5.702  1.00  0.00     0.011 A 
ATOM     14  C   UNL     1      49.129  63.381   4.330  1.00  0.00     0.011 A 
ATOM     15  C   UNL     1      46.477  63.273   5.213  1.00  0.00     0.046 A 
ATOM     16  C   UNL     1      48.191  64.296   3.843  1.00  0.00     0.046 A 
ATOM     17  C   UNL     1      46.865  64.247   4.283  1.00  0.00     0.115 A 
BRANCH  17  18
ATOM     18  O   UNL     1      45.941  65.165   3.789  1.00  0.00    -0.508 OA
ATOM     19  H   UNL     1      45.797  65.287   2.793  1.00  0.00     0.293 HD
ENDBRANCH  17  18
ENDBRANCH   2  12
BRANCH   8  20
ATOM     20  O   UNL     1      54.526  59.340   6.477  1.00  0.00    -0.507 OA
ATOM     21  H   UNL     1      55.513  59.303   6.688  1.00  0.00     0.293 HD
ENDBRANCH   8  20
BRANCH   6  22
ATOM     22  O   UNL     1      53.405  61.387  10.688  1.00  0.00    -0.508 OA
ATOM     23  H   UNL     1      53.735  62.303  10.969  1.00  0.00     0.293 HD
ENDBRANCH   6  22
TORSDOF 4
ENDMDL
MODEL 5
REMARK VINA RESULT:    -7.328      7.023      9.811
REMARK INTER + INTRA:          -8.695
REMARK INTER:                  -8.391
REMARK INTRA:                  -0.304
REMARK UNBOUND:                -0.295
REMARK SMILES O=C1C[C@H](c2ccc(O)cc2)Oc2cc(O)cc(O)c21
REMARK SMILES IDX 3 1 4 2 12 3 13 4 14 5 15 6 17 7 18 8 20 9 2 10 1 11 5 12
REMARK SMILES IDX 6 13 11 14 7 15 10 16 8 17 9 18 19 20 16 22
REMARK H PARENT 9 19 19 21 16 23
REMARK Flexibility Score: inf
ROOT
ATOM      1  C   UNL     1      51.265  60.442   3.644  1.00  0.00     0.131 C 
ATOM      2  C   UNL     1      52.667  60.074   3.137  1.00  0.00     0.211 C 
ATOM      3  O   UNL     1      53.329  59.213   4.068  1.00  0.00    -0.484 OA
ATOM      4  C   UNL     1      53.228  59.382   5.456  1.00  0.00     0.138 A 
ATOM      5  C   UNL     1      54.111  58.688   6.287  1.00  0.00     0.093 A 
ATOM      6  C   UNL     1      54.046  58.845   7.672  1.00  0.00     0.123 A 
ATOM      7  C   UNL     1      53.071  59.678   8.232  1.00  0.00     0.093 A 
ATOM      8  C   UNL     1      52.149  60.350   7.419  1.00  0.00     0.133 A 
ATOM      9  C   UNL     1      52.244  60.230   6.008  1.00  0.00     0.102 A 
ATOM     10  C   UNL     1      51.369  60.951   5.050  1.00  0.00     0.174 C 
ATOM     11  O   UNL     1      50.758  62.003   5.373  1.00  0.00    -0.294 OA
ENDROOT
BRANCH   2  12
ATOM     12  C   UNL     1      52.589  59.410   1.784  1.00  0.00    -0.007 A 
ATOM     13  C   UNL     1      51.359  59.321   1.109  1.00  0.00     0.011 A 
ATOM     14  C   UNL     1      53.731  58.823   1.209  1.00  0.00     0.011 A 
ATOM     15  C   UNL     1      51.279  58.679  -0.130  1.00  0.00     0.046 A 
ATOM     16  C   UNL     1      53.646  58.182  -0.031  1.00  0.00     0.046 A 
ATOM     17  C   UNL     1      52.423  58.109  -0.704  1.00  0.00     0.115 A 
BRANCH  17  18
ATOM     18  O   UNL     1      52.354  57.467  -1.939  1.00  0.00    -0.508 OA
ATOM     19  H   UNL     1      53.180  57.075  -2.378  1.00  0.00     0.293 HD
ENDBRANCH  17  18
ENDBRANCH   2  12
BRANCH   8  20
ATOM     20  O   UNL     1      51.149  61.088   8.057  1.00  0.00    -0.507 OA
ATOM     21  H   UNL     1      51.267  61.548   8.947  1.00  0.00     0.293 HD
ENDBRANCH   8  20
BRANCH   6  22
ATOM     22  O   UNL     1      54.949  58.163   8.484  1.00  0.00    -0.508 OA
ATOM     23  H   UNL     1      54.820  57.185   8.716  1.00  0.00     0.293 HD
ENDBRANCH   6  22
TORSDOF 4
ENDMDL
MODEL 6
REMARK VINA RESULT:    -7.245      4.648      7.540
REMARK INTER + INTRA:          -8.599
REMARK INTER:                  -8.288
REMARK INTRA:                  -0.311
REMARK UNBOUND:                -0.295
REMARK SMILES O=C1C[C@H](c2ccc(O)cc2)Oc2cc(O)cc(O)c21
REMARK SMILES IDX 3 1 4 2 12 3 13 4 14 5 15 6 17 7 18 8 20 9 2 10 1 11 5 12
REMARK SMILES IDX 6 13 11 14 7 15 10 16 8 17 9 18 19 20 16 22
REMARK H PARENT 9 19 19 21 16 23
REMARK Flexibility Score: inf
ROOT
ATOM      1  C   UNL     1      50.594  61.669   6.583  1.00  0.00     0.131 C 
ATOM      2  C   UNL     1      51.345  61.858   5.258  1.00  0.00     0.211 C 
ATOM      3  O   UNL     1      52.122  60.696   4.950  1.00  0.00    -0.484 OA
ATOM      4  C   UNL     1      52.820  59.973   5.928  1.00  0.00     0.138 A 
ATOM      5  C   UNL     1      53.768  59.030   5.524  1.00  0.00     0.093 A 
ATOM      6  C   UNL     1      54.490  58.305   6.472  1.00  0.00     0.123 A 
ATOM      7  C   UNL     1      54.240  58.502   7.835  1.00  0.00     0.093 A 
ATOM      8  C   UNL     1      53.265  59.412   8.261  1.00  0.00     0.133 A 
ATOM      9  C   UNL     1      52.564  60.186   7.300  1.00  0.00     0.102 A 
ATOM     10  C   UNL     1      51.563  61.227   7.639  1.00  0.00     0.174 C 
ATOM     11  O   UNL     1      51.542  61.785   8.768  1.00  0.00    -0.294 OA
ENDROOT
BRANCH   2  12
ATOM     12  C   UNL     1      50.382  62.148   4.133  1.00  0.00    -0.007 A 
ATOM     13  C   UNL     1      50.275  61.262   3.047  1.00  0.00     0.011 A 
ATOM     14  C   UNL     1      49.624  63.333   4.129  1.00  0.00     0.011 A 
ATOM     15  C   UNL     1      49.405  61.544   1.990  1.00  0.00     0.046 A 
ATOM     16  C   UNL     1      48.756  63.611   3.069  1.00  0.00     0.046 A 
ATOM     17  C   UNL     1      48.642  62.719   1.998  1.00  0.00     0.115 A 
BRANCH  17  18
ATOM     18  O   UNL     1      47.773  63.010   0.950  1.00  0.00    -0.508 OA
ATOM     19  H   UNL     1      47.223  63.862   0.939  1.00  0.00     0.293 HD
ENDBRANCH  17  18
ENDBRANCH   2  12
BRANCH   8  20
ATOM     20  O   UNL     1      53.008  59.483   9.633  1.00  0.00    -0.507 OA
ATOM     21  H   UNL     1      53.579  59.996  10.287  1.00  0.00     0.293 HD
ENDBRANCH   8  20
BRANCH   6  22
ATOM     22  O   UNL     1      55.448  57.386   6.051  1.00  0.00    -0.508 OA
ATOM     23  H   UNL     1      55.225  56.404   5.935  1.00  0.00     0.293 HD
ENDBRANCH   6  22
TORSDOF 4
ENDMDL
MODEL 7
REMARK VINA RESULT:    -7.242      4.376      6.722
REMARK INTER + INTRA:          -8.595
REMARK INTER:                  -8.313
REMARK INTRA:                  -0.283
REMARK UNBOUND:                -0.295
REMARK SMILES O=C1C[C@H](c2ccc(O)cc2)Oc2cc(O)cc(O)c21
REMARK SMILES IDX 3 1 4 2 12 3 13 4 14 5 15 6 17 7 18 8 20 9 2 10 1 11 5 12
REMARK SMILES IDX 6 13 11 14 7 15 10 16 8 17 9 18 19 20 16 22
REMARK H PARENT 9 19 19 21 16 23
REMARK Flexibility Score: inf
ROOT
ATOM      1  C   UNL     1      50.491  60.852   2.477  1.00  0.00     0.131 C 
ATOM      2  C   UNL     1      49.873  61.781   1.422  1.00  0.00     0.211 C 
ATOM      3  O   UNL     1      49.705  61.091   0.180  1.00  0.00    -0.484 OA
ATOM      4  C   UNL     1      50.653  60.184  -0.314  1.00  0.00     0.138 A 
ATOM      5  C   UNL     1      50.559  59.766  -1.644  1.00  0.00     0.093 A 
ATOM      6  C   UNL     1      51.495  58.875  -2.170  1.00  0.00     0.123 A 
ATOM      7  C   UNL     1      52.515  58.375  -1.353  1.00  0.00     0.093 A 
ATOM      8  C   UNL     1      52.603  58.750  -0.006  1.00  0.00     0.133 A 
ATOM      9  C   UNL     1      51.681  59.693   0.519  1.00  0.00     0.102 A 
ATOM     10  C   UNL     1      51.723  60.214   1.907  1.00  0.00     0.174 C 
ATOM     11  O   UNL     1      52.777  60.183   2.596  1.00  0.00    -0.294 OA
ENDROOT
BRANCH   2  12
ATOM     12  C   UNL     1      48.546  62.321   1.897  1.00  0.00    -0.007 A 
ATOM     13  C   UNL     1      48.077  63.560   1.428  1.00  0.00     0.011 A 
ATOM     14  C   UNL     1      47.792  61.621   2.856  1.00  0.00     0.011 A 
ATOM     15  C   UNL     1      46.863  64.076   1.889  1.00  0.00     0.046 A 
ATOM     16  C   UNL     1      46.578  62.141   3.316  1.00  0.00     0.046 A 
ATOM     17  C   UNL     1      46.109  63.367   2.834  1.00  0.00     0.115 A 
BRANCH  17  18
ATOM     18  O   UNL     1      44.898  63.871   3.301  1.00  0.00    -0.508 OA
ATOM     19  H   UNL     1      44.013  63.570   2.909  1.00  0.00     0.293 HD
ENDBRANCH  17  18
ENDBRANCH   2  12
BRANCH   8  20
ATOM     20  O   UNL     1      53.592  58.136   0.768  1.00  0.00    -0.507 OA
ATOM     21  H   UNL     1      54.097  57.310   0.486  1.00  0.00     0.293 HD
ENDBRANCH   8  20
BRANCH   6  22
ATOM     22  O   UNL     1      51.399  58.486  -3.504  1.00  0.00    -0.508 OA
ATOM     23  H   UNL     1      50.507  58.254  -3.926  1.00  0.00     0.293 HD
ENDBRANCH   6  22
TORSDOF 4
ENDMDL
MODEL 8
REMARK VINA RESULT:    -7.177      4.051      8.410
REMARK INTER + INTRA:          -8.522
REMARK INTER:                  -8.235
REMARK INTRA:                  -0.287
REMARK UNBOUND:                -0.295
REMARK SMILES O=C1C[C@H](c2ccc(O)cc2)Oc2cc(O)cc(O)c21
REMARK SMILES IDX 3 1 4 2 12 3 13 4 14 5 15 6 17 7 18 8 20 9 2 10 1 11 5 12
REMARK SMILES IDX 6 13 11 14 7 15 10 16 8 17 9 18 19 20 16 22
REMARK H PARENT 9 19 19 21 16 23
REMARK Flexibility Score: inf
ROOT
ATOM      1  C   UNL     1      50.258  62.597   0.247  1.00  0.00     0.131 C 
ATOM      2  C   UNL     1      50.498  61.346   1.104  1.00  0.00     0.211 C 
ATOM      3  O   UNL     1      49.281  60.920   1.726  1.00  0.00    -0.484 OA
ATOM      4  C   UNL     1      48.344  61.823   2.246  1.00  0.00     0.138 A 
ATOM      5  C   UNL     1      47.328  61.339   3.075  1.00  0.00     0.093 A 
ATOM      6  C   UNL     1      46.388  62.213   3.621  1.00  0.00     0.123 A 
ATOM      7  C   UNL     1      46.445  63.577   3.313  1.00  0.00     0.093 A 
ATOM      8  C   UNL     1      47.430  64.076   2.452  1.00  0.00     0.133 A 
ATOM      9  C   UNL     1      48.417  63.197   1.934  1.00  0.00     0.102 A 
ATOM     10  C   UNL     1      49.546  63.627   1.072  1.00  0.00     0.174 C 
ATOM     11  O   UNL     1      49.952  64.819   1.056  1.00  0.00    -0.294 OA
ENDROOT
BRANCH   2  12
ATOM     12  C   UNL     1      51.070  60.227   0.268  1.00  0.00    -0.007 A 
ATOM     13  C   UNL     1      50.624  60.029  -1.050  1.00  0.00     0.011 A 
ATOM     14  C   UNL     1      52.011  59.335   0.815  1.00  0.00     0.011 A 
ATOM     15  C   UNL     1      51.130  58.975  -1.816  1.00  0.00     0.046 A 
ATOM     16  C   UNL     1      52.514  58.282   0.045  1.00  0.00     0.046 A 
ATOM     17  C   UNL     1      52.078  58.099  -1.271  1.00  0.00     0.115 A 
BRANCH  17  18
ATOM     18  O   UNL     1      52.589  57.046  -2.025  1.00  0.00    -0.508 OA
ATOM     19  H   UNL     1      52.117  56.150  -2.070  1.00  0.00     0.293 HD
ENDBRANCH  17  18
ENDBRANCH   2  12
BRANCH   8  20
ATOM     20  O   UNL     1      47.365  65.432   2.119  1.00  0.00    -0.507 OA
ATOM     21  H   UNL     1      47.786  66.168   2.665  1.00  0.00     0.293 HD
ENDBRANCH   8  20
BRANCH   6  22
ATOM     22  O   UNL     1      45.396  61.717   4.463  1.00  0.00    -0.508 OA
ATOM     23  H   UNL     1      45.402  61.905   5.459  1.00  0.00     0.293 HD
ENDBRANCH   6  22
TORSDOF 4
ENDMDL
MODEL 9
REMARK VINA RESULT:    -7.078      2.011      3.391
REMARK INTER + INTRA:          -8.408
REMARK INTER:                  -8.123
REMARK INTRA:                  -0.285
REMARK UNBOUND:                -0.295
REMARK SMILES O=C1C[C@H](c2ccc(O)cc2)Oc2cc(O)cc(O)c21
REMARK SMILES IDX 3 1 4 2 12 3 13 4 14 5 15 6 17 7 18 8 20 9 2 10 1 11 5 12
REMARK SMILES IDX 6 13 11 14 7 15 10 16 8 17 9 18 19 20 16 22
REMARK H PARENT 9 19 19 21 16 23
REMARK Flexibility Score: inf
ROOT
ATOM      1  C   UNL     1      48.185  63.607   4.708  1.00  0.00     0.131 C 
ATOM      2  C   UNL     1      48.251  64.698   3.629  1.00  0.00     0.211 C 
ATOM      3  O   UNL     1      48.316  64.113   2.325  1.00  0.00    -0.484 OA
ATOM      4  C   UNL     1      49.070  62.964   2.050  1.00  0.00     0.138 A 
ATOM      5  C   UNL     1      49.309  62.615   0.719  1.00  0.00     0.093 A 
ATOM      6  C   UNL     1      50.068  61.485   0.411  1.00  0.00     0.123 A 
ATOM      7  C   UNL     1      50.566  60.681   1.442  1.00  0.00     0.093 A 
ATOM      8  C   UNL     1      50.303  60.989   2.783  1.00  0.00     0.133 A 
ATOM      9  C   UNL     1      49.573  62.164   3.099  1.00  0.00     0.102 A 
ATOM     10  C   UNL     1      49.297  62.626   4.482  1.00  0.00     0.174 C 
ATOM     11  O   UNL     1      50.003  62.258   5.458  1.00  0.00    -0.294 OA
ENDROOT
BRANCH   2  12
ATOM     12  C   UNL     1      47.057  65.617   3.725  1.00  0.00    -0.007 A 
ATOM     13  C   UNL     1      47.228  67.010   3.653  1.00  0.00     0.011 A 
ATOM     14  C   UNL     1      45.769  65.095   3.943  1.00  0.00     0.011 A 
ATOM     15  C   UNL     1      46.129  67.864   3.772  1.00  0.00     0.046 A 
ATOM     16  C   UNL     1      44.671  65.952   4.062  1.00  0.00     0.046 A 
ATOM     17  C   UNL     1      44.846  67.337   3.975  1.00  0.00     0.115 A 
BRANCH  17  18
ATOM     18  O   UNL     1      43.742  68.178   4.094  1.00  0.00    -0.508 OA
ATOM     19  H   UNL     1      43.787  69.152   3.817  1.00  0.00     0.293 HD
ENDBRANCH  17  18
ENDBRANCH   2  12
BRANCH   8  20
ATOM     20  O   UNL     1      50.754  60.087   3.750  1.00  0.00    -0.507 OA
ATOM     21  H   UNL     1      50.523  59.105   3.757  1.00  0.00     0.293 HD
ENDBRANCH   8  20
BRANCH   6  22
ATOM     22  O   UNL     1      50.315  61.165  -0.922  1.00  0.00    -0.508 OA
ATOM     23  H   UNL     1      49.725  60.516  -1.429  1.00  0.00     0.293 HD
ENDBRANCH   6  22
TORSDOF 4
ENDMDL
