MODEL 1
REMARK VINA RESULT:    -3.729      0.000      0.000
REMARK INTER + INTRA:          -5.339
REMARK INTER:                  -5.037
REMARK INTRA:                  -0.302
REMARK UNBOUND:                -0.302
REMARK SMILES CCCCCCC=CC(=O)[O-]
REMARK SMILES IDX 5 1 6 2 7 3 8 4 9 5 10 6 11 7 4 8 3 9 2 10 1 11
REMARK H PARENT
REMARK Flexibility Score: inf
ROOT
ATOM      1  C   UNL     1     121.127  69.929  -0.293  1.00  0.00     0.004 C 
ENDROOT
BRANCH   1   2
ATOM      2  C   UNL     1     120.595  71.175   0.437  1.00  0.00     0.027 C 
BRANCH   2   3
ATOM      3  C   UNL     1     120.460  70.963   1.919  1.00  0.00    -0.025 C 
ATOM      4  C   UNL     1     120.824  71.905   2.796  1.00  0.00     0.020 C 
BRANCH   4   5
ATOM      5  C   UNL     1     120.692  71.712   4.247  1.00  0.00     0.064 C 
ATOM      6  O   UNL     1     121.128  70.658   4.777  1.00  0.00    -0.545 OA
ATOM      7  O   UNL     1     120.089  72.678   5.045  1.00  0.00    -0.545 OA
ENDBRANCH   4   5
ENDBRANCH   2   3
ENDBRANCH   1   2
BRANCH   1   8
ATOM      8  C   UNL     1     120.179  69.376  -1.373  1.00  0.00     0.000 C 
BRANCH   8   9
ATOM      9  C   UNL     1     120.154  67.841  -1.415  1.00  0.00    -0.000 C 
BRANCH   9  10
ATOM     10  C   UNL     1     120.024  67.255  -0.005  1.00  0.00    -0.003 C 
ATOM     11  C   UNL     1     120.234  65.743  -0.014  1.00  0.00     0.004 C 
ENDBRANCH   9  10
ENDBRANCH   8   9
ENDBRANCH   1   8
TORSDOF 6
ENDMDL
MODEL 2
REMARK VINA RESULT:    -3.696      2.792      4.672
REMARK INTER + INTRA:          -5.294
REMARK INTER:                  -5.003
REMARK INTRA:                  -0.291
REMARK UNBOUND:                -0.302
REMARK SMILES CCCCCCC=CC(=O)[O-]
REMARK SMILES IDX 5 1 6 2 7 3 8 4 9 5 10 6 11 7 4 8 3 9 2 10 1 11
REMARK H PARENT
REMARK Flexibility Score: inf
ROOT
ATOM      1  C   UNL     1     121.169  71.712   3.718  1.00  0.00     0.004 C 
ENDROOT
BRANCH   1   2
ATOM      2  C   UNL     1     120.180  71.216   4.787  1.00  0.00     0.027 C 
BRANCH   2   3
ATOM      3  C   UNL     1     120.211  72.053   6.036  1.00  0.00    -0.025 C 
ATOM      4  C   UNL     1     120.652  71.560   7.198  1.00  0.00     0.020 C 
BRANCH   4   5
ATOM      5  C   UNL     1     120.691  72.369   8.424  1.00  0.00     0.064 C 
ATOM      6  O   UNL     1     120.868  73.612   8.345  1.00  0.00    -0.545 OA
ATOM      7  O   UNL     1     120.538  71.780   9.675  1.00  0.00    -0.545 OA
ENDBRANCH   4   5
ENDBRANCH   2   3
ENDBRANCH   1   2
BRANCH   1   8
ATOM      8  C   UNL     1     120.649  72.886   2.871  1.00  0.00     0.000 C 
BRANCH   8   9
ATOM      9  C   UNL     1     120.807  72.650   1.362  1.00  0.00    -0.000 C 
BRANCH   9  10
ATOM     10  C   UNL     1     120.089  71.367   0.928  1.00  0.00    -0.003 C 
ATOM     11  C   UNL     1     121.044  70.413   0.217  1.00  0.00     0.004 C 
ENDBRANCH   9  10
ENDBRANCH   8   9
ENDBRANCH   1   8
TORSDOF 6
ENDMDL
MODEL 3
REMARK VINA RESULT:    -3.631      2.903      5.848
REMARK INTER + INTRA:          -5.207
REMARK INTER:                  -4.952
REMARK INTRA:                  -0.255
REMARK UNBOUND:                -0.302
REMARK SMILES CCCCCCC=CC(=O)[O-]
REMARK SMILES IDX 5 1 6 2 7 3 8 4 9 5 10 6 11 7 4 8 3 9 2 10 1 11
REMARK H PARENT
REMARK Flexibility Score: inf
ROOT
ATOM      1  C   UNL     1     121.119  72.517   3.061  1.00  0.00     0.004 C 
ENDROOT
BRANCH   1   2
ATOM      2  C   UNL     1     120.793  72.598   1.559  1.00  0.00     0.027 C 
BRANCH   2   3
ATOM      3  C   UNL     1     120.360  71.276   0.989  1.00  0.00    -0.025 C 
ATOM      4  C   UNL     1     121.170  70.550   0.212  1.00  0.00     0.020 C 
BRANCH   4   5
ATOM      5  C   UNL     1     120.761  69.254  -0.348  1.00  0.00     0.064 C 
ATOM      6  O   UNL     1     120.469  69.168  -1.569  1.00  0.00    -0.545 OA
ATOM      7  O   UNL     1     120.687  68.119   0.453  1.00  0.00    -0.545 OA
ENDBRANCH   4   5
ENDBRANCH   2   3
ENDBRANCH   1   2
BRANCH   1   8
ATOM      8  C   UNL     1     120.323  71.442   3.823  1.00  0.00     0.000 C 
BRANCH   8   9
ATOM      9  C   UNL     1     121.015  70.995   5.120  1.00  0.00    -0.000 C 
BRANCH   9  10
ATOM     10  C   UNL     1     120.153  71.325   6.343  1.00  0.00    -0.003 C 
ATOM     11  C   UNL     1     121.010  71.483   7.596  1.00  0.00     0.004 C 
ENDBRANCH   9  10
ENDBRANCH   8   9
ENDBRANCH   1   8
TORSDOF 6
ENDMDL
MODEL 4
REMARK VINA RESULT:    -3.566      1.156      1.726
REMARK INTER + INTRA:          -5.119
REMARK INTER:                  -4.839
REMARK INTRA:                  -0.280
REMARK UNBOUND:                -0.302
REMARK SMILES CCCCCCC=CC(=O)[O-]
REMARK SMILES IDX 5 1 6 2 7 3 8 4 9 5 10 6 11 7 4 8 3 9 2 10 1 11
REMARK H PARENT
REMARK Flexibility Score: inf
ROOT
ATOM      1  C   UNL     1     121.049  69.174  -0.489  1.00  0.00     0.004 C 
ENDROOT
BRANCH   1   2
ATOM      2  C   UNL     1     120.177  70.397  -0.155  1.00  0.00     0.027 C 
BRANCH   2   3
ATOM      3  C   UNL     1     120.041  70.624   1.325  1.00  0.00    -0.025 C 
ATOM      4  C   UNL     1     120.819  71.498   1.972  1.00  0.00     0.020 C 
BRANCH   4   5
ATOM      5  C   UNL     1     120.694  71.733   3.418  1.00  0.00     0.064 C 
ATOM      6  O   UNL     1     120.976  70.809   4.225  1.00  0.00    -0.545 OA
ATOM      7  O   UNL     1     120.265  72.961   3.909  1.00  0.00    -0.545 OA
ENDBRANCH   4   5
ENDBRANCH   2   3
ENDBRANCH   1   2
BRANCH   1   8
ATOM      8  C   UNL     1     120.425  67.825  -0.090  1.00  0.00     0.000 C 
BRANCH   8   9
ATOM      9  C   UNL     1     120.259  66.869  -1.281  1.00  0.00    -0.000 C 
BRANCH   9  10
ATOM     10  C   UNL     1     119.875  67.636  -2.551  1.00  0.00    -0.003 C 
ATOM     11  C   UNL     1     120.028  66.760  -3.792  1.00  0.00     0.004 C 
ENDBRANCH   9  10
ENDBRANCH   8   9
ENDBRANCH   1   8
TORSDOF 6
ENDMDL
MODEL 5
REMARK VINA RESULT:    -3.374      5.175      7.114
REMARK INTER + INTRA:          -4.859
REMARK INTER:                  -4.632
REMARK INTRA:                  -0.227
REMARK UNBOUND:                -0.302
REMARK SMILES CCCCCCC=CC(=O)[O-]
REMARK SMILES IDX 5 1 6 2 7 3 8 4 9 5 10 6 11 7 4 8 3 9 2 10 1 11
REMARK H PARENT
REMARK Flexibility Score: inf
ROOT
ATOM      1  C   UNL     1     121.109  69.919  -1.217  1.00  0.00     0.004 C 
ENDROOT
BRANCH   1   2
ATOM      2  C   UNL     1     119.883  69.297  -1.908  1.00  0.00     0.027 C 
BRANCH   2   3
ATOM      3  C   UNL     1     120.093  69.090  -3.382  1.00  0.00    -0.025 C 
ATOM      4  C   UNL     1     120.112  70.117  -4.237  1.00  0.00     0.020 C 
BRANCH   4   5
ATOM      5  C   UNL     1     120.321  69.929  -5.679  1.00  0.00     0.064 C 
ATOM      6  O   UNL     1     120.909  68.896  -6.094  1.00  0.00    -0.545 OA
ATOM      7  O   UNL     1     119.880  70.877  -6.597  1.00  0.00    -0.545 OA
ENDBRANCH   4   5
ENDBRANCH   2   3
ENDBRANCH   1   2
BRANCH   1   8
ATOM      8  C   UNL     1     121.049  69.892   0.321  1.00  0.00     0.000 C 
BRANCH   8   9
ATOM      9  C   UNL     1     119.983  70.838   0.893  1.00  0.00    -0.000 C 
BRANCH   9  10
ATOM     10  C   UNL     1     120.569  71.723   1.998  1.00  0.00    -0.003 C 
ATOM     11  C   UNL     1     120.941  73.103   1.461  1.00  0.00     0.004 C 
ENDBRANCH   9  10
ENDBRANCH   8   9
ENDBRANCH   1   8
TORSDOF 6
ENDMDL
MODEL 6
REMARK VINA RESULT:    -3.177      3.632      5.554
REMARK INTER + INTRA:          -4.593
REMARK INTER:                  -4.412
REMARK INTRA:                  -0.181
REMARK UNBOUND:                -0.302
REMARK SMILES CCCCCCC=CC(=O)[O-]
REMARK SMILES IDX 5 1 6 2 7 3 8 4 9 5 10 6 11 7 4 8 3 9 2 10 1 11
REMARK H PARENT
REMARK Flexibility Score: inf
ROOT
ATOM      1  C   UNL     1     119.875  70.980   4.757  1.00  0.00     0.004 C 
ENDROOT
BRANCH   1   2
ATOM      2  C   UNL     1     120.851  71.136   5.936  1.00  0.00     0.027 C 
BRANCH   2   3
ATOM      3  C   UNL     1     120.235  71.850   7.107  1.00  0.00    -0.025 C 
ATOM      4  C   UNL     1     120.925  72.077   8.229  1.00  0.00     0.020 C 
BRANCH   4   5
ATOM      5  C   UNL     1     120.336  72.778   9.379  1.00  0.00     0.064 C 
ATOM      6  O   UNL     1     120.218  74.030   9.351  1.00  0.00    -0.545 OA
ATOM      7  O   UNL     1     119.908  72.077  10.501  1.00  0.00    -0.545 OA
ENDBRANCH   4   5
ENDBRANCH   2   3
ENDBRANCH   1   2
BRANCH   1   8
ATOM      8  C   UNL     1     120.262  71.786   3.504  1.00  0.00     0.000 C 
BRANCH   8   9
ATOM      9  C   UNL     1     120.213  70.948   2.217  1.00  0.00    -0.000 C 
BRANCH   9  10
ATOM     10  C   UNL     1     120.675  71.771   1.009  1.00  0.00    -0.003 C 
ATOM     11  C   UNL     1     120.998  73.207   1.410  1.00  0.00     0.004 C 
ENDBRANCH   9  10
ENDBRANCH   8   9
ENDBRANCH   1   8
TORSDOF 6
ENDMDL
MODEL 7
REMARK VINA RESULT:    -3.153      6.275      8.486
REMARK INTER + INTRA:          -4.561
REMARK INTER:                  -4.345
REMARK INTRA:                  -0.216
REMARK UNBOUND:                -0.302
REMARK SMILES CCCCCCC=CC(=O)[O-]
REMARK SMILES IDX 5 1 6 2 7 3 8 4 9 5 10 6 11 7 4 8 3 9 2 10 1 11
REMARK H PARENT
REMARK Flexibility Score: inf
ROOT
ATOM      1  C   UNL     1     119.879  67.126  -2.689  1.00  0.00     0.004 C 
ENDROOT
BRANCH   1   2
ATOM      2  C   UNL     1     119.876  65.951  -3.683  1.00  0.00     0.027 C 
BRANCH   2   3
ATOM      3  C   UNL     1     119.946  66.404  -5.115  1.00  0.00    -0.025 C 
ATOM      4  C   UNL     1     121.096  66.392  -5.796  1.00  0.00     0.020 C 
BRANCH   4   5
ATOM      5  C   UNL     1     121.178  66.827  -7.198  1.00  0.00     0.064 C 
ATOM      6  O   UNL     1     120.954  66.001  -8.120  1.00  0.00    -0.545 OA
ATOM      7  O   UNL     1     121.501  68.141  -7.522  1.00  0.00    -0.545 OA
ENDBRANCH   4   5
ENDBRANCH   2   3
ENDBRANCH   1   2
BRANCH   1   8
ATOM      8  C   UNL     1     120.007  66.706  -1.214  1.00  0.00     0.000 C 
BRANCH   8   9
ATOM      9  C   UNL     1     120.691  67.773  -0.347  1.00  0.00    -0.000 C 
BRANCH   9  10
ATOM     10  C   UNL     1     120.198  69.177  -0.714  1.00  0.00    -0.003 C 
ATOM     11  C   UNL     1     121.019  70.252  -0.008  1.00  0.00     0.004 C 
ENDBRANCH   9  10
ENDBRANCH   8   9
ENDBRANCH   1   8
TORSDOF 6
ENDMDL
MODEL 8
REMARK VINA RESULT:    -2.888      2.759      3.798
REMARK INTER + INTRA:          -4.203
REMARK INTER:                  -3.998
REMARK INTRA:                  -0.205
REMARK UNBOUND:                -0.302
REMARK SMILES CCCCCCC=CC(=O)[O-]
REMARK SMILES IDX 5 1 6 2 7 3 8 4 9 5 10 6 11 7 4 8 3 9 2 10 1 11
REMARK H PARENT
REMARK Flexibility Score: inf
ROOT
ATOM      1  C   UNL     1     120.225  67.975  -1.924  1.00  0.00     0.004 C 
ENDROOT
BRANCH   1   2
ATOM      2  C   UNL     1     120.210  69.506  -2.080  1.00  0.00     0.027 C 
BRANCH   2   3
ATOM      3  C   UNL     1     119.958  70.217  -0.780  1.00  0.00    -0.025 C 
ATOM      4  C   UNL     1     120.953  70.500   0.067  1.00  0.00     0.020 C 
BRANCH   4   5
ATOM      5  C   UNL     1     120.721  71.199   1.339  1.00  0.00     0.064 C 
ATOM      6  O   UNL     1     120.329  70.550   2.343  1.00  0.00    -0.545 OA
ATOM      7  O   UNL     1     120.927  72.570   1.450  1.00  0.00    -0.545 OA
ENDBRANCH   4   5
ENDBRANCH   2   3
ENDBRANCH   1   2
BRANCH   1   8
ATOM      8  C   UNL     1     119.884  67.205  -3.212  1.00  0.00     0.000 C 
BRANCH   8   9
ATOM      9  C   UNL     1     120.190  68.007  -4.486  1.00  0.00    -0.000 C 
BRANCH   9  10
ATOM     10  C   UNL     1     119.876  67.185  -5.741  1.00  0.00    -0.003 C 
ATOM     11  C   UNL     1     121.137  66.925  -6.560  1.00  0.00     0.004 C 
ENDBRANCH   9  10
ENDBRANCH   8   9
ENDBRANCH   1   8
TORSDOF 6
ENDMDL
