MODEL 1
REMARK VINA RESULT:    -3.606      0.000      0.000
REMARK INTER + INTRA:          -4.280
REMARK INTER:                  -4.239
REMARK INTRA:                  -0.041
REMARK UNBOUND:                -0.041
REMARK SMILES O=C([O-])CCC(=O)[O-]
REMARK SMILES IDX 4 1 2 2 1 3 3 4 5 5 6 6 7 7 8 8
REMARK H PARENT
REMARK Flexibility Score: inf
ROOT
ATOM      1  C   UNL     1     -13.741   6.161  -0.395  1.00  0.00     0.059 C 
ENDROOT
BRANCH   1   2
ATOM      2  C   UNL     1     -14.902   5.354  -0.884  1.00  0.00     0.042 C 
ATOM      3  O   UNL     1     -16.036   5.487  -0.352  1.00  0.00    -0.550 OA
ATOM      4  O   UNL     1     -14.744   4.489  -1.960  1.00  0.00    -0.550 OA
ENDBRANCH   1   2
BRANCH   1   5
ATOM      5  C   UNL     1     -14.230   7.371   0.403  1.00  0.00     0.059 C 
BRANCH   5   6
ATOM      6  C   UNL     1     -13.160   8.413   0.482  1.00  0.00     0.042 C 
ATOM      7  O   UNL     1     -13.241   9.341   1.328  1.00  0.00    -0.550 OA
ATOM      8  O   UNL     1     -12.047   8.331  -0.347  1.00  0.00    -0.550 OA
ENDBRANCH   5   6
ENDBRANCH   1   5
TORSDOF 3
ENDMDL
MODEL 2
REMARK VINA RESULT:    -3.604      0.078      4.083
REMARK INTER + INTRA:          -4.276
REMARK INTER:                  -4.235
REMARK INTRA:                  -0.041
REMARK UNBOUND:                -0.041
REMARK SMILES O=C([O-])CCC(=O)[O-]
REMARK SMILES IDX 4 1 2 2 1 3 3 4 5 5 6 6 7 7 8 8
REMARK H PARENT
REMARK Flexibility Score: inf
ROOT
ATOM      1  C   UNL     1     -14.164   7.387   0.384  1.00  0.00     0.059 C 
ENDROOT
BRANCH   1   2
ATOM      2  C   UNL     1     -13.090   8.429   0.416  1.00  0.00     0.042 C 
ATOM      3  O   UNL     1     -13.167   9.394   1.221  1.00  0.00    -0.550 OA
ATOM      4  O   UNL     1     -11.980   8.309  -0.410  1.00  0.00    -0.550 OA
ENDBRANCH   1   2
BRANCH   1   5
ATOM      5  C   UNL     1     -13.704   6.170  -0.420  1.00  0.00     0.059 C 
BRANCH   5   6
ATOM      6  C   UNL     1     -14.882   5.371  -0.879  1.00  0.00     0.042 C 
ATOM      7  O   UNL     1     -16.001   5.513  -0.321  1.00  0.00    -0.550 OA
ATOM      8  O   UNL     1     -14.757   4.504  -1.959  1.00  0.00    -0.550 OA
ENDBRANCH   5   6
ENDBRANCH   1   5
TORSDOF 3
ENDMDL
MODEL 3
REMARK VINA RESULT:    -3.413      0.994      4.392
REMARK INTER + INTRA:          -4.052
REMARK INTER:                  -4.014
REMARK INTRA:                  -0.038
REMARK UNBOUND:                -0.041
REMARK SMILES O=C([O-])CCC(=O)[O-]
REMARK SMILES IDX 4 1 2 2 1 3 3 4 5 5 6 6 7 7 8 8
REMARK H PARENT
REMARK Flexibility Score: inf
ROOT
ATOM      1  C   UNL     1     -13.701   6.453  -0.261  1.00  0.00     0.059 C 
ENDROOT
BRANCH   1   2
ATOM      2  C   UNL     1     -13.487   7.783   0.391  1.00  0.00     0.042 C 
ATOM      3  O   UNL     1     -12.449   8.451   0.140  1.00  0.00    -0.550 OA
ATOM      4  O   UNL     1     -14.455   8.308   1.237  1.00  0.00    -0.550 OA
ENDBRANCH   1   2
BRANCH   1   5
ATOM      5  C   UNL     1     -15.160   6.017  -0.117  1.00  0.00     0.059 C 
BRANCH   5   6
ATOM      6  C   UNL     1     -15.428   4.803  -0.949  1.00  0.00     0.042 C 
ATOM      7  O   UNL     1     -14.694   4.536  -1.936  1.00  0.00    -0.550 OA
ATOM      8  O   UNL     1     -16.459   3.937  -0.605  1.00  0.00    -0.550 OA
ENDBRANCH   5   6
ENDBRANCH   1   5
TORSDOF 3
ENDMDL
MODEL 4
REMARK VINA RESULT:    -3.103     10.017     12.221
REMARK INTER + INTRA:          -3.688
REMARK INTER:                  -3.656
REMARK INTRA:                  -0.032
REMARK UNBOUND:                -0.041
REMARK SMILES O=C([O-])CCC(=O)[O-]
REMARK SMILES IDX 4 1 2 2 1 3 3 4 5 5 6 6 7 7 8 8
REMARK H PARENT
REMARK Flexibility Score: inf
ROOT
ATOM      1  C   UNL     1     -14.058  13.993   9.938  1.00  0.00     0.059 C 
ENDROOT
BRANCH   1   2
ATOM      2  C   UNL     1     -13.903  13.513  11.347  1.00  0.00     0.042 C 
ATOM      3  O   UNL     1     -12.949  13.928  12.057  1.00  0.00    -0.550 OA
ATOM      4  O   UNL     1     -14.840  12.644  11.892  1.00  0.00    -0.550 OA
ENDBRANCH   1   2
BRANCH   1   5
ATOM      5  C   UNL     1     -14.494  12.844   9.027  1.00  0.00     0.059 C 
BRANCH   5   6
ATOM      6  C   UNL     1     -14.353  13.234   7.590  1.00  0.00     0.042 C 
ATOM      7  O   UNL     1     -13.238  13.607   7.140  1.00  0.00    -0.550 OA
ATOM      8  O   UNL     1     -15.444  13.137   6.733  1.00  0.00    -0.550 OA
ENDBRANCH   5   6
ENDBRANCH   1   5
TORSDOF 3
ENDMDL
MODEL 5
REMARK VINA RESULT:    -3.102     10.015     12.193
REMARK INTER + INTRA:          -3.687
REMARK INTER:                  -3.655
REMARK INTRA:                  -0.032
REMARK UNBOUND:                -0.041
REMARK SMILES O=C([O-])CCC(=O)[O-]
REMARK SMILES IDX 4 1 2 2 1 3 3 4 5 5 6 6 7 7 8 8
REMARK H PARENT
REMARK Flexibility Score: inf
ROOT
ATOM      1  C   UNL     1     -14.134  13.982   9.929  1.00  0.00     0.059 C 
ENDROOT
BRANCH   1   2
ATOM      2  C   UNL     1     -13.957  13.504  11.336  1.00  0.00     0.042 C 
ATOM      3  O   UNL     1     -14.803  12.727  11.853  1.00  0.00    -0.550 OA
ATOM      4  O   UNL     1     -12.833  13.877  12.061  1.00  0.00    -0.550 OA
ENDBRANCH   1   2
BRANCH   1   5
ATOM      5  C   UNL     1     -14.524  12.820   9.015  1.00  0.00     0.059 C 
BRANCH   5   6
ATOM      6  C   UNL     1     -14.374  13.210   7.580  1.00  0.00     0.042 C 
ATOM      7  O   UNL     1     -15.352  13.120   6.792  1.00  0.00    -0.550 OA
ATOM      8  O   UNL     1     -13.166  13.722   7.120  1.00  0.00    -0.550 OA
ENDBRANCH   5   6
ENDBRANCH   1   5
TORSDOF 3
ENDMDL
MODEL 6
REMARK VINA RESULT:    -3.097     10.018     11.947
REMARK INTER + INTRA:          -3.681
REMARK INTER:                  -3.649
REMARK INTRA:                  -0.032
REMARK UNBOUND:                -0.041
REMARK SMILES O=C([O-])CCC(=O)[O-]
REMARK SMILES IDX 4 1 2 2 1 3 3 4 5 5 6 6 7 7 8 8
REMARK H PARENT
REMARK Flexibility Score: inf
ROOT
ATOM      1  C   UNL     1     -14.499  12.846   9.040  1.00  0.00     0.059 C 
ENDROOT
BRANCH   1   2
ATOM      2  C   UNL     1     -14.374  13.217   7.595  1.00  0.00     0.042 C 
ATOM      3  O   UNL     1     -13.260  13.571   7.126  1.00  0.00    -0.550 OA
ATOM      4  O   UNL     1     -15.476  13.125   6.755  1.00  0.00    -0.550 OA
ENDBRANCH   1   2
BRANCH   1   5
ATOM      5  C   UNL     1     -14.070  14.013   9.930  1.00  0.00     0.059 C 
BRANCH   5   6
ATOM      6  C   UNL     1     -13.899  13.557  11.344  1.00  0.00     0.042 C 
ATOM      7  O   UNL     1     -12.934  13.979  12.033  1.00  0.00    -0.550 OA
ATOM      8  O   UNL     1     -14.834  12.705  11.918  1.00  0.00    -0.550 OA
ENDBRANCH   5   6
ENDBRANCH   1   5
TORSDOF 3
ENDMDL
MODEL 7
REMARK VINA RESULT:    -2.773      8.849     10.298
REMARK INTER + INTRA:          -3.301
REMARK INTER:                  -3.258
REMARK INTRA:                  -0.043
REMARK UNBOUND:                -0.041
REMARK SMILES O=C([O-])CCC(=O)[O-]
REMARK SMILES IDX 4 1 2 2 1 3 3 4 5 5 6 6 7 7 8 8
REMARK H PARENT
REMARK Flexibility Score: inf
ROOT
ATOM      1  C   UNL     1     -15.302  12.501   7.364  1.00  0.00     0.059 C 
ENDROOT
BRANCH   1   2
ATOM      2  C   UNL     1     -14.148  13.282   7.908  1.00  0.00     0.042 C 
ATOM      3  O   UNL     1     -14.072  13.524   9.142  1.00  0.00    -0.550 OA
ATOM      4  O   UNL     1     -13.130  13.701   7.061  1.00  0.00    -0.550 OA
ENDBRANCH   1   2
BRANCH   1   5
ATOM      5  C   UNL     1     -15.829  11.524   8.415  1.00  0.00     0.059 C 
BRANCH   5   6
ATOM      6  C   UNL     1     -15.936  10.146   7.842  1.00  0.00     0.042 C 
ATOM      7  O   UNL     1     -16.762   9.904   6.924  1.00  0.00    -0.550 OA
ATOM      8  O   UNL     1     -15.087   9.140   8.287  1.00  0.00    -0.550 OA
ENDBRANCH   5   6
ENDBRANCH   1   5
TORSDOF 3
ENDMDL
MODEL 8
REMARK VINA RESULT:    -2.711      8.918      9.865
REMARK INTER + INTRA:          -3.227
REMARK INTER:                  -3.118
REMARK INTRA:                  -0.109
REMARK UNBOUND:                -0.041
REMARK SMILES O=C([O-])CCC(=O)[O-]
REMARK SMILES IDX 4 1 2 2 1 3 3 4 5 5 6 6 7 7 8 8
REMARK H PARENT
REMARK Flexibility Score: inf
ROOT
ATOM      1  C   UNL     1     -16.296  12.185   8.028  1.00  0.00     0.059 C 
ENDROOT
BRANCH   1   2
ATOM      2  C   UNL     1     -15.990  10.721   7.964  1.00  0.00     0.042 C 
ATOM      3  O   UNL     1     -15.771  10.168   6.854  1.00  0.00    -0.550 OA
ATOM      4  O   UNL     1     -15.900   9.977   9.133  1.00  0.00    -0.550 OA
ENDBRANCH   1   2
BRANCH   1   5
ATOM      5  C   UNL     1     -15.383  12.964   7.081  1.00  0.00     0.059 C 
BRANCH   5   6
ATOM      6  C   UNL     1     -14.117  13.351   7.775  1.00  0.00     0.042 C 
ATOM      7  O   UNL     1     -13.109  13.703   7.108  1.00  0.00    -0.550 OA
ATOM      8  O   UNL     1     -14.063  13.371   9.164  1.00  0.00    -0.550 OA
ENDBRANCH   5   6
ENDBRANCH   1   5
TORSDOF 3
ENDMDL
MODEL 9
REMARK VINA RESULT:    -2.507     23.467     24.421
REMARK INTER + INTRA:          -2.987
REMARK INTER:                  -2.948
REMARK INTRA:                  -0.039
REMARK UNBOUND:                -0.041
REMARK SMILES O=C([O-])CCC(=O)[O-]
REMARK SMILES IDX 4 1 2 2 1 3 3 4 5 5 6 6 7 7 8 8
REMARK H PARENT
REMARK Flexibility Score: inf
ROOT
ATOM      1  C   UNL     1       1.255  20.184  12.698  1.00  0.00     0.059 C 
ENDROOT
BRANCH   1   2
ATOM      2  C   UNL     1       1.867  18.840  12.941  1.00  0.00     0.042 C 
ATOM      3  O   UNL     1       3.118  18.719  13.024  1.00  0.00    -0.550 OA
ATOM      4  O   UNL     1       1.055  17.729  13.125  1.00  0.00    -0.550 OA
ENDBRANCH   1   2
BRANCH   1   5
ATOM      5  C   UNL     1       2.338  21.213  12.371  1.00  0.00     0.059 C 
BRANCH   5   6
ATOM      6  C   UNL     1       1.831  22.209  11.377  1.00  0.00     0.042 C 
ATOM      7  O   UNL     1       0.923  23.020  11.699  1.00  0.00    -0.550 OA
ATOM      8  O   UNL     1       2.395  22.276  10.109  1.00  0.00    -0.550 OA
ENDBRANCH   5   6
ENDBRANCH   1   5
TORSDOF 3
ENDMDL
