MODEL 1
REMARK VINA RESULT:    -4.405      0.000      0.000
REMARK INTER + INTRA:          -5.918
REMARK INTER:                  -6.208
REMARK INTRA:                   0.290
REMARK UNBOUND:                 0.290
REMARK SMILES CC1=CCC(=C(C)C)C(=O)CC(C)=CCC1
REMARK SMILES IDX 12 1 14 2 13 3 15 4 16 5 2 6 1 7 3 8 11 10 9 11 10 12 5 13
REMARK SMILES IDX 6 14 7 15 8 16 4 17
REMARK H PARENT
REMARK Flexibility Score: 60.00
ROOT
ATOM      1  C   UNL     1       8.786 -18.257 -22.070  1.00  0.00    -0.070 C 
ATOM      2  C   UNL     1       9.084 -18.739 -20.842  1.00  0.00    -0.027 C 
ATOM      3  C   UNL     1       7.527 -18.752 -22.735  1.00  0.00     0.039 C 
ENDROOT
BRANCH   2   4
ATOM      4  C   UNL     1      10.243 -18.296 -19.977  1.00  0.00     0.032 C 
BRANCH   4   5
ATOM      5  C   UNL     1      11.558 -19.068 -20.211  1.00  0.00     0.034 C 
BRANCH   5   6
ATOM      6  C   UNL     1      12.762 -18.158 -20.374  1.00  0.00    -0.077 C 
ATOM      7  C   UNL     1      13.356 -17.549 -19.129  1.00  0.00     0.039 C 
ATOM      8  C   UNL     1      13.379 -17.911 -21.556  1.00  0.00    -0.023 CG0
ATOM      9  G   UNL     1      12.953 -18.394 -22.929  1.00  0.00     0.000 G0
ENDBRANCH   5   6
ENDBRANCH   4   5
ENDBRANCH   2   4
BRANCH   1  10
ATOM     10  C   UNL     1       9.603 -17.185 -22.763  1.00  0.00     0.111 C 
BRANCH  10  11
ATOM     11  C   UNL     1      10.610 -17.779 -23.711  1.00  0.00     0.163 C 
ATOM     12  O   UNL     1      10.191 -18.550 -24.616  1.00  0.00    -0.294 OA
BRANCH  11  13
ATOM     13  C   UNL     1      12.064 -17.439 -23.654  1.00  0.00    -0.002 C 
ATOM     14  C   UNL     1      12.527 -16.259 -24.166  1.00  0.00    -0.069 C 
ATOM     15  C   UNL     1      11.620 -15.331 -24.942  1.00  0.00     0.039 C 
ATOM     16  C   UNL     1      13.962 -15.816 -23.982  1.00  0.00     0.039 C 
BRANCH  13  17
ATOM     17  C   UNL     1      12.976 -18.411 -22.924  1.00  0.00     0.066 CG0
ATOM     18  G   UNL     1      13.366 -17.912 -21.546  1.00  0.00     0.000 G0
ENDBRANCH  13  17
ENDBRANCH  11  13
ENDBRANCH  10  11
ENDBRANCH   1  10
TORSDOF 0
ENDMDL
MODEL 2
REMARK VINA RESULT:    -4.301      2.369      4.606
REMARK INTER + INTRA:          -5.770
REMARK INTER:                  -5.888
REMARK INTRA:                   0.118
REMARK UNBOUND:                 0.290
REMARK SMILES CC1=CCC(=C(C)C)C(=O)CC(C)=CCC1
REMARK SMILES IDX 12 1 14 2 13 3 15 4 16 5 2 6 1 7 3 8 11 10 9 11 10 12 5 13
REMARK SMILES IDX 6 14 7 15 8 16 4 17
REMARK H PARENT
REMARK Flexibility Score: 60.00
ROOT
ATOM      1  C   UNL     1      13.861 -19.786 -19.998  1.00  0.00    -0.070 C 
ATOM      2  C   UNL     1      14.695 -20.633 -20.641  1.00  0.00    -0.027 C 
ATOM      3  C   UNL     1      14.340 -19.166 -18.709  1.00  0.00     0.039 C 
ENDROOT
BRANCH   2   4
ATOM      4  C   UNL     1      14.438 -21.275 -21.986  1.00  0.00     0.032 C 
BRANCH   4   5
ATOM      5  C   UNL     1      14.974 -20.479 -23.195  1.00  0.00     0.034 C 
BRANCH   5   6
ATOM      6  C   UNL     1      13.990 -20.414 -24.350  1.00  0.00    -0.077 C 
ATOM      7  C   UNL     1      13.860 -21.631 -25.230  1.00  0.00     0.039 C 
ATOM      8  C   UNL     1      13.174 -19.361 -24.599  1.00  0.00    -0.023 CG0
ATOM      9  G   UNL     1      13.142 -18.034 -23.866  1.00  0.00     0.000 G0
ENDBRANCH   5   6
ENDBRANCH   4   5
ENDBRANCH   2   4
BRANCH   1  10
ATOM     10  C   UNL     1      12.516 -19.362 -20.554  1.00  0.00     0.111 C 
BRANCH  10  11
ATOM     11  C   UNL     1      12.621 -18.092 -21.355  1.00  0.00     0.163 C 
ATOM     12  O   UNL     1      13.217 -17.109 -20.837  1.00  0.00    -0.294 OA
BRANCH  11  13
ATOM     13  C   UNL     1      12.101 -17.979 -22.751  1.00  0.00    -0.002 C 
ATOM     14  C   UNL     1      10.770 -17.777 -22.988  1.00  0.00    -0.069 C 
ATOM     15  C   UNL     1       9.759 -17.817 -21.864  1.00  0.00     0.039 C 
ATOM     16  C   UNL     1      10.237 -17.501 -24.377  1.00  0.00     0.039 C 
BRANCH  13  17
ATOM     17  C   UNL     1      13.122 -18.004 -23.877  1.00  0.00     0.066 CG0
ATOM     18  G   UNL     1      13.170 -19.345 -24.583  1.00  0.00     0.000 G0
ENDBRANCH  13  17
ENDBRANCH  11  13
ENDBRANCH  10  11
ENDBRANCH   1  10
TORSDOF 0
ENDMDL
MODEL 3
REMARK VINA RESULT:    -4.052      7.050      8.786
REMARK INTER + INTRA:          -5.420
REMARK INTER:                  -5.679
REMARK INTRA:                   0.260
REMARK UNBOUND:                 0.290
REMARK SMILES CC1=CCC(=C(C)C)C(=O)CC(C)=CCC1
REMARK SMILES IDX 12 1 14 2 13 3 15 4 16 5 2 6 1 7 3 8 11 10 9 11 10 12 5 13
REMARK SMILES IDX 6 14 7 15 8 16 4 17
REMARK H PARENT
REMARK Flexibility Score: 60.00
ROOT
ATOM      1  C   UNL     1      16.721 -23.769 -23.454  1.00  0.00    -0.070 C 
ATOM      2  C   UNL     1      15.680 -22.961 -23.156  1.00  0.00    -0.027 C 
ATOM      3  C   UNL     1      16.863 -25.053 -22.676  1.00  0.00     0.039 C 
ENDROOT
BRANCH   2   4
ATOM      4  C   UNL     1      15.313 -21.687 -23.885  1.00  0.00     0.032 C 
BRANCH   4   5
ATOM      5  C   UNL     1      16.468 -20.675 -24.040  1.00  0.00     0.034 C 
BRANCH   5   6
ATOM      6  C   UNL     1      17.046 -20.221 -22.712  1.00  0.00    -0.077 C 
ATOM      7  C   UNL     1      16.119 -19.536 -21.740  1.00  0.00     0.039 C 
ATOM      8  C   UNL     1      18.322 -20.452 -22.316  1.00  0.00    -0.023 CG0
ATOM      9  G   UNL     1      19.429 -21.099 -23.124  1.00  0.00     0.000 G0
ENDBRANCH   5   6
ENDBRANCH   4   5
ENDBRANCH   2   4
BRANCH   1  10
ATOM     10  C   UNL     1      17.691 -23.493 -24.586  1.00  0.00     0.111 C 
BRANCH  10  11
ATOM     11  C   UNL     1      19.113 -23.436 -24.097  1.00  0.00     0.163 C 
ATOM     12  O   UNL     1      19.985 -24.093 -24.728  1.00  0.00    -0.294 OA
BRANCH  11  13
ATOM     13  C   UNL     1      19.532 -22.589 -22.940  1.00  0.00    -0.002 C 
ATOM     14  C   UNL     1      20.042 -23.156 -21.806  1.00  0.00    -0.069 C 
ATOM     15  C   UNL     1      20.058 -24.657 -21.618  1.00  0.00     0.039 C 
ATOM     16  C   UNL     1      20.620 -22.321 -20.684  1.00  0.00     0.039 C 
BRANCH  13  17
ATOM     17  C   UNL     1      19.453 -21.081 -23.119  1.00  0.00     0.066 CG0
ATOM     18  G   UNL     1      18.331 -20.463 -22.308  1.00  0.00     0.000 G0
ENDBRANCH  13  17
ENDBRANCH  11  13
ENDBRANCH  10  11
ENDBRANCH   1  10
TORSDOF 0
ENDMDL
MODEL 4
REMARK VINA RESULT:    -4.032      2.749      5.167
REMARK INTER + INTRA:          -5.392
REMARK INTER:                  -5.589
REMARK INTRA:                   0.196
REMARK UNBOUND:                 0.290
REMARK SMILES CC1=CCC(=C(C)C)C(=O)CC(C)=CCC1
REMARK SMILES IDX 12 1 14 2 13 3 15 4 16 5 2 6 1 7 3 8 11 10 9 11 10 12 5 13
REMARK SMILES IDX 6 14 7 15 8 16 4 17
REMARK H PARENT
REMARK Flexibility Score: 60.00
ROOT
ATOM      1  C   UNL     1      16.290 -17.723 -19.228  1.00  0.00    -0.070 C 
ATOM      2  C   UNL     1      15.240 -17.519 -18.401  1.00  0.00    -0.027 C 
ATOM      3  C   UNL     1      17.633 -17.182 -18.808  1.00  0.00     0.039 C 
ENDROOT
BRANCH   2   4
ATOM      4  C   UNL     1      13.842 -18.065 -18.598  1.00  0.00     0.032 C 
BRANCH   4   5
ATOM      5  C   UNL     1      12.930 -17.200 -19.493  1.00  0.00     0.034 C 
BRANCH   5   6
ATOM      6  C   UNL     1      12.220 -17.999 -20.570  1.00  0.00    -0.077 C 
ATOM      7  C   UNL     1      11.071 -18.879 -20.149  1.00  0.00     0.039 C 
ATOM      8  C   UNL     1      12.507 -17.922 -21.893  1.00  0.00    -0.023 CG0
ATOM      9  G   UNL     1      13.622 -17.126 -22.543  1.00  0.00     0.000 G0
ENDBRANCH   5   6
ENDBRANCH   4   5
ENDBRANCH   2   4
BRANCH   1  10
ATOM     10  C   UNL     1      16.200 -18.540 -20.501  1.00  0.00     0.111 C 
BRANCH  10  11
ATOM     11  C   UNL     1      15.995 -17.666 -21.709  1.00  0.00     0.163 C 
ATOM     12  O   UNL     1      16.804 -16.718 -21.901  1.00  0.00    -0.294 OA
BRANCH  11  13
ATOM     13  C   UNL     1      14.915 -17.921 -22.709  1.00  0.00    -0.002 C 
ATOM     14  C   UNL     1      15.059 -18.889 -23.664  1.00  0.00    -0.069 C 
ATOM     15  C   UNL     1      16.367 -19.626 -23.842  1.00  0.00     0.039 C 
ATOM     16  C   UNL     1      13.925 -19.277 -24.587  1.00  0.00     0.039 C 
BRANCH  13  17
ATOM     17  C   UNL     1      13.626 -17.128 -22.557  1.00  0.00     0.066 CG0
ATOM     18  G   UNL     1      12.526 -17.938 -21.901  1.00  0.00     0.000 G0
ENDBRANCH  13  17
ENDBRANCH  11  13
ENDBRANCH  10  11
ENDBRANCH   1  10
TORSDOF 0
ENDMDL
MODEL 5
REMARK VINA RESULT:    -3.971      1.771      3.880
REMARK INTER + INTRA:          -5.305
REMARK INTER:                  -5.479
REMARK INTRA:                   0.174
REMARK UNBOUND:                 0.290
REMARK SMILES CC1=CCC(=C(C)C)C(=O)CC(C)=CCC1
REMARK SMILES IDX 12 1 14 2 13 3 15 4 16 5 2 6 1 7 3 8 11 10 9 11 10 12 5 13
REMARK SMILES IDX 6 14 7 15 8 16 4 17
REMARK H PARENT
REMARK Flexibility Score: 60.00
ROOT
ATOM      1  C   UNL     1      10.213 -17.989 -21.229  1.00  0.00    -0.070 C 
ATOM      2  C   UNL     1       9.842 -17.619 -22.475  1.00  0.00    -0.027 C 
ATOM      3  C   UNL     1       9.342 -18.979 -20.498  1.00  0.00     0.039 C 
ENDROOT
BRANCH   2   4
ATOM      4  C   UNL     1      10.630 -16.718 -23.400  1.00  0.00     0.032 C 
BRANCH   4   5
ATOM      5  C   UNL     1      11.859 -17.380 -24.057  1.00  0.00     0.034 C 
BRANCH   5   6
ATOM      6  C   UNL     1      13.130 -16.565 -23.899  1.00  0.00    -0.077 C 
ATOM      7  C   UNL     1      13.166 -15.193 -24.524  1.00  0.00     0.039 C 
ATOM      8  C   UNL     1      14.208 -16.962 -23.179  1.00  0.00    -0.023 CG0
ATOM      9  G   UNL     1      14.404 -18.295 -22.485  1.00  0.00     0.000 G0
ENDBRANCH   5   6
ENDBRANCH   4   5
ENDBRANCH   2   4
BRANCH   1  10
ATOM     10  C   UNL     1      11.500 -17.528 -20.573  1.00  0.00     0.111 C 
BRANCH  10  11
ATOM     11  C   UNL     1      12.579 -18.573 -20.671  1.00  0.00     0.163 C 
ATOM     12  O   UNL     1      12.251 -19.781 -20.520  1.00  0.00    -0.294 OA
BRANCH  11  13
ATOM     13  C   UNL     1      13.996 -18.234 -20.998  1.00  0.00    -0.002 C 
ATOM     14  C   UNL     1      14.897 -17.962 -20.006  1.00  0.00    -0.069 C 
ATOM     15  C   UNL     1      14.461 -17.841 -18.562  1.00  0.00     0.039 C 
ATOM     16  C   UNL     1      16.371 -17.773 -20.292  1.00  0.00     0.039 C 
BRANCH  13  17
ATOM     17  C   UNL     1      14.407 -18.299 -22.460  1.00  0.00     0.066 CG0
ATOM     18  G   UNL     1      14.227 -16.970 -23.168  1.00  0.00     0.000 G0
ENDBRANCH  13  17
ENDBRANCH  11  13
ENDBRANCH  10  11
ENDBRANCH   1  10
TORSDOF 0
ENDMDL
MODEL 6
REMARK VINA RESULT:    -3.935      6.807      8.508
REMARK INTER + INTRA:          -5.255
REMARK INTER:                  -5.495
REMARK INTRA:                   0.241
REMARK UNBOUND:                 0.290
REMARK SMILES CC1=CCC(=C(C)C)C(=O)CC(C)=CCC1
REMARK SMILES IDX 12 1 14 2 13 3 15 4 16 5 2 6 1 7 3 8 11 10 9 11 10 12 5 13
REMARK SMILES IDX 6 14 7 15 8 16 4 17
REMARK H PARENT
REMARK Flexibility Score: 60.00
ROOT
ATOM      1  C   UNL     1      18.506 -24.638 -23.594  1.00  0.00    -0.070 C 
ATOM      2  C   UNL     1      17.273 -24.919 -23.117  1.00  0.00    -0.027 C 
ATOM      3  C   UNL     1      19.330 -25.779 -24.136  1.00  0.00     0.039 C 
ENDROOT
BRANCH   2   4
ATOM      4  C   UNL     1      16.265 -23.904 -22.624  1.00  0.00     0.032 C 
BRANCH   4   5
ATOM      5  C   UNL     1      15.580 -23.080 -23.735  1.00  0.00     0.034 C 
BRANCH   5   6
ATOM      6  C   UNL     1      15.551 -21.591 -23.441  1.00  0.00    -0.077 C 
ATOM      7  C   UNL     1      14.831 -21.135 -22.198  1.00  0.00     0.039 C 
ATOM      8  C   UNL     1      16.187 -20.654 -24.186  1.00  0.00    -0.023 CG0
ATOM      9  G   UNL     1      16.951 -20.874 -25.477  1.00  0.00     0.000 G0
ENDBRANCH   5   6
ENDBRANCH   4   5
ENDBRANCH   2   4
BRANCH   1  10
ATOM     10  C   UNL     1      19.059 -23.230 -23.693  1.00  0.00     0.111 C 
BRANCH  10  11
ATOM     11  C   UNL     1      18.796 -22.623 -25.045  1.00  0.00     0.163 C 
ATOM     12  O   UNL     1      18.840 -23.378 -26.054  1.00  0.00    -0.294 OA
BRANCH  11  13
ATOM     13  C   UNL     1      18.430 -21.186 -25.221  1.00  0.00    -0.002 C 
ATOM     14  C   UNL     1      19.392 -20.215 -25.235  1.00  0.00    -0.069 C 
ATOM     15  C   UNL     1      20.836 -20.538 -24.919  1.00  0.00     0.039 C 
ATOM     16  C   UNL     1      19.072 -18.775 -25.569  1.00  0.00     0.039 C 
BRANCH  13  17
ATOM     17  C   UNL     1      16.965 -20.868 -25.477  1.00  0.00     0.066 CG0
ATOM     18  G   UNL     1      16.190 -20.654 -24.192  1.00  0.00     0.000 G0
ENDBRANCH  13  17
ENDBRANCH  11  13
ENDBRANCH  10  11
ENDBRANCH   1  10
TORSDOF 0
ENDMDL
MODEL 7
REMARK VINA RESULT:    -3.885      2.641      4.916
REMARK INTER + INTRA:          -5.185
REMARK INTER:                  -5.625
REMARK INTRA:                   0.440
REMARK UNBOUND:                 0.290
REMARK SMILES CC1=CCC(=C(C)C)C(=O)CC(C)=CCC1
REMARK SMILES IDX 12 1 14 2 13 3 15 4 16 5 2 6 1 7 3 8 11 10 9 11 10 12 5 13
REMARK SMILES IDX 6 14 7 15 8 16 4 17
REMARK H PARENT
REMARK Flexibility Score: 60.00
ROOT
ATOM      1  C   UNL     1      14.901 -17.824 -18.666  1.00  0.00    -0.070 C 
ATOM      2  C   UNL     1      16.136 -17.557 -19.147  1.00  0.00    -0.027 C 
ATOM      3  C   UNL     1      14.799 -18.538 -17.342  1.00  0.00     0.039 C 
ENDROOT
BRANCH   2   4
ATOM      4  C   UNL     1      16.444 -16.769 -20.402  1.00  0.00     0.032 C 
BRANCH   4   5
ATOM      5  C   UNL     1      17.260 -17.536 -21.463  1.00  0.00     0.034 C 
BRANCH   5   6
ATOM      6  C   UNL     1      16.615 -18.843 -21.883  1.00  0.00    -0.077 C 
ATOM      7  C   UNL     1      17.411 -20.110 -21.699  1.00  0.00     0.039 C 
ATOM      8  C   UNL     1      15.346 -18.954 -22.348  1.00  0.00    -0.023 CG0
ATOM      9  G   UNL     1      14.373 -17.827 -22.632  1.00  0.00     0.000 G0
ENDBRANCH   5   6
ENDBRANCH   4   5
ENDBRANCH   2   4
BRANCH   1  10
ATOM     10  C   UNL     1      13.627 -17.362 -19.344  1.00  0.00     0.111 C 
BRANCH  10  11
ATOM     11  C   UNL     1      13.182 -18.329 -20.409  1.00  0.00     0.163 C 
ATOM     12  O   UNL     1      12.841 -19.489 -20.053  1.00  0.00    -0.294 OA
BRANCH  11  13
ATOM     13  C   UNL     1      13.073 -17.943 -21.848  1.00  0.00    -0.002 C 
ATOM     14  C   UNL     1      11.861 -17.635 -22.400  1.00  0.00    -0.069 C 
ATOM     15  C   UNL     1      10.576 -17.822 -21.625  1.00  0.00     0.039 C 
ATOM     16  C   UNL     1      11.737 -17.090 -23.806  1.00  0.00     0.039 C 
BRANCH  13  17
ATOM     17  C   UNL     1      14.368 -17.819 -22.634  1.00  0.00     0.066 CG0
ATOM     18  G   UNL     1      15.333 -18.950 -22.336  1.00  0.00     0.000 G0
ENDBRANCH  13  17
ENDBRANCH  11  13
ENDBRANCH  10  11
ENDBRANCH   1  10
TORSDOF 0
ENDMDL
MODEL 8
REMARK VINA RESULT:    -3.755      2.591      4.152
REMARK INTER + INTRA:          -5.002
REMARK INTER:                  -5.428
REMARK INTRA:                   0.426
REMARK UNBOUND:                 0.290
REMARK SMILES CC1=CCC(=C(C)C)C(=O)CC(C)=CCC1
REMARK SMILES IDX 12 1 14 2 13 3 15 4 16 5 2 6 1 7 3 8 11 10 9 11 10 12 5 13
REMARK SMILES IDX 6 14 7 15 8 16 4 17
REMARK H PARENT
REMARK Flexibility Score: 60.00
ROOT
ATOM      1  C   UNL     1      13.997 -18.489 -19.955  1.00  0.00    -0.070 C 
ATOM      2  C   UNL     1      14.424 -19.771 -19.967  1.00  0.00    -0.027 C 
ATOM      3  C   UNL     1      14.732 -17.508 -19.077  1.00  0.00     0.039 C 
ENDROOT
BRANCH   2   4
ATOM      4  C   UNL     1      13.883 -20.874 -20.849  1.00  0.00     0.032 C 
BRANCH   4   5
ATOM      5  C   UNL     1      14.877 -21.408 -21.902  1.00  0.00     0.034 C 
BRANCH   5   6
ATOM      6  C   UNL     1      15.631 -20.306 -22.624  1.00  0.00    -0.077 C 
ATOM      7  C   UNL     1      17.114 -20.193 -22.379  1.00  0.00     0.039 C 
ATOM      8  C   UNL     1      15.070 -19.462 -23.525  1.00  0.00    -0.023 CG0
ATOM      9  G   UNL     1      13.608 -19.377 -23.913  1.00  0.00     0.000 G0
ENDBRANCH   5   6
ENDBRANCH   4   5
ENDBRANCH   2   4
BRANCH   1  10
ATOM     10  C   UNL     1      12.882 -17.975 -20.844  1.00  0.00     0.111 C 
BRANCH  10  11
ATOM     11  C   UNL     1      13.406 -17.489 -22.169  1.00  0.00     0.163 C 
ATOM     12  O   UNL     1      14.296 -16.596 -22.164  1.00  0.00    -0.294 OA
BRANCH  11  13
ATOM     13  C   UNL     1      12.955 -18.065 -23.471  1.00  0.00    -0.002 C 
ATOM     14  C   UNL     1      12.056 -17.399 -24.257  1.00  0.00    -0.069 C 
ATOM     15  C   UNL     1      11.371 -16.141 -23.771  1.00  0.00     0.039 C 
ATOM     16  C   UNL     1      11.701 -17.877 -25.648  1.00  0.00     0.039 C 
BRANCH  13  17
ATOM     17  C   UNL     1      13.606 -19.364 -23.919  1.00  0.00     0.066 CG0
ATOM     18  G   UNL     1      15.066 -19.444 -23.518  1.00  0.00     0.000 G0
ENDBRANCH  13  17
ENDBRANCH  11  13
ENDBRANCH  10  11
ENDBRANCH   1  10
TORSDOF 0
ENDMDL
MODEL 9
REMARK VINA RESULT:    -3.687      6.529      8.714
REMARK INTER + INTRA:          -4.906
REMARK INTER:                  -5.080
REMARK INTRA:                   0.174
REMARK UNBOUND:                 0.290
REMARK SMILES CC1=CCC(=C(C)C)C(=O)CC(C)=CCC1
REMARK SMILES IDX 12 1 14 2 13 3 15 4 16 5 2 6 1 7 3 8 11 10 9 11 10 12 5 13
REMARK SMILES IDX 6 14 7 15 8 16 4 17
REMARK H PARENT
REMARK Flexibility Score: 60.00
ROOT
ATOM      1  C   UNL     1      19.882 -20.935 -24.884  1.00  0.00    -0.070 C 
ATOM      2  C   UNL     1      20.225 -22.209 -25.177  1.00  0.00    -0.027 C 
ATOM      3  C   UNL     1      20.342 -19.847 -25.821  1.00  0.00     0.039 C 
ENDROOT
BRANCH   2   4
ATOM      4  C   UNL     1      19.781 -23.440 -24.419  1.00  0.00     0.032 C 
BRANCH   4   5
ATOM      5  C   UNL     1      18.376 -23.960 -24.794  1.00  0.00     0.034 C 
BRANCH   5   6
ATOM      6  C   UNL     1      17.543 -24.351 -23.587  1.00  0.00    -0.077 C 
ATOM      7  C   UNL     1      17.977 -25.561 -22.798  1.00  0.00     0.039 C 
ATOM      8  C   UNL     1      16.477 -23.647 -23.134  1.00  0.00    -0.023 CG0
ATOM      9  G   UNL     1      15.853 -22.421 -23.770  1.00  0.00     0.000 G0
ENDBRANCH   5   6
ENDBRANCH   4   5
ENDBRANCH   2   4
BRANCH   1  10
ATOM     10  C   UNL     1      18.988 -20.562 -23.718  1.00  0.00     0.111 C 
BRANCH  10  11
ATOM     11  C   UNL     1      17.539 -20.512 -24.122  1.00  0.00     0.163 C 
ATOM     12  O   UNL     1      17.249 -19.986 -25.230  1.00  0.00    -0.294 OA
BRANCH  11  13
ATOM     13  C   UNL     1      16.453 -21.114 -23.291  1.00  0.00    -0.002 C 
ATOM     14  C   UNL     1      15.976 -20.465 -22.187  1.00  0.00    -0.069 C 
ATOM     15  C   UNL     1      16.630 -19.200 -21.678  1.00  0.00     0.039 C 
ATOM     16  C   UNL     1      14.774 -20.969 -21.419  1.00  0.00     0.039 C 
BRANCH  13  17
ATOM     17  C   UNL     1      15.846 -22.419 -23.781  1.00  0.00     0.066 CG0
ATOM     18  G   UNL     1      16.480 -23.630 -23.125  1.00  0.00     0.000 G0
ENDBRANCH  13  17
ENDBRANCH  11  13
ENDBRANCH  10  11
ENDBRANCH   1  10
TORSDOF 0
ENDMDL
