MODEL 1
REMARK VINA RESULT:    -6.847      0.000      0.000
REMARK INTER + INTRA:         -10.229
REMARK INTER:                  -9.248
REMARK INTRA:                  -0.981
REMARK UNBOUND:                -0.981
REMARK SMILES O=c1c(-c2ccc(O)cc2)coc2c([C@@H]3O[C@H](CO)[C@@H](O)[C@H](O)[C@H]3O)c(O)ccc12
REMARK SMILES IDX 3 1 11 2 12 3 13 4 30 5 2 6 1 7 29 8 28 9 26 10 14 11 4 12
REMARK SMILES IDX 5 13 6 14 7 15 10 16 9 17 8 18 15 20 24 21 16 22 22 23 17 24
REMARK SMILES IDX 20 25 25 26 23 28 18 30 19 31 21 33 27 35
REMARK H PARENT 8 19 25 27 23 29 19 32 21 34 27 36
REMARK Flexibility Score: inf
ROOT
ATOM      1  C   UNL     1     478.825  38.475 461.079  1.00  0.00     0.065 A 
ATOM      2  C   UNL     1     479.952  38.638 461.882  1.00  0.00     0.208 A 
ATOM      3  O   UNL     1     481.108  39.068 461.377  1.00  0.00    -0.463 OA
ATOM      4  C   UNL     1     481.234  39.373 460.092  1.00  0.00     0.147 A 
ATOM      5  C   UNL     1     480.068  39.573 459.324  1.00  0.00     0.066 A 
ATOM      6  C   UNL     1     478.846  39.097 459.836  1.00  0.00     0.200 A 
ATOM      7  O   UNL     1     477.778  39.085 459.167  1.00  0.00    -0.288 OA
ATOM      8  C   UNL     1     480.210  39.946 457.957  1.00  0.00     0.020 A 
ATOM      9  C   UNL     1     481.401  39.709 457.320  1.00  0.00     0.047 A 
ATOM     10  C   UNL     1     482.330  38.929 458.037  1.00  0.00     0.125 A 
ATOM     11  C   UNL     1     482.513  39.244 459.425  1.00  0.00     0.069 A 
ENDROOT
BRANCH   1  12
ATOM     12  C   UNL     1     478.033  37.221 461.261  1.00  0.00    -0.011 A 
ATOM     13  C   UNL     1     476.909  37.166 462.115  1.00  0.00     0.013 A 
ATOM     14  C   UNL     1     476.380  35.917 462.570  1.00  0.00     0.047 A 
ATOM     15  C   UNL     1     476.970  34.723 462.095  1.00  0.00     0.115 A 
ATOM     16  C   UNL     1     478.606  36.002 460.814  1.00  0.00     0.013 A 
ATOM     17  C   UNL     1     478.094  34.781 461.252  1.00  0.00     0.047 A 
BRANCH  15  18
ATOM     18  O   UNL     1     476.439  33.512 462.503  1.00  0.00    -0.508 OA
ATOM     19  H   UNL     1     476.803  32.713 462.059  1.00  0.00     0.293 HD
ENDBRANCH  15  18
ENDBRANCH   1  12
BRANCH  11  20
ATOM     20  C   UNL     1     483.720  38.779 460.242  1.00  0.00     0.188 C 
ATOM     21  C   UNL     1     485.099  38.848 459.578  1.00  0.00     0.179 C 
ATOM     22  O   UNL     1     483.724  39.419 461.530  1.00  0.00    -0.362 OA
ATOM     23  C   UNL     1     485.506  40.335 459.276  1.00  0.00     0.177 C 
ATOM     24  C   UNL     1     484.468  40.661 461.619  1.00  0.00     0.176 C 
ATOM     25  C   UNL     1     484.848  41.286 460.261  1.00  0.00     0.177 C 
BRANCH  21  26
ATOM     26  O   UNL     1     486.046  38.331 460.503  1.00  0.00    -0.387 OA
ATOM     27  H   UNL     1     485.729  37.421 460.771  1.00  0.00     0.211 HD
ENDBRANCH  21  26
BRANCH  23  28
ATOM     28  O   UNL     1     485.153  40.730 457.979  1.00  0.00    -0.387 OA
ATOM     29  H   UNL     1     485.971  40.805 457.411  1.00  0.00     0.211 HD
ENDBRANCH  23  28
BRANCH  24  30
ATOM     30  C   UNL     1     483.724  41.609 462.521  1.00  0.00     0.191 C 
BRANCH  30  31
ATOM     31  O   UNL     1     482.486  41.119 462.957  1.00  0.00    -0.394 OA
ATOM     32  H   UNL     1     482.348  40.188 462.610  1.00  0.00     0.210 HD
ENDBRANCH  30  31
ENDBRANCH  24  30
BRANCH  25  33
ATOM     33  O   UNL     1     485.660  42.429 460.464  1.00  0.00    -0.388 OA
ATOM     34  H   UNL     1     486.579  42.065 460.599  1.00  0.00     0.211 HD
ENDBRANCH  25  33
ENDBRANCH  11  20
BRANCH  10  35
ATOM     35  O   UNL     1     482.399  37.582 457.629  1.00  0.00    -0.507 OA
ATOM     36  H   UNL     1     482.082  36.867 458.270  1.00  0.00     0.293 HD
ENDBRANCH  10  35
TORSDOF 9
ENDMDL
MODEL 2
REMARK VINA RESULT:    -6.334      1.411      1.852
REMARK INTER + INTRA:          -9.538
REMARK INTER:                  -8.697
REMARK INTRA:                  -0.841
REMARK UNBOUND:                -0.981
REMARK SMILES O=c1c(-c2ccc(O)cc2)coc2c([C@@H]3O[C@H](CO)[C@@H](O)[C@H](O)[C@H]3O)c(O)ccc12
REMARK SMILES IDX 3 1 11 2 12 3 13 4 30 5 2 6 1 7 29 8 28 9 26 10 14 11 4 12
REMARK SMILES IDX 5 13 6 14 7 15 10 16 9 17 8 18 15 20 24 21 16 22 22 23 17 24
REMARK SMILES IDX 20 25 25 26 23 28 18 30 19 31 21 33 27 35
REMARK H PARENT 8 19 25 27 23 29 19 32 21 34 27 36
REMARK Flexibility Score: inf
ROOT
ATOM      1  C   UNL     1     478.268  38.020 461.322  1.00  0.00     0.065 A 
ATOM      2  C   UNL     1     479.631  37.977 461.606  1.00  0.00     0.208 A 
ATOM      3  O   UNL     1     480.537  38.419 460.734  1.00  0.00    -0.463 OA
ATOM      4  C   UNL     1     480.181  38.932 459.563  1.00  0.00     0.147 A 
ATOM      5  C   UNL     1     478.840  39.329 459.374  1.00  0.00     0.066 A 
ATOM      6  C   UNL     1     477.873  38.844 460.274  1.00  0.00     0.200 A 
ATOM      7  O   UNL     1     476.635  39.010 460.107  1.00  0.00    -0.288 OA
ATOM      8  C   UNL     1     478.476  39.922 458.132  1.00  0.00     0.020 A 
ATOM      9  C   UNL     1     479.279  39.729 457.038  1.00  0.00     0.047 A 
ATOM     10  C   UNL     1     480.312  38.784 457.200  1.00  0.00     0.125 A 
ATOM     11  C   UNL     1     481.066  38.846 458.419  1.00  0.00     0.069 A 
ENDROOT
BRANCH   1  12
ATOM     12  C   UNL     1     477.465  36.802 461.643  1.00  0.00    -0.011 A 
ATOM     13  C   UNL     1     476.380  36.841 462.547  1.00  0.00     0.013 A 
ATOM     14  C   UNL     1     475.852  35.646 463.129  1.00  0.00     0.047 A 
ATOM     15  C   UNL     1     476.400  34.405 462.732  1.00  0.00     0.115 A 
ATOM     16  C   UNL     1     477.997  35.538 461.277  1.00  0.00     0.013 A 
ATOM     17  C   UNL     1     477.486  34.369 461.839  1.00  0.00     0.047 A 
BRANCH  15  18
ATOM     18  O   UNL     1     475.868  33.244 463.264  1.00  0.00    -0.508 OA
ATOM     19  H   UNL     1     474.888  33.221 463.349  1.00  0.00     0.293 HD
ENDBRANCH  15  18
ENDBRANCH   1  12
BRANCH  11  20
ATOM     20  C   UNL     1     482.431  38.178 458.600  1.00  0.00     0.188 C 
ATOM     21  C   UNL     1     483.398  38.200 457.412  1.00  0.00     0.179 C 
ATOM     22  O   UNL     1     483.062  38.655 459.802  1.00  0.00    -0.362 OA
ATOM     23  C   UNL     1     483.834  39.669 457.068  1.00  0.00     0.177 C 
ATOM     24  C   UNL     1     483.933  39.805 459.645  1.00  0.00     0.176 C 
ATOM     25  C   UNL     1     483.786  40.552 458.304  1.00  0.00     0.177 C 
BRANCH  21  26
ATOM     26  O   UNL     1     484.567  37.492 457.798  1.00  0.00    -0.387 OA
ATOM     27  H   UNL     1     485.317  38.152 457.824  1.00  0.00     0.211 HD
ENDBRANCH  21  26
BRANCH  23  28
ATOM     28  O   UNL     1     483.024  40.247 456.081  1.00  0.00    -0.387 OA
ATOM     29  H   UNL     1     482.977  39.647 455.285  1.00  0.00     0.211 HD
ENDBRANCH  23  28
BRANCH  24  30
ATOM     30  C   UNL     1     483.772  40.702 460.844  1.00  0.00     0.191 C 
BRANCH  30  31
ATOM     31  O   UNL     1     482.622  40.434 461.599  1.00  0.00    -0.394 OA
ATOM     32  H   UNL     1     482.016  41.234 461.588  1.00  0.00     0.210 HD
ENDBRANCH  30  31
ENDBRANCH  24  30
BRANCH  25  33
ATOM     33  O   UNL     1     484.753  41.583 458.214  1.00  0.00    -0.388 OA
ATOM     34  H   UNL     1     484.505  42.225 458.936  1.00  0.00     0.211 HD
ENDBRANCH  25  33
ENDBRANCH  11  20
BRANCH  10  35
ATOM     35  O   UNL     1     480.048  37.525 456.624  1.00  0.00    -0.507 OA
ATOM     36  H   UNL     1     479.421  37.478 455.833  1.00  0.00     0.293 HD
ENDBRANCH  10  35
TORSDOF 9
ENDMDL
MODEL 3
REMARK VINA RESULT:    -5.403      3.169      4.598
REMARK INTER + INTRA:          -8.280
REMARK INTER:                  -8.276
REMARK INTRA:                  -0.004
REMARK UNBOUND:                -0.981
REMARK SMILES O=c1c(-c2ccc(O)cc2)coc2c([C@@H]3O[C@H](CO)[C@@H](O)[C@H](O)[C@H]3O)c(O)ccc12
REMARK SMILES IDX 3 1 11 2 12 3 13 4 30 5 2 6 1 7 29 8 28 9 26 10 14 11 4 12
REMARK SMILES IDX 5 13 6 14 7 15 10 16 9 17 8 18 15 20 24 21 16 22 22 23 17 24
REMARK SMILES IDX 20 25 25 26 23 28 18 30 19 31 21 33 27 35
REMARK H PARENT 8 19 25 27 23 29 19 32 21 34 27 36
REMARK Flexibility Score: inf
ROOT
ATOM      1  C   UNL     1     478.877  37.468 460.588  1.00  0.00     0.065 A 
ATOM      2  C   UNL     1     479.828  36.937 459.720  1.00  0.00     0.208 A 
ATOM      3  O   UNL     1     480.124  37.533 458.565  1.00  0.00    -0.463 OA
ATOM      4  C   UNL     1     479.536  38.664 458.197  1.00  0.00     0.147 A 
ATOM      5  C   UNL     1     478.852  39.423 459.170  1.00  0.00     0.066 A 
ATOM      6  C   UNL     1     478.511  38.793 460.382  1.00  0.00     0.200 A 
ATOM      7  O   UNL     1     477.770  39.328 461.249  1.00  0.00    -0.288 OA
ATOM      8  C   UNL     1     478.264  40.659 458.778  1.00  0.00     0.020 A 
ATOM      9  C   UNL     1     478.013  40.888 457.450  1.00  0.00     0.047 A 
ATOM     10  C   UNL     1     478.188  39.781 456.597  1.00  0.00     0.125 A 
ATOM     11  C   UNL     1     479.366  38.986 456.794  1.00  0.00     0.069 A 
ENDROOT
BRANCH   1  12
ATOM     12  C   UNL     1     477.890  36.517 461.184  1.00  0.00    -0.011 A 
ATOM     13  C   UNL     1     476.851  36.957 462.034  1.00  0.00     0.013 A 
ATOM     14  C   UNL     1     476.146  36.044 462.881  1.00  0.00     0.047 A 
ATOM     15  C   UNL     1     476.469  34.670 462.807  1.00  0.00     0.115 A 
ATOM     16  C   UNL     1     478.194  35.132 461.145  1.00  0.00     0.013 A 
ATOM     17  C   UNL     1     477.510  34.237 461.967  1.00  0.00     0.047 A 
BRANCH  15  18
ATOM     18  O   UNL     1     475.765  33.779 463.597  1.00  0.00    -0.508 OA
ATOM     19  H   UNL     1     475.716  32.855 463.263  1.00  0.00     0.293 HD
ENDBRANCH  15  18
ENDBRANCH   1  12
BRANCH  11  20
ATOM     20  C   UNL     1     479.906  38.007 455.750  1.00  0.00     0.188 C 
ATOM     21  C   UNL     1     480.054  38.511 454.311  1.00  0.00     0.179 C 
ATOM     22  O   UNL     1     481.121  37.397 456.222  1.00  0.00    -0.362 OA
ATOM     23  C   UNL     1     481.127  39.655 454.222  1.00  0.00     0.177 C 
ATOM     24  C   UNL     1     482.352  38.070 455.852  1.00  0.00     0.176 C 
ATOM     25  C   UNL     1     482.170  39.505 455.316  1.00  0.00     0.177 C 
BRANCH  21  26
ATOM     26  O   UNL     1     480.527  37.426 453.524  1.00  0.00    -0.387 OA
ATOM     27  H   UNL     1     480.069  36.601 453.853  1.00  0.00     0.211 HD
ENDBRANCH  21  26
BRANCH  23  28
ATOM     28  O   UNL     1     480.555  40.929 454.330  1.00  0.00    -0.387 OA
ATOM     29  H   UNL     1     481.203  41.559 454.755  1.00  0.00     0.211 HD
ENDBRANCH  23  28
BRANCH  24  30
ATOM     30  C   UNL     1     483.317  37.986 457.006  1.00  0.00     0.191 C 
BRANCH  30  31
ATOM     31  O   UNL     1     484.663  37.972 456.617  1.00  0.00    -0.394 OA
ATOM     32  H   UNL     1     485.239  37.724 457.400  1.00  0.00     0.210 HD
ENDBRANCH  30  31
ENDBRANCH  24  30
BRANCH  25  33
ATOM     33  O   UNL     1     483.416  40.023 454.886  1.00  0.00    -0.388 OA
ATOM     34  H   UNL     1     484.076  39.680 455.551  1.00  0.00     0.211 HD
ENDBRANCH  25  33
ENDBRANCH  11  20
BRANCH  10  35
ATOM     35  O   UNL     1     476.991  39.142 456.215  1.00  0.00    -0.507 OA
ATOM     36  H   UNL     1     477.049  38.241 455.760  1.00  0.00     0.293 HD
ENDBRANCH  10  35
TORSDOF 9
ENDMDL
MODEL 4
REMARK VINA RESULT:    -5.375      2.487      3.365
REMARK INTER + INTRA:          -8.242
REMARK INTER:                  -7.488
REMARK INTRA:                  -0.754
REMARK UNBOUND:                -0.981
REMARK SMILES O=c1c(-c2ccc(O)cc2)coc2c([C@@H]3O[C@H](CO)[C@@H](O)[C@H](O)[C@H]3O)c(O)ccc12
REMARK SMILES IDX 3 1 11 2 12 3 13 4 30 5 2 6 1 7 29 8 28 9 26 10 14 11 4 12
REMARK SMILES IDX 5 13 6 14 7 15 10 16 9 17 8 18 15 20 24 21 16 22 22 23 17 24
REMARK SMILES IDX 20 25 25 26 23 28 18 30 19 31 21 33 27 35
REMARK H PARENT 8 19 25 27 23 29 19 32 21 34 27 36
REMARK Flexibility Score: inf
ROOT
ATOM      1  C   UNL     1     479.369  40.136 462.407  1.00  0.00     0.065 A 
ATOM      2  C   UNL     1     480.365  39.177 462.232  1.00  0.00     0.208 A 
ATOM      3  O   UNL     1     481.200  39.225 461.194  1.00  0.00    -0.463 OA
ATOM      4  C   UNL     1     481.129  40.194 460.291  1.00  0.00     0.147 A 
ATOM      5  C   UNL     1     480.402  41.362 460.602  1.00  0.00     0.066 A 
ATOM      6  C   UNL     1     479.497  41.313 461.679  1.00  0.00     0.200 A 
ATOM      7  O   UNL     1     478.691  42.245 461.942  1.00  0.00    -0.288 OA
ATOM      8  C   UNL     1     480.370  42.417 459.646  1.00  0.00     0.020 A 
ATOM      9  C   UNL     1     480.670  42.143 458.337  1.00  0.00     0.047 A 
ATOM     10  C   UNL     1     480.801  40.777 458.015  1.00  0.00     0.125 A 
ATOM     11  C   UNL     1     481.555  39.962 458.925  1.00  0.00     0.069 A 
ENDROOT
BRANCH   1  12
ATOM     12  C   UNL     1     478.007  39.646 462.779  1.00  0.00    -0.011 A 
ATOM     13  C   UNL     1     477.232  38.858 461.899  1.00  0.00     0.013 A 
ATOM     14  C   UNL     1     475.823  38.697 462.088  1.00  0.00     0.047 A 
ATOM     15  C   UNL     1     475.223  39.297 463.219  1.00  0.00     0.115 A 
ATOM     16  C   UNL     1     477.368  40.242 463.897  1.00  0.00     0.013 A 
ATOM     17  C   UNL     1     475.995  40.088 464.088  1.00  0.00     0.047 A 
BRANCH  15  18
ATOM     18  O   UNL     1     473.868  39.115 463.427  1.00  0.00    -0.508 OA
ATOM     19  H   UNL     1     473.526  39.399 464.305  1.00  0.00     0.293 HD
ENDBRANCH  15  18
ENDBRANCH   1  12
BRANCH  11  20
ATOM     20  C   UNL     1     482.114  38.587 458.557  1.00  0.00     0.188 C 
ATOM     21  C   UNL     1     482.725  38.415 457.163  1.00  0.00     0.179 C 
ATOM     22  O   UNL     1     483.009  38.124 459.585  1.00  0.00    -0.362 OA
ATOM     23  C   UNL     1     484.008  39.307 456.997  1.00  0.00     0.177 C 
ATOM     24  C   UNL     1     484.409  38.456 459.402  1.00  0.00     0.176 C 
ATOM     25  C   UNL     1     484.684  39.538 458.337  1.00  0.00     0.177 C 
BRANCH  21  26
ATOM     26  O   UNL     1     483.134  37.060 457.038  1.00  0.00    -0.387 OA
ATOM     27  H   UNL     1     483.332  36.900 456.071  1.00  0.00     0.211 HD
ENDBRANCH  21  26
BRANCH  23  28
ATOM     28  O   UNL     1     483.718  40.554 456.428  1.00  0.00    -0.387 OA
ATOM     29  H   UNL     1     483.185  41.105 457.069  1.00  0.00     0.211 HD
ENDBRANCH  23  28
BRANCH  24  30
ATOM     30  C   UNL     1     485.010  38.780 460.745  1.00  0.00     0.191 C 
BRANCH  30  31
ATOM     31  O   UNL     1     484.077  38.803 461.790  1.00  0.00    -0.394 OA
ATOM     32  H   UNL     1     484.296  39.551 462.423  1.00  0.00     0.210 HD
ENDBRANCH  30  31
ENDBRANCH  24  30
BRANCH  25  33
ATOM     33  O   UNL     1     486.080  39.705 458.165  1.00  0.00    -0.388 OA
ATOM     34  H   UNL     1     486.357  38.939 457.590  1.00  0.00     0.211 HD
ENDBRANCH  25  33
ENDBRANCH  11  20
BRANCH  10  35
ATOM     35  O   UNL     1     479.679  40.219 457.370  1.00  0.00    -0.507 OA
ATOM     36  H   UNL     1     478.995  39.727 457.930  1.00  0.00     0.293 HD
ENDBRANCH  10  35
TORSDOF 9
ENDMDL
MODEL 5
REMARK VINA RESULT:    -5.207      2.233      7.522
REMARK INTER + INTRA:          -8.015
REMARK INTER:                  -7.250
REMARK INTRA:                  -0.766
REMARK UNBOUND:                -0.981
REMARK SMILES O=c1c(-c2ccc(O)cc2)coc2c([C@@H]3O[C@H](CO)[C@@H](O)[C@H](O)[C@H]3O)c(O)ccc12
REMARK SMILES IDX 3 1 11 2 12 3 13 4 30 5 2 6 1 7 29 8 28 9 26 10 14 11 4 12
REMARK SMILES IDX 5 13 6 14 7 15 10 16 9 17 8 18 15 20 24 21 16 22 22 23 17 24
REMARK SMILES IDX 20 25 25 26 23 28 18 30 19 31 21 33 27 35
REMARK H PARENT 8 19 25 27 23 29 19 32 21 34 27 36
REMARK Flexibility Score: inf
ROOT
ATOM      1  C   UNL     1     483.831  41.149 462.212  1.00  0.00     0.065 A 
ATOM      2  C   UNL     1     482.466  40.958 462.014  1.00  0.00     0.208 A 
ATOM      3  O   UNL     1     482.009  40.084 461.117  1.00  0.00    -0.463 OA
ATOM      4  C   UNL     1     482.834  39.349 460.382  1.00  0.00     0.147 A 
ATOM      5  C   UNL     1     484.182  39.235 460.782  1.00  0.00     0.066 A 
ATOM      6  C   UNL     1     484.680  40.171 461.709  1.00  0.00     0.200 A 
ATOM      7  O   UNL     1     485.900  40.254 462.013  1.00  0.00    -0.288 OA
ATOM      8  C   UNL     1     485.051  38.407 460.016  1.00  0.00     0.020 A 
ATOM      9  C   UNL     1     484.703  38.082 458.730  1.00  0.00     0.047 A 
ATOM     10  C   UNL     1     483.587  38.768 458.210  1.00  0.00     0.125 A 
ATOM     11  C   UNL     1     482.441  38.892 459.065  1.00  0.00     0.069 A 
ENDROOT
BRANCH   1  12
ATOM     12  C   UNL     1     484.315  42.559 462.317  1.00  0.00    -0.011 A 
ATOM     13  C   UNL     1     484.632  43.326 461.174  1.00  0.00     0.013 A 
ATOM     14  C   UNL     1     485.424  44.514 461.270  1.00  0.00     0.047 A 
ATOM     15  C   UNL     1     485.835  44.946 462.552  1.00  0.00     0.115 A 
ATOM     16  C   UNL     1     484.755  43.019 463.585  1.00  0.00     0.013 A 
ATOM     17  C   UNL     1     485.525  44.176 463.687  1.00  0.00     0.047 A 
BRANCH  15  18
ATOM     18  O   UNL     1     486.570  46.114 462.654  1.00  0.00    -0.508 OA
ATOM     19  H   UNL     1     486.855  46.517 461.802  1.00  0.00     0.293 HD
ENDBRANCH  15  18
ENDBRANCH   1  12
BRANCH  11  20
ATOM     20  C   UNL     1     481.044  39.249 458.554  1.00  0.00     0.188 C 
ATOM     21  C   UNL     1     480.613  38.679 457.199  1.00  0.00     0.179 C 
ATOM     22  O   UNL     1     480.062  38.989 459.572  1.00  0.00    -0.362 OA
ATOM     23  C   UNL     1     480.512  37.112 457.254  1.00  0.00     0.177 C 
ATOM     24  C   UNL     1     479.454  37.672 459.542  1.00  0.00     0.176 C 
ATOM     25  C   UNL     1     480.186  36.640 458.661  1.00  0.00     0.177 C 
BRANCH  21  26
ATOM     26  O   UNL     1     479.312  39.176 456.919  1.00  0.00    -0.387 OA
ATOM     27  H   UNL     1     478.661  38.583 457.393  1.00  0.00     0.211 HD
ENDBRANCH  21  26
BRANCH  23  28
ATOM     28  O   UNL     1     481.698  36.489 456.843  1.00  0.00    -0.387 OA
ATOM     29  H   UNL     1     482.231  37.112 456.274  1.00  0.00     0.211 HD
ENDBRANCH  23  28
BRANCH  24  30
ATOM     30  C   UNL     1     479.246  37.202 460.958  1.00  0.00     0.191 C 
BRANCH  30  31
ATOM     31  O   UNL     1     478.271  36.204 461.084  1.00  0.00    -0.394 OA
ATOM     32  H   UNL     1     478.411  35.502 460.380  1.00  0.00     0.210 HD
ENDBRANCH  30  31
ENDBRANCH  24  30
BRANCH  25  33
ATOM     33  O   UNL     1     479.451  35.430 458.619  1.00  0.00    -0.388 OA
ATOM     34  H   UNL     1     478.501  35.715 458.514  1.00  0.00     0.211 HD
ENDBRANCH  25  33
ENDBRANCH  11  20
BRANCH  10  35
ATOM     35  O   UNL     1     483.907  39.830 457.341  1.00  0.00    -0.507 OA
ATOM     36  H   UNL     1     483.485  40.733 457.507  1.00  0.00     0.293 HD
ENDBRANCH  10  35
TORSDOF 9
ENDMDL
MODEL 6
REMARK VINA RESULT:    -5.185      2.229      4.009
REMARK INTER + INTRA:          -7.985
REMARK INTER:                  -7.648
REMARK INTRA:                  -0.337
REMARK UNBOUND:                -0.981
REMARK SMILES O=c1c(-c2ccc(O)cc2)coc2c([C@@H]3O[C@H](CO)[C@@H](O)[C@H](O)[C@H]3O)c(O)ccc12
REMARK SMILES IDX 3 1 11 2 12 3 13 4 30 5 2 6 1 7 29 8 28 9 26 10 14 11 4 12
REMARK SMILES IDX 5 13 6 14 7 15 10 16 9 17 8 18 15 20 24 21 16 22 22 23 17 24
REMARK SMILES IDX 20 25 25 26 23 28 18 30 19 31 21 33 27 35
REMARK H PARENT 8 19 25 27 23 29 19 32 21 34 27 36
REMARK Flexibility Score: inf
ROOT
ATOM      1  C   UNL     1     479.102  38.159 460.935  1.00  0.00     0.065 A 
ATOM      2  C   UNL     1     479.691  38.186 459.673  1.00  0.00     0.208 A 
ATOM      3  O   UNL     1     480.833  38.837 459.453  1.00  0.00    -0.463 OA
ATOM      4  C   UNL     1     481.465  39.478 460.427  1.00  0.00     0.147 A 
ATOM      5  C   UNL     1     481.122  39.190 461.765  1.00  0.00     0.066 A 
ATOM      6  C   UNL     1     479.904  38.527 462.009  1.00  0.00     0.200 A 
ATOM      7  O   UNL     1     479.432  38.361 463.165  1.00  0.00    -0.288 OA
ATOM      8  C   UNL     1     481.837  39.847 462.807  1.00  0.00     0.020 A 
ATOM      9  C   UNL     1     482.522  41.000 462.523  1.00  0.00     0.047 A 
ATOM     10  C   UNL     1     482.295  41.544 461.243  1.00  0.00     0.125 A 
ATOM     11  C   UNL     1     482.294  40.631 460.137  1.00  0.00     0.069 A 
ENDROOT
BRANCH   1  12
ATOM     12  C   UNL     1     477.627  38.392 461.006  1.00  0.00    -0.011 A 
ATOM     13  C   UNL     1     477.010  39.468 460.330  1.00  0.00     0.013 A 
ATOM     14  C   UNL     1     475.693  39.908 460.676  1.00  0.00     0.047 A 
ATOM     15  C   UNL     1     474.989  39.200 461.677  1.00  0.00     0.115 A 
ATOM     16  C   UNL     1     476.894  37.713 462.012  1.00  0.00     0.013 A 
ATOM     17  C   UNL     1     475.610  38.135 462.354  1.00  0.00     0.047 A 
BRANCH  15  18
ATOM     18  O   UNL     1     473.702  39.598 461.991  1.00  0.00    -0.508 OA
ATOM     19  H   UNL     1     473.090  39.712 461.228  1.00  0.00     0.293 HD
ENDBRANCH  15  18
ENDBRANCH   1  12
BRANCH  11  20
ATOM     20  C   UNL     1     482.447  41.072 458.680  1.00  0.00     0.188 C 
ATOM     21  C   UNL     1     483.560  42.072 458.352  1.00  0.00     0.179 C 
ATOM     22  O   UNL     1     482.499  39.923 457.816  1.00  0.00    -0.362 OA
ATOM     23  C   UNL     1     484.976  41.446 458.618  1.00  0.00     0.177 C 
ATOM     24  C   UNL     1     483.824  39.407 457.529  1.00  0.00     0.176 C 
ATOM     25  C   UNL     1     484.940  39.936 458.453  1.00  0.00     0.177 C 
BRANCH  21  26
ATOM     26  O   UNL     1     483.480  42.361 456.963  1.00  0.00    -0.387 OA
ATOM     27  H   UNL     1     484.091  43.133 456.787  1.00  0.00     0.211 HD
ENDBRANCH  21  26
BRANCH  23  28
ATOM     28  O   UNL     1     485.453  41.738 459.902  1.00  0.00    -0.387 OA
ATOM     29  H   UNL     1     484.689  41.821 460.539  1.00  0.00     0.211 HD
ENDBRANCH  23  28
BRANCH  24  30
ATOM     30  C   UNL     1     483.758  37.903 457.479  1.00  0.00     0.191 C 
BRANCH  30  31
ATOM     31  O   UNL     1     484.638  37.270 458.367  1.00  0.00    -0.394 OA
ATOM     32  H   UNL     1     485.536  37.718 458.331  1.00  0.00     0.210 HD
ENDBRANCH  30  31
ENDBRANCH  24  30
BRANCH  25  33
ATOM     33  O   UNL     1     486.199  39.455 458.017  1.00  0.00    -0.388 OA
ATOM     34  H   UNL     1     486.255  38.529 458.382  1.00  0.00     0.211 HD
ENDBRANCH  25  33
ENDBRANCH  11  20
BRANCH  10  35
ATOM     35  O   UNL     1     481.408  42.640 461.224  1.00  0.00    -0.507 OA
ATOM     36  H   UNL     1     480.965  42.917 462.089  1.00  0.00     0.293 HD
ENDBRANCH  10  35
TORSDOF 9
ENDMDL
MODEL 7
REMARK VINA RESULT:    -5.072      3.098      7.726
REMARK INTER + INTRA:          -7.833
REMARK INTER:                  -7.229
REMARK INTRA:                  -0.604
REMARK UNBOUND:                -0.981
REMARK SMILES O=c1c(-c2ccc(O)cc2)coc2c([C@@H]3O[C@H](CO)[C@@H](O)[C@H](O)[C@H]3O)c(O)ccc12
REMARK SMILES IDX 3 1 11 2 12 3 13 4 30 5 2 6 1 7 29 8 28 9 26 10 14 11 4 12
REMARK SMILES IDX 5 13 6 14 7 15 10 16 9 17 8 18 15 20 24 21 16 22 22 23 17 24
REMARK SMILES IDX 20 25 25 26 23 28 18 30 19 31 21 33 27 35
REMARK H PARENT 8 19 25 27 23 29 19 32 21 34 27 36
REMARK Flexibility Score: inf
ROOT
ATOM      1  C   UNL     1     483.752  42.481 462.162  1.00  0.00     0.065 A 
ATOM      2  C   UNL     1     482.666  42.492 461.290  1.00  0.00     0.208 A 
ATOM      3  O   UNL     1     482.491  41.529 460.385  1.00  0.00    -0.463 OA
ATOM      4  C   UNL     1     483.335  40.511 460.284  1.00  0.00     0.147 A 
ATOM      5  C   UNL     1     484.226  40.257 461.348  1.00  0.00     0.066 A 
ATOM      6  C   UNL     1     484.438  41.279 462.293  1.00  0.00     0.200 A 
ATOM      7  O   UNL     1     485.322  41.213 463.188  1.00  0.00    -0.288 OA
ATOM      8  C   UNL     1     485.097  39.135 461.253  1.00  0.00     0.020 A 
ATOM      9  C   UNL     1     485.350  38.588 460.021  1.00  0.00     0.047 A 
ATOM     10  C   UNL     1     484.866  39.320 458.919  1.00  0.00     0.125 A 
ATOM     11  C   UNL     1     483.531  39.838 459.015  1.00  0.00     0.069 A 
ENDROOT
BRANCH   1  12
ATOM     12  C   UNL     1     484.483  43.769 462.359  1.00  0.00    -0.011 A 
ATOM     13  C   UNL     1     484.249  44.595 463.481  1.00  0.00     0.013 A 
ATOM     14  C   UNL     1     484.658  45.966 463.495  1.00  0.00     0.047 A 
ATOM     15  C   UNL     1     485.363  46.469 462.378  1.00  0.00     0.115 A 
ATOM     16  C   UNL     1     485.184  44.313 461.251  1.00  0.00     0.013 A 
ATOM     17  C   UNL     1     485.586  45.647 461.259  1.00  0.00     0.047 A 
BRANCH  15  18
ATOM     18  O   UNL     1     485.792  47.784 462.401  1.00  0.00    -0.508 OA
ATOM     19  H   UNL     1     485.335  48.373 463.044  1.00  0.00     0.293 HD
ENDBRANCH  15  18
ENDBRANCH   1  12
BRANCH  11  20
ATOM     20  C   UNL     1     482.721  40.308 457.806  1.00  0.00     0.188 C 
ATOM     21  C   UNL     1     483.238  39.935 456.413  1.00  0.00     0.179 C 
ATOM     22  O   UNL     1     481.337  39.951 457.967  1.00  0.00    -0.362 OA
ATOM     23  C   UNL     1     483.207  38.379 456.199  1.00  0.00     0.177 C 
ATOM     24  C   UNL     1     480.944  38.671 457.408  1.00  0.00     0.176 C 
ATOM     25  C   UNL     1     482.115  37.738 457.039  1.00  0.00     0.177 C 
BRANCH  21  26
ATOM     26  O   UNL     1     482.355  40.510 455.460  1.00  0.00    -0.387 OA
ATOM     27  H   UNL     1     481.954  41.323 455.883  1.00  0.00     0.211 HD
ENDBRANCH  21  26
BRANCH  23  28
ATOM     28  O   UNL     1     484.428  37.773 456.526  1.00  0.00    -0.387 OA
ATOM     29  H   UNL     1     485.126  38.472 456.674  1.00  0.00     0.211 HD
ENDBRANCH  23  28
BRANCH  24  30
ATOM     30  C   UNL     1     479.940  38.028 458.328  1.00  0.00     0.191 C 
BRANCH  30  31
ATOM     31  O   UNL     1     480.440  36.917 459.020  1.00  0.00    -0.394 OA
ATOM     32  H   UNL     1     480.841  37.213 459.891  1.00  0.00     0.210 HD
ENDBRANCH  30  31
ENDBRANCH  24  30
BRANCH  25  33
ATOM     33  O   UNL     1     481.624  36.571 456.406  1.00  0.00    -0.388 OA
ATOM     34  H   UNL     1     480.694  36.804 456.131  1.00  0.00     0.211 HD
ENDBRANCH  25  33
ENDBRANCH  11  20
BRANCH  10  35
ATOM     35  O   UNL     1     485.845  40.079 458.246  1.00  0.00    -0.507 OA
ATOM     36  H   UNL     1     486.042  41.014 458.578  1.00  0.00     0.293 HD
ENDBRANCH  10  35
TORSDOF 9
ENDMDL
MODEL 8
REMARK VINA RESULT:    -5.063      2.930      7.217
REMARK INTER + INTRA:          -7.821
REMARK INTER:                  -7.026
REMARK INTRA:                  -0.795
REMARK UNBOUND:                -0.981
REMARK SMILES O=c1c(-c2ccc(O)cc2)coc2c([C@@H]3O[C@H](CO)[C@@H](O)[C@H](O)[C@H]3O)c(O)ccc12
REMARK SMILES IDX 3 1 11 2 12 3 13 4 30 5 2 6 1 7 29 8 28 9 26 10 14 11 4 12
REMARK SMILES IDX 5 13 6 14 7 15 10 16 9 17 8 18 15 20 24 21 16 22 22 23 17 24
REMARK SMILES IDX 20 25 25 26 23 28 18 30 19 31 21 33 27 35
REMARK H PARENT 8 19 25 27 23 29 19 32 21 34 27 36
REMARK Flexibility Score: inf
ROOT
ATOM      1  C   UNL     1     485.167  41.123 460.702  1.00  0.00     0.065 A 
ATOM      2  C   UNL     1     485.059  39.961 459.941  1.00  0.00     0.208 A 
ATOM      3  O   UNL     1     483.936  39.659 459.289  1.00  0.00    -0.463 OA
ATOM      4  C   UNL     1     482.877  40.457 459.326  1.00  0.00     0.147 A 
ATOM      5  C   UNL     1     483.042  41.787 459.766  1.00  0.00     0.066 A 
ATOM      6  C   UNL     1     484.213  42.108 460.479  1.00  0.00     0.200 A 
ATOM      7  O   UNL     1     484.388  43.220 461.047  1.00  0.00    -0.288 OA
ATOM      8  C   UNL     1     481.911  42.652 459.759  1.00  0.00     0.020 A 
ATOM      9  C   UNL     1     480.653  42.106 459.729  1.00  0.00     0.047 A 
ATOM     10  C   UNL     1     480.591  40.709 459.905  1.00  0.00     0.125 A 
ATOM     11  C   UNL     1     481.540  39.918 459.177  1.00  0.00     0.069 A 
ENDROOT
BRANCH   1  12
ATOM     12  C   UNL     1     485.795  40.999 462.052  1.00  0.00    -0.011 A 
ATOM     13  C   UNL     1     485.045  40.632 463.192  1.00  0.00     0.013 A 
ATOM     14  C   UNL     1     485.540  40.862 464.514  1.00  0.00     0.047 A 
ATOM     15  C   UNL     1     486.834  41.413 464.663  1.00  0.00     0.115 A 
ATOM     16  C   UNL     1     487.084  41.560 462.241  1.00  0.00     0.013 A 
ATOM     17  C   UNL     1     487.573  41.786 463.527  1.00  0.00     0.047 A 
BRANCH  15  18
ATOM     18  O   UNL     1     487.331  41.604 465.939  1.00  0.00    -0.508 OA
ATOM     19  H   UNL     1     488.272  41.885 465.995  1.00  0.00     0.293 HD
ENDBRANCH  15  18
ENDBRANCH   1  12
BRANCH  11  20
ATOM     20  C   UNL     1     481.381  38.414 458.946  1.00  0.00     0.188 C 
ATOM     21  C   UNL     1     480.024  37.909 458.446  1.00  0.00     0.179 C 
ATOM     22  O   UNL     1     482.459  37.920 458.131  1.00  0.00    -0.362 OA
ATOM     23  C   UNL     1     479.713  38.460 457.008  1.00  0.00     0.177 C 
ATOM     24  C   UNL     1     482.216  37.903 456.701  1.00  0.00     0.176 C 
ATOM     25  C   UNL     1     480.997  38.729 456.242  1.00  0.00     0.177 C 
BRANCH  21  26
ATOM     26  O   UNL     1     480.103  36.494 458.348  1.00  0.00    -0.387 OA
ATOM     27  H   UNL     1     480.136  36.267 457.374  1.00  0.00     0.211 HD
ENDBRANCH  21  26
BRANCH  23  28
ATOM     28  O   UNL     1     478.964  39.644 457.043  1.00  0.00    -0.387 OA
ATOM     29  H   UNL     1     479.564  40.422 457.221  1.00  0.00     0.211 HD
ENDBRANCH  23  28
BRANCH  24  30
ATOM     30  C   UNL     1     483.488  38.279 455.988  1.00  0.00     0.191 C 
BRANCH  30  31
ATOM     31  O   UNL     1     484.648  38.030 456.734  1.00  0.00    -0.394 OA
ATOM     32  H   UNL     1     485.314  37.533 456.171  1.00  0.00     0.210 HD
ENDBRANCH  30  31
ENDBRANCH  24  30
BRANCH  25  33
ATOM     33  O   UNL     1     480.789  38.556 454.852  1.00  0.00    -0.388 OA
ATOM     34  H   UNL     1     480.210  39.323 454.585  1.00  0.00     0.211 HD
ENDBRANCH  25  33
ENDBRANCH  11  20
BRANCH  10  35
ATOM     35  O   UNL     1     480.212  40.300 461.199  1.00  0.00    -0.507 OA
ATOM     36  H   UNL     1     479.548  39.544 461.291  1.00  0.00     0.293 HD
ENDBRANCH  10  35
TORSDOF 9
ENDMDL
MODEL 9
REMARK VINA RESULT:    -4.935      2.875      5.138
REMARK INTER + INTRA:          -7.648
REMARK INTER:                  -7.076
REMARK INTRA:                  -0.571
REMARK UNBOUND:                -0.981
REMARK SMILES O=c1c(-c2ccc(O)cc2)coc2c([C@@H]3O[C@H](CO)[C@@H](O)[C@H](O)[C@H]3O)c(O)ccc12
REMARK SMILES IDX 3 1 11 2 12 3 13 4 30 5 2 6 1 7 29 8 28 9 26 10 14 11 4 12
REMARK SMILES IDX 5 13 6 14 7 15 10 16 9 17 8 18 15 20 24 21 16 22 22 23 17 24
REMARK SMILES IDX 20 25 25 26 23 28 18 30 19 31 21 33 27 35
REMARK H PARENT 8 19 25 27 23 29 19 32 21 34 27 36
REMARK Flexibility Score: inf
ROOT
ATOM      1  C   UNL     1     479.362  39.678 462.823  1.00  0.00     0.065 A 
ATOM      2  C   UNL     1     479.601  39.718 461.451  1.00  0.00     0.208 A 
ATOM      3  O   UNL     1     480.836  39.633 460.958  1.00  0.00    -0.463 OA
ATOM      4  C   UNL     1     481.891  39.495 461.750  1.00  0.00     0.147 A 
ATOM      5  C   UNL     1     481.690  39.092 463.087  1.00  0.00     0.066 A 
ATOM      6  C   UNL     1     480.394  39.204 463.625  1.00  0.00     0.200 A 
ATOM      7  O   UNL     1     480.138  39.019 464.845  1.00  0.00    -0.288 OA
ATOM      8  C   UNL     1     482.830  38.900 463.918  1.00  0.00     0.020 A 
ATOM      9  C   UNL     1     484.020  39.481 463.565  1.00  0.00     0.047 A 
ATOM     10  C   UNL     1     483.959  40.391 462.490  1.00  0.00     0.125 A 
ATOM     11  C   UNL     1     483.189  39.996 461.345  1.00  0.00     0.069 A 
ENDROOT
BRANCH   1  12
ATOM     12  C   UNL     1     478.399  40.677 463.378  1.00  0.00    -0.011 A 
ATOM     13  C   UNL     1     478.813  41.965 463.784  1.00  0.00     0.013 A 
ATOM     14  C   UNL     1     477.997  42.777 464.634  1.00  0.00     0.047 A 
ATOM     15  C   UNL     1     476.727  42.286 465.016  1.00  0.00     0.115 A 
ATOM     16  C   UNL     1     477.123  40.214 463.791  1.00  0.00     0.013 A 
ATOM     17  C   UNL     1     476.322  41.000 464.618  1.00  0.00     0.047 A 
BRANCH  15  18
ATOM     18  O   UNL     1     475.919  43.082 465.808  1.00  0.00    -0.508 OA
ATOM     19  H   UNL     1     475.020  43.267 465.454  1.00  0.00     0.293 HD
ENDBRANCH  15  18
ENDBRANCH   1  12
BRANCH  11  20
ATOM     20  C   UNL     1     483.321  40.660 459.973  1.00  0.00     0.188 C 
ATOM     21  C   UNL     1     484.719  40.742 459.352  1.00  0.00     0.179 C 
ATOM     22  O   UNL     1     482.369  40.093 459.055  1.00  0.00    -0.362 OA
ATOM     23  C   UNL     1     485.281  39.309 459.040  1.00  0.00     0.177 C 
ATOM     24  C   UNL     1     482.840  38.968 458.269  1.00  0.00     0.176 C 
ATOM     25  C   UNL     1     484.151  38.330 458.773  1.00  0.00     0.177 C 
BRANCH  21  26
ATOM     26  O   UNL     1     484.598  41.428 458.114  1.00  0.00    -0.387 OA
ATOM     27  H   UNL     1     484.889  40.795 457.397  1.00  0.00     0.211 HD
ENDBRANCH  21  26
BRANCH  23  28
ATOM     28  O   UNL     1     486.063  38.805 460.087  1.00  0.00    -0.387 OA
ATOM     29  H   UNL     1     486.268  39.532 460.740  1.00  0.00     0.211 HD
ENDBRANCH  23  28
BRANCH  24  30
ATOM     30  C   UNL     1     481.716  37.976 458.120  1.00  0.00     0.191 C 
BRANCH  30  31
ATOM     31  O   UNL     1     481.857  37.125 457.017  1.00  0.00    -0.394 OA
ATOM     32  H   UNL     1     481.820  36.168 457.319  1.00  0.00     0.210 HD
ENDBRANCH  30  31
ENDBRANCH  24  30
BRANCH  25  33
ATOM     33  O   UNL     1     484.573  37.318 457.876  1.00  0.00    -0.388 OA
ATOM     34  H   UNL     1     485.541  37.504 457.723  1.00  0.00     0.211 HD
ENDBRANCH  25  33
ENDBRANCH  11  20
BRANCH  10  35
ATOM     35  O   UNL     1     483.966  41.747 462.873  1.00  0.00    -0.507 OA
ATOM     36  H   UNL     1     483.082  42.196 463.074  1.00  0.00     0.293 HD
ENDBRANCH  10  35
TORSDOF 9
ENDMDL
