MODEL 1
REMARK VINA RESULT:    -3.576      0.000      0.000
REMARK INTER + INTRA:          -4.829
REMARK INTER:                  -4.621
REMARK INTRA:                  -0.208
REMARK UNBOUND:                -0.208
REMARK SMILES C=CC(=O)CCCCC
REMARK SMILES IDX 6 1 7 2 8 3 9 4 5 5 3 6 4 7 2 8 1 9
REMARK H PARENT
REMARK Flexibility Score: inf
ROOT
ATOM      1  C   UNL     1       2.575  16.019  23.510  1.00  0.00     0.008 C 
ENDROOT
BRANCH   1   2
ATOM      2  C   UNL     1       3.440  14.865  24.050  1.00  0.00     0.000 C 
BRANCH   2   3
ATOM      3  C   UNL     1       2.821  13.485  23.786  1.00  0.00    -0.003 C 
ATOM      4  C   UNL     1       2.479  12.778  25.094  1.00  0.00     0.004 C 
ENDBRANCH   2   3
ENDBRANCH   1   2
BRANCH   1   5
ATOM      5  C   UNL     1       1.633  15.618  22.364  1.00  0.00     0.080 C 
BRANCH   5   6
ATOM      6  C   UNL     1       0.901  16.801  21.795  1.00  0.00     0.155 C 
ATOM      7  O   UNL     1      -0.044  17.315  22.454  1.00  0.00    -0.295 OA
BRANCH   6   8
ATOM      8  C   UNL     1       1.305  17.371  20.494  1.00  0.00     0.039 C 
ATOM      9  C   UNL     1       2.093  16.718  19.643  1.00  0.00     0.012 C 
ENDBRANCH   6   8
ENDBRANCH   5   6
ENDBRANCH   1   5
TORSDOF 5
ENDMDL
MODEL 2
REMARK VINA RESULT:    -3.573      1.517      2.077
REMARK INTER + INTRA:          -4.826
REMARK INTER:                  -4.457
REMARK INTRA:                  -0.369
REMARK UNBOUND:                -0.208
REMARK SMILES C=CC(=O)CCCCC
REMARK SMILES IDX 6 1 7 2 8 3 9 4 5 5 3 6 4 7 2 8 1 9
REMARK H PARENT
REMARK Flexibility Score: inf
ROOT
ATOM      1  C   UNL     1       1.226  15.944  22.380  1.00  0.00     0.008 C 
ENDROOT
BRANCH   1   2
ATOM      2  C   UNL     1       2.422  16.303  23.282  1.00  0.00     0.000 C 
BRANCH   2   3
ATOM      3  C   UNL     1       3.192  15.065  23.766  1.00  0.00    -0.003 C 
ATOM      4  C   UNL     1       3.667  14.220  22.587  1.00  0.00     0.004 C 
ENDBRANCH   2   3
ENDBRANCH   1   2
BRANCH   1   5
ATOM      5  C   UNL     1       0.592  17.148  21.664  1.00  0.00     0.080 C 
BRANCH   5   6
ATOM      6  C   UNL     1       0.816  17.104  20.179  1.00  0.00     0.155 C 
ATOM      7  O   UNL     1      -0.123  17.437  19.405  1.00  0.00    -0.295 OA
BRANCH   6   8
ATOM      8  C   UNL     1       2.130  16.706  19.636  1.00  0.00     0.039 C 
ATOM      9  C   UNL     1       2.281  15.661  18.826  1.00  0.00     0.012 C 
ENDBRANCH   6   8
ENDBRANCH   5   6
ENDBRANCH   1   5
TORSDOF 5
ENDMDL
MODEL 3
REMARK VINA RESULT:    -3.567      7.901      8.188
REMARK INTER + INTRA:          -4.817
REMARK INTER:                  -4.524
REMARK INTRA:                  -0.294
REMARK UNBOUND:                -0.208
REMARK SMILES C=CC(=O)CCCCC
REMARK SMILES IDX 6 1 7 2 8 3 9 4 5 5 3 6 4 7 2 8 1 9
REMARK H PARENT
REMARK Flexibility Score: inf
ROOT
ATOM      1  C   UNL     1       1.733   9.099  17.048  1.00  0.00     0.008 C 
ENDROOT
BRANCH   1   2
ATOM      2  C   UNL     1       0.697   9.365  18.155  1.00  0.00     0.000 C 
BRANCH   2   3
ATOM      3  C   UNL     1       0.250   8.081  18.870  1.00  0.00    -0.003 C 
ATOM      4  C   UNL     1       1.277   7.648  19.912  1.00  0.00     0.004 C 
ENDBRANCH   2   3
ENDBRANCH   1   2
BRANCH   1   5
ATOM      5  C   UNL     1       3.002   9.961  17.150  1.00  0.00     0.080 C 
BRANCH   5   6
ATOM      6  C   UNL     1       3.020  11.063  16.129  1.00  0.00     0.155 C 
ATOM      7  O   UNL     1       3.991  11.869  16.111  1.00  0.00    -0.295 OA
BRANCH   6   8
ATOM      8  C   UNL     1       1.930  11.180  15.140  1.00  0.00     0.039 C 
ATOM      9  C   UNL     1       1.155  12.259  15.057  1.00  0.00     0.012 C 
ENDBRANCH   6   8
ENDBRANCH   5   6
ENDBRANCH   1   5
TORSDOF 5
ENDMDL
MODEL 4
REMARK VINA RESULT:    -3.537      7.817      8.245
REMARK INTER + INTRA:          -4.778
REMARK INTER:                  -4.602
REMARK INTRA:                  -0.176
REMARK UNBOUND:                -0.208
REMARK SMILES C=CC(=O)CCCCC
REMARK SMILES IDX 6 1 7 2 8 3 9 4 5 5 3 6 4 7 2 8 1 9
REMARK H PARENT
REMARK Flexibility Score: inf
ROOT
ATOM      1  C   UNL     1       0.980   9.328  18.019  1.00  0.00     0.008 C 
ENDROOT
BRANCH   1   2
ATOM      2  C   UNL     1       0.272   8.150  18.713  1.00  0.00     0.000 C 
BRANCH   2   3
ATOM      3  C   UNL     1       0.017   8.408  20.206  1.00  0.00    -0.003 C 
ATOM      4  C   UNL     1       1.106   7.773  21.065  1.00  0.00     0.004 C 
ENDBRANCH   2   3
ENDBRANCH   1   2
BRANCH   1   5
ATOM      5  C   UNL     1       2.037   8.909  16.984  1.00  0.00     0.080 C 
BRANCH   5   6
ATOM      6  C   UNL     1       2.754  10.092  16.398  1.00  0.00     0.155 C 
ATOM      7  O   UNL     1       3.789  10.530  16.973  1.00  0.00    -0.295 OA
BRANCH   6   8
ATOM      8  C   UNL     1       2.271  10.712  15.148  1.00  0.00     0.039 C 
ATOM      9  C   UNL     1       1.503  11.799  15.142  1.00  0.00     0.012 C 
ENDBRANCH   6   8
ENDBRANCH   5   6
ENDBRANCH   1   5
TORSDOF 5
ENDMDL
MODEL 5
REMARK VINA RESULT:    -3.529      1.643      4.749
REMARK INTER + INTRA:          -4.768
REMARK INTER:                  -4.500
REMARK INTRA:                  -0.268
REMARK UNBOUND:                -0.208
REMARK SMILES C=CC(=O)CCCCC
REMARK SMILES IDX 6 1 7 2 8 3 9 4 5 5 3 6 4 7 2 8 1 9
REMARK H PARENT
REMARK Flexibility Score: inf
ROOT
ATOM      1  C   UNL     1       0.890  16.280  22.272  1.00  0.00     0.008 C 
ENDROOT
BRANCH   1   2
ATOM      2  C   UNL     1       0.735  17.317  21.144  1.00  0.00     0.000 C 
BRANCH   2   3
ATOM      3  C   UNL     1       0.831  16.691  19.745  1.00  0.00    -0.003 C 
ATOM      4  C   UNL     1       2.217  16.901  19.144  1.00  0.00     0.004 C 
ENDBRANCH   2   3
ENDBRANCH   1   2
BRANCH   1   5
ATOM      5  C   UNL     1       2.194  16.411  23.076  1.00  0.00     0.080 C 
BRANCH   5   6
ATOM      6  C   UNL     1       3.002  15.144  23.049  1.00  0.00     0.155 C 
ATOM      7  O   UNL     1       3.418  14.703  21.943  1.00  0.00    -0.295 OA
BRANCH   6   8
ATOM      8  C   UNL     1       3.331  14.444  24.307  1.00  0.00     0.039 C 
ATOM      9  C   UNL     1       2.795  13.270  24.631  1.00  0.00     0.012 C 
ENDBRANCH   6   8
ENDBRANCH   5   6
ENDBRANCH   1   5
TORSDOF 5
ENDMDL
MODEL 6
REMARK VINA RESULT:    -3.523      2.219      4.278
REMARK INTER + INTRA:          -4.760
REMARK INTER:                  -4.282
REMARK INTRA:                  -0.478
REMARK UNBOUND:                -0.208
REMARK SMILES C=CC(=O)CCCCC
REMARK SMILES IDX 6 1 7 2 8 3 9 4 5 5 3 6 4 7 2 8 1 9
REMARK H PARENT
REMARK Flexibility Score: inf
ROOT
ATOM      1  C   UNL     1       2.582  15.967  23.502  1.00  0.00     0.008 C 
ENDROOT
BRANCH   1   2
ATOM      2  C   UNL     1       2.773  16.374  22.030  1.00  0.00     0.000 C 
BRANCH   2   3
ATOM      3  C   UNL     1       1.441  16.606  21.301  1.00  0.00    -0.003 C 
ATOM      4  C   UNL     1       0.343  17.009  22.280  1.00  0.00     0.004 C 
ENDBRANCH   2   3
ENDBRANCH   1   2
BRANCH   1   5
ATOM      5  C   UNL     1       3.432  14.763  23.939  1.00  0.00     0.080 C 
BRANCH   5   6
ATOM      6  C   UNL     1       2.611  13.512  24.078  1.00  0.00     0.155 C 
ATOM      7  O   UNL     1       2.494  12.976  25.214  1.00  0.00    -0.295 OA
BRANCH   6   8
ATOM      8  C   UNL     1       1.926  12.937  22.903  1.00  0.00     0.039 C 
ATOM      9  C   UNL     1       0.607  13.008  22.741  1.00  0.00     0.012 C 
ENDBRANCH   6   8
ENDBRANCH   5   6
ENDBRANCH   1   5
TORSDOF 5
ENDMDL
MODEL 7
REMARK VINA RESULT:    -3.500      7.443      8.247
REMARK INTER + INTRA:          -4.730
REMARK INTER:                  -4.328
REMARK INTRA:                  -0.402
REMARK UNBOUND:                -0.208
REMARK SMILES C=CC(=O)CCCCC
REMARK SMILES IDX 6 1 7 2 8 3 9 4 5 5 3 6 4 7 2 8 1 9
REMARK H PARENT
REMARK Flexibility Score: inf
ROOT
ATOM      1  C   UNL     1       1.786   9.564  15.977  1.00  0.00     0.008 C 
ENDROOT
BRANCH   1   2
ATOM      2  C   UNL     1       2.110   8.927  17.340  1.00  0.00     0.000 C 
BRANCH   2   3
ATOM      3  C   UNL     1       1.108   9.326  18.434  1.00  0.00    -0.003 C 
ATOM      4  C   UNL     1       0.117   8.199  18.706  1.00  0.00     0.004 C 
ENDBRANCH   2   3
ENDBRANCH   1   2
BRANCH   1   5
ATOM      5  C   UNL     1       1.703  11.099  16.000  1.00  0.00     0.080 C 
BRANCH   5   6
ATOM      6  C   UNL     1       3.047  11.741  15.804  1.00  0.00     0.155 C 
ATOM      7  O   UNL     1       3.491  11.894  14.633  1.00  0.00    -0.295 OA
BRANCH   6   8
ATOM      8  C   UNL     1       3.824  12.212  16.968  1.00  0.00     0.039 C 
ATOM      9  C   UNL     1       4.848  11.525  17.468  1.00  0.00     0.012 C 
ENDBRANCH   6   8
ENDBRANCH   5   6
ENDBRANCH   1   5
TORSDOF 5
ENDMDL
MODEL 8
REMARK VINA RESULT:    -3.470      1.778      2.349
REMARK INTER + INTRA:          -4.692
REMARK INTER:                  -4.156
REMARK INTRA:                  -0.536
REMARK UNBOUND:                -0.208
REMARK SMILES C=CC(=O)CCCCC
REMARK SMILES IDX 6 1 7 2 8 3 9 4 5 5 3 6 4 7 2 8 1 9
REMARK H PARENT
REMARK Flexibility Score: inf
ROOT
ATOM      1  C   UNL     1       1.319  16.214  22.483  1.00  0.00     0.008 C 
ENDROOT
BRANCH   1   2
ATOM      2  C   UNL     1       2.776  16.248  22.977  1.00  0.00     0.000 C 
BRANCH   2   3
ATOM      3  C   UNL     1       3.134  15.037  23.854  1.00  0.00    -0.003 C 
ATOM      4  C   UNL     1       2.348  13.801  23.426  1.00  0.00     0.004 C 
ENDBRANCH   2   3
ENDBRANCH   1   2
BRANCH   1   5
ATOM      5  C   UNL     1       1.066  17.036  21.208  1.00  0.00     0.080 C 
BRANCH   5   6
ATOM      6  C   UNL     1       1.743  16.438  20.007  1.00  0.00     0.155 C 
ATOM      7  O   UNL     1       2.407  17.187  19.239  1.00  0.00    -0.295 OA
BRANCH   6   8
ATOM      8  C   UNL     1       1.656  14.987  19.748  1.00  0.00     0.039 C 
ATOM      9  C   UNL     1       2.734  14.213  19.653  1.00  0.00     0.012 C 
ENDBRANCH   6   8
ENDBRANCH   5   6
ENDBRANCH   1   5
TORSDOF 5
ENDMDL
MODEL 9
REMARK VINA RESULT:    -3.446      7.563      9.118
REMARK INTER + INTRA:          -4.661
REMARK INTER:                  -4.393
REMARK INTRA:                  -0.268
REMARK UNBOUND:                -0.208
REMARK SMILES C=CC(=O)CCCCC
REMARK SMILES IDX 6 1 7 2 8 3 9 4 5 5 3 6 4 7 2 8 1 9
REMARK H PARENT
REMARK Flexibility Score: inf
ROOT
ATOM      1  C   UNL     1       1.725   9.495  15.852  1.00  0.00     0.008 C 
ENDROOT
BRANCH   1   2
ATOM      2  C   UNL     1       2.203  10.866  15.340  1.00  0.00     0.000 C 
BRANCH   2   3
ATOM      3  C   UNL     1       1.285  12.016  15.781  1.00  0.00    -0.003 C 
ATOM      4  C   UNL     1       0.906  12.899  14.595  1.00  0.00     0.004 C 
ENDBRANCH   2   3
ENDBRANCH   1   2
BRANCH   1   5
ATOM      5  C   UNL     1       2.569   8.921  17.002  1.00  0.00     0.080 C 
BRANCH   5   6
ATOM      6  C   UNL     1       2.003   9.276  18.348  1.00  0.00     0.155 C 
ATOM      7  O   UNL     1       2.306  10.384  18.870  1.00  0.00    -0.295 OA
BRANCH   6   8
ATOM      8  C   UNL     1       1.081   8.350  19.036  1.00  0.00     0.039 C 
ATOM      9  C   UNL     1      -0.212   8.273  18.730  1.00  0.00     0.012 C 
ENDBRANCH   6   8
ENDBRANCH   5   6
ENDBRANCH   1   5
TORSDOF 5
ENDMDL
