MODEL 1
REMARK VINA RESULT:    38.356      0.000      0.000
REMARK INTER + INTRA:          46.375
REMARK INTER:                  46.204
REMARK INTRA:                   0.171
REMARK UNBOUND:                 0.171
REMARK SMILES O=c1c(O)c(-c2ccc(O)c(O)c2)oc2cc(O)cc(O)c12
REMARK SMILES IDX 5 1 3 2 2 3 1 4 22 5 20 6 19 7 17 8 16 9 15 10 14 11 6 12
REMARK SMILES IDX 7 13 8 14 9 15 13 16 11 17 10 18 12 20 4 22 21 24 18 26
REMARK H PARENT 10 19 12 21 4 23 21 25 18 27
REMARK Flexibility Score: inf
ROOT
ATOM      1  C   UNL     1      33.557 -24.309   5.978  1.00  0.00     0.180 A 
ATOM      2  C   UNL     1      33.792 -24.072   4.612  1.00  0.00     0.208 A 
ATOM      3  C   UNL     1      35.093 -23.761   4.188  1.00  0.00     0.238 A 
ATOM      4  O   UNL     1      35.307 -23.604   2.958  1.00  0.00    -0.285 OA
ATOM      5  C   UNL     1      36.141 -23.675   5.136  1.00  0.00     0.111 A 
ATOM      6  C   UNL     1      37.489 -23.328   4.824  1.00  0.00     0.134 A 
ATOM      7  C   UNL     1      38.470 -23.401   5.822  1.00  0.00     0.093 A 
ATOM      8  C   UNL     1      38.138 -23.746   7.134  1.00  0.00     0.123 A 
ATOM      9  C   UNL     1      36.813 -24.029   7.461  1.00  0.00     0.094 A 
ATOM     10  C   UNL     1      35.819 -24.000   6.480  1.00  0.00     0.146 A 
ATOM     11  O   UNL     1      34.572 -24.286   6.832  1.00  0.00    -0.452 OA
ENDROOT
BRANCH   1  12
ATOM     12  C   UNL     1      32.208 -24.618   6.502  1.00  0.00     0.025 A 
ATOM     13  C   UNL     1      32.075 -25.484   7.599  1.00  0.00     0.016 A 
ATOM     14  C   UNL     1      30.812 -25.774   8.125  1.00  0.00     0.051 A 
ATOM     15  C   UNL     1      29.666 -25.187   7.571  1.00  0.00     0.157 A 
ATOM     16  C   UNL     1      31.056 -24.016   5.964  1.00  0.00     0.062 A 
ATOM     17  C   UNL     1      29.789 -24.304   6.492  1.00  0.00     0.158 A 
BRANCH  15  18
ATOM     18  O   UNL     1      28.406 -25.474   8.091  1.00  0.00    -0.504 OA
ATOM     19  H   UNL     1      28.282 -25.758   9.056  1.00  0.00     0.293 HD
ENDBRANCH  15  18
BRANCH  17  20
ATOM     20  O   UNL     1      28.648 -23.712   5.952  1.00  0.00    -0.504 OA
ATOM     21  H   UNL     1      28.367 -22.773   6.208  1.00  0.00     0.293 HD
ENDBRANCH  17  20
ENDBRANCH   1  12
BRANCH   2  22
ATOM     22  O   UNL     1      32.747 -24.184   3.689  1.00  0.00    -0.502 OA
ATOM     23  H   UNL     1      31.795 -24.386   3.967  1.00  0.00     0.293 HD
ENDBRANCH   2  22
BRANCH   6  24
ATOM     24  O   UNL     1      37.910 -22.882   3.568  1.00  0.00    -0.507 OA
ATOM     25  H   UNL     1      37.304 -22.752   2.773  1.00  0.00     0.293 HD
ENDBRANCH   6  24
BRANCH   8  26
ATOM     26  O   UNL     1      39.116 -23.801   8.124  1.00  0.00    -0.508 OA
ATOM     27  H   UNL     1      40.086 -23.588   7.924  1.00  0.00     0.293 HD
ENDBRANCH   8  26
TORSDOF 6
ENDMDL
MODEL 2
REMARK VINA RESULT:    38.419     11.288     12.489
REMARK INTER + INTRA:          46.450
REMARK INTER:                  46.606
REMARK INTRA:                  -0.155
REMARK UNBOUND:                 0.171
REMARK SMILES O=c1c(O)c(-c2ccc(O)c(O)c2)oc2cc(O)cc(O)c12
REMARK SMILES IDX 5 1 3 2 2 3 1 4 22 5 20 6 19 7 17 8 16 9 15 10 14 11 6 12
REMARK SMILES IDX 7 13 8 14 9 15 13 16 11 17 10 18 12 20 4 22 21 24 18 26
REMARK H PARENT 10 19 12 21 4 23 21 25 18 27
REMARK Flexibility Score: inf
ROOT
ATOM      1  C   UNL     1      30.082 -31.781  -2.474  1.00  0.00     0.180 A 
ATOM      2  C   UNL     1      30.445 -31.674  -1.119  1.00  0.00     0.208 A 
ATOM      3  C   UNL     1      31.779 -31.384  -0.793  1.00  0.00     0.238 A 
ATOM      4  O   UNL     1      32.086 -31.236   0.419  1.00  0.00    -0.285 OA
ATOM      5  C   UNL     1      32.737 -31.220  -1.822  1.00  0.00     0.111 A 
ATOM      6  C   UNL     1      34.124 -30.965  -1.604  1.00  0.00     0.134 A 
ATOM      7  C   UNL     1      34.955 -30.691  -2.698  1.00  0.00     0.093 A 
ATOM      8  C   UNL     1      34.462 -30.728  -4.004  1.00  0.00     0.123 A 
ATOM      9  C   UNL     1      33.122 -31.036  -4.230  1.00  0.00     0.094 A 
ATOM     10  C   UNL     1      32.261 -31.278  -3.158  1.00  0.00     0.146 A 
ATOM     11  O   UNL     1      30.990 -31.557  -3.416  1.00  0.00    -0.452 OA
ENDROOT
BRANCH   1  12
ATOM     12  C   UNL     1      28.701 -32.108  -2.895  1.00  0.00     0.025 A 
ATOM     13  C   UNL     1      27.667 -31.191  -2.645  1.00  0.00     0.016 A 
ATOM     14  C   UNL     1      26.360 -31.470  -3.053  1.00  0.00     0.051 A 
ATOM     15  C   UNL     1      26.072 -32.661  -3.732  1.00  0.00     0.157 A 
ATOM     16  C   UNL     1      28.410 -33.292  -3.595  1.00  0.00     0.062 A 
ATOM     17  C   UNL     1      27.098 -33.572  -4.007  1.00  0.00     0.158 A 
BRANCH  15  18
ATOM     18  O   UNL     1      24.769 -32.943  -4.138  1.00  0.00    -0.504 OA
ATOM     19  H   UNL     1      24.541 -33.111  -5.112  1.00  0.00     0.293 HD
ENDBRANCH  15  18
BRANCH  17  20
ATOM     20  O   UNL     1      26.810 -34.750  -4.694  1.00  0.00    -0.504 OA
ATOM     21  H   UNL     1      26.935 -35.658  -4.263  1.00  0.00     0.293 HD
ENDBRANCH  17  20
ENDBRANCH   1  12
BRANCH   2  22
ATOM     22  O   UNL     1      29.479 -31.817  -0.119  1.00  0.00    -0.502 OA
ATOM     23  H   UNL     1      28.640 -31.251  -0.087  1.00  0.00     0.293 HD
ENDBRANCH   2  22
BRANCH   6  24
ATOM     24  O   UNL     1      34.736 -30.995  -0.348  1.00  0.00    -0.507 OA
ATOM     25  H   UNL     1      34.377 -31.490   0.454  1.00  0.00     0.293 HD
ENDBRANCH   6  24
BRANCH   8  26
ATOM     26  O   UNL     1      35.300 -30.471  -5.088  1.00  0.00    -0.508 OA
ATOM     27  H   UNL     1      35.625 -31.214  -5.695  1.00  0.00     0.293 HD
ENDBRANCH   8  26
TORSDOF 6
ENDMDL
MODEL 3
REMARK VINA RESULT:    39.948      2.088      2.569
REMARK INTER + INTRA:          48.292
REMARK INTER:                  48.505
REMARK INTRA:                  -0.213
REMARK UNBOUND:                 0.171
REMARK SMILES O=c1c(O)c(-c2ccc(O)c(O)c2)oc2cc(O)cc(O)c12
REMARK SMILES IDX 5 1 3 2 2 3 1 4 22 5 20 6 19 7 17 8 16 9 15 10 14 11 6 12
REMARK SMILES IDX 7 13 8 14 9 15 13 16 11 17 10 18 12 20 4 22 21 24 18 26
REMARK H PARENT 10 19 12 21 4 23 21 25 18 27
REMARK Flexibility Score: inf
ROOT
ATOM      1  C   UNL     1      33.983 -24.408   7.169  1.00  0.00     0.180 A 
ATOM      2  C   UNL     1      34.751 -25.585   7.116  1.00  0.00     0.208 A 
ATOM      3  C   UNL     1      36.149 -25.489   7.205  1.00  0.00     0.238 A 
ATOM      4  O   UNL     1      36.828 -26.549   7.212  1.00  0.00    -0.285 OA
ATOM      5  C   UNL     1      36.762 -24.220   7.329  1.00  0.00     0.111 A 
ATOM      6  C   UNL     1      38.171 -24.003   7.386  1.00  0.00     0.134 A 
ATOM      7  C   UNL     1      38.662 -22.716   7.641  1.00  0.00     0.093 A 
ATOM      8  C   UNL     1      37.796 -21.628   7.775  1.00  0.00     0.123 A 
ATOM      9  C   UNL     1      36.421 -21.821   7.661  1.00  0.00     0.094 A 
ATOM     10  C   UNL     1      35.900 -23.098   7.444  1.00  0.00     0.146 A 
ATOM     11  O   UNL     1      34.583 -23.239   7.352  1.00  0.00    -0.452 OA
ENDROOT
BRANCH   1  12
ATOM     12  C   UNL     1      32.507 -24.427   7.057  1.00  0.00     0.025 A 
ATOM     13  C   UNL     1      31.739 -24.921   8.124  1.00  0.00     0.016 A 
ATOM     14  C   UNL     1      30.344 -24.929   8.049  1.00  0.00     0.051 A 
ATOM     15  C   UNL     1      29.696 -24.426   6.913  1.00  0.00     0.157 A 
ATOM     16  C   UNL     1      31.850 -23.904   5.928  1.00  0.00     0.062 A 
ATOM     17  C   UNL     1      30.450 -23.909   5.853  1.00  0.00     0.158 A 
BRANCH  15  18
ATOM     18  O   UNL     1      28.304 -24.433   6.834  1.00  0.00    -0.504 OA
ATOM     19  H   UNL     1      27.776 -23.578   6.706  1.00  0.00     0.293 HD
ENDBRANCH  15  18
BRANCH  17  20
ATOM     20  O   UNL     1      29.801 -23.398   4.730  1.00  0.00    -0.504 OA
ATOM     21  H   UNL     1      28.970 -22.825   4.814  1.00  0.00     0.293 HD
ENDBRANCH  17  20
ENDBRANCH   1  12
BRANCH   2  22
ATOM     22  O   UNL     1      34.124 -26.830   7.015  1.00  0.00    -0.502 OA
ATOM     23  H   UNL     1      33.783 -27.198   6.136  1.00  0.00     0.293 HD
ENDBRANCH   2  22
BRANCH   6  24
ATOM     24  O   UNL     1      39.124 -25.003   7.174  1.00  0.00    -0.507 OA
ATOM     25  H   UNL     1      38.938 -25.993   7.221  1.00  0.00     0.293 HD
ENDBRANCH   6  24
BRANCH   8  26
ATOM     26  O   UNL     1      38.293 -20.349   8.012  1.00  0.00    -0.508 OA
ATOM     27  H   UNL     1      38.068 -19.841   8.859  1.00  0.00     0.293 HD
ENDBRANCH   8  26
TORSDOF 6
ENDMDL
MODEL 4
REMARK VINA RESULT:    41.010      2.099      3.386
REMARK INTER + INTRA:          49.572
REMARK INTER:                  49.060
REMARK INTRA:                   0.512
REMARK UNBOUND:                 0.171
REMARK SMILES O=c1c(O)c(-c2ccc(O)c(O)c2)oc2cc(O)cc(O)c12
REMARK SMILES IDX 5 1 3 2 2 3 1 4 22 5 20 6 19 7 17 8 16 9 15 10 14 11 6 12
REMARK SMILES IDX 7 13 8 14 9 15 13 16 11 17 10 18 12 20 4 22 21 24 18 26
REMARK H PARENT 10 19 12 21 4 23 21 25 18 27
REMARK Flexibility Score: inf
ROOT
ATOM      1  C   UNL     1      34.553 -24.414   5.936  1.00  0.00     0.180 A 
ATOM      2  C   UNL     1      34.791 -23.604   7.060  1.00  0.00     0.208 A 
ATOM      3  C   UNL     1      35.926 -22.779   7.077  1.00  0.00     0.238 A 
ATOM      4  O   UNL     1      36.104 -22.016   8.062  1.00  0.00    -0.285 OA
ATOM      5  C   UNL     1      36.819 -22.786   5.978  1.00  0.00     0.111 A 
ATOM      6  C   UNL     1      38.021 -22.021   5.906  1.00  0.00     0.134 A 
ATOM      7  C   UNL     1      38.760 -22.007   4.716  1.00  0.00     0.093 A 
ATOM      8  C   UNL     1      38.374 -22.781   3.620  1.00  0.00     0.123 A 
ATOM      9  C   UNL     1      37.234 -23.577   3.701  1.00  0.00     0.094 A 
ATOM     10  C   UNL     1      36.457 -23.585   4.862  1.00  0.00     0.146 A 
ATOM     11  O   UNL     1      35.373 -24.349   4.894  1.00  0.00    -0.452 OA
ENDROOT
BRANCH   1  12
ATOM     12  C   UNL     1      33.390 -25.327   5.856  1.00  0.00     0.025 A 
ATOM     13  C   UNL     1      32.348 -25.202   6.788  1.00  0.00     0.016 A 
ATOM     14  C   UNL     1      31.231 -26.039   6.718  1.00  0.00     0.051 A 
ATOM     15  C   UNL     1      31.133 -27.002   5.705  1.00  0.00     0.157 A 
ATOM     16  C   UNL     1      33.277 -26.281   4.828  1.00  0.00     0.062 A 
ATOM     17  C   UNL     1      32.155 -27.120   4.756  1.00  0.00     0.158 A 
BRANCH  15  18
ATOM     18  O   UNL     1      30.021 -27.839   5.633  1.00  0.00    -0.504 OA
ATOM     19  H   UNL     1      30.116 -28.833   5.459  1.00  0.00     0.293 HD
ENDBRANCH  15  18
BRANCH  17  20
ATOM     20  O   UNL     1      32.048 -28.070   3.741  1.00  0.00    -0.504 OA
ATOM     21  H   UNL     1      32.443 -27.910   2.822  1.00  0.00     0.293 HD
ENDBRANCH  17  20
ENDBRANCH   1  12
BRANCH   2  22
ATOM     22  O   UNL     1      33.885 -23.595   8.125  1.00  0.00    -0.502 OA
ATOM     23  H   UNL     1      32.920 -23.309   8.016  1.00  0.00     0.293 HD
ENDBRANCH   2  22
BRANCH   6  24
ATOM     24  O   UNL     1      38.544 -21.287   6.974  1.00  0.00    -0.507 OA
ATOM     25  H   UNL     1      39.528 -21.181   7.171  1.00  0.00     0.293 HD
ENDBRANCH   6  24
BRANCH   8  26
ATOM     26  O   UNL     1      39.124 -22.774   2.445  1.00  0.00    -0.508 OA
ATOM     27  H   UNL     1      38.761 -22.377   1.587  1.00  0.00     0.293 HD
ENDBRANCH   8  26
TORSDOF 6
ENDMDL
MODEL 5
REMARK VINA RESULT:    41.264      1.497      2.968
REMARK INTER + INTRA:          49.878
REMARK INTER:                  49.548
REMARK INTRA:                   0.330
REMARK UNBOUND:                 0.171
REMARK SMILES O=c1c(O)c(-c2ccc(O)c(O)c2)oc2cc(O)cc(O)c12
REMARK SMILES IDX 5 1 3 2 2 3 1 4 22 5 20 6 19 7 17 8 16 9 15 10 14 11 6 12
REMARK SMILES IDX 7 13 8 14 9 15 13 16 11 17 10 18 12 20 4 22 21 24 18 26
REMARK H PARENT 10 19 12 21 4 23 21 25 18 27
REMARK Flexibility Score: inf
ROOT
ATOM      1  C   UNL     1      34.155 -24.452   6.401  1.00  0.00     0.180 A 
ATOM      2  C   UNL     1      34.723 -25.475   7.179  1.00  0.00     0.208 A 
ATOM      3  C   UNL     1      36.121 -25.580   7.250  1.00  0.00     0.238 A 
ATOM      4  O   UNL     1      36.624 -26.464   7.992  1.00  0.00    -0.285 OA
ATOM      5  C   UNL     1      36.933 -24.672   6.530  1.00  0.00     0.111 A 
ATOM      6  C   UNL     1      38.359 -24.711   6.497  1.00  0.00     0.134 A 
ATOM      7  C   UNL     1      39.063 -23.683   5.856  1.00  0.00     0.093 A 
ATOM      8  C   UNL     1      38.391 -22.655   5.192  1.00  0.00     0.123 A 
ATOM      9  C   UNL     1      36.998 -22.641   5.168  1.00  0.00     0.094 A 
ATOM     10  C   UNL     1      36.268 -23.632   5.829  1.00  0.00     0.146 A 
ATOM     11  O   UNL     1      34.943 -23.576   5.790  1.00  0.00    -0.452 OA
ENDROOT
BRANCH   1  12
ATOM     12  C   UNL     1      32.690 -24.293   6.258  1.00  0.00     0.025 A 
ATOM     13  C   UNL     1      32.167 -23.731   5.082  1.00  0.00     0.016 A 
ATOM     14  C   UNL     1      30.786 -23.591   4.917  1.00  0.00     0.051 A 
ATOM     15  C   UNL     1      29.908 -24.026   5.919  1.00  0.00     0.157 A 
ATOM     16  C   UNL     1      31.803 -24.747   7.251  1.00  0.00     0.062 A 
ATOM     17  C   UNL     1      30.417 -24.609   7.085  1.00  0.00     0.158 A 
BRANCH  15  18
ATOM     18  O   UNL     1      28.531 -23.887   5.758  1.00  0.00    -0.504 OA
ATOM     19  H   UNL     1      28.006 -23.186   6.268  1.00  0.00     0.293 HD
ENDBRANCH  15  18
BRANCH  17  20
ATOM     20  O   UNL     1      29.540 -25.052   8.074  1.00  0.00    -0.504 OA
ATOM     21  H   UNL     1      28.606 -24.671   8.163  1.00  0.00     0.293 HD
ENDBRANCH  17  20
ENDBRANCH   1  12
BRANCH   2  22
ATOM     22  O   UNL     1      33.903 -26.348   7.901  1.00  0.00    -0.502 OA
ATOM     23  H   UNL     1      33.377 -27.091   7.458  1.00  0.00     0.293 HD
ENDBRANCH   2  22
BRANCH   6  24
ATOM     24  O   UNL     1      39.125 -25.742   7.049  1.00  0.00    -0.507 OA
ATOM     25  H   UNL     1      39.151 -25.976   8.030  1.00  0.00     0.293 HD
ENDBRANCH   6  24
BRANCH   8  26
ATOM     26  O   UNL     1      39.099 -21.645   4.544  1.00  0.00    -0.508 OA
ATOM     27  H   UNL     1      40.104 -21.696   4.421  1.00  0.00     0.293 HD
ENDBRANCH   8  26
TORSDOF 6
ENDMDL
