MODEL 1
REMARK VINA RESULT:    -5.021      0.000      0.000
REMARK INTER + INTRA:          -5.413
REMARK INTER:                  -5.315
REMARK INTRA:                  -0.098
REMARK UNBOUND:                -0.098
REMARK SMILES C=C(C)[C@H]1CC=C(C)C(=O)C1
REMARK SMILES IDX 8 1 7 2 6 3 5 4 4 5 11 6 9 7 10 8 2 9 1 10 3 11
REMARK H PARENT
REMARK Flexibility Score: inf
ROOT
ATOM      1  C   UNL     1      57.069  31.927  31.915  1.00  0.00     0.048 C 
ATOM      2  C   UNL     1      55.576  32.026  31.767  1.00  0.00    -0.012 C 
ATOM      3  C   UNL     1      54.841  30.908  31.638  1.00  0.00    -0.019 C 
ATOM      4  C   UNL     1      53.345  30.951  31.469  1.00  0.00     0.036 C 
ATOM      5  C   UNL     1      52.736  32.146  32.225  1.00  0.00     0.025 C 
ATOM      6  C   UNL     1      53.410  33.458  31.784  1.00  0.00     0.089 C 
ATOM      7  C   UNL     1      54.906  33.345  31.890  1.00  0.00     0.158 C 
ATOM      8  O   UNL     1      55.592  34.392  32.047  1.00  0.00    -0.295 OA
ENDROOT
BRANCH   5   9
ATOM      9  C   UNL     1      51.225  32.209  32.044  1.00  0.00    -0.077 C 
ATOM     10  C   UNL     1      50.620  31.406  31.154  1.00  0.00     0.008 C 
ATOM     11  C   UNL     1      50.376  33.163  32.847  1.00  0.00     0.039 C 
ENDBRANCH   5   9
TORSDOF 1
ENDMDL
MODEL 2
REMARK VINA RESULT:    -4.977      2.239      4.183
REMARK INTER + INTRA:          -5.366
REMARK INTER:                  -5.279
REMARK INTRA:                  -0.087
REMARK UNBOUND:                -0.098
REMARK SMILES C=C(C)[C@H]1CC=C(C)C(=O)C1
REMARK SMILES IDX 8 1 7 2 6 3 5 4 4 5 11 6 9 7 10 8 2 9 1 10 3 11
REMARK H PARENT
REMARK Flexibility Score: inf
ROOT
ATOM      1  C   UNL     1      50.523  36.908  32.327  1.00  0.00     0.048 C 
ATOM      2  C   UNL     1      51.009  35.493  32.184  1.00  0.00    -0.012 C 
ATOM      3  C   UNL     1      50.313  34.486  32.740  1.00  0.00    -0.019 C 
ATOM      4  C   UNL     1      50.765  33.053  32.643  1.00  0.00     0.036 C 
ATOM      5  C   UNL     1      51.495  32.792  31.312  1.00  0.00     0.025 C 
ATOM      6  C   UNL     1      52.660  33.783  31.138  1.00  0.00     0.089 C 
ATOM      7  C   UNL     1      52.184  35.197  31.325  1.00  0.00     0.158 C 
ATOM      8  O   UNL     1      52.817  36.137  30.772  1.00  0.00    -0.295 OA
ENDROOT
BRANCH   5   9
ATOM      9  C   UNL     1      51.973  31.349  31.212  1.00  0.00    -0.077 C 
ATOM     10  C   UNL     1      51.497  30.549  30.246  1.00  0.00     0.008 C 
ATOM     11  C   UNL     1      52.981  30.786  32.182  1.00  0.00     0.039 C 
ENDBRANCH   5   9
TORSDOF 1
ENDMDL
MODEL 3
REMARK VINA RESULT:    -4.925      1.608      4.370
REMARK INTER + INTRA:          -5.311
REMARK INTER:                  -5.214
REMARK INTRA:                  -0.097
REMARK UNBOUND:                -0.098
REMARK SMILES C=C(C)[C@H]1CC=C(C)C(=O)C1
REMARK SMILES IDX 8 1 7 2 6 3 5 4 4 5 11 6 9 7 10 8 2 9 1 10 3 11
REMARK H PARENT
REMARK Flexibility Score: inf
ROOT
ATOM      1  C   UNL     1      50.635  31.481  31.065  1.00  0.00     0.048 C 
ATOM      2  C   UNL     1      52.034  31.822  31.495  1.00  0.00    -0.012 C 
ATOM      3  C   UNL     1      52.828  30.867  32.009  1.00  0.00    -0.019 C 
ATOM      4  C   UNL     1      54.230  31.159  32.473  1.00  0.00     0.036 C 
ATOM      5  C   UNL     1      54.875  32.268  31.623  1.00  0.00     0.025 C 
ATOM      6  C   UNL     1      53.988  33.527  31.624  1.00  0.00     0.089 C 
ATOM      7  C   UNL     1      52.578  33.180  31.236  1.00  0.00     0.158 C 
ATOM      8  O   UNL     1      51.846  34.067  30.720  1.00  0.00    -0.295 OA
ENDROOT
BRANCH   5   9
ATOM      9  C   UNL     1      56.288  32.583  32.097  1.00  0.00    -0.077 C 
ATOM     10  C   UNL     1      56.480  33.226  33.260  1.00  0.00     0.008 C 
ATOM     11  C   UNL     1      57.497  32.188  31.285  1.00  0.00     0.039 C 
ENDBRANCH   5   9
TORSDOF 1
ENDMDL
MODEL 4
REMARK VINA RESULT:    -4.913      1.121      1.750
REMARK INTER + INTRA:          -5.299
REMARK INTER:                  -5.200
REMARK INTRA:                  -0.098
REMARK UNBOUND:                -0.098
REMARK SMILES C=C(C)[C@H]1CC=C(C)C(=O)C1
REMARK SMILES IDX 8 1 7 2 6 3 5 4 4 5 11 6 9 7 10 8 2 9 1 10 3 11
REMARK H PARENT
REMARK Flexibility Score: inf
ROOT
ATOM      1  C   UNL     1      55.459  30.831  31.702  1.00  0.00     0.048 C 
ATOM      2  C   UNL     1      54.219  31.678  31.756  1.00  0.00    -0.012 C 
ATOM      3  C   UNL     1      53.020  31.099  31.941  1.00  0.00    -0.019 C 
ATOM      4  C   UNL     1      51.745  31.899  31.985  1.00  0.00     0.036 C 
ATOM      5  C   UNL     1      51.986  33.294  32.590  1.00  0.00     0.025 C 
ATOM      6  C   UNL     1      53.105  34.023  31.823  1.00  0.00     0.089 C 
ATOM      7  C   UNL     1      54.332  33.159  31.730  1.00  0.00     0.158 C 
ATOM      8  O   UNL     1      55.459  33.706  31.593  1.00  0.00    -0.295 OA
ENDROOT
BRANCH   5   9
ATOM      9  C   UNL     1      50.705  34.117  32.620  1.00  0.00    -0.077 C 
ATOM     10  C   UNL     1      49.537  33.559  32.264  1.00  0.00     0.008 C 
ATOM     11  C   UNL     1      50.710  35.564  33.047  1.00  0.00     0.039 C 
ENDBRANCH   5   9
TORSDOF 1
ENDMDL
MODEL 5
REMARK VINA RESULT:    -4.885      2.393      4.818
REMARK INTER + INTRA:          -5.268
REMARK INTER:                  -5.170
REMARK INTRA:                  -0.099
REMARK UNBOUND:                -0.098
REMARK SMILES C=C(C)[C@H]1CC=C(C)C(=O)C1
REMARK SMILES IDX 8 1 7 2 6 3 5 4 4 5 11 6 9 7 10 8 2 9 1 10 3 11
REMARK H PARENT
REMARK Flexibility Score: inf
ROOT
ATOM      1  C   UNL     1      49.068  33.120  30.459  1.00  0.00     0.048 C 
ATOM      2  C   UNL     1      50.529  32.852  30.693  1.00  0.00    -0.012 C 
ATOM      3  C   UNL     1      51.367  33.875  30.931  1.00  0.00    -0.019 C 
ATOM      4  C   UNL     1      52.842  33.665  31.153  1.00  0.00     0.036 C 
ATOM      5  C   UNL     1      53.110  32.320  31.852  1.00  0.00     0.025 C 
ATOM      6  C   UNL     1      52.470  31.167  31.057  1.00  0.00     0.089 C 
ATOM      7  C   UNL     1      51.020  31.454  30.785  1.00  0.00     0.158 C 
ATOM      8  O   UNL     1      50.227  30.491  30.598  1.00  0.00    -0.295 OA
ENDROOT
BRANCH   5   9
ATOM      9  C   UNL     1      54.600  32.089  32.064  1.00  0.00    -0.077 C 
ATOM     10  C   UNL     1      55.184  30.978  31.586  1.00  0.00     0.008 C 
ATOM     11  C   UNL     1      55.454  33.088  32.806  1.00  0.00     0.039 C 
ENDBRANCH   5   9
TORSDOF 1
ENDMDL
MODEL 6
REMARK VINA RESULT:    -4.750      2.445      4.486
REMARK INTER + INTRA:          -5.126
REMARK INTER:                  -5.027
REMARK INTRA:                  -0.098
REMARK UNBOUND:                -0.098
REMARK SMILES C=C(C)[C@H]1CC=C(C)C(=O)C1
REMARK SMILES IDX 8 1 7 2 6 3 5 4 4 5 11 6 9 7 10 8 2 9 1 10 3 11
REMARK H PARENT
REMARK Flexibility Score: inf
ROOT
ATOM      1  C   UNL     1      50.485  35.777  30.882  1.00  0.00     0.048 C 
ATOM      2  C   UNL     1      51.386  34.586  31.052  1.00  0.00    -0.012 C 
ATOM      3  C   UNL     1      52.719  34.757  31.101  1.00  0.00    -0.019 C 
ATOM      4  C   UNL     1      53.667  33.597  31.251  1.00  0.00     0.036 C 
ATOM      5  C   UNL     1      53.041  32.475  32.099  1.00  0.00     0.025 C 
ATOM      6  C   UNL     1      51.687  32.047  31.503  1.00  0.00     0.089 C 
ATOM      7  C   UNL     1      50.801  33.243  31.291  1.00  0.00     0.158 C 
ATOM      8  O   UNL     1      49.549  33.086  31.282  1.00  0.00    -0.295 OA
ENDROOT
BRANCH   5   9
ATOM      9  C   UNL     1      53.986  31.289  32.241  1.00  0.00    -0.077 C 
ATOM     10  C   UNL     1      55.173  31.297  31.615  1.00  0.00     0.008 C 
ATOM     11  C   UNL     1      53.621  30.088  33.078  1.00  0.00     0.039 C 
ENDBRANCH   5   9
TORSDOF 1
ENDMDL
MODEL 7
REMARK VINA RESULT:    -4.749      1.339      2.004
REMARK INTER + INTRA:          -5.125
REMARK INTER:                  -5.031
REMARK INTRA:                  -0.094
REMARK UNBOUND:                -0.098
REMARK SMILES C=C(C)[C@H]1CC=C(C)C(=O)C1
REMARK SMILES IDX 8 1 7 2 6 3 5 4 4 5 11 6 9 7 10 8 2 9 1 10 3 11
REMARK H PARENT
REMARK Flexibility Score: inf
ROOT
ATOM      1  C   UNL     1      57.088  33.064  31.681  1.00  0.00     0.048 C 
ATOM      2  C   UNL     1      55.620  32.817  31.890  1.00  0.00    -0.012 C 
ATOM      3  C   UNL     1      54.772  33.857  31.979  1.00  0.00    -0.019 C 
ATOM      4  C   UNL     1      53.296  33.666  32.207  1.00  0.00     0.036 C 
ATOM      5  C   UNL     1      52.797  32.369  31.547  1.00  0.00     0.025 C 
ATOM      6  C   UNL     1      53.622  31.166  32.040  1.00  0.00     0.089 C 
ATOM      7  C   UNL     1      55.093  31.429  31.872  1.00  0.00     0.158 C 
ATOM      8  O   UNL     1      55.882  30.454  31.752  1.00  0.00    -0.295 OA
ENDROOT
BRANCH   5   9
ATOM      9  C   UNL     1      51.308  32.157  31.788  1.00  0.00    -0.077 C 
ATOM     10  C   UNL     1      50.649  31.194  31.124  1.00  0.00     0.008 C 
ATOM     11  C   UNL     1      50.540  33.011  32.766  1.00  0.00     0.039 C 
ENDBRANCH   5   9
TORSDOF 1
ENDMDL
MODEL 8
REMARK VINA RESULT:    -4.700      2.013      2.662
REMARK INTER + INTRA:          -5.073
REMARK INTER:                  -4.976
REMARK INTRA:                  -0.097
REMARK UNBOUND:                -0.098
REMARK SMILES C=C(C)[C@H]1CC=C(C)C(=O)C1
REMARK SMILES IDX 8 1 7 2 6 3 5 4 4 5 11 6 9 7 10 8 2 9 1 10 3 11
REMARK H PARENT
REMARK Flexibility Score: inf
ROOT
ATOM      1  C   UNL     1      55.783  30.998  31.685  1.00  0.00     0.048 C 
ATOM      2  C   UNL     1      54.571  31.882  31.780  1.00  0.00    -0.012 C 
ATOM      3  C   UNL     1      54.601  33.119  31.256  1.00  0.00    -0.019 C 
ATOM      4  C   UNL     1      53.422  34.052  31.340  1.00  0.00     0.036 C 
ATOM      5  C   UNL     1      52.095  33.272  31.301  1.00  0.00     0.025 C 
ATOM      6  C   UNL     1      52.072  32.201  32.408  1.00  0.00     0.089 C 
ATOM      7  C   UNL     1      53.305  31.344  32.341  1.00  0.00     0.158 C 
ATOM      8  O   UNL     1      53.264  30.171  32.800  1.00  0.00    -0.295 OA
ENDROOT
BRANCH   5   9
ATOM      9  C   UNL     1      50.896  34.205  31.406  1.00  0.00    -0.077 C 
ATOM     10  C   UNL     1      50.981  35.463  30.945  1.00  0.00     0.008 C 
ATOM     11  C   UNL     1      49.596  33.750  32.020  1.00  0.00     0.039 C 
ENDBRANCH   5   9
TORSDOF 1
ENDMDL
MODEL 9
REMARK VINA RESULT:    -4.687      2.200      3.569
REMARK INTER + INTRA:          -5.059
REMARK INTER:                  -4.962
REMARK INTRA:                  -0.097
REMARK UNBOUND:                -0.098
REMARK SMILES C=C(C)[C@H]1CC=C(C)C(=O)C1
REMARK SMILES IDX 8 1 7 2 6 3 5 4 4 5 11 6 9 7 10 8 2 9 1 10 3 11
REMARK H PARENT
REMARK Flexibility Score: inf
ROOT
ATOM      1  C   UNL     1      52.671  37.086  31.220  1.00  0.00     0.048 C 
ATOM      2  C   UNL     1      52.532  35.600  31.398  1.00  0.00    -0.012 C 
ATOM      3  C   UNL     1      51.879  34.874  30.474  1.00  0.00    -0.019 C 
ATOM      4  C   UNL     1      51.695  33.386  30.613  1.00  0.00     0.036 C 
ATOM      5  C   UNL     1      52.893  32.745  31.336  1.00  0.00     0.025 C 
ATOM      6  C   UNL     1      53.127  33.431  32.694  1.00  0.00     0.089 C 
ATOM      7  C   UNL     1      53.222  34.922  32.524  1.00  0.00     0.158 C 
ATOM      8  O   UNL     1      53.866  35.598  33.372  1.00  0.00    -0.295 OA
ENDROOT
BRANCH   5   9
ATOM      9  C   UNL     1      52.708  31.241  31.498  1.00  0.00    -0.077 C 
ATOM     10  C   UNL     1      51.957  30.558  30.621  1.00  0.00     0.008 C 
ATOM     11  C   UNL     1      53.355  30.487  32.633  1.00  0.00     0.039 C 
ENDBRANCH   5   9
TORSDOF 1
ENDMDL
