MODEL 1
REMARK VINA RESULT:    -6.914      0.000      0.000
REMARK INTER + INTRA:          -9.728
REMARK INTER:                  -9.136
REMARK INTRA:                  -0.592
REMARK UNBOUND:                -0.592
REMARK SMILES CC[C@@H](C=C[C@H](C)[C@H]1CC[C@@H]2[C@@H]3CC=C4C[C@H](O)CC[C@@]4(C)[C@@H]3CC[C@@]21C)C(C)C
REMARK SMILES IDX 6 1 7 2 5 3 4 4 3 5 2 6 1 7 28 8 29 9 30 10 8 11 9 12 26 13
REMARK SMILES IDX 10 14 11 15 25 16 27 17 12 18 24 19 23 20 13 21 21 22 14 23
REMARK SMILES IDX 15 24 20 25 22 26 16 27 19 28 17 29 18 30
REMARK H PARENT 18 31
REMARK Flexibility Score: inf
ROOT
ATOM      1  C   UNL     1     166.020 177.864 187.805  1.00  0.00     0.012 C 
ATOM      2  C   UNL     1     165.923 178.503 189.207  1.00  0.00     0.012 C 
ENDROOT
BRANCH   1   3
ATOM      3  C   UNL     1     164.638 177.848 187.171  1.00  0.00    -0.028 C 
ATOM      4  C   UNL     1     163.596 177.213 187.750  1.00  0.00    -0.027 C 
BRANCH   4   5
ATOM      5  C   UNL     1     162.229 177.033 187.109  1.00  0.00     0.014 C 
BRANCH   5   6
ATOM      6  C   UNL     1     161.308 176.030 187.855  1.00  0.00     0.004 C 
ATOM      7  C   UNL     1     160.316 176.706 188.813  1.00  0.00     0.004 C 
ENDBRANCH   5   6
BRANCH   5   8
ATOM      8  C   UNL     1     162.366 176.759 185.581  1.00  0.00    -0.011 C 
ATOM      9  C   UNL     1     161.005 176.788 184.871  1.00  0.00     0.008 C 
ATOM     10  C   UNL     1     163.107 175.455 185.256  1.00  0.00     0.008 C 
ENDBRANCH   5   8
ENDBRANCH   4   5
ENDBRANCH   1   3
BRANCH   1  11
ATOM     11  C   UNL     1     167.075 178.519 186.827  1.00  0.00     0.002 C 
ATOM     12  C   UNL     1     167.681 179.832 187.353  1.00  0.00     0.005 C 
ATOM     13  C   UNL     1     168.355 177.648 186.580  1.00  0.00    -0.026 C 
ATOM     14  C   UNL     1     168.897 179.438 188.183  1.00  0.00     0.005 C 
ATOM     15  C   UNL     1     169.225 177.975 187.820  1.00  0.00    -0.001 C 
ATOM     16  C   UNL     1     169.051 178.088 185.236  1.00  0.00     0.007 C 
ATOM     17  C   UNL     1     168.083 176.125 186.498  1.00  0.00     0.012 C 
ATOM     18  C   UNL     1     170.745 177.626 187.684  1.00  0.00     0.000 C 
ATOM     19  C   UNL     1     170.429 178.747 185.400  1.00  0.00     0.005 C 
ATOM     20  C   UNL     1     171.370 177.868 186.263  1.00  0.00     0.003 C 
ATOM     21  C   UNL     1     171.549 178.224 188.861  1.00  0.00     0.031 C 
ATOM     22  C   UNL     1     172.882 178.360 186.291  1.00  0.00    -0.008 C 
ATOM     23  C   UNL     1     172.359 179.427 188.482  1.00  0.00    -0.027 C 
ATOM     24  C   UNL     1     173.091 179.432 187.354  1.00  0.00    -0.065 C 
ATOM     25  C   UNL     1     173.841 177.183 186.652  1.00  0.00     0.014 C 
ATOM     26  C   UNL     1     173.293 178.899 184.889  1.00  0.00     0.016 C 
ATOM     27  C   UNL     1     174.479 180.015 187.447  1.00  0.00     0.063 C 
ATOM     28  C   UNL     1     175.308 177.631 186.904  1.00  0.00     0.033 C 
ATOM     29  C   UNL     1     175.431 178.865 187.840  1.00  0.00     0.118 C 
BRANCH  29  30
ATOM     30  O   UNL     1     176.758 179.326 187.888  1.00  0.00    -0.393 OA
ATOM     31  H   UNL     1     176.742 180.301 187.700  1.00  0.00     0.210 HD
ENDBRANCH  29  30
ENDBRANCH   1  11
TORSDOF 6
ENDMDL
MODEL 2
REMARK VINA RESULT:    -6.770      3.245      9.562
REMARK INTER + INTRA:          -9.538
REMARK INTER:                  -8.317
REMARK INTRA:                  -1.221
REMARK UNBOUND:                -0.592
REMARK SMILES CC[C@@H](C=C[C@H](C)[C@H]1CC[C@@H]2[C@@H]3CC=C4C[C@H](O)CC[C@@]4(C)[C@@H]3CC[C@@]21C)C(C)C
REMARK SMILES IDX 6 1 7 2 5 3 4 4 3 5 2 6 1 7 28 8 29 9 30 10 8 11 9 12 26 13
REMARK SMILES IDX 10 14 11 15 25 16 27 17 12 18 24 19 23 20 13 21 21 22 14 23
REMARK SMILES IDX 15 24 20 25 22 26 16 27 19 28 17 29 18 30
REMARK H PARENT 18 31
REMARK Flexibility Score: inf
ROOT
ATOM      1  C   UNL     1     173.800 178.510 187.121  1.00  0.00     0.012 C 
ATOM      2  C   UNL     1     174.095 179.921 187.673  1.00  0.00     0.012 C 
ENDROOT
BRANCH   1   3
ATOM      3  C   UNL     1     175.102 177.733 187.022  1.00  0.00    -0.028 C 
ATOM      4  C   UNL     1     175.269 176.540 187.635  1.00  0.00    -0.027 C 
BRANCH   4   5
ATOM      5  C   UNL     1     176.583 175.778 187.700  1.00  0.00     0.014 C 
BRANCH   5   6
ATOM      6  C   UNL     1     177.150 175.377 186.311  1.00  0.00     0.004 C 
ATOM      7  C   UNL     1     178.400 174.490 186.393  1.00  0.00     0.004 C 
ENDBRANCH   5   6
BRANCH   5   8
ATOM      8  C   UNL     1     176.488 174.599 188.716  1.00  0.00    -0.011 C 
ATOM      9  C   UNL     1     175.045 174.103 188.880  1.00  0.00     0.008 C 
ATOM     10  C   UNL     1     177.099 174.920 190.086  1.00  0.00     0.008 C 
ENDBRANCH   5   8
ENDBRANCH   4   5
ENDBRANCH   1   3
BRANCH   1  11
ATOM     11  C   UNL     1     172.714 177.680 187.916  1.00  0.00     0.002 C 
ATOM     12  C   UNL     1     171.901 178.517 188.920  1.00  0.00     0.005 C 
ATOM     13  C   UNL     1     171.585 177.065 187.019  1.00  0.00    -0.026 C 
ATOM     14  C   UNL     1     170.712 179.074 188.147  1.00  0.00     0.005 C 
ATOM     15  C   UNL     1     170.614 178.259 186.840  1.00  0.00    -0.001 C 
ATOM     16  C   UNL     1     170.904 175.856 187.768  1.00  0.00     0.007 C 
ATOM     17  C   UNL     1     172.075 176.555 185.640  1.00  0.00     0.012 C 
ATOM     18  C   UNL     1     169.168 177.885 186.372  1.00  0.00     0.000 C 
ATOM     19  C   UNL     1     169.441 176.082 188.174  1.00  0.00     0.005 C 
ATOM     20  C   UNL     1     168.590 176.550 186.965  1.00  0.00     0.003 C 
ATOM     21  C   UNL     1     168.227 179.107 186.476  1.00  0.00     0.031 C 
ATOM     22  C   UNL     1     167.024 176.584 187.240  1.00  0.00    -0.008 C 
ATOM     23  C   UNL     1     167.276 179.033 187.631  1.00  0.00    -0.027 C 
ATOM     24  C   UNL     1     166.610 177.896 187.897  1.00  0.00    -0.065 C 
ATOM     25  C   UNL     1     166.224 176.485 185.904  1.00  0.00     0.014 C 
ATOM     26  C   UNL     1     166.614 175.377 188.135  1.00  0.00     0.016 C 
ATOM     27  C   UNL     1     165.150 178.029 188.253  1.00  0.00     0.063 C 
ATOM     28  C   UNL     1     164.697 176.723 186.074  1.00  0.00     0.033 C 
ATOM     29  C   UNL     1     164.352 177.969 186.934  1.00  0.00     0.118 C 
BRANCH  29  30
ATOM     30  O   UNL     1     162.973 178.030 187.195  1.00  0.00    -0.393 OA
ATOM     31  H   UNL     1     162.584 177.150 186.950  1.00  0.00     0.210 HD
ENDBRANCH  29  30
ENDBRANCH   1  11
TORSDOF 6
ENDMDL
MODEL 3
REMARK VINA RESULT:    -6.648      7.651     11.945
REMARK INTER + INTRA:          -9.377
REMARK INTER:                  -8.459
REMARK INTRA:                  -0.918
REMARK UNBOUND:                -0.592
REMARK SMILES CC[C@@H](C=C[C@H](C)[C@H]1CC[C@@H]2[C@@H]3CC=C4C[C@H](O)CC[C@@]4(C)[C@@H]3CC[C@@]21C)C(C)C
REMARK SMILES IDX 6 1 7 2 5 3 4 4 3 5 2 6 1 7 28 8 29 9 30 10 8 11 9 12 26 13
REMARK SMILES IDX 10 14 11 15 25 16 27 17 12 18 24 19 23 20 13 21 21 22 14 23
REMARK SMILES IDX 15 24 20 25 22 26 16 27 19 28 17 29 18 30
REMARK H PARENT 18 31
REMARK Flexibility Score: inf
ROOT
ATOM      1  C   UNL     1     161.740 167.800 187.409  1.00  0.00     0.012 C 
ATOM      2  C   UNL     1     163.102 167.163 187.758  1.00  0.00     0.012 C 
ENDROOT
BRANCH   1   3
ATOM      3  C   UNL     1     160.660 166.734 187.485  1.00  0.00    -0.028 C 
ATOM      4  C   UNL     1     160.945 165.420 187.354  1.00  0.00    -0.027 C 
BRANCH   4   5
ATOM      5  C   UNL     1     159.906 164.313 187.275  1.00  0.00     0.014 C 
BRANCH   5   6
ATOM      6  C   UNL     1     160.000 163.276 188.427  1.00  0.00     0.004 C 
ATOM      7  C   UNL     1     161.397 163.189 189.059  1.00  0.00     0.004 C 
ENDBRANCH   5   6
BRANCH   5   8
ATOM      8  C   UNL     1     159.875 163.684 185.850  1.00  0.00    -0.011 C 
ATOM      9  C   UNL     1     159.895 162.149 185.903  1.00  0.00     0.008 C 
ATOM     10  C   UNL     1     160.989 164.198 184.928  1.00  0.00     0.008 C 
ENDBRANCH   5   8
ENDBRANCH   4   5
ENDBRANCH   1   3
BRANCH   1  11
ATOM     11  C   UNL     1     161.338 169.065 188.269  1.00  0.00     0.002 C 
ATOM     12  C   UNL     1     162.515 169.705 189.025  1.00  0.00     0.005 C 
ATOM     13  C   UNL     1     160.797 170.273 187.428  1.00  0.00    -0.026 C 
ATOM     14  C   UNL     1     163.134 170.720 188.071  1.00  0.00     0.005 C 
ATOM     15  C   UNL     1     162.104 170.954 186.946  1.00  0.00    -0.001 C 
ATOM     16  C   UNL     1     159.940 171.224 188.347  1.00  0.00     0.007 C 
ATOM     17  C   UNL     1     159.922 169.865 186.217  1.00  0.00     0.012 C 
ATOM     18  C   UNL     1     161.949 172.432 186.454  1.00  0.00     0.000 C 
ATOM     19  C   UNL     1     160.544 172.614 188.590  1.00  0.00     0.005 C 
ATOM     20  C   UNL     1     160.917 173.305 187.254  1.00  0.00     0.003 C 
ATOM     21  C   UNL     1     163.334 173.085 186.246  1.00  0.00     0.031 C 
ATOM     22  C   UNL     1     161.331 174.834 187.399  1.00  0.00    -0.008 C 
ATOM     23  C   UNL     1     163.701 174.065 187.319  1.00  0.00    -0.027 C 
ATOM     24  C   UNL     1     162.807 174.971 187.753  1.00  0.00    -0.065 C 
ATOM     25  C   UNL     1     161.125 175.595 186.053  1.00  0.00     0.014 C 
ATOM     26  C   UNL     1     160.448 175.524 188.480  1.00  0.00     0.016 C 
ATOM     27  C   UNL     1     163.312 176.376 187.966  1.00  0.00     0.063 C 
ATOM     28  C   UNL     1     161.704 177.037 186.059  1.00  0.00     0.033 C 
ATOM     29  C   UNL     1     163.146 177.128 186.629  1.00  0.00     0.118 C 
BRANCH  29  30
ATOM     30  O   UNL     1     163.546 178.468 186.770  1.00  0.00    -0.393 OA
ATOM     31  H   UNL     1     163.212 178.787 187.649  1.00  0.00     0.210 HD
ENDBRANCH  29  30
ENDBRANCH   1  11
TORSDOF 6
ENDMDL
MODEL 4
REMARK VINA RESULT:    -6.592      9.800     14.329
REMARK INTER + INTRA:          -9.303
REMARK INTER:                  -7.959
REMARK INTRA:                  -1.344
REMARK UNBOUND:                -0.592
REMARK SMILES CC[C@@H](C=C[C@H](C)[C@H]1CC[C@@H]2[C@@H]3CC=C4C[C@H](O)CC[C@@]4(C)[C@@H]3CC[C@@]21C)C(C)C
REMARK SMILES IDX 6 1 7 2 5 3 4 4 3 5 2 6 1 7 28 8 29 9 30 10 8 11 9 12 26 13
REMARK SMILES IDX 10 14 11 15 25 16 27 17 12 18 24 19 23 20 13 21 21 22 14 23
REMARK SMILES IDX 15 24 20 25 22 26 16 27 19 28 17 29 18 30
REMARK H PARENT 18 31
REMARK Flexibility Score: inf
ROOT
ATOM      1  C   UNL     1     179.293 171.867 186.475  1.00  0.00     0.012 C 
ATOM      2  C   UNL     1     180.125 171.955 185.178  1.00  0.00     0.012 C 
ENDROOT
BRANCH   1   3
ATOM      3  C   UNL     1     179.015 173.273 186.983  1.00  0.00    -0.028 C 
ATOM      4  C   UNL     1     177.804 173.631 187.461  1.00  0.00    -0.027 C 
BRANCH   4   5
ATOM      5  C   UNL     1     177.412 175.048 187.850  1.00  0.00     0.014 C 
BRANCH   5   6
ATOM      6  C   UNL     1     176.784 175.164 189.265  1.00  0.00     0.004 C 
ATOM      7  C   UNL     1     176.423 173.807 189.886  1.00  0.00     0.004 C 
ENDBRANCH   5   6
BRANCH   5   8
ATOM      8  C   UNL     1     176.572 175.719 186.721  1.00  0.00    -0.011 C 
ATOM      9  C   UNL     1     175.627 176.793 187.276  1.00  0.00     0.008 C 
ATOM     10  C   UNL     1     175.790 174.717 185.860  1.00  0.00     0.008 C 
ENDBRANCH   5   8
ENDBRANCH   4   5
ENDBRANCH   1   3
BRANCH   1  11
ATOM     11  C   UNL     1     177.953 171.036 186.372  1.00  0.00     0.002 C 
ATOM     12  C   UNL     1     177.841 170.189 185.091  1.00  0.00     0.005 C 
ATOM     13  C   UNL     1     177.774 169.953 187.492  1.00  0.00    -0.026 C 
ATOM     14  C   UNL     1     178.489 168.847 185.410  1.00  0.00     0.005 C 
ATOM     15  C   UNL     1     178.610 168.769 186.947  1.00  0.00    -0.001 C 
ATOM     16  C   UNL     1     176.249 169.583 187.640  1.00  0.00     0.007 C 
ATOM     17  C   UNL     1     178.295 170.387 188.885  1.00  0.00     0.012 C 
ATOM     18  C   UNL     1     178.299 167.375 187.589  1.00  0.00     0.000 C 
ATOM     19  C   UNL     1     175.883 168.151 187.224  1.00  0.00     0.005 C 
ATOM     20  C   UNL     1     176.789 167.112 187.934  1.00  0.00     0.003 C 
ATOM     21  C   UNL     1     178.995 166.243 186.800  1.00  0.00     0.031 C 
ATOM     22  C   UNL     1     176.330 165.602 187.741  1.00  0.00    -0.008 C 
ATOM     23  C   UNL     1     178.056 165.441 185.951  1.00  0.00    -0.027 C 
ATOM     24  C   UNL     1     176.876 165.024 186.441  1.00  0.00    -0.065 C 
ATOM     25  C   UNL     1     176.881 164.704 188.892  1.00  0.00     0.014 C 
ATOM     26  C   UNL     1     174.776 165.510 187.764  1.00  0.00     0.016 C 
ATOM     27  C   UNL     1     176.469 163.608 186.120  1.00  0.00     0.063 C 
ATOM     28  C   UNL     1     176.651 163.184 188.659  1.00  0.00     0.033 C 
ATOM     29  C   UNL     1     177.041 162.706 187.234  1.00  0.00     0.118 C 
BRANCH  29  30
ATOM     30  O   UNL     1     176.649 161.371 187.030  1.00  0.00    -0.393 OA
ATOM     31  H   UNL     1     175.723 161.384 186.672  1.00  0.00     0.210 HD
ENDBRANCH  29  30
ENDBRANCH   1  11
TORSDOF 6
ENDMDL
MODEL 5
REMARK VINA RESULT:    -6.590     14.329     16.183
REMARK INTER + INTRA:          -9.301
REMARK INTER:                  -8.145
REMARK INTRA:                  -1.156
REMARK UNBOUND:                -0.592
REMARK SMILES CC[C@@H](C=C[C@H](C)[C@H]1CC[C@@H]2[C@@H]3CC=C4C[C@H](O)CC[C@@]4(C)[C@@H]3CC[C@@]21C)C(C)C
REMARK SMILES IDX 6 1 7 2 5 3 4 4 3 5 2 6 1 7 28 8 29 9 30 10 8 11 9 12 26 13
REMARK SMILES IDX 10 14 11 15 25 16 27 17 12 18 24 19 23 20 13 21 21 22 14 23
REMARK SMILES IDX 15 24 20 25 22 26 16 27 19 28 17 29 18 30
REMARK H PARENT 18 31
REMARK Flexibility Score: inf
ROOT
ATOM      1  C   UNL     1     164.303 161.059 187.946  1.00  0.00     0.012 C 
ATOM      2  C   UNL     1     163.890 159.875 188.847  1.00  0.00     0.012 C 
ENDROOT
BRANCH   1   3
ATOM      3  C   UNL     1     163.099 161.961 187.730  1.00  0.00    -0.028 C 
ATOM      4  C   UNL     1     162.866 163.038 188.512  1.00  0.00    -0.027 C 
BRANCH   4   5
ATOM      5  C   UNL     1     161.614 163.898 188.447  1.00  0.00     0.014 C 
BRANCH   5   6
ATOM      6  C   UNL     1     160.304 163.093 188.234  1.00  0.00     0.004 C 
ATOM      7  C   UNL     1     160.027 162.071 189.347  1.00  0.00     0.004 C 
ENDBRANCH   5   6
BRANCH   5   8
ATOM      8  C   UNL     1     161.807 165.080 187.448  1.00  0.00    -0.011 C 
ATOM      9  C   UNL     1     161.466 164.670 186.009  1.00  0.00     0.008 C 
ATOM     10  C   UNL     1     163.205 165.709 187.505  1.00  0.00     0.008 C 
ENDBRANCH   5   8
ENDBRANCH   4   5
ENDBRANCH   1   3
BRANCH   1  11
ATOM     11  C   UNL     1     165.546 161.897 188.449  1.00  0.00     0.002 C 
ATOM     12  C   UNL     1     166.436 161.149 189.458  1.00  0.00     0.005 C 
ATOM     13  C   UNL     1     166.573 162.268 187.323  1.00  0.00    -0.026 C 
ATOM     14  C   UNL     1     167.461 160.379 188.633  1.00  0.00     0.005 C 
ATOM     15  C   UNL     1     167.424 160.978 187.212  1.00  0.00    -0.001 C 
ATOM     16  C   UNL     1     167.435 163.508 187.774  1.00  0.00     0.007 C 
ATOM     17  C   UNL     1     165.926 162.609 185.958  1.00  0.00     0.012 C 
ATOM     18  C   UNL     1     168.810 161.147 186.503  1.00  0.00     0.000 C 
ATOM     19  C   UNL     1     168.923 163.215 188.014  1.00  0.00     0.005 C 
ATOM     20  C   UNL     1     169.557 162.498 186.795  1.00  0.00     0.003 C 
ATOM     21  C   UNL     1     169.671 159.875 186.676  1.00  0.00     0.031 C 
ATOM     22  C   UNL     1     171.141 162.366 186.863  1.00  0.00    -0.008 C 
ATOM     23  C   UNL     1     170.782 160.035 187.669  1.00  0.00    -0.027 C 
ATOM     24  C   UNL     1     171.555 161.135 187.660  1.00  0.00    -0.065 C 
ATOM     25  C   UNL     1     171.744 162.193 185.434  1.00  0.00     0.014 C 
ATOM     26  C   UNL     1     171.756 163.651 187.491  1.00  0.00     0.016 C 
ATOM     27  C   UNL     1     173.037 160.926 187.838  1.00  0.00     0.063 C 
ATOM     28  C   UNL     1     173.260 161.848 185.437  1.00  0.00     0.033 C 
ATOM     29  C   UNL     1     173.640 160.717 186.432  1.00  0.00     0.118 C 
BRANCH  29  30
ATOM     30  O   UNL     1     175.035 160.572 186.516  1.00  0.00    -0.393 OA
ATOM     31  H   UNL     1     175.334 160.096 185.697  1.00  0.00     0.210 HD
ENDBRANCH  29  30
ENDBRANCH   1  11
TORSDOF 6
ENDMDL
MODEL 6
REMARK VINA RESULT:    -6.553      2.468      5.017
REMARK INTER + INTRA:          -9.251
REMARK INTER:                  -8.107
REMARK INTRA:                  -1.145
REMARK UNBOUND:                -0.592
REMARK SMILES CC[C@@H](C=C[C@H](C)[C@H]1CC[C@@H]2[C@@H]3CC=C4C[C@H](O)CC[C@@]4(C)[C@@H]3CC[C@@]21C)C(C)C
REMARK SMILES IDX 6 1 7 2 5 3 4 4 3 5 2 6 1 7 28 8 29 9 30 10 8 11 9 12 26 13
REMARK SMILES IDX 10 14 11 15 25 16 27 17 12 18 24 19 23 20 13 21 21 22 14 23
REMARK SMILES IDX 15 24 20 25 22 26 16 27 19 28 17 29 18 30
REMARK H PARENT 18 31
REMARK Flexibility Score: inf
ROOT
ATOM      1  C   UNL     1     170.288 179.379 186.459  1.00  0.00     0.012 C 
ATOM      2  C   UNL     1     170.343 180.121 185.106  1.00  0.00     0.012 C 
ENDROOT
BRANCH   1   3
ATOM      3  C   UNL     1     168.907 179.563 187.069  1.00  0.00    -0.028 C 
ATOM      4  C   UNL     1     168.216 178.528 187.593  1.00  0.00    -0.027 C 
BRANCH   4   5
ATOM      5  C   UNL     1     166.781 178.608 188.088  1.00  0.00     0.014 C 
BRANCH   5   6
ATOM      6  C   UNL     1     166.642 178.558 189.633  1.00  0.00     0.004 C 
ATOM      7  C   UNL     1     167.431 177.411 190.281  1.00  0.00     0.004 C 
ENDBRANCH   5   6
BRANCH   5   8
ATOM      8  C   UNL     1     165.877 177.588 187.332  1.00  0.00    -0.011 C 
ATOM      9  C   UNL     1     166.160 177.586 185.822  1.00  0.00     0.008 C 
ATOM     10  C   UNL     1     164.378 177.785 187.591  1.00  0.00     0.008 C 
ENDBRANCH   5   8
ENDBRANCH   4   5
ENDBRANCH   1   3
BRANCH   1  11
ATOM     11  C   UNL     1     170.678 177.848 186.414  1.00  0.00     0.002 C 
ATOM     12  C   UNL     1     171.428 177.433 185.136  1.00  0.00     0.005 C 
ATOM     13  C   UNL     1     171.679 177.402 187.536  1.00  0.00    -0.026 C 
ATOM     14  C   UNL     1     172.909 177.662 185.418  1.00  0.00     0.005 C 
ATOM     15  C   UNL     1     173.049 177.821 186.946  1.00  0.00    -0.001 C 
ATOM     16  C   UNL     1     171.580 175.844 187.754  1.00  0.00     0.007 C 
ATOM     17  C   UNL     1     171.447 178.090 188.905  1.00  0.00     0.012 C 
ATOM     18  C   UNL     1     174.297 177.136 187.595  1.00  0.00     0.000 C 
ATOM     19  C   UNL     1     172.829 175.049 187.349  1.00  0.00     0.005 C 
ATOM     20  C   UNL     1     174.104 175.633 188.010  1.00  0.00     0.003 C 
ATOM     21  C   UNL     1     175.571 177.426 186.769  1.00  0.00     0.031 C 
ATOM     22  C   UNL     1     175.404 174.735 187.831  1.00  0.00    -0.008 C 
ATOM     23  C   UNL     1     176.039 176.254 185.961  1.00  0.00    -0.027 C 
ATOM     24  C   UNL     1     176.094 175.026 186.504  1.00  0.00    -0.065 C 
ATOM     25  C   UNL     1     176.447 175.041 188.951  1.00  0.00     0.014 C 
ATOM     26  C   UNL     1     175.028 173.227 187.927  1.00  0.00     0.016 C 
ATOM     27  C   UNL     1     177.318 174.200 186.195  1.00  0.00     0.063 C 
ATOM     28  C   UNL     1     177.824 174.357 188.721  1.00  0.00     0.033 C 
ATOM     29  C   UNL     1     178.370 174.523 187.276  1.00  0.00     0.118 C 
BRANCH  29  30
ATOM     30  O   UNL     1     179.523 173.742 187.085  1.00  0.00    -0.393 OA
ATOM     31  H   UNL     1     179.237 172.886 186.668  1.00  0.00     0.210 HD
ENDBRANCH  29  30
ENDBRANCH   1  11
TORSDOF 6
ENDMDL
MODEL 7
REMARK VINA RESULT:    -6.510      7.156     11.341
REMARK INTER + INTRA:          -9.194
REMARK INTER:                  -8.521
REMARK INTRA:                  -0.673
REMARK UNBOUND:                -0.592
REMARK SMILES CC[C@@H](C=C[C@H](C)[C@H]1CC[C@@H]2[C@@H]3CC=C4C[C@H](O)CC[C@@]4(C)[C@@H]3CC[C@@]21C)C(C)C
REMARK SMILES IDX 6 1 7 2 5 3 4 4 3 5 2 6 1 7 28 8 29 9 30 10 8 11 9 12 26 13
REMARK SMILES IDX 10 14 11 15 25 16 27 17 12 18 24 19 23 20 13 21 21 22 14 23
REMARK SMILES IDX 15 24 20 25 22 26 16 27 19 28 17 29 18 30
REMARK H PARENT 18 31
REMARK Flexibility Score: inf
ROOT
ATOM      1  C   UNL     1     161.081 168.634 187.888  1.00  0.00     0.012 C 
ATOM      2  C   UNL     1     160.114 168.871 189.067  1.00  0.00     0.012 C 
ENDROOT
BRANCH   1   3
ATOM      3  C   UNL     1     160.790 167.273 187.274  1.00  0.00    -0.028 C 
ATOM      4  C   UNL     1     161.627 166.225 187.435  1.00  0.00    -0.027 C 
BRANCH   4   5
ATOM      5  C   UNL     1     161.476 164.883 186.737  1.00  0.00     0.014 C 
BRANCH   5   6
ATOM      6  C   UNL     1     160.439 164.886 185.581  1.00  0.00     0.004 C 
ATOM      7  C   UNL     1     160.188 163.494 184.982  1.00  0.00     0.004 C 
ENDBRANCH   5   6
BRANCH   5   8
ATOM      8  C   UNL     1     161.272 163.740 187.776  1.00  0.00    -0.011 C 
ATOM      9  C   UNL     1     159.985 163.934 188.591  1.00  0.00     0.008 C 
ATOM     10  C   UNL     1     162.470 163.541 188.715  1.00  0.00     0.008 C 
ENDBRANCH   5   8
ENDBRANCH   4   5
ENDBRANCH   1   3
BRANCH   1  11
ATOM     11  C   UNL     1     161.090 169.757 186.776  1.00  0.00     0.002 C 
ATOM     12  C   UNL     1     159.875 170.700 186.832  1.00  0.00     0.005 C 
ATOM     13  C   UNL     1     162.287 170.765 186.883  1.00  0.00    -0.026 C 
ATOM     14  C   UNL     1     160.255 171.829 187.783  1.00  0.00     0.005 C 
ATOM     15  C   UNL     1     161.787 171.762 187.958  1.00  0.00    -0.001 C 
ATOM     16  C   UNL     1     162.524 171.465 185.491  1.00  0.00     0.007 C 
ATOM     17  C   UNL     1     163.624 170.119 187.325  1.00  0.00     0.012 C 
ATOM     18  C   UNL     1     162.533 173.137 187.998  1.00  0.00     0.000 C 
ATOM     19  C   UNL     1     162.221 172.970 185.459  1.00  0.00     0.005 C 
ATOM     20  C   UNL     1     162.959 173.715 186.600  1.00  0.00     0.003 C 
ATOM     21  C   UNL     1     161.793 174.134 188.918  1.00  0.00     0.031 C 
ATOM     22  C   UNL     1     162.887 175.301 186.502  1.00  0.00    -0.008 C 
ATOM     23  C   UNL     1     161.040 175.192 188.171  1.00  0.00    -0.027 C 
ATOM     24  C   UNL     1     161.606 175.833 187.134  1.00  0.00    -0.065 C 
ATOM     25  C   UNL     1     164.071 175.958 187.276  1.00  0.00     0.014 C 
ATOM     26  C   UNL     1     162.983 175.746 185.012  1.00  0.00     0.016 C 
ATOM     27  C   UNL     1     161.399 177.325 187.060  1.00  0.00     0.063 C 
ATOM     28  C   UNL     1     163.951 177.503 187.401  1.00  0.00     0.033 C 
ATOM     29  C   UNL     1     162.545 177.984 187.855  1.00  0.00     0.118 C 
BRANCH  29  30
ATOM     30  O   UNL     1     162.448 179.384 187.780  1.00  0.00    -0.393 OA
ATOM     31  H   UNL     1     162.257 179.620 186.834  1.00  0.00     0.210 HD
ENDBRANCH  29  30
ENDBRANCH   1  11
TORSDOF 6
ENDMDL
MODEL 8
REMARK VINA RESULT:    -6.423      3.392      6.320
REMARK INTER + INTRA:          -9.080
REMARK INTER:                  -7.949
REMARK INTRA:                  -1.131
REMARK UNBOUND:                -0.592
REMARK SMILES CC[C@@H](C=C[C@H](C)[C@H]1CC[C@@H]2[C@@H]3CC=C4C[C@H](O)CC[C@@]4(C)[C@@H]3CC[C@@]21C)C(C)C
REMARK SMILES IDX 6 1 7 2 5 3 4 4 3 5 2 6 1 7 28 8 29 9 30 10 8 11 9 12 26 13
REMARK SMILES IDX 10 14 11 15 25 16 27 17 12 18 24 19 23 20 13 21 21 22 14 23
REMARK SMILES IDX 15 24 20 25 22 26 16 27 19 28 17 29 18 30
REMARK H PARENT 18 31
REMARK Flexibility Score: inf
ROOT
ATOM      1  C   UNL     1     172.469 179.146 188.463  1.00  0.00     0.012 C 
ATOM      2  C   UNL     1     173.371 180.125 189.245  1.00  0.00     0.012 C 
ENDROOT
BRANCH   1   3
ATOM      3  C   UNL     1     171.095 179.772 188.286  1.00  0.00    -0.028 C 
ATOM      4  C   UNL     1     169.961 179.052 188.424  1.00  0.00    -0.027 C 
BRANCH   4   5
ATOM      5  C   UNL     1     168.564 179.572 188.122  1.00  0.00     0.014 C 
BRANCH   5   6
ATOM      6  C   UNL     1     167.478 179.078 189.116  1.00  0.00     0.004 C 
ATOM      7  C   UNL     1     167.753 177.675 189.675  1.00  0.00     0.004 C 
ENDBRANCH   5   6
BRANCH   5   8
ATOM      8  C   UNL     1     168.205 179.352 186.621  1.00  0.00    -0.011 C 
ATOM      9  C   UNL     1     166.698 179.131 186.423  1.00  0.00     0.008 C 
ATOM     10  C   UNL     1     168.999 178.218 185.960  1.00  0.00     0.008 C 
ENDBRANCH   5   8
ENDBRANCH   4   5
ENDBRANCH   1   3
BRANCH   1  11
ATOM     11  C   UNL     1     173.041 178.652 187.075  1.00  0.00     0.002 C 
ATOM     12  C   UNL     1     174.511 179.038 186.832  1.00  0.00     0.005 C 
ATOM     13  C   UNL     1     173.084 177.092 186.912  1.00  0.00    -0.026 C 
ATOM     14  C   UNL     1     175.351 177.913 187.425  1.00  0.00     0.005 C 
ATOM     15  C   UNL     1     174.398 176.718 187.644  1.00  0.00    -0.001 C 
ATOM     16  C   UNL     1     173.131 176.716 185.382  1.00  0.00     0.007 C 
ATOM     17  C   UNL     1     171.882 176.352 187.548  1.00  0.00     0.012 C 
ATOM     18  C   UNL     1     174.979 175.306 187.300  1.00  0.00     0.000 C 
ATOM     19  C   UNL     1     174.439 176.064 184.911  1.00  0.00     0.005 C 
ATOM     20  C   UNL     1     174.817 174.854 185.804  1.00  0.00     0.003 C 
ATOM     21  C   UNL     1     176.404 175.146 187.878  1.00  0.00     0.031 C 
ATOM     22  C   UNL     1     176.027 173.983 185.251  1.00  0.00    -0.008 C 
ATOM     23  C   UNL     1     177.483 175.231 186.842  1.00  0.00    -0.027 C 
ATOM     24  C   UNL     1     177.367 174.573 185.676  1.00  0.00    -0.065 C 
ATOM     25  C   UNL     1     175.976 172.534 185.827  1.00  0.00     0.014 C 
ATOM     26  C   UNL     1     175.947 173.885 183.698  1.00  0.00     0.016 C 
ATOM     27  C   UNL     1     178.596 173.861 185.171  1.00  0.00     0.063 C 
ATOM     28  C   UNL     1     177.239 171.690 185.498  1.00  0.00     0.033 C 
ATOM     29  C   UNL     1     178.575 172.437 185.765  1.00  0.00     0.118 C 
BRANCH  29  30
ATOM     30  O   UNL     1     179.667 171.693 185.288  1.00  0.00    -0.393 OA
ATOM     31  H   UNL     1     180.373 171.718 185.987  1.00  0.00     0.210 HD
ENDBRANCH  29  30
ENDBRANCH   1  11
TORSDOF 6
ENDMDL
MODEL 9
REMARK VINA RESULT:    -6.322     15.057     18.868
REMARK INTER + INTRA:          -8.947
REMARK INTER:                  -7.946
REMARK INTRA:                  -1.001
REMARK UNBOUND:                -0.592
REMARK SMILES CC[C@@H](C=C[C@H](C)[C@H]1CC[C@@H]2[C@@H]3CC=C4C[C@H](O)CC[C@@]4(C)[C@@H]3CC[C@@]21C)C(C)C
REMARK SMILES IDX 6 1 7 2 5 3 4 4 3 5 2 6 1 7 28 8 29 9 30 10 8 11 9 12 26 13
REMARK SMILES IDX 10 14 11 15 25 16 27 17 12 18 24 19 23 20 13 21 21 22 14 23
REMARK SMILES IDX 15 24 20 25 22 26 16 27 19 28 17 29 18 30
REMARK H PARENT 18 31
REMARK Flexibility Score: inf
ROOT
ATOM      1  C   UNL     1     171.331 161.316 187.659  1.00  0.00     0.012 C 
ATOM      2  C   UNL     1     171.678 159.895 188.151  1.00  0.00     0.012 C 
ENDROOT
BRANCH   1   3
ATOM      3  C   UNL     1     172.571 161.943 187.042  1.00  0.00    -0.028 C 
ATOM      4  C   UNL     1     173.696 161.229 186.821  1.00  0.00    -0.027 C 
BRANCH   4   5
ATOM      5  C   UNL     1     175.014 161.818 186.344  1.00  0.00     0.014 C 
BRANCH   5   6
ATOM      6  C   UNL     1     175.415 161.387 184.907  1.00  0.00     0.004 C 
ATOM      7  C   UNL     1     175.295 159.875 184.666  1.00  0.00     0.004 C 
ENDBRANCH   5   6
BRANCH   5   8
ATOM      8  C   UNL     1     176.132 161.606 187.410  1.00  0.00    -0.011 C 
ATOM      9  C   UNL     1     175.695 160.623 188.505  1.00  0.00     0.008 C 
ATOM     10  C   UNL     1     176.636 162.912 188.039  1.00  0.00     0.008 C 
ENDBRANCH   5   8
ENDBRANCH   4   5
ENDBRANCH   1   3
BRANCH   1  11
ATOM     11  C   UNL     1     170.104 161.415 186.667  1.00  0.00     0.002 C 
ATOM     12  C   UNL     1     169.259 160.130 186.590  1.00  0.00     0.005 C 
ATOM     13  C   UNL     1     169.031 162.484 187.071  1.00  0.00    -0.026 C 
ATOM     14  C   UNL     1     168.208 160.245 187.688  1.00  0.00     0.005 C 
ATOM     15  C   UNL     1     168.184 161.725 188.123  1.00  0.00    -0.001 C 
ATOM     16  C   UNL     1     168.179 162.891 185.808  1.00  0.00     0.007 C 
ATOM     17  C   UNL     1     169.621 163.779 187.683  1.00  0.00     0.012 C 
ATOM     18  C   UNL     1     166.770 162.332 188.413  1.00  0.00     0.000 C 
ATOM     19  C   UNL     1     166.704 162.468 185.853  1.00  0.00     0.005 C 
ATOM     20  C   UNL     1     166.027 162.936 187.167  1.00  0.00     0.003 C 
ATOM     21  C   UNL     1     165.926 161.364 189.271  1.00  0.00     0.031 C 
ATOM     22  C   UNL     1     164.448 162.744 187.195  1.00  0.00    -0.008 C 
ATOM     23  C   UNL     1     164.854 160.658 188.498  1.00  0.00    -0.027 C 
ATOM     24  C   UNL     1     164.074 161.334 187.636  1.00  0.00    -0.065 C 
ATOM     25  C   UNL     1     163.790 163.719 188.220  1.00  0.00     0.014 C 
ATOM     26  C   UNL     1     163.849 163.050 185.790  1.00  0.00     0.016 C 
ATOM     27  C   UNL     1     162.600 161.013 187.656  1.00  0.00     0.063 C 
ATOM     28  C   UNL     1     162.277 163.446 188.455  1.00  0.00     0.033 C 
ATOM     29  C   UNL     1     161.945 161.947 188.694  1.00  0.00     0.118 C 
BRANCH  29  30
ATOM     30  O   UNL     1     160.555 161.743 188.726  1.00  0.00    -0.393 OA
ATOM     31  H   UNL     1     160.400 160.769 188.852  1.00  0.00     0.210 HD
ENDBRANCH  29  30
ENDBRANCH   1  11
TORSDOF 6
ENDMDL
