MODEL 1
REMARK VINA RESULT:    -5.543      0.000      0.000
REMARK INTER + INTRA:         -12.143
REMARK INTER:                 -10.404
REMARK INTRA:                  -1.739
REMARK UNBOUND:                -1.739
REMARK SMILES CCCCCCCCC=CCCCCCCCC(=O)[O-]
REMARK SMILES IDX 10 1 9 2 11 3 12 4 13 5 14 6 15 7 16 8 17 9 18 10 19 11
REMARK SMILES IDX 20 12 8 13 7 14 6 15 5 16 4 17 3 18 2 19 1 20
REMARK H PARENT
REMARK Flexibility Score: inf
ROOT
ATOM      1  C   UNL     1      11.547   8.221  51.170  1.00  0.00    -0.031 C 
ATOM      2  C   UNL     1      10.836   7.302  51.841  1.00  0.00    -0.031 C 
ENDROOT
BRANCH   1   3
ATOM      3  C   UNL     1      12.793   7.852  50.414  1.00  0.00     0.027 C 
BRANCH   3   4
ATOM      4  C   UNL     1      13.992   7.700  51.360  1.00  0.00     0.004 C 
BRANCH   4   5
ATOM      5  C   UNL     1      14.861   8.968  51.431  1.00  0.00     0.000 C 
BRANCH   5   6
ATOM      6  C   UNL     1      16.086   8.823  52.356  1.00  0.00     0.000 C 
BRANCH   6   7
ATOM      7  C   UNL     1      15.964   7.611  53.297  1.00  0.00     0.000 C 
BRANCH   7   8
ATOM      8  C   UNL     1      15.704   8.018  54.762  1.00  0.00     0.006 C 
BRANCH   8   9
ATOM      9  C   UNL     1      14.244   8.410  55.043  1.00  0.00     0.053 C 
BRANCH   9  10
ATOM     10  C   UNL     1      14.114   9.814  55.545  1.00  0.00     0.041 C 
ATOM     11  O   UNL     1      13.765  10.033  56.735  1.00  0.00    -0.550 OA
ATOM     12  O   UNL     1      14.377  10.884  54.698  1.00  0.00    -0.550 OA
ENDBRANCH   9  10
ENDBRANCH   8   9
ENDBRANCH   7   8
ENDBRANCH   6   7
ENDBRANCH   5   6
ENDBRANCH   4   5
ENDBRANCH   3   4
ENDBRANCH   1   3
BRANCH   2  13
ATOM     13  C   UNL     1       9.597   7.671  52.610  1.00  0.00     0.027 C 
BRANCH  13  14
ATOM     14  C   UNL     1       9.351   6.690  53.765  1.00  0.00     0.004 C 
BRANCH  14  15
ATOM     15  C   UNL     1       9.353   7.377  55.140  1.00  0.00     0.000 C 
BRANCH  15  16
ATOM     16  C   UNL     1      10.767   7.517  55.728  1.00  0.00     0.000 C 
BRANCH  16  17
ATOM     17  C   UNL     1      11.010   6.589  56.932  1.00  0.00    -0.000 C 
BRANCH  17  18
ATOM     18  C   UNL     1      12.153   7.019  57.875  1.00  0.00    -0.000 C 
BRANCH  18  19
ATOM     19  C   UNL     1      13.108   5.889  58.298  1.00  0.00    -0.003 C 
ATOM     20  C   UNL     1      14.579   6.238  58.071  1.00  0.00     0.004 C 
ENDBRANCH  18  19
ENDBRANCH  17  18
ENDBRANCH  16  17
ENDBRANCH  15  16
ENDBRANCH  14  15
ENDBRANCH  13  14
ENDBRANCH   2  13
TORSDOF 15
ENDMDL
MODEL 2
REMARK VINA RESULT:    -5.453      2.405      4.826
REMARK INTER + INTRA:         -11.973
REMARK INTER:                  -9.845
REMARK INTRA:                  -2.128
REMARK UNBOUND:                -1.739
REMARK SMILES CCCCCCCCC=CCCCCCCCC(=O)[O-]
REMARK SMILES IDX 10 1 9 2 11 3 12 4 13 5 14 6 15 7 16 8 17 9 18 10 19 11
REMARK SMILES IDX 20 12 8 13 7 14 6 15 5 16 4 17 3 18 2 19 1 20
REMARK H PARENT
REMARK Flexibility Score: inf
ROOT
ATOM      1  C   UNL     1      13.910   8.524  56.908  1.00  0.00    -0.031 C 
ATOM      2  C   UNL     1      13.947   7.300  57.457  1.00  0.00    -0.031 C 
ENDROOT
BRANCH   1   3
ATOM      3  C   UNL     1      14.038   8.722  55.423  1.00  0.00     0.027 C 
BRANCH   3   4
ATOM      4  C   UNL     1      15.512   8.762  54.994  1.00  0.00     0.004 C 
BRANCH   4   5
ATOM      5  C   UNL     1      15.948   7.497  54.236  1.00  0.00     0.000 C 
BRANCH   5   6
ATOM      6  C   UNL     1      16.193   7.735  52.732  1.00  0.00     0.000 C 
BRANCH   6   7
ATOM      7  C   UNL     1      15.932   9.195  52.324  1.00  0.00     0.000 C 
BRANCH   7   8
ATOM      8  C   UNL     1      14.916   9.321  51.171  1.00  0.00     0.006 C 
BRANCH   8   9
ATOM      9  C   UNL     1      13.455   9.145  51.616  1.00  0.00     0.053 C 
BRANCH   9  10
ATOM     10  C   UNL     1      12.729   8.115  50.805  1.00  0.00     0.041 C 
ATOM     11  O   UNL     1      13.257   7.636  49.768  1.00  0.00    -0.550 OA
ATOM     12  O   UNL     1      11.466   7.687  51.195  1.00  0.00    -0.550 OA
ENDBRANCH   9  10
ENDBRANCH   8   9
ENDBRANCH   7   8
ENDBRANCH   6   7
ENDBRANCH   5   6
ENDBRANCH   4   5
ENDBRANCH   3   4
ENDBRANCH   1   3
BRANCH   2  13
ATOM     13  C   UNL     1      13.832   7.101  58.944  1.00  0.00     0.027 C 
BRANCH  13  14
ATOM     14  C   UNL     1      12.610   6.238  59.292  1.00  0.00     0.004 C 
BRANCH  14  15
ATOM     15  C   UNL     1      12.256   5.234  58.184  1.00  0.00     0.000 C 
BRANCH  15  16
ATOM     16  C   UNL     1      10.743   4.978  58.081  1.00  0.00     0.000 C 
BRANCH  16  17
ATOM     17  C   UNL     1      10.146   5.449  56.742  1.00  0.00    -0.000 C 
BRANCH  17  18
ATOM     18  C   UNL     1      10.639   6.826  56.251  1.00  0.00    -0.000 C 
BRANCH  18  19
ATOM     19  C   UNL     1       9.736   8.013  56.629  1.00  0.00    -0.003 C 
ATOM     20  C   UNL     1      10.286   8.830  57.798  1.00  0.00     0.004 C 
ENDBRANCH  18  19
ENDBRANCH  17  18
ENDBRANCH  16  17
ENDBRANCH  15  16
ENDBRANCH  14  15
ENDBRANCH  13  14
ENDBRANCH   2  13
TORSDOF 15
ENDMDL
MODEL 3
REMARK VINA RESULT:    -5.439      2.308      6.800
REMARK INTER + INTRA:         -11.947
REMARK INTER:                 -10.033
REMARK INTRA:                  -1.914
REMARK UNBOUND:                -1.739
REMARK SMILES CCCCCCCCC=CCCCCCCCC(=O)[O-]
REMARK SMILES IDX 10 1 9 2 11 3 12 4 13 5 14 6 15 7 16 8 17 9 18 10 19 11
REMARK SMILES IDX 20 12 8 13 7 14 6 15 5 16 4 17 3 18 2 19 1 20
REMARK H PARENT
REMARK Flexibility Score: inf
ROOT
ATOM      1  C   UNL     1      14.178   7.363  57.408  1.00  0.00    -0.031 C 
ATOM      2  C   UNL     1      13.568   8.291  56.655  1.00  0.00    -0.031 C 
ENDROOT
BRANCH   1   3
ATOM      3  C   UNL     1      13.613   6.931  58.732  1.00  0.00     0.027 C 
BRANCH   3   4
ATOM      4  C   UNL     1      13.188   5.456  58.699  1.00  0.00     0.004 C 
BRANCH   4   5
ATOM      5  C   UNL     1      11.673   5.266  58.880  1.00  0.00     0.000 C 
BRANCH   5   6
ATOM      6  C   UNL     1      10.999   4.530  57.704  1.00  0.00     0.000 C 
BRANCH   6   7
ATOM      7  C   UNL     1       9.921   5.389  57.021  1.00  0.00     0.000 C 
BRANCH   7   8
ATOM      8  C   UNL     1      10.516   6.532  56.174  1.00  0.00     0.006 C 
BRANCH   8   9
ATOM      9  C   UNL     1       9.542   7.699  55.943  1.00  0.00     0.053 C 
BRANCH   9  10
ATOM     10  C   UNL     1       9.439   8.603  57.132  1.00  0.00     0.041 C 
ATOM     11  O   UNL     1      10.370   8.648  57.978  1.00  0.00    -0.550 OA
ATOM     12  O   UNL     1       8.312   9.397  57.308  1.00  0.00    -0.550 OA
ENDBRANCH   9  10
ENDBRANCH   8   9
ENDBRANCH   7   8
ENDBRANCH   6   7
ENDBRANCH   5   6
ENDBRANCH   4   5
ENDBRANCH   3   4
ENDBRANCH   1   3
BRANCH   2  13
ATOM     13  C   UNL     1      14.139   8.734  55.335  1.00  0.00     0.027 C 
BRANCH  13  14
ATOM     14  C   UNL     1      15.638   8.412  55.246  1.00  0.00     0.004 C 
BRANCH  14  15
ATOM     15  C   UNL     1      15.950   7.311  54.221  1.00  0.00     0.000 C 
BRANCH  15  16
ATOM     16  C   UNL     1      16.234   7.874  52.818  1.00  0.00     0.000 C 
BRANCH  16  17
ATOM     17  C   UNL     1      15.014   7.792  51.882  1.00  0.00    -0.000 C 
BRANCH  17  18
ATOM     18  C   UNL     1      14.340   9.143  51.561  1.00  0.00    -0.000 C 
BRANCH  18  19
ATOM     19  C   UNL     1      15.214  10.383  51.816  1.00  0.00    -0.003 C 
ATOM     20  C   UNL     1      14.652  11.291  52.910  1.00  0.00     0.004 C 
ENDBRANCH  18  19
ENDBRANCH  17  18
ENDBRANCH  16  17
ENDBRANCH  15  16
ENDBRANCH  14  15
ENDBRANCH  13  14
ENDBRANCH   2  13
TORSDOF 15
ENDMDL
MODEL 4
REMARK VINA RESULT:    -5.352      2.349      4.054
REMARK INTER + INTRA:         -11.784
REMARK INTER:                  -9.948
REMARK INTRA:                  -1.835
REMARK UNBOUND:                -1.739
REMARK SMILES CCCCCCCCC=CCCCCCCCC(=O)[O-]
REMARK SMILES IDX 10 1 9 2 11 3 12 4 13 5 14 6 15 7 16 8 17 9 18 10 19 11
REMARK SMILES IDX 20 12 8 13 7 14 6 15 5 16 4 17 3 18 2 19 1 20
REMARK H PARENT
REMARK Flexibility Score: inf
ROOT
ATOM      1  C   UNL     1      12.524   8.126  55.643  1.00  0.00    -0.031 C 
ATOM      2  C   UNL     1      11.469   7.859  56.427  1.00  0.00    -0.031 C 
ENDROOT
BRANCH   1   3
ATOM      3  C   UNL     1      13.757   8.794  56.186  1.00  0.00     0.027 C 
BRANCH   3   4
ATOM      4  C   UNL     1      15.002   7.923  55.963  1.00  0.00     0.004 C 
BRANCH   4   5
ATOM      5  C   UNL     1      15.907   8.452  54.838  1.00  0.00     0.000 C 
BRANCH   5   6
ATOM      6  C   UNL     1      15.615   7.817  53.463  1.00  0.00     0.000 C 
BRANCH   6   7
ATOM      7  C   UNL     1      16.056   8.722  52.299  1.00  0.00     0.000 C 
BRANCH   7   8
ATOM      8  C   UNL     1      15.065   8.700  51.118  1.00  0.00     0.006 C 
BRANCH   8   9
ATOM      9  C   UNL     1      13.604   8.930  51.536  1.00  0.00     0.053 C 
BRANCH   9  10
ATOM     10  C   UNL     1      12.648   8.054  50.787  1.00  0.00     0.041 C 
ATOM     11  O   UNL     1      12.950   7.615  49.647  1.00  0.00    -0.550 OA
ATOM     12  O   UNL     1      11.421   7.724  51.348  1.00  0.00    -0.550 OA
ENDBRANCH   9  10
ENDBRANCH   8   9
ENDBRANCH   7   8
ENDBRANCH   6   7
ENDBRANCH   5   6
ENDBRANCH   4   5
ENDBRANCH   3   4
ENDBRANCH   1   3
BRANCH   2  13
ATOM     13  C   UNL     1      10.229   7.203  55.882  1.00  0.00     0.027 C 
BRANCH  13  14
ATOM     14  C   UNL     1       9.645   6.203  56.891  1.00  0.00     0.004 C 
BRANCH  14  15
ATOM     15  C   UNL     1      10.256   4.799  56.758  1.00  0.00     0.000 C 
BRANCH  15  16
ATOM     16  C   UNL     1      10.748   4.240  58.104  1.00  0.00     0.000 C 
BRANCH  16  17
ATOM     17  C   UNL     1      12.183   4.680  58.446  1.00  0.00    -0.000 C 
BRANCH  17  18
ATOM     18  C   UNL     1      12.290   5.864  59.430  1.00  0.00    -0.000 C 
BRANCH  18  19
ATOM     19  C   UNL     1      13.513   6.775  59.221  1.00  0.00    -0.003 C 
ATOM     20  C   UNL     1      13.340   8.156  59.853  1.00  0.00     0.004 C 
ENDBRANCH  18  19
ENDBRANCH  17  18
ENDBRANCH  16  17
ENDBRANCH  15  16
ENDBRANCH  14  15
ENDBRANCH  13  14
ENDBRANCH   2  13
TORSDOF 15
ENDMDL
MODEL 5
REMARK VINA RESULT:    -5.350      1.758      5.234
REMARK INTER + INTRA:         -11.780
REMARK INTER:                 -10.026
REMARK INTRA:                  -1.753
REMARK UNBOUND:                -1.739
REMARK SMILES CCCCCCCCC=CCCCCCCCC(=O)[O-]
REMARK SMILES IDX 10 1 9 2 11 3 12 4 13 5 14 6 15 7 16 8 17 9 18 10 19 11
REMARK SMILES IDX 20 12 8 13 7 14 6 15 5 16 4 17 3 18 2 19 1 20
REMARK H PARENT
REMARK Flexibility Score: inf
ROOT
ATOM      1  C   UNL     1      11.457   7.534  51.906  1.00  0.00    -0.031 C 
ATOM      2  C   UNL     1      12.045   7.967  50.780  1.00  0.00    -0.031 C 
ENDROOT
BRANCH   1   3
ATOM      3  C   UNL     1       9.991   7.748  52.159  1.00  0.00     0.027 C 
BRANCH   3   4
ATOM      4  C   UNL     1       9.474   6.804  53.254  1.00  0.00     0.004 C 
BRANCH   4   5
ATOM      5  C   UNL     1       9.224   7.521  54.591  1.00  0.00     0.000 C 
BRANCH   5   6
ATOM      6  C   UNL     1      10.389   7.377  55.593  1.00  0.00     0.000 C 
BRANCH   6   7
ATOM      7  C   UNL     1      10.285   6.086  56.424  1.00  0.00     0.000 C 
BRANCH   7   8
ATOM      8  C   UNL     1      11.400   5.966  57.482  1.00  0.00     0.006 C 
BRANCH   8   9
ATOM      9  C   UNL     1      12.393   7.140  57.465  1.00  0.00     0.053 C 
BRANCH   9  10
ATOM     10  C   UNL     1      13.582   6.897  58.343  1.00  0.00     0.041 C 
ATOM     11  O   UNL     1      14.515   6.146  57.954  1.00  0.00    -0.550 OA
ATOM     12  O   UNL     1      13.659   7.499  59.593  1.00  0.00    -0.550 OA
ENDBRANCH   9  10
ENDBRANCH   8   9
ENDBRANCH   7   8
ENDBRANCH   6   7
ENDBRANCH   5   6
ENDBRANCH   4   5
ENDBRANCH   3   4
ENDBRANCH   1   3
BRANCH   2  13
ATOM     13  C   UNL     1      13.515   7.766  50.531  1.00  0.00     0.027 C 
BRANCH  13  14
ATOM     14  C   UNL     1      14.296   7.717  51.853  1.00  0.00     0.004 C 
BRANCH  14  15
ATOM     15  C   UNL     1      15.632   8.473  51.783  1.00  0.00     0.000 C 
BRANCH  15  16
ATOM     16  C   UNL     1      15.445   9.998  51.700  1.00  0.00     0.000 C 
BRANCH  16  17
ATOM     17  C   UNL     1      14.328  10.514  52.625  1.00  0.00    -0.000 C 
BRANCH  17  18
ATOM     18  C   UNL     1      14.746  10.749  54.092  1.00  0.00    -0.000 C 
BRANCH  18  19
ATOM     19  C   UNL     1      14.233   9.697  55.091  1.00  0.00    -0.003 C 
ATOM     20  C   UNL     1      15.292   8.654  55.450  1.00  0.00     0.004 C 
ENDBRANCH  18  19
ENDBRANCH  17  18
ENDBRANCH  16  17
ENDBRANCH  15  16
ENDBRANCH  14  15
ENDBRANCH  13  14
ENDBRANCH   2  13
TORSDOF 15
ENDMDL
MODEL 6
REMARK VINA RESULT:    -5.343      1.679      2.678
REMARK INTER + INTRA:         -11.767
REMARK INTER:                  -9.849
REMARK INTRA:                  -1.918
REMARK UNBOUND:                -1.739
REMARK SMILES CCCCCCCCC=CCCCCCCCC(=O)[O-]
REMARK SMILES IDX 10 1 9 2 11 3 12 4 13 5 14 6 15 7 16 8 17 9 18 10 19 11
REMARK SMILES IDX 20 12 8 13 7 14 6 15 5 16 4 17 3 18 2 19 1 20
REMARK H PARENT
REMARK Flexibility Score: inf
ROOT
ATOM      1  C   UNL     1      13.833   7.579  51.476  1.00  0.00    -0.031 C 
ATOM      2  C   UNL     1      12.769   8.197  50.941  1.00  0.00    -0.031 C 
ENDROOT
BRANCH   1   3
ATOM      3  C   UNL     1      15.228   8.099  51.271  1.00  0.00     0.027 C 
BRANCH   3   4
ATOM      4  C   UNL     1      15.224   9.612  51.013  1.00  0.00     0.004 C 
BRANCH   4   5
ATOM      5  C   UNL     1      15.725  10.426  52.219  1.00  0.00     0.000 C 
BRANCH   5   6
ATOM      6  C   UNL     1      14.619  11.253  52.905  1.00  0.00     0.000 C 
BRANCH   6   7
ATOM      7  C   UNL     1      14.456  10.887  54.390  1.00  0.00     0.000 C 
BRANCH   7   8
ATOM      8  C   UNL     1      14.815   9.417  54.686  1.00  0.00     0.006 C 
BRANCH   8   9
ATOM      9  C   UNL     1      13.618   8.573  55.153  1.00  0.00     0.053 C 
BRANCH   9  10
ATOM     10  C   UNL     1      13.656   8.288  56.623  1.00  0.00     0.041 C 
ATOM     11  O   UNL     1      14.493   7.471  57.089  1.00  0.00    -0.550 OA
ATOM     12  O   UNL     1      12.765   8.923  57.478  1.00  0.00    -0.550 OA
ENDBRANCH   9  10
ENDBRANCH   8   9
ENDBRANCH   7   8
ENDBRANCH   6   7
ENDBRANCH   5   6
ENDBRANCH   4   5
ENDBRANCH   3   4
ENDBRANCH   1   3
BRANCH   2  13
ATOM     13  C   UNL     1      11.373   7.670  51.135  1.00  0.00     0.027 C 
BRANCH  13  14
ATOM     14  C   UNL     1      10.959   7.734  52.612  1.00  0.00     0.004 C 
BRANCH  14  15
ATOM     15  C   UNL     1       9.576   7.115  52.871  1.00  0.00     0.000 C 
BRANCH  15  16
ATOM     16  C   UNL     1       9.064   7.388  54.295  1.00  0.00     0.000 C 
BRANCH  16  17
ATOM     17  C   UNL     1      10.190   7.393  55.345  1.00  0.00    -0.000 C 
BRANCH  17  18
ATOM     18  C   UNL     1       9.895   6.590  56.630  1.00  0.00    -0.000 C 
BRANCH  18  19
ATOM     19  C   UNL     1       9.800   5.067  56.438  1.00  0.00    -0.003 C 
ATOM     20  C   UNL     1      10.642   4.288  57.449  1.00  0.00     0.004 C 
ENDBRANCH  18  19
ENDBRANCH  17  18
ENDBRANCH  16  17
ENDBRANCH  15  16
ENDBRANCH  14  15
ENDBRANCH  13  14
ENDBRANCH   2  13
TORSDOF 15
ENDMDL
MODEL 7
REMARK VINA RESULT:    -5.330      2.514      7.011
REMARK INTER + INTRA:         -11.743
REMARK INTER:                  -9.885
REMARK INTRA:                  -1.858
REMARK UNBOUND:                -1.739
REMARK SMILES CCCCCCCCC=CCCCCCCCC(=O)[O-]
REMARK SMILES IDX 10 1 9 2 11 3 12 4 13 5 14 6 15 7 16 8 17 9 18 10 19 11
REMARK SMILES IDX 20 12 8 13 7 14 6 15 5 16 4 17 3 18 2 19 1 20
REMARK H PARENT
REMARK Flexibility Score: inf
ROOT
ATOM      1  C   UNL     1      14.221   7.111  57.458  1.00  0.00    -0.031 C 
ATOM      2  C   UNL     1      13.824   8.232  56.836  1.00  0.00    -0.031 C 
ENDROOT
BRANCH   1   3
ATOM      3  C   UNL     1      13.799   6.803  58.867  1.00  0.00     0.027 C 
BRANCH   3   4
ATOM      4  C   UNL     1      12.442   6.085  58.895  1.00  0.00     0.004 C 
BRANCH   4   5
ATOM      5  C   UNL     1      11.264   7.042  59.144  1.00  0.00     0.000 C 
BRANCH   5   6
ATOM      6  C   UNL     1      10.323   7.188  57.931  1.00  0.00     0.000 C 
BRANCH   6   7
ATOM      7  C   UNL     1      10.655   6.184  56.813  1.00  0.00     0.000 C 
BRANCH   7   8
ATOM      8  C   UNL     1       9.563   6.116  55.728  1.00  0.00     0.006 C 
BRANCH   8   9
ATOM      9  C   UNL     1       9.574   7.316  54.767  1.00  0.00     0.053 C 
BRANCH   9  10
ATOM     10  C   UNL     1       9.275   6.922  53.353  1.00  0.00     0.041 C 
ATOM     11  O   UNL     1       9.650   7.651  52.398  1.00  0.00    -0.550 OA
ATOM     12  O   UNL     1       8.578   5.749  53.091  1.00  0.00    -0.550 OA
ENDBRANCH   9  10
ENDBRANCH   8   9
ENDBRANCH   7   8
ENDBRANCH   6   7
ENDBRANCH   5   6
ENDBRANCH   4   5
ENDBRANCH   3   4
ENDBRANCH   1   3
BRANCH   2  13
ATOM     13  C   UNL     1      14.256   8.549  55.431  1.00  0.00     0.027 C 
BRANCH  13  14
ATOM     14  C   UNL     1      15.773   8.378  55.269  1.00  0.00     0.004 C 
BRANCH  14  15
ATOM     15  C   UNL     1      16.147   7.454  54.099  1.00  0.00     0.000 C 
BRANCH  15  16
ATOM     16  C   UNL     1      15.215   7.627  52.888  1.00  0.00     0.000 C 
BRANCH  16  17
ATOM     17  C   UNL     1      15.864   8.423  51.742  1.00  0.00    -0.000 C 
BRANCH  17  18
ATOM     18  C   UNL     1      15.849   9.957  51.917  1.00  0.00    -0.000 C 
BRANCH  18  19
ATOM     19  C   UNL     1      14.494  10.551  52.341  1.00  0.00    -0.003 C 
ATOM     20  C   UNL     1      14.629  11.635  53.410  1.00  0.00     0.004 C 
ENDBRANCH  18  19
ENDBRANCH  17  18
ENDBRANCH  16  17
ENDBRANCH  15  16
ENDBRANCH  14  15
ENDBRANCH  13  14
ENDBRANCH   2  13
TORSDOF 15
ENDMDL
MODEL 8
REMARK VINA RESULT:    -5.323      2.370      6.835
REMARK INTER + INTRA:         -11.729
REMARK INTER:                 -10.142
REMARK INTRA:                  -1.587
REMARK UNBOUND:                -1.739
REMARK SMILES CCCCCCCCC=CCCCCCCCC(=O)[O-]
REMARK SMILES IDX 10 1 9 2 11 3 12 4 13 5 14 6 15 7 16 8 17 9 18 10 19 11
REMARK SMILES IDX 20 12 8 13 7 14 6 15 5 16 4 17 3 18 2 19 1 20
REMARK H PARENT
REMARK Flexibility Score: inf
ROOT
ATOM      1  C   UNL     1      13.830   8.964  56.766  1.00  0.00    -0.031 C 
ATOM      2  C   UNL     1      14.745   8.478  55.913  1.00  0.00    -0.031 C 
ENDROOT
BRANCH   1   3
ATOM      3  C   UNL     1      13.275   8.126  57.884  1.00  0.00     0.027 C 
BRANCH   3   4
ATOM      4  C   UNL     1      14.189   6.930  58.188  1.00  0.00     0.004 C 
BRANCH   4   5
ATOM      5  C   UNL     1      13.424   5.598  58.267  1.00  0.00     0.000 C 
BRANCH   5   6
ATOM      6  C   UNL     1      11.928   5.767  58.604  1.00  0.00     0.000 C 
BRANCH   6   7
ATOM      7  C   UNL     1      11.017   5.224  57.490  1.00  0.00     0.000 C 
BRANCH   7   8
ATOM      8  C   UNL     1       9.868   6.189  57.135  1.00  0.00     0.006 C 
BRANCH   8   9
ATOM      9  C   UNL     1      10.175   7.097  55.933  1.00  0.00     0.053 C 
BRANCH   9  10
ATOM     10  C   UNL     1       9.405   6.707  54.709  1.00  0.00     0.041 C 
ATOM     11  O   UNL     1       8.711   5.657  54.703  1.00  0.00    -0.550 OA
ATOM     12  O   UNL     1       9.456   7.504  53.572  1.00  0.00    -0.550 OA
ENDBRANCH   9  10
ENDBRANCH   8   9
ENDBRANCH   7   8
ENDBRANCH   6   7
ENDBRANCH   5   6
ENDBRANCH   4   5
ENDBRANCH   3   4
ENDBRANCH   1   3
BRANCH   2  13
ATOM     13  C   UNL     1      15.291   9.311  54.785  1.00  0.00     0.027 C 
BRANCH  13  14
ATOM     14  C   UNL     1      14.411  10.544  54.534  1.00  0.00     0.004 C 
BRANCH  14  15
ATOM     15  C   UNL     1      14.646  11.170  53.151  1.00  0.00     0.000 C 
BRANCH  15  16
ATOM     16  C   UNL     1      15.669  10.386  52.313  1.00  0.00     0.000 C 
BRANCH  16  17
ATOM     17  C   UNL     1      15.036   9.682  51.099  1.00  0.00    -0.000 C 
BRANCH  17  18
ATOM     18  C   UNL     1      14.242   8.399  51.424  1.00  0.00    -0.000 C 
BRANCH  18  19
ATOM     19  C   UNL     1      13.185   8.005  50.378  1.00  0.00    -0.003 C 
ATOM     20  C   UNL     1      11.786   7.854  50.974  1.00  0.00     0.004 C 
ENDBRANCH  18  19
ENDBRANCH  17  18
ENDBRANCH  16  17
ENDBRANCH  15  16
ENDBRANCH  14  15
ENDBRANCH  13  14
ENDBRANCH   2  13
TORSDOF 15
ENDMDL
MODEL 9
REMARK VINA RESULT:    -5.298      2.779      4.859
REMARK INTER + INTRA:         -11.683
REMARK INTER:                  -9.886
REMARK INTRA:                  -1.797
REMARK UNBOUND:                -1.739
REMARK SMILES CCCCCCCCC=CCCCCCCCC(=O)[O-]
REMARK SMILES IDX 10 1 9 2 11 3 12 4 13 5 14 6 15 7 16 8 17 9 18 10 19 11
REMARK SMILES IDX 20 12 8 13 7 14 6 15 5 16 4 17 3 18 2 19 1 20
REMARK H PARENT
REMARK Flexibility Score: inf
ROOT
ATOM      1  C   UNL     1      14.238   8.418  55.381  1.00  0.00    -0.031 C 
ATOM      2  C   UNL     1      13.434   8.545  56.446  1.00  0.00    -0.031 C 
ENDROOT
BRANCH   1   3
ATOM      3  C   UNL     1      15.176   9.518  54.969  1.00  0.00     0.027 C 
BRANCH   3   4
ATOM      4  C   UNL     1      14.408  10.802  54.624  1.00  0.00     0.004 C 
BRANCH   4   5
ATOM      5  C   UNL     1      14.580  11.225  53.156  1.00  0.00     0.000 C 
BRANCH   5   6
ATOM      6  C   UNL     1      15.642  10.401  52.398  1.00  0.00     0.000 C 
BRANCH   6   7
ATOM      7  C   UNL     1      15.066   9.732  51.138  1.00  0.00     0.000 C 
BRANCH   7   8
ATOM      8  C   UNL     1      14.834   8.218  51.319  1.00  0.00     0.006 C 
BRANCH   8   9
ATOM      9  C   UNL     1      13.457   7.874  51.912  1.00  0.00     0.053 C 
BRANCH   9  10
ATOM     10  C   UNL     1      12.385   7.807  50.869  1.00  0.00     0.041 C 
ATOM     11  O   UNL     1      11.175   7.937  51.193  1.00  0.00    -0.550 OA
ATOM     12  O   UNL     1      12.721   7.600  49.537  1.00  0.00    -0.550 OA
ENDBRANCH   9  10
ENDBRANCH   8   9
ENDBRANCH   7   8
ENDBRANCH   6   7
ENDBRANCH   5   6
ENDBRANCH   4   5
ENDBRANCH   3   4
ENDBRANCH   1   3
BRANCH   2  13
ATOM     13  C   UNL     1      12.485   7.450  56.852  1.00  0.00     0.027 C 
BRANCH  13  14
ATOM     14  C   UNL     1      12.866   6.869  58.222  1.00  0.00     0.004 C 
BRANCH  14  15
ATOM     15  C   UNL     1      13.615   7.876  59.108  1.00  0.00     0.000 C 
BRANCH  15  16
ATOM     16  C   UNL     1      12.923   8.101  60.462  1.00  0.00     0.000 C 
BRANCH  16  17
ATOM     17  C   UNL     1      11.799   9.152  60.393  1.00  0.00    -0.000 C 
BRANCH  17  18
ATOM     18  C   UNL     1      10.366   8.581  60.370  1.00  0.00    -0.000 C 
BRANCH  18  19
ATOM     19  C   UNL     1       9.356   9.390  59.538  1.00  0.00    -0.003 C 
ATOM     20  C   UNL     1       9.673   9.377  58.043  1.00  0.00     0.004 C 
ENDBRANCH  18  19
ENDBRANCH  17  18
ENDBRANCH  16  17
ENDBRANCH  15  16
ENDBRANCH  14  15
ENDBRANCH  13  14
ENDBRANCH   2  13
TORSDOF 15
ENDMDL
