MODEL 1
REMARK VINA RESULT:    11.433      0.000      0.000
REMARK INTER + INTRA:          12.101
REMARK INTER:                  12.101
REMARK INTRA:                   0.000
REMARK UNBOUND:                 0.000
REMARK SMILES Cc1cc(O)c(C)c(C)c1O
REMARK SMILES IDX 1 1 2 2 3 3 4 4 6 5 8 6 10 7 9 8 7 9 11 10 5 12
REMARK H PARENT 11 11 5 13
REMARK Flexibility Score: inf
ROOT
ATOM      1  C   UNL     1       9.308  40.878  24.272  1.00  0.00     0.048 C 
ATOM      2  C   UNL     1       7.944  41.513  24.262  1.00  0.00    -0.005 A 
ATOM      3  C   UNL     1       6.911  40.931  25.008  1.00  0.00     0.053 A 
ATOM      4  C   UNL     1       5.628  41.483  25.011  1.00  0.00     0.119 A 
ATOM      5  C   UNL     1       5.352  42.638  24.256  1.00  0.00    -0.003 A 
ATOM      6  C   UNL     1       6.400  43.269  23.537  1.00  0.00    -0.002 A 
ATOM      7  C   UNL     1       7.687  42.686  23.519  1.00  0.00     0.121 A 
ATOM      8  C   UNL     1       6.139  44.529  22.742  1.00  0.00     0.049 C 
ATOM      9  C   UNL     1       3.957  43.220  24.263  1.00  0.00     0.049 C 
ENDROOT
BRANCH   7  10
ATOM     10  O   UNL     1       8.696  43.286  22.756  1.00  0.00    -0.507 OA
ATOM     11  H   UNL     1       9.001  44.241  22.885  1.00  0.00     0.293 HD
ENDBRANCH   7  10
BRANCH   4  12
ATOM     12  O   UNL     1       4.624  40.879  25.769  1.00  0.00    -0.508 OA
ATOM     13  H   UNL     1       4.272  39.954  25.548  1.00  0.00     0.293 HD
ENDBRANCH   4  12
TORSDOF 2
ENDMDL
MODEL 2
REMARK VINA RESULT:    11.542     11.845     12.722
REMARK INTER + INTRA:          12.216
REMARK INTER:                  12.216
REMARK INTRA:                   0.000
REMARK UNBOUND:                 0.000
REMARK SMILES Cc1cc(O)c(C)c(C)c1O
REMARK SMILES IDX 1 1 2 2 3 3 4 4 6 5 8 6 10 7 9 8 7 9 11 10 5 12
REMARK H PARENT 11 11 5 13
REMARK Flexibility Score: inf
ROOT
ATOM      1  C   UNL     1      -2.964  50.314  22.677  1.00  0.00     0.048 C 
ATOM      2  C   UNL     1      -1.862  50.872  21.819  1.00  0.00    -0.005 A 
ATOM      3  C   UNL     1      -0.702  51.366  22.429  1.00  0.00     0.053 A 
ATOM      4  C   UNL     1       0.335  51.907  21.666  1.00  0.00     0.119 A 
ATOM      5  C   UNL     1       0.227  51.967  20.263  1.00  0.00    -0.003 A 
ATOM      6  C   UNL     1      -0.919  51.424  19.628  1.00  0.00    -0.002 A 
ATOM      7  C   UNL     1      -1.974  50.905  20.412  1.00  0.00     0.121 A 
ATOM      8  C   UNL     1      -1.047  51.446  18.121  1.00  0.00     0.049 C 
ATOM      9  C   UNL     1       1.355  52.562  19.452  1.00  0.00     0.049 C 
ENDROOT
BRANCH   7  10
ATOM     10  O   UNL     1      -3.125  50.427  19.773  1.00  0.00    -0.507 OA
ATOM     11  H   UNL     1      -3.469  50.791  18.894  1.00  0.00     0.293 HD
ENDBRANCH   7  10
BRANCH   4  12
ATOM     12  O   UNL     1       1.479  52.387  22.306  1.00  0.00    -0.508 OA
ATOM     13  H   UNL     1       1.872  51.922  23.116  1.00  0.00     0.293 HD
ENDBRANCH   4  12
TORSDOF 2
ENDMDL
MODEL 3
REMARK VINA RESULT:    12.977      1.516      3.348
REMARK INTER + INTRA:          13.736
REMARK INTER:                  13.736
REMARK INTRA:                   0.000
REMARK UNBOUND:                 0.000
REMARK SMILES Cc1cc(O)c(C)c(C)c1O
REMARK SMILES IDX 1 1 2 2 3 3 4 4 6 5 8 6 10 7 9 8 7 9 11 10 5 12
REMARK H PARENT 11 11 5 13
REMARK Flexibility Score: inf
ROOT
ATOM      1  C   UNL     1       3.949  40.875  25.714  1.00  0.00     0.048 C 
ATOM      2  C   UNL     1       5.131  41.510  25.033  1.00  0.00    -0.005 A 
ATOM      3  C   UNL     1       6.397  40.925  25.171  1.00  0.00     0.053 A 
ATOM      4  C   UNL     1       7.519  41.494  24.566  1.00  0.00     0.119 A 
ATOM      5  C   UNL     1       7.396  42.674  23.808  1.00  0.00    -0.003 A 
ATOM      6  C   UNL     1       6.113  43.248  23.617  1.00  0.00    -0.002 A 
ATOM      7  C   UNL     1       4.988  42.680  24.256  1.00  0.00     0.121 A 
ATOM      8  C   UNL     1       5.945  44.498  22.781  1.00  0.00     0.049 C 
ATOM      9  C   UNL     1       8.621  43.282  23.166  1.00  0.00     0.049 C 
ENDROOT
BRANCH   7  10
ATOM     10  O   UNL     1       3.738  43.293  24.107  1.00  0.00    -0.507 OA
ATOM     11  H   UNL     1       3.265  43.389  23.219  1.00  0.00     0.293 HD
ENDBRANCH   7  10
BRANCH   4  12
ATOM     12  O   UNL     1       8.765  40.883  24.721  1.00  0.00    -0.508 OA
ATOM     13  H   UNL     1       9.609  41.286  24.330  1.00  0.00     0.293 HD
ENDBRANCH   4  12
TORSDOF 2
ENDMDL
MODEL 4
REMARK VINA RESULT:    13.116     11.647     12.297
REMARK INTER + INTRA:          13.883
REMARK INTER:                  13.883
REMARK INTRA:                   0.000
REMARK UNBOUND:                 0.000
REMARK SMILES Cc1cc(O)c(C)c(C)c1O
REMARK SMILES IDX 1 1 2 2 3 3 4 4 6 5 8 6 10 7 9 8 7 9 11 10 5 12
REMARK H PARENT 11 11 5 13
REMARK Flexibility Score: inf
ROOT
ATOM      1  C   UNL     1       1.645  52.389  22.333  1.00  0.00     0.048 C 
ATOM      2  C   UNL     1       0.422  51.882  21.619  1.00  0.00    -0.005 A 
ATOM      3  C   UNL     1      -0.604  51.281  22.360  1.00  0.00     0.053 A 
ATOM      4  C   UNL     1      -1.747  50.784  21.731  1.00  0.00     0.119 A 
ATOM      5  C   UNL     1      -1.885  50.878  20.333  1.00  0.00    -0.003 A 
ATOM      6  C   UNL     1      -0.878  51.530  19.575  1.00  0.00    -0.002 A 
ATOM      7  C   UNL     1       0.287  52.004  20.219  1.00  0.00     0.121 A 
ATOM      8  C   UNL     1      -1.014  51.673  18.076  1.00  0.00     0.049 C 
ATOM      9  C   UNL     1      -3.124  50.329  19.665  1.00  0.00     0.049 C 
ENDROOT
BRANCH   7  10
ATOM     10  O   UNL     1       1.299  52.592  19.451  1.00  0.00    -0.507 OA
ATOM     11  H   UNL     1       1.192  53.472  18.964  1.00  0.00     0.293 HD
ENDBRANCH   7  10
BRANCH   4  12
ATOM     12  O   UNL     1      -2.751  50.194  22.500  1.00  0.00    -0.508 OA
ATOM     13  H   UNL     1      -3.222  49.346  22.203  1.00  0.00     0.293 HD
ENDBRANCH   4  12
TORSDOF 2
ENDMDL
MODEL 5
REMARK VINA RESULT:    13.333     11.595     12.653
REMARK INTER + INTRA:          14.112
REMARK INTER:                  14.112
REMARK INTRA:                   0.000
REMARK UNBOUND:                 0.000
REMARK SMILES Cc1cc(O)c(C)c(C)c1O
REMARK SMILES IDX 1 1 2 2 3 3 4 4 6 5 8 6 10 7 9 8 7 9 11 10 5 12
REMARK H PARENT 11 11 5 13
REMARK Flexibility Score: inf
ROOT
ATOM      1  C   UNL     1      -3.125  49.993  22.388  1.00  0.00     0.048 C 
ATOM      2  C   UNL     1      -2.045  50.627  21.554  1.00  0.00    -0.005 A 
ATOM      3  C   UNL     1      -2.227  50.741  20.170  1.00  0.00     0.053 A 
ATOM      4  C   UNL     1      -1.241  51.310  19.361  1.00  0.00     0.119 A 
ATOM      5  C   UNL     1      -0.040  51.777  19.929  1.00  0.00    -0.003 A 
ATOM      6  C   UNL     1       0.136  51.715  21.335  1.00  0.00    -0.002 A 
ATOM      7  C   UNL     1      -0.856  51.112  22.140  1.00  0.00     0.121 A 
ATOM      8  C   UNL     1       1.403  52.238  21.976  1.00  0.00     0.049 C 
ATOM      9  C   UNL     1       1.021  52.383  19.040  1.00  0.00     0.049 C 
ENDROOT
BRANCH   7  10
ATOM     10  O   UNL     1      -0.641  51.004  23.519  1.00  0.00    -0.507 OA
ATOM     11  H   UNL     1      -1.046  50.276  24.093  1.00  0.00     0.293 HD
ENDBRANCH   7  10
BRANCH   4  12
ATOM     12  O   UNL     1      -1.456  51.411  17.986  1.00  0.00    -0.508 OA
ATOM     13  H   UNL     1      -0.715  51.676  17.348  1.00  0.00     0.293 HD
ENDBRANCH   4  12
TORSDOF 2
ENDMDL
