MODEL 1
REMARK VINA RESULT:    -3.902      0.000      0.000
REMARK INTER + INTRA:          -5.548
REMARK INTER:                  -5.043
REMARK INTRA:                  -0.505
REMARK UNBOUND:                -0.505
REMARK SMILES C=CC(=O)CCCCC
REMARK SMILES IDX 6 1 7 2 8 3 9 4 5 5 3 6 4 7 2 8 1 9
REMARK H PARENT
REMARK Flexibility Score: inf
ROOT
ATOM      1  C   UNL     1      -4.583  -1.676   8.938  1.00  0.00     0.008 C 
ENDROOT
BRANCH   1   2
ATOM      2  C   UNL     1      -4.480  -2.491  10.241  1.00  0.00     0.000 C 
BRANCH   2   3
ATOM      3  C   UNL     1      -4.475  -4.006   9.995  1.00  0.00    -0.003 C 
ATOM      4  C   UNL     1      -3.667  -4.356   8.748  1.00  0.00     0.004 C 
ENDBRANCH   2   3
ENDBRANCH   1   2
BRANCH   1   5
ATOM      5  C   UNL     1      -5.957  -1.027   8.706  1.00  0.00     0.080 C 
BRANCH   5   6
ATOM      6  C   UNL     1      -6.988  -2.027   8.272  1.00  0.00     0.155 C 
ATOM      7  O   UNL     1      -7.828  -2.451   9.112  1.00  0.00    -0.295 OA
BRANCH   6   8
ATOM      8  C   UNL     1      -7.037  -2.485   6.869  1.00  0.00     0.039 C 
ATOM      9  C   UNL     1      -6.384  -3.566   6.447  1.00  0.00     0.012 C 
ENDBRANCH   6   8
ENDBRANCH   5   6
ENDBRANCH   1   5
TORSDOF 5
ENDMDL
MODEL 2
REMARK VINA RESULT:    -3.872      1.461      3.604
REMARK INTER + INTRA:          -5.508
REMARK INTER:                  -5.065
REMARK INTRA:                  -0.444
REMARK UNBOUND:                -0.505
REMARK SMILES C=CC(=O)CCCCC
REMARK SMILES IDX 6 1 7 2 8 3 9 4 5 5 3 6 4 7 2 8 1 9
REMARK H PARENT
REMARK Flexibility Score: inf
ROOT
ATOM      1  C   UNL     1      -7.471  -2.473   8.900  1.00  0.00     0.008 C 
ENDROOT
BRANCH   1   2
ATOM      2  C   UNL     1      -7.727  -1.665   7.615  1.00  0.00     0.000 C 
BRANCH   2   3
ATOM      3  C   UNL     1      -7.518  -2.494   6.340  1.00  0.00    -0.003 C 
ATOM      4  C   UNL     1      -6.381  -3.497   6.520  1.00  0.00     0.004 C 
ENDBRANCH   2   3
ENDBRANCH   1   2
BRANCH   1   5
ATOM      5  C   UNL     1      -6.520  -1.790   9.897  1.00  0.00     0.080 C 
BRANCH   5   6
ATOM      6  C   UNL     1      -5.084  -1.903   9.475  1.00  0.00     0.155 C 
ATOM      7  O   UNL     1      -4.566  -0.973   8.798  1.00  0.00    -0.295 OA
BRANCH   6   8
ATOM      8  C   UNL     1      -4.281  -3.076   9.874  1.00  0.00     0.039 C 
ATOM      9  C   UNL     1      -3.565  -3.783   9.002  1.00  0.00     0.012 C 
ENDBRANCH   6   8
ENDBRANCH   5   6
ENDBRANCH   1   5
TORSDOF 5
ENDMDL
MODEL 3
REMARK VINA RESULT:    -3.853      1.668      3.536
REMARK INTER + INTRA:          -5.484
REMARK INTER:                  -4.878
REMARK INTRA:                  -0.606
REMARK UNBOUND:                -0.505
REMARK SMILES C=CC(=O)CCCCC
REMARK SMILES IDX 6 1 7 2 8 3 9 4 5 5 3 6 4 7 2 8 1 9
REMARK H PARENT
REMARK Flexibility Score: inf
ROOT
ATOM      1  C   UNL     1      -4.819  -3.859   8.259  1.00  0.00     0.008 C 
ENDROOT
BRANCH   1   2
ATOM      2  C   UNL     1      -6.184  -4.137   7.604  1.00  0.00     0.000 C 
BRANCH   2   3
ATOM      3  C   UNL     1      -6.403  -3.324   6.320  1.00  0.00    -0.003 C 
ATOM      4  C   UNL     1      -7.500  -2.280   6.513  1.00  0.00     0.004 C 
ENDBRANCH   2   3
ENDBRANCH   1   2
BRANCH   1   5
ATOM      5  C   UNL     1      -4.904  -3.117   9.603  1.00  0.00     0.080 C 
BRANCH   5   6
ATOM      6  C   UNL     1      -5.337  -1.689   9.434  1.00  0.00     0.155 C 
ATOM      7  O   UNL     1      -4.602  -0.895   8.786  1.00  0.00    -0.295 OA
BRANCH   6   8
ATOM      8  C   UNL     1      -6.624  -1.231   9.994  1.00  0.00     0.039 C 
ATOM      9  C   UNL     1      -7.644  -2.058  10.213  1.00  0.00     0.012 C 
ENDBRANCH   6   8
ENDBRANCH   5   6
ENDBRANCH   1   5
TORSDOF 5
ENDMDL
MODEL 4
REMARK VINA RESULT:    -3.848      1.930      3.150
REMARK INTER + INTRA:          -5.478
REMARK INTER:                  -4.986
REMARK INTRA:                  -0.492
REMARK UNBOUND:                -0.505
REMARK SMILES C=CC(=O)CCCCC
REMARK SMILES IDX 6 1 7 2 8 3 9 4 5 5 3 6 4 7 2 8 1 9
REMARK H PARENT
REMARK Flexibility Score: inf
ROOT
ATOM      1  C   UNL     1      -4.839  -1.120   8.755  1.00  0.00     0.008 C 
ENDROOT
BRANCH   1   2
ATOM      2  C   UNL     1      -6.010  -0.276   9.291  1.00  0.00     0.000 C 
BRANCH   2   3
ATOM      3  C   UNL     1      -6.899  -1.052  10.274  1.00  0.00    -0.003 C 
ATOM      4  C   UNL     1      -8.215  -1.460   9.617  1.00  0.00     0.004 C 
ENDBRANCH   2   3
ENDBRANCH   1   2
BRANCH   1   5
ATOM      5  C   UNL     1      -4.662  -2.475   9.459  1.00  0.00     0.080 C 
BRANCH   5   6
ATOM      6  C   UNL     1      -4.789  -3.628   8.505  1.00  0.00     0.155 C 
ATOM      7  O   UNL     1      -3.805  -4.399   8.337  1.00  0.00    -0.295 OA
BRANCH   6   8
ATOM      8  C   UNL     1      -6.061  -3.872   7.798  1.00  0.00     0.039 C 
ATOM      9  C   UNL     1      -6.165  -3.815   6.472  1.00  0.00     0.012 C 
ENDBRANCH   6   8
ENDBRANCH   5   6
ENDBRANCH   1   5
TORSDOF 5
ENDMDL
MODEL 5
REMARK VINA RESULT:    -3.836      1.455      2.603
REMARK INTER + INTRA:          -5.462
REMARK INTER:                  -4.921
REMARK INTRA:                  -0.541
REMARK UNBOUND:                -0.505
REMARK SMILES C=CC(=O)CCCCC
REMARK SMILES IDX 6 1 7 2 8 3 9 4 5 5 3 6 4 7 2 8 1 9
REMARK H PARENT
REMARK Flexibility Score: inf
ROOT
ATOM      1  C   UNL     1      -5.907  -4.323   7.581  1.00  0.00     0.008 C 
ENDROOT
BRANCH   1   2
ATOM      2  C   UNL     1      -4.389  -4.344   7.842  1.00  0.00     0.000 C 
BRANCH   2   3
ATOM      3  C   UNL     1      -3.991  -3.551   9.095  1.00  0.00    -0.003 C 
ATOM      4  C   UNL     1      -4.348  -4.318  10.365  1.00  0.00     0.004 C 
ENDBRANCH   2   3
ENDBRANCH   1   2
BRANCH   1   5
ATOM      5  C   UNL     1      -6.385  -3.130   6.737  1.00  0.00     0.080 C 
BRANCH   5   6
ATOM      6  C   UNL     1      -7.192  -2.154   7.544  1.00  0.00     0.155 C 
ATOM      7  O   UNL     1      -7.603  -1.094   6.998  1.00  0.00    -0.295 OA
BRANCH   6   8
ATOM      8  C   UNL     1      -7.524  -2.448   8.952  1.00  0.00     0.039 C 
ATOM      9  C   UNL     1      -7.252  -1.602   9.943  1.00  0.00     0.012 C 
ENDBRANCH   6   8
ENDBRANCH   5   6
ENDBRANCH   1   5
TORSDOF 5
ENDMDL
MODEL 6
REMARK VINA RESULT:    -3.813      1.990      4.157
REMARK INTER + INTRA:          -5.432
REMARK INTER:                  -5.149
REMARK INTRA:                  -0.283
REMARK UNBOUND:                -0.505
REMARK SMILES C=CC(=O)CCCCC
REMARK SMILES IDX 6 1 7 2 8 3 9 4 5 5 3 6 4 7 2 8 1 9
REMARK H PARENT
REMARK Flexibility Score: inf
ROOT
ATOM      1  C   UNL     1      -7.314  -2.275   8.179  1.00  0.00     0.008 C 
ENDROOT
BRANCH   1   2
ATOM      2  C   UNL     1      -7.847  -2.198   9.622  1.00  0.00     0.000 C 
BRANCH   2   3
ATOM      3  C   UNL     1      -8.145  -0.760  10.069  1.00  0.00    -0.003 C 
ATOM      4  C   UNL     1      -9.500  -0.292   9.544  1.00  0.00     0.004 C 
ENDBRANCH   2   3
ENDBRANCH   1   2
BRANCH   1   5
ATOM      5  C   UNL     1      -6.119  -3.225   7.998  1.00  0.00     0.080 C 
BRANCH   5   6
ATOM      6  C   UNL     1      -4.897  -2.740   8.725  1.00  0.00     0.155 C 
ATOM      7  O   UNL     1      -4.637  -1.506   8.737  1.00  0.00    -0.295 OA
BRANCH   6   8
ATOM      8  C   UNL     1      -4.030  -3.696   9.442  1.00  0.00     0.039 C 
ATOM      9  C   UNL     1      -4.415  -4.311  10.558  1.00  0.00     0.012 C 
ENDBRANCH   6   8
ENDBRANCH   5   6
ENDBRANCH   1   5
TORSDOF 5
ENDMDL
MODEL 7
REMARK VINA RESULT:    -3.774      2.106      3.749
REMARK INTER + INTRA:          -5.382
REMARK INTER:                  -5.132
REMARK INTRA:                  -0.250
REMARK UNBOUND:                -0.505
REMARK SMILES C=CC(=O)CCCCC
REMARK SMILES IDX 6 1 7 2 8 3 9 4 5 5 3 6 4 7 2 8 1 9
REMARK H PARENT
REMARK Flexibility Score: inf
ROOT
ATOM      1  C   UNL     1      -7.727  -2.092   9.626  1.00  0.00     0.008 C 
ENDROOT
BRANCH   1   2
ATOM      2  C   UNL     1      -7.490  -0.709  10.261  1.00  0.00     0.000 C 
BRANCH   2   3
ATOM      3  C   UNL     1      -8.784   0.103  10.416  1.00  0.00    -0.003 C 
ATOM      4  C   UNL     1      -9.760  -0.200   9.282  1.00  0.00     0.004 C 
ENDBRANCH   2   3
ENDBRANCH   1   2
BRANCH   1   5
ATOM      5  C   UNL     1      -6.576  -2.582   8.732  1.00  0.00     0.080 C 
BRANCH   5   6
ATOM      6  C   UNL     1      -6.927  -2.518   7.274  1.00  0.00     0.155 C 
ATOM      7  O   UNL     1      -7.621  -1.554   6.849  1.00  0.00    -0.295 OA
BRANCH   6   8
ATOM      8  C   UNL     1      -6.439  -3.555   6.344  1.00  0.00     0.039 C 
ATOM      9  C   UNL     1      -5.754  -4.620   6.756  1.00  0.00     0.012 C 
ENDBRANCH   6   8
ENDBRANCH   5   6
ENDBRANCH   1   5
TORSDOF 5
ENDMDL
MODEL 8
REMARK VINA RESULT:    -3.709      2.014      3.578
REMARK INTER + INTRA:          -5.299
REMARK INTER:                  -4.731
REMARK INTRA:                  -0.568
REMARK UNBOUND:                -0.505
REMARK SMILES C=CC(=O)CCCCC
REMARK SMILES IDX 6 1 7 2 8 3 9 4 5 5 3 6 4 7 2 8 1 9
REMARK H PARENT
REMARK Flexibility Score: inf
ROOT
ATOM      1  C   UNL     1      -7.199  -2.365   9.876  1.00  0.00     0.008 C 
ENDROOT
BRANCH   1   2
ATOM      2  C   UNL     1      -8.213  -1.288   9.446  1.00  0.00     0.000 C 
BRANCH   2   3
ATOM      3  C   UNL     1      -7.716  -0.441   8.266  1.00  0.00    -0.003 C 
ATOM      4  C   UNL     1      -8.419  -0.839   6.971  1.00  0.00     0.004 C 
ENDBRANCH   2   3
ENDBRANCH   1   2
BRANCH   1   5
ATOM      5  C   UNL     1      -5.752  -2.079   9.439  1.00  0.00     0.080 C 
BRANCH   5   6
ATOM      6  C   UNL     1      -5.181  -3.195   8.614  1.00  0.00     0.155 C 
ATOM      7  O   UNL     1      -3.951  -3.460   8.704  1.00  0.00    -0.295 OA
BRANCH   6   8
ATOM      8  C   UNL     1      -6.056  -3.991   7.731  1.00  0.00     0.039 C 
ATOM      9  C   UNL     1      -6.192  -3.728   6.433  1.00  0.00     0.012 C 
ENDBRANCH   6   8
ENDBRANCH   5   6
ENDBRANCH   1   5
TORSDOF 5
ENDMDL
MODEL 9
REMARK VINA RESULT:    -3.620      1.851      3.657
REMARK INTER + INTRA:          -5.183
REMARK INTER:                  -4.746
REMARK INTRA:                  -0.437
REMARK UNBOUND:                -0.505
REMARK SMILES C=CC(=O)CCCCC
REMARK SMILES IDX 6 1 7 2 8 3 9 4 5 5 3 6 4 7 2 8 1 9
REMARK H PARENT
REMARK Flexibility Score: inf
ROOT
ATOM      1  C   UNL     1      -7.422  -2.135   8.019  1.00  0.00     0.008 C 
ENDROOT
BRANCH   1   2
ATOM      2  C   UNL     1      -7.234  -0.612   7.885  1.00  0.00     0.000 C 
BRANCH   2   3
ATOM      3  C   UNL     1      -6.080  -0.078   8.746  1.00  0.00    -0.003 C 
ATOM      4  C   UNL     1      -6.211  -0.552  10.191  1.00  0.00     0.004 C 
ENDBRANCH   2   3
ENDBRANCH   1   2
BRANCH   1   5
ATOM      5  C   UNL     1      -6.823  -2.949   6.861  1.00  0.00     0.080 C 
BRANCH   5   6
ATOM      6  C   UNL     1      -5.806  -3.946   7.338  1.00  0.00     0.155 C 
ATOM      7  O   UNL     1      -5.574  -4.971   6.641  1.00  0.00    -0.295 OA
BRANCH   6   8
ATOM      8  C   UNL     1      -5.065  -3.710   8.593  1.00  0.00     0.039 C 
ATOM      9  C   UNL     1      -3.802  -4.095   8.761  1.00  0.00     0.012 C 
ENDBRANCH   6   8
ENDBRANCH   5   6
ENDBRANCH   1   5
TORSDOF 5
ENDMDL
