MODEL 1
REMARK VINA RESULT:    -3.192      0.000      0.000
REMARK INTER + INTRA:         -12.612
REMARK INTER:                  -8.324
REMARK INTRA:                  -4.288
REMARK UNBOUND:                -4.288
REMARK SMILES CCCCCCCCCCCCCCCCCCCCCCCCCCCCCO
REMARK SMILES IDX 16 1 15 2 14 3 13 4 12 5 11 6 10 7 9 8 8 9 7 10 6 11 5 12
REMARK SMILES IDX 4 13 3 14 2 15 1 16 17 17 18 18 19 19 20 20 21 21 22 22
REMARK SMILES IDX 23 23 24 24 25 25 26 26 27 27 28 28 29 29 30 30
REMARK H PARENT 30 31
REMARK Flexibility Score: inf
ROOT
ATOM      1  C   UNL     1     166.618 166.813 165.340  1.00  0.00     0.000 C 
ENDROOT
BRANCH   1   2
ATOM      2  C   UNL     1     168.009 167.017 165.963  1.00  0.00     0.000 C 
BRANCH   2   3
ATOM      3  C   UNL     1     169.145 166.733 164.967  1.00  0.00     0.000 C 
BRANCH   3   4
ATOM      4  C   UNL     1     170.516 166.625 165.656  1.00  0.00     0.000 C 
BRANCH   4   5
ATOM      5  C   UNL     1     170.485 167.118 167.113  1.00  0.00     0.000 C 
BRANCH   5   6
ATOM      6  C   UNL     1     171.857 167.529 167.678  1.00  0.00     0.000 C 
BRANCH   6   7
ATOM      7  C   UNL     1     171.756 168.223 169.049  1.00  0.00     0.000 C 
BRANCH   7   8
ATOM      8  C   UNL     1     170.715 167.554 169.970  1.00  0.00    -0.000 C 
BRANCH   8   9
ATOM      9  C   UNL     1     169.997 168.527 170.926  1.00  0.00    -0.000 C 
BRANCH   9  10
ATOM     10  C   UNL     1     168.631 168.024 171.435  1.00  0.00    -0.000 C 
BRANCH  10  11
ATOM     11  C   UNL     1     168.271 166.637 170.872  1.00  0.00    -0.000 C 
BRANCH  11  12
ATOM     12  C   UNL     1     167.503 166.724 169.544  1.00  0.00    -0.000 C 
BRANCH  12  13
ATOM     13  C   UNL     1     166.345 167.735 169.601  1.00  0.00    -0.000 C 
BRANCH  13  14
ATOM     14  C   UNL     1     165.164 167.244 170.457  1.00  0.00    -0.000 C 
BRANCH  14  15
ATOM     15  C   UNL     1     164.644 168.264 171.484  1.00  0.00    -0.003 C 
ATOM     16  C   UNL     1     165.180 169.676 171.249  1.00  0.00     0.004 C 
ENDBRANCH  14  15
ENDBRANCH  13  14
ENDBRANCH  12  13
ENDBRANCH  11  12
ENDBRANCH  10  11
ENDBRANCH   9  10
ENDBRANCH   8   9
ENDBRANCH   7   8
ENDBRANCH   6   7
ENDBRANCH   5   6
ENDBRANCH   4   5
ENDBRANCH   3   4
ENDBRANCH   2   3
ENDBRANCH   1   2
BRANCH   1  17
ATOM     17  C   UNL     1     165.614 166.166 166.311  1.00  0.00     0.000 C 
BRANCH  17  18
ATOM     18  C   UNL     1     164.933 164.900 165.749  1.00  0.00     0.000 C 
BRANCH  18  19
ATOM     19  C   UNL     1     164.844 163.769 166.787  1.00  0.00     0.000 C 
BRANCH  19  20
ATOM     20  C   UNL     1     165.576 164.150 168.079  1.00  0.00     0.000 C 
BRANCH  20  21
ATOM     21  C   UNL     1     165.176 163.218 169.233  1.00  0.00     0.000 C 
BRANCH  21  22
ATOM     22  C   UNL     1     165.736 163.681 170.588  1.00  0.00     0.000 C 
BRANCH  22  23
ATOM     23  C   UNL     1     165.003 163.040 171.780  1.00  0.00     0.000 C 
BRANCH  23  24
ATOM     24  C   UNL     1     164.999 163.953 173.025  1.00  0.00     0.000 C 
BRANCH  24  25
ATOM     25  C   UNL     1     163.861 164.990 173.029  1.00  0.00     0.000 C 
BRANCH  25  26
ATOM     26  C   UNL     1     162.551 164.439 172.448  1.00  0.00     0.000 C 
BRANCH  26  27
ATOM     27  C   UNL     1     162.169 165.170 171.153  1.00  0.00     0.002 C 
BRANCH  27  28
ATOM     28  C   UNL     1     161.629 164.219 170.073  1.00  0.00     0.028 C 
BRANCH  28  29
ATOM     29  C   UNL     1     160.831 163.050 170.653  1.00  0.00     0.156 C 
BRANCH  29  30
ATOM     30  O   UNL     1     159.513 163.463 170.891  1.00  0.00    -0.396 OA
ATOM     31  H   UNL     1     159.404 164.327 170.413  1.00  0.00     0.210 HD
ENDBRANCH  29  30
ENDBRANCH  28  29
ENDBRANCH  27  28
ENDBRANCH  26  27
ENDBRANCH  25  26
ENDBRANCH  24  25
ENDBRANCH  23  24
ENDBRANCH  22  23
ENDBRANCH  21  22
ENDBRANCH  20  21
ENDBRANCH  19  20
ENDBRANCH  18  19
ENDBRANCH  17  18
ENDBRANCH   1  17
TORSDOF 28
ENDMDL
MODEL 2
REMARK VINA RESULT:    -3.187      2.373      5.829
REMARK INTER + INTRA:         -12.598
REMARK INTER:                  -8.921
REMARK INTRA:                  -3.677
REMARK UNBOUND:                -4.288
REMARK SMILES CCCCCCCCCCCCCCCCCCCCCCCCCCCCCO
REMARK SMILES IDX 16 1 15 2 14 3 13 4 12 5 11 6 10 7 9 8 8 9 7 10 6 11 5 12
REMARK SMILES IDX 4 13 3 14 2 15 1 16 17 17 18 18 19 19 20 20 21 21 22 22
REMARK SMILES IDX 23 23 24 24 25 25 26 26 27 27 28 28 29 29 30 30
REMARK H PARENT 30 31
REMARK Flexibility Score: inf
ROOT
ATOM      1  C   UNL     1     165.201 163.860 169.573  1.00  0.00     0.000 C 
ENDROOT
BRANCH   1   2
ATOM      2  C   UNL     1     165.350 163.667 168.054  1.00  0.00     0.000 C 
BRANCH   2   3
ATOM      3  C   UNL     1     164.532 164.691 167.250  1.00  0.00     0.000 C 
BRANCH   3   4
ATOM      4  C   UNL     1     164.624 164.453 165.733  1.00  0.00     0.000 C 
BRANCH   4   5
ATOM      5  C   UNL     1     165.640 165.384 165.050  1.00  0.00     0.000 C 
BRANCH   5   6
ATOM      6  C   UNL     1     166.016 166.633 165.869  1.00  0.00     0.000 C 
BRANCH   6   7
ATOM      7  C   UNL     1     166.955 167.586 165.108  1.00  0.00     0.000 C 
BRANCH   7   8
ATOM      8  C   UNL     1     168.383 167.019 164.976  1.00  0.00    -0.000 C 
BRANCH   8   9
ATOM      9  C   UNL     1     169.068 166.707 166.322  1.00  0.00    -0.000 C 
BRANCH   9  10
ATOM     10  C   UNL     1     170.588 166.962 166.333  1.00  0.00    -0.000 C 
BRANCH  10  11
ATOM     11  C   UNL     1     171.079 167.525 167.679  1.00  0.00    -0.000 C 
BRANCH  11  12
ATOM     12  C   UNL     1     172.612 167.571 167.772  1.00  0.00    -0.000 C 
BRANCH  12  13
ATOM     13  C   UNL     1     173.101 168.045 169.151  1.00  0.00    -0.000 C 
BRANCH  13  14
ATOM     14  C   UNL     1     171.951 168.468 170.082  1.00  0.00    -0.000 C 
BRANCH  14  15
ATOM     15  C   UNL     1     171.900 169.971 170.403  1.00  0.00    -0.003 C 
ATOM     16  C   UNL     1     170.691 170.362 171.252  1.00  0.00     0.004 C 
ENDBRANCH  14  15
ENDBRANCH  13  14
ENDBRANCH  12  13
ENDBRANCH  11  12
ENDBRANCH  10  11
ENDBRANCH   9  10
ENDBRANCH   8   9
ENDBRANCH   7   8
ENDBRANCH   6   7
ENDBRANCH   5   6
ENDBRANCH   4   5
ENDBRANCH   3   4
ENDBRANCH   2   3
ENDBRANCH   1   2
BRANCH   1  17
ATOM     17  C   UNL     1     164.377 165.106 169.943  1.00  0.00     0.000 C 
BRANCH  17  18
ATOM     18  C   UNL     1     164.882 165.833 171.207  1.00  0.00     0.000 C 
BRANCH  18  19
ATOM     19  C   UNL     1     165.609 167.147 170.880  1.00  0.00     0.000 C 
BRANCH  19  20
ATOM     20  C   UNL     1     166.301 167.067 169.513  1.00  0.00     0.000 C 
BRANCH  20  21
ATOM     21  C   UNL     1     167.815 166.867 169.674  1.00  0.00     0.000 C 
BRANCH  21  22
ATOM     22  C   UNL     1     168.394 167.660 170.857  1.00  0.00     0.000 C 
BRANCH  22  23
ATOM     23  C   UNL     1     169.023 166.751 171.927  1.00  0.00     0.000 C 
BRANCH  23  24
ATOM     24  C   UNL     1     169.155 165.289 171.450  1.00  0.00     0.000 C 
BRANCH  24  25
ATOM     25  C   UNL     1     168.048 164.362 171.982  1.00  0.00     0.000 C 
BRANCH  25  26
ATOM     26  C   UNL     1     168.561 162.955 172.322  1.00  0.00     0.000 C 
BRANCH  26  27
ATOM     27  C   UNL     1     167.751 161.878 171.584  1.00  0.00     0.002 C 
BRANCH  27  28
ATOM     28  C   UNL     1     167.421 160.671 172.476  1.00  0.00     0.028 C 
BRANCH  28  29
ATOM     29  C   UNL     1     167.868 159.340 171.869  1.00  0.00     0.156 C 
BRANCH  29  30
ATOM     30  O   UNL     1     166.879 158.876 170.991  1.00  0.00    -0.396 OA
ATOM     31  H   UNL     1     167.144 159.190 170.087  1.00  0.00     0.210 HD
ENDBRANCH  29  30
ENDBRANCH  28  29
ENDBRANCH  27  28
ENDBRANCH  26  27
ENDBRANCH  25  26
ENDBRANCH  24  25
ENDBRANCH  23  24
ENDBRANCH  22  23
ENDBRANCH  21  22
ENDBRANCH  20  21
ENDBRANCH  19  20
ENDBRANCH  18  19
ENDBRANCH  17  18
ENDBRANCH   1  17
TORSDOF 28
ENDMDL
MODEL 3
REMARK VINA RESULT:    -3.168      3.086      6.607
REMARK INTER + INTRA:         -12.549
REMARK INTER:                  -7.383
REMARK INTRA:                  -5.166
REMARK UNBOUND:                -4.288
REMARK SMILES CCCCCCCCCCCCCCCCCCCCCCCCCCCCCO
REMARK SMILES IDX 16 1 15 2 14 3 13 4 12 5 11 6 10 7 9 8 8 9 7 10 6 11 5 12
REMARK SMILES IDX 4 13 3 14 2 15 1 16 17 17 18 18 19 19 20 20 21 21 22 22
REMARK SMILES IDX 23 23 24 24 25 25 26 26 27 27 28 28 29 29 30 30
REMARK H PARENT 30 31
REMARK Flexibility Score: inf
ROOT
ATOM      1  C   UNL     1     167.287 166.409 166.653  1.00  0.00     0.000 C 
ENDROOT
BRANCH   1   2
ATOM      2  C   UNL     1     167.202 166.779 168.143  1.00  0.00     0.000 C 
BRANCH   2   3
ATOM      3  C   UNL     1     165.929 167.571 168.480  1.00  0.00     0.000 C 
BRANCH   3   4
ATOM      4  C   UNL     1     165.905 168.051 169.941  1.00  0.00     0.000 C 
BRANCH   4   5
ATOM      5  C   UNL     1     165.560 166.922 170.928  1.00  0.00     0.000 C 
BRANCH   5   6
ATOM      6  C   UNL     1     164.137 166.995 171.510  1.00  0.00     0.000 C 
BRANCH   6   7
ATOM      7  C   UNL     1     163.748 165.732 172.300  1.00  0.00     0.000 C 
BRANCH   7   8
ATOM      8  C   UNL     1     162.505 165.033 171.714  1.00  0.00    -0.000 C 
BRANCH   8   9
ATOM      9  C   UNL     1     162.325 163.571 172.172  1.00  0.00    -0.000 C 
BRANCH   9  10
ATOM     10  C   UNL     1     161.521 162.694 171.192  1.00  0.00    -0.000 C 
BRANCH  10  11
ATOM     11  C   UNL     1     161.741 161.190 171.433  1.00  0.00    -0.000 C 
BRANCH  11  12
ATOM     12  C   UNL     1     163.192 160.863 171.819  1.00  0.00    -0.000 C 
BRANCH  12  13
ATOM     13  C   UNL     1     163.298 160.227 173.215  1.00  0.00    -0.000 C 
BRANCH  13  14
ATOM     14  C   UNL     1     164.682 160.426 173.859  1.00  0.00    -0.000 C 
BRANCH  14  15
ATOM     15  C   UNL     1     164.960 161.853 174.360  1.00  0.00    -0.003 C 
ATOM     16  C   UNL     1     163.865 162.387 175.284  1.00  0.00     0.004 C 
ENDBRANCH  14  15
ENDBRANCH  13  14
ENDBRANCH  12  13
ENDBRANCH  11  12
ENDBRANCH  10  11
ENDBRANCH   9  10
ENDBRANCH   8   9
ENDBRANCH   7   8
ENDBRANCH   6   7
ENDBRANCH   5   6
ENDBRANCH   4   5
ENDBRANCH   3   4
ENDBRANCH   2   3
ENDBRANCH   1   2
BRANCH   1  17
ATOM     17  C   UNL     1     165.975 166.674 165.892  1.00  0.00     0.000 C 
BRANCH  17  18
ATOM     18  C   UNL     1     165.413 165.432 165.169  1.00  0.00     0.000 C 
BRANCH  18  19
ATOM     19  C   UNL     1     165.078 164.288 166.138  1.00  0.00     0.000 C 
BRANCH  19  20
ATOM     20  C   UNL     1     163.778 164.575 166.901  1.00  0.00     0.000 C 
BRANCH  20  21
ATOM     21  C   UNL     1     164.010 164.531 168.419  1.00  0.00     0.000 C 
BRANCH  21  22
ATOM     22  C   UNL     1     165.358 163.894 168.793  1.00  0.00     0.000 C 
BRANCH  22  23
ATOM     23  C   UNL     1     165.258 162.981 170.027  1.00  0.00     0.000 C 
BRANCH  23  24
ATOM     24  C   UNL     1     166.294 163.344 171.111  1.00  0.00     0.000 C 
BRANCH  24  25
ATOM     25  C   UNL     1     167.210 162.172 171.510  1.00  0.00     0.000 C 
BRANCH  25  26
ATOM     26  C   UNL     1     166.999 160.927 170.637  1.00  0.00     0.000 C 
BRANCH  26  27
ATOM     27  C   UNL     1     167.347 159.645 171.408  1.00  0.00     0.002 C 
BRANCH  27  28
ATOM     28  C   UNL     1     168.431 158.809 170.710  1.00  0.00     0.028 C 
BRANCH  28  29
ATOM     29  C   UNL     1     168.486 159.046 169.199  1.00  0.00     0.156 C 
BRANCH  29  30
ATOM     30  O   UNL     1     168.807 157.844 168.554  1.00  0.00    -0.396 OA
ATOM     31  H   UNL     1     167.998 157.271 168.619  1.00  0.00     0.210 HD
ENDBRANCH  29  30
ENDBRANCH  28  29
ENDBRANCH  27  28
ENDBRANCH  26  27
ENDBRANCH  25  26
ENDBRANCH  24  25
ENDBRANCH  23  24
ENDBRANCH  22  23
ENDBRANCH  21  22
ENDBRANCH  20  21
ENDBRANCH  19  20
ENDBRANCH  18  19
ENDBRANCH  17  18
ENDBRANCH   1  17
TORSDOF 28
ENDMDL
MODEL 4
REMARK VINA RESULT:    -3.122      2.385      4.823
REMARK INTER + INTRA:         -12.430
REMARK INTER:                  -8.120
REMARK INTRA:                  -4.310
REMARK UNBOUND:                -4.288
REMARK SMILES CCCCCCCCCCCCCCCCCCCCCCCCCCCCCO
REMARK SMILES IDX 16 1 15 2 14 3 13 4 12 5 11 6 10 7 9 8 8 9 7 10 6 11 5 12
REMARK SMILES IDX 4 13 3 14 2 15 1 16 17 17 18 18 19 19 20 20 21 21 22 22
REMARK SMILES IDX 23 23 24 24 25 25 26 26 27 27 28 28 29 29 30 30
REMARK H PARENT 30 31
REMARK Flexibility Score: inf
ROOT
ATOM      1  C   UNL     1     163.987 164.245 169.624  1.00  0.00     0.000 C 
ENDROOT
BRANCH   1   2
ATOM      2  C   UNL     1     163.777 164.530 168.127  1.00  0.00     0.000 C 
BRANCH   2   3
ATOM      3  C   UNL     1     165.053 164.302 167.301  1.00  0.00     0.000 C 
BRANCH   3   4
ATOM      4  C   UNL     1     165.251 165.377 166.219  1.00  0.00     0.000 C 
BRANCH   4   5
ATOM      5  C   UNL     1     166.397 166.348 166.553  1.00  0.00     0.000 C 
BRANCH   5   6
ATOM      6  C   UNL     1     166.201 167.146 167.854  1.00  0.00     0.000 C 
BRANCH   6   7
ATOM      7  C   UNL     1     167.196 166.744 168.958  1.00  0.00     0.000 C 
BRANCH   7   8
ATOM      8  C   UNL     1     167.001 167.563 170.250  1.00  0.00    -0.000 C 
BRANCH   8   9
ATOM      9  C   UNL     1     165.653 168.309 170.329  1.00  0.00    -0.000 C 
BRANCH   9  10
ATOM     10  C   UNL     1     164.596 167.617 171.212  1.00  0.00    -0.000 C 
BRANCH  10  11
ATOM     11  C   UNL     1     164.765 167.953 172.704  1.00  0.00    -0.000 C 
BRANCH  11  12
ATOM     12  C   UNL     1     163.419 168.140 173.420  1.00  0.00    -0.000 C 
BRANCH  12  13
ATOM     13  C   UNL     1     162.269 168.430 172.441  1.00  0.00    -0.000 C 
BRANCH  13  14
ATOM     14  C   UNL     1     160.890 168.047 173.008  1.00  0.00    -0.000 C 
BRANCH  14  15
ATOM     15  C   UNL     1     160.216 166.853 172.312  1.00  0.00    -0.003 C 
ATOM     16  C   UNL     1     161.216 165.823 171.787  1.00  0.00     0.004 C 
ENDBRANCH  14  15
ENDBRANCH  13  14
ENDBRANCH  12  13
ENDBRANCH  11  12
ENDBRANCH  10  11
ENDBRANCH   9  10
ENDBRANCH   8   9
ENDBRANCH   7   8
ENDBRANCH   6   7
ENDBRANCH   5   6
ENDBRANCH   4   5
ENDBRANCH   3   4
ENDBRANCH   2   3
ENDBRANCH   1   2
BRANCH   1  17
ATOM     17  C   UNL     1     165.453 163.934 169.976  1.00  0.00     0.000 C 
BRANCH  17  18
ATOM     18  C   UNL     1     165.753 163.981 171.489  1.00  0.00     0.000 C 
BRANCH  18  19
ATOM     19  C   UNL     1     164.492 164.228 172.332  1.00  0.00     0.000 C 
BRANCH  19  20
ATOM     20  C   UNL     1     164.617 163.574 173.714  1.00  0.00     0.000 C 
BRANCH  20  21
ATOM     21  C   UNL     1     163.630 162.406 173.861  1.00  0.00     0.000 C 
BRANCH  21  22
ATOM     22  C   UNL     1     163.759 161.376 172.726  1.00  0.00     0.000 C 
BRANCH  22  23
ATOM     23  C   UNL     1     162.396 160.961 172.148  1.00  0.00     0.000 C 
BRANCH  23  24
ATOM     24  C   UNL     1     161.541 162.177 171.730  1.00  0.00     0.000 C 
BRANCH  24  25
ATOM     25  C   UNL     1     160.459 161.844 170.686  1.00  0.00     0.000 C 
BRANCH  25  26
ATOM     26  C   UNL     1     159.679 163.081 170.221  1.00  0.00     0.000 C 
BRANCH  26  27
ATOM     27  C   UNL     1     159.414 163.032 168.709  1.00  0.00     0.002 C 
BRANCH  27  28
ATOM     28  C   UNL     1     157.924 163.183 168.364  1.00  0.00     0.028 C 
BRANCH  28  29
ATOM     29  C   UNL     1     157.655 164.304 167.358  1.00  0.00     0.156 C 
BRANCH  29  30
ATOM     30  O   UNL     1     156.934 165.327 167.987  1.00  0.00    -0.396 OA
ATOM     31  H   UNL     1     156.235 165.610 167.341  1.00  0.00     0.210 HD
ENDBRANCH  29  30
ENDBRANCH  28  29
ENDBRANCH  27  28
ENDBRANCH  26  27
ENDBRANCH  25  26
ENDBRANCH  24  25
ENDBRANCH  23  24
ENDBRANCH  22  23
ENDBRANCH  21  22
ENDBRANCH  20  21
ENDBRANCH  19  20
ENDBRANCH  18  19
ENDBRANCH  17  18
ENDBRANCH   1  17
TORSDOF 28
ENDMDL
MODEL 5
REMARK VINA RESULT:    -3.100      3.469      7.229
REMARK INTER + INTRA:         -12.372
REMARK INTER:                  -7.632
REMARK INTRA:                  -4.741
REMARK UNBOUND:                -4.288
REMARK SMILES CCCCCCCCCCCCCCCCCCCCCCCCCCCCCO
REMARK SMILES IDX 16 1 15 2 14 3 13 4 12 5 11 6 10 7 9 8 8 9 7 10 6 11 5 12
REMARK SMILES IDX 4 13 3 14 2 15 1 16 17 17 18 18 19 19 20 20 21 21 22 22
REMARK SMILES IDX 23 23 24 24 25 25 26 26 27 27 28 28 29 29 30 30
REMARK H PARENT 30 31
REMARK Flexibility Score: inf
ROOT
ATOM      1  C   UNL     1     166.345 167.264 169.802  1.00  0.00     0.000 C 
ENDROOT
BRANCH   1   2
ATOM      2  C   UNL     1     167.113 166.714 168.588  1.00  0.00     0.000 C 
BRANCH   2   3
ATOM      3  C   UNL     1     166.379 166.972 167.263  1.00  0.00     0.000 C 
BRANCH   3   4
ATOM      4  C   UNL     1     166.055 165.672 166.508  1.00  0.00     0.000 C 
BRANCH   4   5
ATOM      5  C   UNL     1     164.857 164.920 167.114  1.00  0.00     0.000 C 
BRANCH   5   6
ATOM      6  C   UNL     1     165.227 163.631 167.870  1.00  0.00     0.000 C 
BRANCH   6   7
ATOM      7  C   UNL     1     165.040 163.757 169.393  1.00  0.00     0.000 C 
BRANCH   7   8
ATOM      8  C   UNL     1     163.786 164.574 169.765  1.00  0.00    -0.000 C 
BRANCH   8   9
ATOM      9  C   UNL     1     163.694 164.948 171.258  1.00  0.00    -0.000 C 
BRANCH   9  10
ATOM     10  C   UNL     1     164.952 164.597 172.078  1.00  0.00    -0.000 C 
BRANCH  10  11
ATOM     11  C   UNL     1     165.051 165.412 173.379  1.00  0.00    -0.000 C 
BRANCH  11  12
ATOM     12  C   UNL     1     164.716 166.897 173.169  1.00  0.00    -0.000 C 
BRANCH  12  13
ATOM     13  C   UNL     1     163.786 167.449 174.263  1.00  0.00    -0.000 C 
BRANCH  13  14
ATOM     14  C   UNL     1     162.444 167.957 173.706  1.00  0.00    -0.000 C 
BRANCH  14  15
ATOM     15  C   UNL     1     162.455 168.295 172.206  1.00  0.00    -0.003 C 
ATOM     16  C   UNL     1     161.538 169.464 171.848  1.00  0.00     0.004 C 
ENDBRANCH  14  15
ENDBRANCH  13  14
ENDBRANCH  12  13
ENDBRANCH  11  12
ENDBRANCH  10  11
ENDBRANCH   9  10
ENDBRANCH   8   9
ENDBRANCH   7   8
ENDBRANCH   6   7
ENDBRANCH   5   6
ENDBRANCH   4   5
ENDBRANCH   3   4
ENDBRANCH   2   3
ENDBRANCH   1   2
BRANCH   1  17
ATOM     17  C   UNL     1     165.530 168.527 169.475  1.00  0.00     0.000 C 
BRANCH  17  18
ATOM     18  C   UNL     1     165.205 169.395 170.709  1.00  0.00     0.000 C 
BRANCH  18  19
ATOM     19  C   UNL     1     166.460 169.766 171.515  1.00  0.00     0.000 C 
BRANCH  19  20
ATOM     20  C   UNL     1     166.109 170.695 172.684  1.00  0.00     0.000 C 
BRANCH  20  21
ATOM     21  C   UNL     1     164.754 171.380 172.454  1.00  0.00     0.000 C 
BRANCH  21  22
ATOM     22  C   UNL     1     164.884 172.901 172.269  1.00  0.00     0.000 C 
BRANCH  22  23
ATOM     23  C   UNL     1     163.604 173.656 172.668  1.00  0.00     0.000 C 
BRANCH  23  24
ATOM     24  C   UNL     1     163.051 174.521 171.516  1.00  0.00     0.000 C 
BRANCH  24  25
ATOM     25  C   UNL     1     161.669 174.069 171.010  1.00  0.00     0.000 C 
BRANCH  25  26
ATOM     26  C   UNL     1     161.649 173.789 169.500  1.00  0.00     0.000 C 
BRANCH  26  27
ATOM     27  C   UNL     1     163.004 173.248 169.020  1.00  0.00     0.002 C 
BRANCH  27  28
ATOM     28  C   UNL     1     163.021 171.716 168.900  1.00  0.00     0.028 C 
BRANCH  28  29
ATOM     29  C   UNL     1     163.775 171.222 167.664  1.00  0.00     0.156 C 
BRANCH  29  30
ATOM     30  O   UNL     1     164.477 172.292 167.093  1.00  0.00    -0.396 OA
ATOM     31  H   UNL     1     164.625 172.948 167.825  1.00  0.00     0.210 HD
ENDBRANCH  29  30
ENDBRANCH  28  29
ENDBRANCH  27  28
ENDBRANCH  26  27
ENDBRANCH  25  26
ENDBRANCH  24  25
ENDBRANCH  23  24
ENDBRANCH  22  23
ENDBRANCH  21  22
ENDBRANCH  20  21
ENDBRANCH  19  20
ENDBRANCH  18  19
ENDBRANCH  17  18
ENDBRANCH   1  17
TORSDOF 28
ENDMDL
MODEL 6
REMARK VINA RESULT:    -3.046      2.665      6.166
REMARK INTER + INTRA:         -12.230
REMARK INTER:                  -6.841
REMARK INTRA:                  -5.389
REMARK UNBOUND:                -4.288
REMARK SMILES CCCCCCCCCCCCCCCCCCCCCCCCCCCCCO
REMARK SMILES IDX 16 1 15 2 14 3 13 4 12 5 11 6 10 7 9 8 8 9 7 10 6 11 5 12
REMARK SMILES IDX 4 13 3 14 2 15 1 16 17 17 18 18 19 19 20 20 21 21 22 22
REMARK SMILES IDX 23 23 24 24 25 25 26 26 27 27 28 28 29 29 30 30
REMARK H PARENT 30 31
REMARK Flexibility Score: inf
ROOT
ATOM      1  C   UNL     1     166.549 166.377 166.531  1.00  0.00     0.000 C 
ENDROOT
BRANCH   1   2
ATOM      2  C   UNL     1     165.627 165.619 165.560  1.00  0.00     0.000 C 
BRANCH   2   3
ATOM      3  C   UNL     1     164.621 164.716 166.291  1.00  0.00     0.000 C 
BRANCH   3   4
ATOM      4  C   UNL     1     165.263 163.946 167.458  1.00  0.00     0.000 C 
BRANCH   4   5
ATOM      5  C   UNL     1     164.496 164.130 168.779  1.00  0.00     0.000 C 
BRANCH   5   6
ATOM      6  C   UNL     1     165.277 163.705 170.036  1.00  0.00     0.000 C 
BRANCH   6   7
ATOM      7  C   UNL     1     164.702 164.310 171.330  1.00  0.00     0.000 C 
BRANCH   7   8
ATOM      8  C   UNL     1     163.752 165.493 171.052  1.00  0.00    -0.000 C 
BRANCH   8   9
ATOM      9  C   UNL     1     162.325 165.303 171.606  1.00  0.00    -0.000 C 
BRANCH   9  10
ATOM     10  C   UNL     1     162.076 165.991 172.963  1.00  0.00    -0.000 C 
BRANCH  10  11
ATOM     11  C   UNL     1     162.579 167.445 172.985  1.00  0.00    -0.000 C 
BRANCH  11  12
ATOM     12  C   UNL     1     163.325 167.788 174.284  1.00  0.00    -0.000 C 
BRANCH  12  13
ATOM     13  C   UNL     1     164.259 166.654 174.741  1.00  0.00    -0.000 C 
BRANCH  13  14
ATOM     14  C   UNL     1     165.624 166.680 174.028  1.00  0.00    -0.000 C 
BRANCH  14  15
ATOM     15  C   UNL     1     166.747 165.929 174.762  1.00  0.00    -0.003 C 
ATOM     16  C   UNL     1     167.447 164.891 173.884  1.00  0.00     0.004 C 
ENDBRANCH  14  15
ENDBRANCH  13  14
ENDBRANCH  12  13
ENDBRANCH  11  12
ENDBRANCH  10  11
ENDBRANCH   9  10
ENDBRANCH   8   9
ENDBRANCH   7   8
ENDBRANCH   6   7
ENDBRANCH   5   6
ENDBRANCH   4   5
ENDBRANCH   3   4
ENDBRANCH   2   3
ENDBRANCH   1   2
BRANCH   1  17
ATOM     17  C   UNL     1     165.832 167.520 167.271  1.00  0.00     0.000 C 
BRANCH  17  18
ATOM     18  C   UNL     1     166.028 167.491 168.801  1.00  0.00     0.000 C 
BRANCH  18  19
ATOM     19  C   UNL     1     167.294 166.724 169.218  1.00  0.00     0.000 C 
BRANCH  19  20
ATOM     20  C   UNL     1     167.430 166.677 170.745  1.00  0.00     0.000 C 
BRANCH  20  21
ATOM     21  C   UNL     1     168.830 167.127 171.186  1.00  0.00     0.000 C 
BRANCH  21  22
ATOM     22  C   UNL     1     168.927 168.648 171.385  1.00  0.00     0.000 C 
BRANCH  22  23
ATOM     23  C   UNL     1     167.866 169.185 172.362  1.00  0.00     0.000 C 
BRANCH  23  24
ATOM     24  C   UNL     1     166.836 170.099 171.664  1.00  0.00     0.000 C 
BRANCH  24  25
ATOM     25  C   UNL     1     165.375 169.764 172.013  1.00  0.00     0.000 C 
BRANCH  25  26
ATOM     26  C   UNL     1     164.432 169.883 170.807  1.00  0.00     0.000 C 
BRANCH  26  27
ATOM     27  C   UNL     1     163.146 170.636 171.182  1.00  0.00     0.002 C 
BRANCH  27  28
ATOM     28  C   UNL     1     162.296 171.003 169.955  1.00  0.00     0.028 C 
BRANCH  28  29
ATOM     29  C   UNL     1     162.911 172.125 169.117  1.00  0.00     0.156 C 
BRANCH  29  30
ATOM     30  O   UNL     1     163.293 171.615 167.870  1.00  0.00    -0.396 OA
ATOM     31  H   UNL     1     162.490 171.675 167.289  1.00  0.00     0.210 HD
ENDBRANCH  29  30
ENDBRANCH  28  29
ENDBRANCH  27  28
ENDBRANCH  26  27
ENDBRANCH  25  26
ENDBRANCH  24  25
ENDBRANCH  23  24
ENDBRANCH  22  23
ENDBRANCH  21  22
ENDBRANCH  20  21
ENDBRANCH  19  20
ENDBRANCH  18  19
ENDBRANCH  17  18
ENDBRANCH   1  17
TORSDOF 28
ENDMDL
MODEL 7
REMARK VINA RESULT:    -3.024      3.295      6.430
REMARK INTER + INTRA:         -12.174
REMARK INTER:                  -7.734
REMARK INTRA:                  -4.439
REMARK UNBOUND:                -4.288
REMARK SMILES CCCCCCCCCCCCCCCCCCCCCCCCCCCCCO
REMARK SMILES IDX 16 1 15 2 14 3 13 4 12 5 11 6 10 7 9 8 8 9 7 10 6 11 5 12
REMARK SMILES IDX 4 13 3 14 2 15 1 16 17 17 18 18 19 19 20 20 21 21 22 22
REMARK SMILES IDX 23 23 24 24 25 25 26 26 27 27 28 28 29 29 30 30
REMARK H PARENT 30 31
REMARK Flexibility Score: inf
ROOT
ATOM      1  C   UNL     1     162.503 164.313 171.880  1.00  0.00     0.000 C 
ENDROOT
BRANCH   1   2
ATOM      2  C   UNL     1     163.240 163.428 170.860  1.00  0.00     0.000 C 
BRANCH   2   3
ATOM      3  C   UNL     1     164.017 164.253 169.822  1.00  0.00     0.000 C 
BRANCH   3   4
ATOM      4  C   UNL     1     165.245 163.503 169.277  1.00  0.00     0.000 C 
BRANCH   4   5
ATOM      5  C   UNL     1     165.315 163.524 167.740  1.00  0.00     0.000 C 
BRANCH   5   6
ATOM      6  C   UNL     1     164.461 164.618 167.075  1.00  0.00     0.000 C 
BRANCH   6   7
ATOM      7  C   UNL     1     164.957 164.991 165.666  1.00  0.00     0.000 C 
BRANCH   7   8
ATOM      8  C   UNL     1     166.088 166.039 165.701  1.00  0.00    -0.000 C 
BRANCH   8   9
ATOM      9  C   UNL     1     166.065 166.953 166.944  1.00  0.00    -0.000 C 
BRANCH   9  10
ATOM     10  C   UNL     1     167.281 166.783 167.877  1.00  0.00    -0.000 C 
BRANCH  10  11
ATOM     11  C   UNL     1     166.873 166.651 169.355  1.00  0.00    -0.000 C 
BRANCH  11  12
ATOM     12  C   UNL     1     165.719 167.593 169.731  1.00  0.00    -0.000 C 
BRANCH  12  13
ATOM     13  C   UNL     1     166.213 168.887 170.402  1.00  0.00    -0.000 C 
BRANCH  13  14
ATOM     14  C   UNL     1     165.127 169.575 171.247  1.00  0.00    -0.000 C 
BRANCH  14  15
ATOM     15  C   UNL     1     163.980 170.201 170.437  1.00  0.00    -0.003 C 
ATOM     16  C   UNL     1     162.648 170.205 171.187  1.00  0.00     0.004 C 
ENDBRANCH  14  15
ENDBRANCH  13  14
ENDBRANCH  12  13
ENDBRANCH  11  12
ENDBRANCH  10  11
ENDBRANCH   9  10
ENDBRANCH   8   9
ENDBRANCH   7   8
ENDBRANCH   6   7
ENDBRANCH   5   6
ENDBRANCH   4   5
ENDBRANCH   3   4
ENDBRANCH   2   3
ENDBRANCH   1   2
BRANCH   1  17
ATOM     17  C   UNL     1     163.355 164.638 173.120  1.00  0.00     0.000 C 
BRANCH  17  18
ATOM     18  C   UNL     1     163.642 166.144 173.300  1.00  0.00     0.000 C 
BRANCH  18  19
ATOM     19  C   UNL     1     165.137 166.478 173.171  1.00  0.00     0.000 C 
BRANCH  19  20
ATOM     20  C   UNL     1     165.950 165.230 172.808  1.00  0.00     0.000 C 
BRANCH  20  21
ATOM     21  C   UNL     1     167.447 165.559 172.706  1.00  0.00     0.000 C 
BRANCH  21  22
ATOM     22  C   UNL     1     168.251 164.449 172.010  1.00  0.00     0.000 C 
BRANCH  22  23
ATOM     23  C   UNL     1     167.591 163.066 172.150  1.00  0.00     0.000 C 
BRANCH  23  24
ATOM     24  C   UNL     1     168.599 161.913 171.953  1.00  0.00     0.000 C 
BRANCH  24  25
ATOM     25  C   UNL     1     167.959 160.612 171.435  1.00  0.00     0.000 C 
BRANCH  25  26
ATOM     26  C   UNL     1     167.455 160.730 169.990  1.00  0.00     0.000 C 
BRANCH  26  27
ATOM     27  C   UNL     1     168.320 159.896 169.033  1.00  0.00     0.002 C 
BRANCH  27  28
ATOM     28  C   UNL     1     169.417 159.105 169.764  1.00  0.00     0.028 C 
BRANCH  28  29
ATOM     29  C   UNL     1     169.452 157.628 169.368  1.00  0.00     0.156 C 
BRANCH  29  30
ATOM     30  O   UNL     1     168.760 157.456 168.162  1.00  0.00    -0.396 OA
ATOM     31  H   UNL     1     167.956 156.916 168.379  1.00  0.00     0.210 HD
ENDBRANCH  29  30
ENDBRANCH  28  29
ENDBRANCH  27  28
ENDBRANCH  26  27
ENDBRANCH  25  26
ENDBRANCH  24  25
ENDBRANCH  23  24
ENDBRANCH  22  23
ENDBRANCH  21  22
ENDBRANCH  20  21
ENDBRANCH  19  20
ENDBRANCH  18  19
ENDBRANCH  17  18
ENDBRANCH   1  17
TORSDOF 28
ENDMDL
MODEL 8
REMARK VINA RESULT:    -3.023      2.490      6.211
REMARK INTER + INTRA:         -12.172
REMARK INTER:                  -7.079
REMARK INTRA:                  -5.093
REMARK UNBOUND:                -4.288
REMARK SMILES CCCCCCCCCCCCCCCCCCCCCCCCCCCCCO
REMARK SMILES IDX 16 1 15 2 14 3 13 4 12 5 11 6 10 7 9 8 8 9 7 10 6 11 5 12
REMARK SMILES IDX 4 13 3 14 2 15 1 16 17 17 18 18 19 19 20 20 21 21 22 22
REMARK SMILES IDX 23 23 24 24 25 25 26 26 27 27 28 28 29 29 30 30
REMARK H PARENT 30 31
REMARK Flexibility Score: inf
ROOT
ATOM      1  C   UNL     1     165.641 161.659 172.533  1.00  0.00     0.000 C 
ENDROOT
BRANCH   1   2
ATOM      2  C   UNL     1     166.173 162.500 171.360  1.00  0.00     0.000 C 
BRANCH   2   3
ATOM      3  C   UNL     1     165.282 162.396 170.111  1.00  0.00     0.000 C 
BRANCH   3   4
ATOM      4  C   UNL     1     165.387 163.637 169.210  1.00  0.00     0.000 C 
BRANCH   4   5
ATOM      5  C   UNL     1     164.053 164.396 169.092  1.00  0.00     0.000 C 
BRANCH   5   6
ATOM      6  C   UNL     1     163.046 164.097 170.218  1.00  0.00     0.000 C 
BRANCH   6   7
ATOM      7  C   UNL     1     162.848 165.288 171.174  1.00  0.00     0.000 C 
BRANCH   7   8
ATOM      8  C   UNL     1     163.823 165.250 172.367  1.00  0.00    -0.000 C 
BRANCH   8   9
ATOM      9  C   UNL     1     164.888 166.367 172.350  1.00  0.00    -0.000 C 
BRANCH   9  10
ATOM     10  C   UNL     1     166.338 165.862 172.486  1.00  0.00    -0.000 C 
BRANCH  10  11
ATOM     11  C   UNL     1     167.215 166.265 171.289  1.00  0.00    -0.000 C 
BRANCH  11  12
ATOM     12  C   UNL     1     166.424 167.017 170.208  1.00  0.00    -0.000 C 
BRANCH  12  13
ATOM     13  C   UNL     1     167.018 166.821 168.802  1.00  0.00    -0.000 C 
BRANCH  13  14
ATOM     14  C   UNL     1     166.035 167.198 167.679  1.00  0.00    -0.000 C 
BRANCH  14  15
ATOM     15  C   UNL     1     166.271 166.468 166.346  1.00  0.00    -0.003 C 
ATOM     16  C   UNL     1     166.765 167.395 165.235  1.00  0.00     0.004 C 
ENDBRANCH  14  15
ENDBRANCH  13  14
ENDBRANCH  12  13
ENDBRANCH  11  12
ENDBRANCH  10  11
ENDBRANCH   9  10
ENDBRANCH   8   9
ENDBRANCH   7   8
ENDBRANCH   6   7
ENDBRANCH   5   6
ENDBRANCH   4   5
ENDBRANCH   3   4
ENDBRANCH   2   3
ENDBRANCH   1   2
BRANCH   1  17
ATOM     17  C   UNL     1     164.975 160.348 172.079  1.00  0.00     0.000 C 
BRANCH  17  18
ATOM     18  C   UNL     1     163.540 160.161 172.614  1.00  0.00     0.000 C 
BRANCH  18  19
ATOM     19  C   UNL     1     162.688 161.432 172.471  1.00  0.00     0.000 C 
BRANCH  19  20
ATOM     20  C   UNL     1     161.210 161.083 172.258  1.00  0.00     0.000 C 
BRANCH  20  21
ATOM     21  C   UNL     1     160.314 161.863 173.232  1.00  0.00     0.000 C 
BRANCH  21  22
ATOM     22  C   UNL     1     160.975 163.155 173.737  1.00  0.00     0.000 C 
BRANCH  22  23
ATOM     23  C   UNL     1     160.091 164.395 173.519  1.00  0.00     0.000 C 
BRANCH  23  24
ATOM     24  C   UNL     1     158.647 164.023 173.120  1.00  0.00     0.000 C 
BRANCH  24  25
ATOM     25  C   UNL     1     158.212 164.600 171.761  1.00  0.00     0.000 C 
BRANCH  25  26
ATOM     26  C   UNL     1     158.146 163.537 170.655  1.00  0.00     0.000 C 
BRANCH  26  27
ATOM     27  C   UNL     1     159.436 163.527 169.820  1.00  0.00     0.002 C 
BRANCH  27  28
ATOM     28  C   UNL     1     159.185 163.163 168.348  1.00  0.00     0.028 C 
BRANCH  28  29
ATOM     29  C   UNL     1     157.761 163.480 167.890  1.00  0.00     0.156 C 
BRANCH  29  30
ATOM     30  O   UNL     1     157.680 164.831 167.529  1.00  0.00    -0.396 OA
ATOM     31  H   UNL     1     157.334 164.848 166.598  1.00  0.00     0.210 HD
ENDBRANCH  29  30
ENDBRANCH  28  29
ENDBRANCH  27  28
ENDBRANCH  26  27
ENDBRANCH  25  26
ENDBRANCH  24  25
ENDBRANCH  23  24
ENDBRANCH  22  23
ENDBRANCH  21  22
ENDBRANCH  20  21
ENDBRANCH  19  20
ENDBRANCH  18  19
ENDBRANCH  17  18
ENDBRANCH   1  17
TORSDOF 28
ENDMDL
MODEL 9
REMARK VINA RESULT:    -3.016      1.674      3.671
REMARK INTER + INTRA:         -12.153
REMARK INTER:                  -7.746
REMARK INTRA:                  -4.408
REMARK UNBOUND:                -4.288
REMARK SMILES CCCCCCCCCCCCCCCCCCCCCCCCCCCCCO
REMARK SMILES IDX 16 1 15 2 14 3 13 4 12 5 11 6 10 7 9 8 8 9 7 10 6 11 5 12
REMARK SMILES IDX 4 13 3 14 2 15 1 16 17 17 18 18 19 19 20 20 21 21 22 22
REMARK SMILES IDX 23 23 24 24 25 25 26 26 27 27 28 28 29 29 30 30
REMARK H PARENT 30 31
REMARK Flexibility Score: inf
ROOT
ATOM      1  C   UNL     1     166.593 166.445 165.791  1.00  0.00     0.000 C 
ENDROOT
BRANCH   1   2
ATOM      2  C   UNL     1     166.352 167.116 167.154  1.00  0.00     0.000 C 
BRANCH   2   3
ATOM      3  C   UNL     1     167.388 166.693 168.207  1.00  0.00     0.000 C 
BRANCH   3   4
ATOM      4  C   UNL     1     166.879 166.894 169.645  1.00  0.00     0.000 C 
BRANCH   4   5
ATOM      5  C   UNL     1     165.582 167.721 169.702  1.00  0.00     0.000 C 
BRANCH   5   6
ATOM      6  C   UNL     1     165.643 168.942 170.638  1.00  0.00     0.000 C 
BRANCH   6   7
ATOM      7  C   UNL     1     167.084 169.358 170.984  1.00  0.00     0.000 C 
BRANCH   7   8
ATOM      8  C   UNL     1     167.337 169.387 172.505  1.00  0.00    -0.000 C 
BRANCH   8   9
ATOM      9  C   UNL     1     167.993 168.107 173.061  1.00  0.00    -0.000 C 
BRANCH   9  10
ATOM     10  C   UNL     1     169.535 168.116 173.019  1.00  0.00    -0.000 C 
BRANCH  10  11
ATOM     11  C   UNL     1     170.121 166.728 172.708  1.00  0.00    -0.000 C 
BRANCH  11  12
ATOM     12  C   UNL     1     170.144 166.425 171.202  1.00  0.00    -0.000 C 
BRANCH  12  13
ATOM     13  C   UNL     1     170.359 167.689 170.352  1.00  0.00    -0.000 C 
BRANCH  13  14
ATOM     14  C   UNL     1     171.846 167.980 170.079  1.00  0.00    -0.000 C 
BRANCH  14  15
ATOM     15  C   UNL     1     172.309 169.392 170.476  1.00  0.00    -0.003 C 
ATOM     16  C   UNL     1     171.161 170.398 170.559  1.00  0.00     0.004 C 
ENDBRANCH  14  15
ENDBRANCH  13  14
ENDBRANCH  12  13
ENDBRANCH  11  12
ENDBRANCH  10  11
ENDBRANCH   9  10
ENDBRANCH   8   9
ENDBRANCH   7   8
ENDBRANCH   6   7
ENDBRANCH   5   6
ENDBRANCH   4   5
ENDBRANCH   3   4
ENDBRANCH   2   3
ENDBRANCH   1   2
BRANCH   1  17
ATOM     17  C   UNL     1     165.348 165.720 165.249  1.00  0.00     0.000 C 
BRANCH  17  18
ATOM     18  C   UNL     1     165.025 164.403 165.985  1.00  0.00     0.000 C 
BRANCH  18  19
ATOM     19  C   UNL     1     163.774 164.516 166.871  1.00  0.00     0.000 C 
BRANCH  19  20
ATOM     20  C   UNL     1     164.153 164.536 168.358  1.00  0.00     0.000 C 
BRANCH  20  21
ATOM     21  C   UNL     1     165.222 163.478 168.667  1.00  0.00     0.000 C 
BRANCH  21  22
ATOM     22  C   UNL     1     165.749 163.574 170.109  1.00  0.00     0.000 C 
BRANCH  22  23
ATOM     23  C   UNL     1     165.637 162.240 170.868  1.00  0.00     0.000 C 
BRANCH  23  24
ATOM     24  C   UNL     1     164.184 161.920 171.279  1.00  0.00     0.000 C 
BRANCH  24  25
ATOM     25  C   UNL     1     163.595 162.912 172.298  1.00  0.00     0.000 C 
BRANCH  25  26
ATOM     26  C   UNL     1     162.441 163.744 171.722  1.00  0.00     0.000 C 
BRANCH  26  27
ATOM     27  C   UNL     1     161.531 162.885 170.831  1.00  0.00     0.002 C 
BRANCH  27  28
ATOM     28  C   UNL     1     160.649 163.730 169.897  1.00  0.00     0.028 C 
BRANCH  28  29
ATOM     29  C   UNL     1     159.295 163.079 169.606  1.00  0.00     0.156 C 
BRANCH  29  30
ATOM     30  O   UNL     1     159.251 162.685 168.262  1.00  0.00    -0.396 OA
ATOM     31  H   UNL     1     159.017 163.499 167.743  1.00  0.00     0.210 HD
ENDBRANCH  29  30
ENDBRANCH  28  29
ENDBRANCH  27  28
ENDBRANCH  26  27
ENDBRANCH  25  26
ENDBRANCH  24  25
ENDBRANCH  23  24
ENDBRANCH  22  23
ENDBRANCH  21  22
ENDBRANCH  20  21
ENDBRANCH  19  20
ENDBRANCH  18  19
ENDBRANCH  17  18
ENDBRANCH   1  17
TORSDOF 28
ENDMDL
