MODEL 1
REMARK VINA RESULT:    -5.315      0.000      0.000
REMARK INTER + INTRA:          -6.511
REMARK INTER:                  -6.247
REMARK INTRA:                  -0.264
REMARK UNBOUND:                -0.264
REMARK SMILES O=c1cc(-c2ccc(O)c(O)c2)oc2cc(O)cc(O)c12
REMARK SMILES IDX 4 1 3 2 2 3 1 4 21 5 19 6 18 7 16 8 15 9 14 10 13 11 5 12
REMARK SMILES IDX 6 13 7 14 8 15 12 16 10 17 9 18 11 20 20 22 17 24
REMARK H PARENT 9 19 11 21 20 23 17 25
REMARK Flexibility Score: inf
ROOT
ATOM      1  C   UNL     1      27.129  12.688  31.605  1.00  0.00     0.138 A 
ATOM      2  C   UNL     1      26.831  13.375  32.794  1.00  0.00     0.100 A 
ATOM      3  C   UNL     1      25.571  13.950  32.959  1.00  0.00     0.197 A 
ATOM      4  O   UNL     1      25.314  14.563  34.030  1.00  0.00    -0.289 OA
ATOM      5  C   UNL     1      24.612  13.828  31.934  1.00  0.00     0.107 A 
ATOM      6  C   UNL     1      23.312  14.380  32.019  1.00  0.00     0.134 A 
ATOM      7  C   UNL     1      22.413  14.211  30.956  1.00  0.00     0.093 A 
ATOM      8  C   UNL     1      22.788  13.501  29.812  1.00  0.00     0.123 A 
ATOM      9  C   UNL     1      24.071  12.953  29.722  1.00  0.00     0.094 A 
ATOM     10  C   UNL     1      24.983  13.112  30.770  1.00  0.00     0.146 A 
ATOM     11  O   UNL     1      26.196  12.583  30.660  1.00  0.00    -0.456 OA
ENDROOT
BRANCH   1  12
ATOM     12  C   UNL     1      28.452  12.056  31.375  1.00  0.00     0.021 A 
ATOM     13  C   UNL     1      29.372  12.581  30.446  1.00  0.00     0.016 A 
ATOM     14  C   UNL     1      30.606  11.959  30.242  1.00  0.00     0.051 A 
ATOM     15  C   UNL     1      30.940  10.801  30.954  1.00  0.00     0.157 A 
ATOM     16  C   UNL     1      28.792  10.884  32.076  1.00  0.00     0.062 A 
ATOM     17  C   UNL     1      30.031  10.262  31.871  1.00  0.00     0.158 A 
BRANCH  15  18
ATOM     18  O   UNL     1      32.172  10.179  30.754  1.00  0.00    -0.504 OA
ATOM     19  H   UNL     1      32.639   9.676  31.499  1.00  0.00     0.293 HD
ENDBRANCH  15  18
BRANCH  17  20
ATOM     20  O   UNL     1      30.365   9.107  32.576  1.00  0.00    -0.504 OA
ATOM     21  H   UNL     1      31.242   8.624  32.419  1.00  0.00     0.293 HD
ENDBRANCH  17  20
ENDBRANCH   1  12
BRANCH   6  22
ATOM     22  O   UNL     1      22.908  15.094  33.149  1.00  0.00    -0.507 OA
ATOM     23  H   UNL     1      23.025  16.098  33.215  1.00  0.00     0.293 HD
ENDBRANCH   6  22
BRANCH   8  24
ATOM     24  O   UNL     1      21.875  13.348  28.770  1.00  0.00    -0.508 OA
ATOM     25  H   UNL     1      21.812  12.482  28.247  1.00  0.00     0.293 HD
ENDBRANCH   8  24
TORSDOF 5
ENDMDL
MODEL 2
REMARK VINA RESULT:    -5.048     18.602     21.439
REMARK INTER + INTRA:          -6.197
REMARK INTER:                  -5.894
REMARK INTRA:                  -0.303
REMARK UNBOUND:                -0.264
REMARK SMILES O=c1cc(-c2ccc(O)c(O)c2)oc2cc(O)cc(O)c12
REMARK SMILES IDX 4 1 3 2 2 3 1 4 21 5 19 6 18 7 16 8 15 9 14 10 13 11 5 12
REMARK SMILES IDX 6 13 7 14 8 15 12 16 10 17 9 18 11 20 20 22 17 24
REMARK H PARENT 9 19 11 21 20 23 17 25
REMARK Flexibility Score: inf
ROOT
ATOM      1  C   UNL     1      36.695  -2.115  43.821  1.00  0.00     0.138 A 
ATOM      2  C   UNL     1      36.288  -3.454  43.694  1.00  0.00     0.100 A 
ATOM      3  C   UNL     1      34.942  -3.745  43.473  1.00  0.00     0.197 A 
ATOM      4  O   UNL     1      34.588  -4.950  43.359  1.00  0.00    -0.289 OA
ATOM      5  C   UNL     1      34.010  -2.693  43.374  1.00  0.00     0.107 A 
ATOM      6  C   UNL     1      32.628  -2.900  43.150  1.00  0.00     0.134 A 
ATOM      7  C   UNL     1      31.765  -1.798  43.058  1.00  0.00     0.093 A 
ATOM      8  C   UNL     1      32.257  -0.496  43.185  1.00  0.00     0.123 A 
ATOM      9  C   UNL     1      33.622  -0.285  43.405  1.00  0.00     0.094 A 
ATOM     10  C   UNL     1      34.498  -1.370  43.501  1.00  0.00     0.146 A 
ATOM     11  O   UNL     1      35.790  -1.144  43.712  1.00  0.00    -0.456 OA
ENDROOT
BRANCH   1  12
ATOM     12  C   UNL     1      38.113  -1.746  44.056  1.00  0.00     0.021 A 
ATOM     13  C   UNL     1      38.962  -2.537  44.856  1.00  0.00     0.016 A 
ATOM     14  C   UNL     1      40.290  -2.160  45.069  1.00  0.00     0.051 A 
ATOM     15  C   UNL     1      40.791  -0.984  44.496  1.00  0.00     0.157 A 
ATOM     16  C   UNL     1      38.622  -0.559  43.497  1.00  0.00     0.062 A 
ATOM     17  C   UNL     1      39.955  -0.182  43.711  1.00  0.00     0.158 A 
BRANCH  15  18
ATOM     18  O   UNL     1      42.116  -0.606  44.706  1.00  0.00    -0.504 OA
ATOM     19  H   UNL     1      42.745  -1.167  45.268  1.00  0.00     0.293 HD
ENDBRANCH  15  18
BRANCH  17  20
ATOM     20  O   UNL     1      40.456   0.989  43.145  1.00  0.00    -0.504 OA
ATOM     21  H   UNL     1      40.738   1.030  42.172  1.00  0.00     0.293 HD
ENDBRANCH  17  20
ENDBRANCH   1  12
BRANCH   6  22
ATOM     22  O   UNL     1      32.108  -4.189  43.020  1.00  0.00    -0.507 OA
ATOM     23  H   UNL     1      32.569  -4.994  43.426  1.00  0.00     0.293 HD
ENDBRANCH   6  22
BRANCH   8  24
ATOM     24  O   UNL     1      31.378   0.581  43.090  1.00  0.00    -0.508 OA
ATOM     25  H   UNL     1      30.634   0.717  43.764  1.00  0.00     0.293 HD
ENDBRANCH   8  24
TORSDOF 5
ENDMDL
MODEL 3
REMARK VINA RESULT:    -5.023      1.946      7.382
REMARK INTER + INTRA:          -6.168
REMARK INTER:                  -5.884
REMARK INTRA:                  -0.284
REMARK UNBOUND:                -0.264
REMARK SMILES O=c1cc(-c2ccc(O)c(O)c2)oc2cc(O)cc(O)c12
REMARK SMILES IDX 4 1 3 2 2 3 1 4 21 5 19 6 18 7 16 8 15 9 14 10 13 11 5 12
REMARK SMILES IDX 6 13 7 14 8 15 12 16 10 17 9 18 11 20 20 22 17 24
REMARK H PARENT 9 19 11 21 20 23 17 25
REMARK Flexibility Score: inf
ROOT
ATOM      1  C   UNL     1      28.182  12.636  30.903  1.00  0.00     0.138 A 
ATOM      2  C   UNL     1      28.353  11.321  31.367  1.00  0.00     0.100 A 
ATOM      3  C   UNL     1      29.641  10.822  31.561  1.00  0.00     0.197 A 
ATOM      4  O   UNL     1      29.783   9.641  31.979  1.00  0.00    -0.289 OA
ATOM      5  C   UNL     1      30.753  11.646  31.294  1.00  0.00     0.107 A 
ATOM      6  C   UNL     1      32.092  11.220  31.463  1.00  0.00     0.134 A 
ATOM      7  C   UNL     1      33.144  12.103  31.180  1.00  0.00     0.093 A 
ATOM      8  C   UNL     1      32.884  13.401  30.733  1.00  0.00     0.123 A 
ATOM      9  C   UNL     1      31.563  13.828  30.564  1.00  0.00     0.094 A 
ATOM     10  C   UNL     1      30.500  12.963  30.839  1.00  0.00     0.146 A 
ATOM     11  O   UNL     1      29.254  13.391  30.670  1.00  0.00    -0.456 OA
ENDROOT
BRANCH   1  12
ATOM     12  C   UNL     1      26.836  13.220  30.680  1.00  0.00     0.021 A 
ATOM     13  C   UNL     1      26.574  14.586  30.907  1.00  0.00     0.016 A 
ATOM     14  C   UNL     1      25.295  15.106  30.699  1.00  0.00     0.051 A 
ATOM     15  C   UNL     1      24.254  14.274  30.269  1.00  0.00     0.157 A 
ATOM     16  C   UNL     1      25.781  12.389  30.261  1.00  0.00     0.062 A 
ATOM     17  C   UNL     1      24.497  12.913  30.052  1.00  0.00     0.158 A 
BRANCH  15  18
ATOM     18  O   UNL     1      22.977  14.791  30.059  1.00  0.00    -0.504 OA
ATOM     19  H   UNL     1      22.822  15.595  29.462  1.00  0.00     0.293 HD
ENDBRANCH  15  18
BRANCH  17  20
ATOM     20  O   UNL     1      23.459  12.086  29.627  1.00  0.00    -0.504 OA
ATOM     21  H   UNL     1      23.237  11.974  28.645  1.00  0.00     0.293 HD
ENDBRANCH  17  20
ENDBRANCH   1  12
BRANCH   6  22
ATOM     22  O   UNL     1      32.383   9.929  31.909  1.00  0.00    -0.507 OA
ATOM     23  H   UNL     1      32.093   9.108  31.391  1.00  0.00     0.293 HD
ENDBRANCH   6  22
BRANCH   8  24
ATOM     24  O   UNL     1      33.948  14.258  30.459  1.00  0.00    -0.508 OA
ATOM     25  H   UNL     1      34.079  14.660  29.538  1.00  0.00     0.293 HD
ENDBRANCH   8  24
TORSDOF 5
ENDMDL
MODEL 4
REMARK VINA RESULT:    -5.010      1.603      2.604
REMARK INTER + INTRA:          -6.153
REMARK INTER:                  -5.841
REMARK INTRA:                  -0.312
REMARK UNBOUND:                -0.264
REMARK SMILES O=c1cc(-c2ccc(O)c(O)c2)oc2cc(O)cc(O)c12
REMARK SMILES IDX 4 1 3 2 2 3 1 4 21 5 19 6 18 7 16 8 15 9 14 10 13 11 5 12
REMARK SMILES IDX 6 13 7 14 8 15 12 16 10 17 9 18 11 20 20 22 17 24
REMARK H PARENT 9 19 11 21 20 23 17 25
REMARK Flexibility Score: inf
ROOT
ATOM      1  C   UNL     1      26.786  12.589  31.483  1.00  0.00     0.138 A 
ATOM      2  C   UNL     1      26.127  13.402  30.546  1.00  0.00     0.100 A 
ATOM      3  C   UNL     1      24.840  13.864  30.821  1.00  0.00     0.197 A 
ATOM      4  O   UNL     1      24.257  14.594  29.974  1.00  0.00    -0.289 OA
ATOM      5  C   UNL     1      24.220  13.513  32.038  1.00  0.00     0.107 A 
ATOM      6  C   UNL     1      22.919  13.938  32.396  1.00  0.00     0.134 A 
ATOM      7  C   UNL     1      22.375  13.549  33.629  1.00  0.00     0.093 A 
ATOM      8  C   UNL     1      23.106  12.747  34.509  1.00  0.00     0.123 A 
ATOM      9  C   UNL     1      24.393  12.325  34.161  1.00  0.00     0.094 A 
ATOM     10  C   UNL     1      24.953  12.700  32.936  1.00  0.00     0.146 A 
ATOM     11  O   UNL     1      26.176  12.285  32.628  1.00  0.00    -0.456 OA
ENDROOT
BRANCH   1  12
ATOM     12  C   UNL     1      28.156  12.071  31.245  1.00  0.00     0.021 A 
ATOM     13  C   UNL     1      29.026  12.677  30.317  1.00  0.00     0.016 A 
ATOM     14  C   UNL     1      30.307  12.161  30.105  1.00  0.00     0.051 A 
ATOM     15  C   UNL     1      30.738  11.028  30.807  1.00  0.00     0.157 A 
ATOM     16  C   UNL     1      28.593  10.925  31.935  1.00  0.00     0.062 A 
ATOM     17  C   UNL     1      29.879  10.409  31.722  1.00  0.00     0.158 A 
BRANCH  15  18
ATOM     18  O   UNL     1      32.016  10.512  30.598  1.00  0.00    -0.504 OA
ATOM     19  H   UNL     1      32.252   9.561  30.857  1.00  0.00     0.293 HD
ENDBRANCH  15  18
BRANCH  17  20
ATOM     20  O   UNL     1      30.309   9.280  32.416  1.00  0.00    -0.504 OA
ATOM     21  H   UNL     1      29.727   8.455  32.501  1.00  0.00     0.293 HD
ENDBRANCH  17  20
ENDBRANCH   1  12
BRANCH   6  22
ATOM     22  O   UNL     1      22.164  14.740  31.537  1.00  0.00    -0.507 OA
ATOM     23  H   UNL     1      22.396  15.713  31.376  1.00  0.00     0.293 HD
ENDBRANCH   6  22
BRANCH   8  24
ATOM     24  O   UNL     1      22.542  12.376  35.728  1.00  0.00    -0.508 OA
ATOM     25  H   UNL     1      22.431  11.402  35.984  1.00  0.00     0.293 HD
ENDBRANCH   8  24
TORSDOF 5
ENDMDL
MODEL 5
REMARK VINA RESULT:    -4.917      9.012      9.556
REMARK INTER + INTRA:          -6.043
REMARK INTER:                  -5.749
REMARK INTRA:                  -0.294
REMARK UNBOUND:                -0.264
REMARK SMILES O=c1cc(-c2ccc(O)c(O)c2)oc2cc(O)cc(O)c12
REMARK SMILES IDX 4 1 3 2 2 3 1 4 21 5 19 6 18 7 16 8 15 9 14 10 13 11 5 12
REMARK SMILES IDX 6 13 7 14 8 15 12 16 10 17 9 18 11 20 20 22 17 24
REMARK H PARENT 9 19 11 21 20 23 17 25
REMARK Flexibility Score: inf
ROOT
ATOM      1  C   UNL     1      27.204   3.635  30.318  1.00  0.00     0.138 A 
ATOM      2  C   UNL     1      26.676   3.500  29.023  1.00  0.00     0.100 A 
ATOM      3  C   UNL     1      25.293   3.494  28.841  1.00  0.00     0.197 A 
ATOM      4  O   UNL     1      24.829   3.372  27.675  1.00  0.00    -0.289 OA
ATOM      5  C   UNL     1      24.444   3.629  29.958  1.00  0.00     0.107 A 
ATOM      6  C   UNL     1      23.032   3.633  29.863  1.00  0.00     0.134 A 
ATOM      7  C   UNL     1      22.257   3.778  31.024  1.00  0.00     0.093 A 
ATOM      8  C   UNL     1      22.866   3.919  32.273  1.00  0.00     0.123 A 
ATOM      9  C   UNL     1      24.261   3.917  32.374  1.00  0.00     0.094 A 
ATOM     10  C   UNL     1      25.051   3.772  31.229  1.00  0.00     0.146 A 
ATOM     11  O   UNL     1      26.374   3.771  31.351  1.00  0.00    -0.456 OA
ENDROOT
BRANCH   1  12
ATOM     12  C   UNL     1      28.666   3.649  30.570  1.00  0.00     0.021 A 
ATOM     13  C   UNL     1      29.196   3.993  31.830  1.00  0.00     0.016 A 
ATOM     14  C   UNL     1      30.578   4.008  32.037  1.00  0.00     0.051 A 
ATOM     15  C   UNL     1      31.453   3.690  30.991  1.00  0.00     0.157 A 
ATOM     16  C   UNL     1      29.554   3.344  29.522  1.00  0.00     0.062 A 
ATOM     17  C   UNL     1      30.940   3.359  29.732  1.00  0.00     0.158 A 
BRANCH  15  18
ATOM     18  O   UNL     1      32.832   3.703  31.194  1.00  0.00    -0.504 OA
ATOM     19  H   UNL     1      33.395   4.511  30.957  1.00  0.00     0.293 HD
ENDBRANCH  15  18
BRANCH  17  20
ATOM     20  O   UNL     1      31.813   3.045  28.692  1.00  0.00    -0.504 OA
ATOM     21  H   UNL     1      32.806   2.919  28.851  1.00  0.00     0.293 HD
ENDBRANCH  17  20
ENDBRANCH   1  12
BRANCH   6  22
ATOM     22  O   UNL     1      22.396   3.494  28.629  1.00  0.00    -0.507 OA
ATOM     23  H   UNL     1      22.096   4.298  28.090  1.00  0.00     0.293 HD
ENDBRANCH   6  22
BRANCH   8  24
ATOM     24  O   UNL     1      22.073   4.062  33.410  1.00  0.00    -0.508 OA
ATOM     25  H   UNL     1      21.120   4.404  33.351  1.00  0.00     0.293 HD
ENDBRANCH   8  24
TORSDOF 5
ENDMDL
MODEL 6
REMARK VINA RESULT:    -4.917      9.041      9.371
REMARK INTER + INTRA:          -6.043
REMARK INTER:                  -5.731
REMARK INTRA:                  -0.312
REMARK UNBOUND:                -0.264
REMARK SMILES O=c1cc(-c2ccc(O)c(O)c2)oc2cc(O)cc(O)c12
REMARK SMILES IDX 4 1 3 2 2 3 1 4 21 5 19 6 18 7 16 8 15 9 14 10 13 11 5 12
REMARK SMILES IDX 6 13 7 14 8 15 12 16 10 17 9 18 11 20 20 22 17 24
REMARK H PARENT 9 19 11 21 20 23 17 25
REMARK Flexibility Score: inf
ROOT
ATOM      1  C   UNL     1      27.521   3.556  30.772  1.00  0.00     0.138 A 
ATOM      2  C   UNL     1      27.200   3.775  32.122  1.00  0.00     0.100 A 
ATOM      3  C   UNL     1      25.863   3.909  32.498  1.00  0.00     0.197 A 
ATOM      4  O   UNL     1      25.585   4.105  33.712  1.00  0.00    -0.289 OA
ATOM      5  C   UNL     1      24.853   3.818  31.519  1.00  0.00     0.107 A 
ATOM      6  C   UNL     1      23.475   3.942  31.814  1.00  0.00     0.134 A 
ATOM      7  C   UNL     1      22.530   3.833  30.782  1.00  0.00     0.093 A 
ATOM      8  C   UNL     1      22.937   3.602  29.466  1.00  0.00     0.123 A 
ATOM      9  C   UNL     1      24.298   3.478  29.168  1.00  0.00     0.094 A 
ATOM     10  C   UNL     1      25.255   3.584  30.182  1.00  0.00     0.146 A 
ATOM     11  O   UNL     1      26.542   3.465  29.874  1.00  0.00    -0.456 OA
ENDROOT
BRANCH   1  12
ATOM     12  C   UNL     1      28.925   3.405  30.315  1.00  0.00     0.021 A 
ATOM     13  C   UNL     1      30.005   3.922  31.058  1.00  0.00     0.016 A 
ATOM     14  C   UNL     1      31.316   3.774  30.598  1.00  0.00     0.051 A 
ATOM     15  C   UNL     1      31.571   3.117  29.389  1.00  0.00     0.157 A 
ATOM     16  C   UNL     1      29.191   2.759  29.094  1.00  0.00     0.062 A 
ATOM     17  C   UNL     1      30.507   2.610  28.635  1.00  0.00     0.158 A 
BRANCH  15  18
ATOM     18  O   UNL     1      32.879   2.967  28.928  1.00  0.00    -0.504 OA
ATOM     19  H   UNL     1      33.657   2.859  29.568  1.00  0.00     0.293 HD
ENDBRANCH  15  18
BRANCH  17  20
ATOM     20  O   UNL     1      30.763   1.959  27.429  1.00  0.00    -0.504 OA
ATOM     21  H   UNL     1      30.770   2.458  26.547  1.00  0.00     0.293 HD
ENDBRANCH  17  20
ENDBRANCH   1  12
BRANCH   6  22
ATOM     22  O   UNL     1      23.038   4.172  33.119  1.00  0.00    -0.507 OA
ATOM     23  H   UNL     1      22.720   3.418  33.717  1.00  0.00     0.293 HD
ENDBRANCH   6  22
BRANCH   8  24
ATOM     24  O   UNL     1      21.978   3.498  28.460  1.00  0.00    -0.508 OA
ATOM     25  H   UNL     1      22.224   3.195  27.525  1.00  0.00     0.293 HD
ENDBRANCH   8  24
TORSDOF 5
ENDMDL
MODEL 7
REMARK VINA RESULT:    -4.900      9.315     10.281
REMARK INTER + INTRA:          -6.023
REMARK INTER:                  -5.743
REMARK INTRA:                  -0.279
REMARK UNBOUND:                -0.264
REMARK SMILES O=c1cc(-c2ccc(O)c(O)c2)oc2cc(O)cc(O)c12
REMARK SMILES IDX 4 1 3 2 2 3 1 4 21 5 19 6 18 7 16 8 15 9 14 10 13 11 5 12
REMARK SMILES IDX 6 13 7 14 8 15 12 16 10 17 9 18 11 20 20 22 17 24
REMARK H PARENT 9 19 11 21 20 23 17 25
REMARK Flexibility Score: inf
ROOT
ATOM      1  C   UNL     1      27.680   2.530  29.576  1.00  0.00     0.138 A 
ATOM      2  C   UNL     1      27.709   2.928  30.924  1.00  0.00     0.100 A 
ATOM      3  C   UNL     1      26.540   3.391  31.529  1.00  0.00     0.197 A 
ATOM      4  O   UNL     1      26.577   3.745  32.738  1.00  0.00    -0.289 OA
ATOM      5  C   UNL     1      25.346   3.447  30.783  1.00  0.00     0.107 A 
ATOM      6  C   UNL     1      24.118   3.903  31.319  1.00  0.00     0.134 A 
ATOM      7  C   UNL     1      22.972   3.924  30.511  1.00  0.00     0.093 A 
ATOM      8  C   UNL     1      23.029   3.498  29.182  1.00  0.00     0.123 A 
ATOM      9  C   UNL     1      24.239   3.045  28.646  1.00  0.00     0.094 A 
ATOM     10  C   UNL     1      25.394   3.018  29.435  1.00  0.00     0.146 A 
ATOM     11  O   UNL     1      26.532   2.586  28.903  1.00  0.00    -0.456 OA
ENDROOT
BRANCH   1  12
ATOM     12  C   UNL     1      28.891   2.028  28.881  1.00  0.00     0.021 A 
ATOM     13  C   UNL     1      28.837   0.932  27.997  1.00  0.00     0.016 A 
ATOM     14  C   UNL     1      29.995   0.475  27.364  1.00  0.00     0.051 A 
ATOM     15  C   UNL     1      31.226   1.095  27.608  1.00  0.00     0.157 A 
ATOM     16  C   UNL     1      30.135   2.636  29.131  1.00  0.00     0.062 A 
ATOM     17  C   UNL     1      31.297   2.176  28.494  1.00  0.00     0.158 A 
BRANCH  15  18
ATOM     18  O   UNL     1      32.384   0.641  26.977  1.00  0.00    -0.504 OA
ATOM     19  H   UNL     1      32.422   0.507  25.973  1.00  0.00     0.293 HD
ENDBRANCH  15  18
BRANCH  17  20
ATOM     20  O   UNL     1      32.524   2.790  28.738  1.00  0.00    -0.504 OA
ATOM     21  H   UNL     1      32.630   3.797  28.704  1.00  0.00     0.293 HD
ENDBRANCH  17  20
ENDBRANCH   1  12
BRANCH   6  22
ATOM     22  O   UNL     1      24.030   4.335  32.643  1.00  0.00    -0.507 OA
ATOM     23  H   UNL     1      23.996   3.681  33.417  1.00  0.00     0.293 HD
ENDBRANCH   6  22
BRANCH   8  24
ATOM     24  O   UNL     1      21.875   3.528  28.401  1.00  0.00    -0.508 OA
ATOM     25  H   UNL     1      21.706   4.273  27.736  1.00  0.00     0.293 HD
ENDBRANCH   8  24
TORSDOF 5
ENDMDL
MODEL 8
REMARK VINA RESULT:    -4.872      9.078     10.481
REMARK INTER + INTRA:          -5.991
REMARK INTER:                  -5.717
REMARK INTRA:                  -0.273
REMARK UNBOUND:                -0.264
REMARK SMILES O=c1cc(-c2ccc(O)c(O)c2)oc2cc(O)cc(O)c12
REMARK SMILES IDX 4 1 3 2 2 3 1 4 21 5 19 6 18 7 16 8 15 9 14 10 13 11 5 12
REMARK SMILES IDX 6 13 7 14 8 15 12 16 10 17 9 18 11 20 20 22 17 24
REMARK H PARENT 9 19 11 21 20 23 17 25
REMARK Flexibility Score: inf
ROOT
ATOM      1  C   UNL     1      28.607   2.986  29.681  1.00  0.00     0.138 A 
ATOM      2  C   UNL     1      28.683   1.906  28.787  1.00  0.00     0.100 A 
ATOM      3  C   UNL     1      27.528   1.467  28.139  1.00  0.00     0.197 A 
ATOM      4  O   UNL     1      27.607   0.497  27.337  1.00  0.00    -0.289 OA
ATOM      5  C   UNL     1      26.302   2.117  28.387  1.00  0.00     0.107 A 
ATOM      6  C   UNL     1      25.085   1.737  27.773  1.00  0.00     0.134 A 
ATOM      7  C   UNL     1      23.908   2.439  28.069  1.00  0.00     0.093 A 
ATOM      8  C   UNL     1      23.924   3.512  28.964  1.00  0.00     0.123 A 
ATOM      9  C   UNL     1      25.124   3.893  29.573  1.00  0.00     0.094 A 
ATOM     10  C   UNL     1      26.309   3.205  29.293  1.00  0.00     0.146 A 
ATOM     11  O   UNL     1      27.435   3.585  29.885  1.00  0.00    -0.456 OA
ENDROOT
BRANCH   1  12
ATOM     12  C   UNL     1      29.803   3.496  30.397  1.00  0.00     0.021 A 
ATOM     13  C   UNL     1      29.781   3.758  31.782  1.00  0.00     0.016 A 
ATOM     14  C   UNL     1      30.919   4.248  32.428  1.00  0.00     0.051 A 
ATOM     15  C   UNL     1      32.093   4.493  31.705  1.00  0.00     0.157 A 
ATOM     16  C   UNL     1      30.983   3.759  29.677  1.00  0.00     0.062 A 
ATOM     17  C   UNL     1      32.124   4.249  30.327  1.00  0.00     0.158 A 
BRANCH  15  18
ATOM     18  O   UNL     1      33.230   4.981  32.347  1.00  0.00    -0.504 OA
ATOM     19  H   UNL     1      33.433   4.750  33.313  1.00  0.00     0.293 HD
ENDBRANCH  15  18
BRANCH  17  20
ATOM     20  O   UNL     1      33.292   4.497  29.609  1.00  0.00    -0.504 OA
ATOM     21  H   UNL     1      33.500   4.006  28.747  1.00  0.00     0.293 HD
ENDBRANCH  17  20
ENDBRANCH   1  12
BRANCH   6  22
ATOM     22  O   UNL     1      25.038   0.669  26.875  1.00  0.00    -0.507 OA
ATOM     23  H   UNL     1      25.729  -0.071  26.889  1.00  0.00     0.293 HD
ENDBRANCH   6  22
BRANCH   8  24
ATOM     24  O   UNL     1      22.740   4.193  29.241  1.00  0.00    -0.508 OA
ATOM     25  H   UNL     1      22.381   4.903  28.614  1.00  0.00     0.293 HD
ENDBRANCH   8  24
TORSDOF 5
ENDMDL
MODEL 9
REMARK VINA RESULT:    -4.864      9.123     11.230
REMARK INTER + INTRA:          -5.981
REMARK INTER:                  -5.686
REMARK INTRA:                  -0.295
REMARK UNBOUND:                -0.264
REMARK SMILES O=c1cc(-c2ccc(O)c(O)c2)oc2cc(O)cc(O)c12
REMARK SMILES IDX 4 1 3 2 2 3 1 4 21 5 19 6 18 7 16 8 15 9 14 10 13 11 5 12
REMARK SMILES IDX 6 13 7 14 8 15 12 16 10 17 9 18 11 20 20 22 17 24
REMARK H PARENT 9 19 11 21 20 23 17 25
REMARK Flexibility Score: inf
ROOT
ATOM      1  C   UNL     1      27.188   3.683  30.802  1.00  0.00     0.138 A 
ATOM      2  C   UNL     1      27.393   3.866  32.180  1.00  0.00     0.100 A 
ATOM      3  C   UNL     1      28.695   3.937  32.677  1.00  0.00     0.197 A 
ATOM      4  O   UNL     1      28.869   4.102  33.915  1.00  0.00    -0.289 OA
ATOM      5  C   UNL     1      29.785   3.830  31.791  1.00  0.00     0.107 A 
ATOM      6  C   UNL     1      31.135   3.891  32.211  1.00  0.00     0.134 A 
ATOM      7  C   UNL     1      32.164   3.782  31.263  1.00  0.00     0.093 A 
ATOM      8  C   UNL     1      31.869   3.614  29.908  1.00  0.00     0.123 A 
ATOM      9  C   UNL     1      30.537   3.553  29.486  1.00  0.00     0.094 A 
ATOM     10  C   UNL     1      29.497   3.659  30.415  1.00  0.00     0.146 A 
ATOM     11  O   UNL     1      28.240   3.596  29.990  1.00  0.00    -0.456 OA
ENDROOT
BRANCH   1  12
ATOM     12  C   UNL     1      25.826   3.601  30.217  1.00  0.00     0.021 A 
ATOM     13  C   UNL     1      25.624   3.444  28.831  1.00  0.00     0.016 A 
ATOM     14  C   UNL     1      24.331   3.381  28.307  1.00  0.00     0.051 A 
ATOM     15  C   UNL     1      23.219   3.481  29.152  1.00  0.00     0.157 A 
ATOM     16  C   UNL     1      24.703   3.715  31.057  1.00  0.00     0.062 A 
ATOM     17  C   UNL     1      23.406   3.650  30.529  1.00  0.00     0.158 A 
BRANCH  15  18
ATOM     18  O   UNL     1      21.928   3.417  28.632  1.00  0.00    -0.504 OA
ATOM     19  H   UNL     1      21.137   3.154  29.208  1.00  0.00     0.293 HD
ENDBRANCH  15  18
BRANCH  17  20
ATOM     20  O   UNL     1      22.298   3.753  31.368  1.00  0.00    -0.504 OA
ATOM     21  H   UNL     1      21.894   4.652  31.607  1.00  0.00     0.293 HD
ENDBRANCH  17  20
ENDBRANCH   1  12
BRANCH   6  22
ATOM     22  O   UNL     1      31.460   4.059  33.558  1.00  0.00    -0.507 OA
ATOM     23  H   UNL     1      30.751   4.057  34.282  1.00  0.00     0.293 HD
ENDBRANCH   6  22
BRANCH   8  24
ATOM     24  O   UNL     1      32.911   3.508  28.988  1.00  0.00    -0.508 OA
ATOM     25  H   UNL     1      33.873   3.407  29.289  1.00  0.00     0.293 HD
ENDBRANCH   8  24
TORSDOF 5
ENDMDL
