MODEL 1
REMARK VINA RESULT:    -4.488      0.000      0.000
REMARK INTER + INTRA:          -7.729
REMARK INTER:                  -6.588
REMARK INTRA:                  -1.141
REMARK UNBOUND:                -1.141
REMARK SMILES CC(C)COC(=O)c1ccccc1C(=O)OCC(C)C
REMARK SMILES IDX 8 1 9 2 10 3 11 4 12 5 13 6 6 7 7 8 5 9 4 10 2 11 1 12 3 13
REMARK SMILES IDX 14 14 15 15 16 16 17 17 18 18 19 19 20 20
REMARK H PARENT
REMARK Flexibility Score: inf
ROOT
ATOM      1  C   UNL     1       2.085   3.603  -5.770  1.00  0.00     0.074 A 
ATOM      2  C   UNL     1       2.661   3.896  -7.018  1.00  0.00     0.016 A 
ATOM      3  C   UNL     1       2.050   3.480  -8.201  1.00  0.00     0.001 A 
ATOM      4  C   UNL     1       0.855   2.765  -8.156  1.00  0.00     0.001 A 
ATOM      5  C   UNL     1       0.254   2.484  -6.929  1.00  0.00     0.016 A 
ATOM      6  C   UNL     1       0.841   2.915  -5.725  1.00  0.00     0.074 A 
ENDROOT
BRANCH   1   7
ATOM      7  C   UNL     1       2.840   3.974  -4.552  1.00  0.00     0.339 C 
ATOM      8  O   UNL     1       2.923   5.183  -4.199  1.00  0.00    -0.246 OA
BRANCH   7   9
ATOM      9  O   UNL     1       3.414   2.968  -3.766  1.00  0.00    -0.462 OA
BRANCH   9  10
ATOM     10  C   UNL     1       4.464   2.117  -4.223  1.00  0.00     0.236 C 
BRANCH  10  11
ATOM     11  C   UNL     1       4.579   0.854  -3.347  1.00  0.00     0.021 C 
ATOM     12  C   UNL     1       5.609  -0.125  -3.923  1.00  0.00     0.011 C 
ATOM     13  C   UNL     1       3.211   0.174  -3.213  1.00  0.00     0.011 C 
ENDBRANCH  10  11
ENDBRANCH   9  10
ENDBRANCH   7   9
ENDBRANCH   1   7
BRANCH   6  14
ATOM     14  C   UNL     1       0.098   2.684  -4.467  1.00  0.00     0.339 C 
ATOM     15  O   UNL     1       0.067   1.533  -3.950  1.00  0.00    -0.246 OA
BRANCH  14  16
ATOM     16  O   UNL     1      -0.523   3.763  -3.826  1.00  0.00    -0.462 OA
BRANCH  16  17
ATOM     17  C   UNL     1      -1.367   4.697  -4.500  1.00  0.00     0.236 C 
BRANCH  17  18
ATOM     18  C   UNL     1      -2.813   4.176  -4.592  1.00  0.00     0.021 C 
ATOM     19  C   UNL     1      -3.159   3.761  -6.028  1.00  0.00     0.011 C 
ATOM     20  C   UNL     1      -3.796   5.240  -4.093  1.00  0.00     0.011 C 
ENDBRANCH  17  18
ENDBRANCH  16  17
ENDBRANCH  14  16
ENDBRANCH   6  14
TORSDOF 8
ENDMDL
MODEL 2
REMARK VINA RESULT:    -4.478      0.086      5.809
REMARK INTER + INTRA:          -7.713
REMARK INTER:                  -6.561
REMARK INTRA:                  -1.152
REMARK UNBOUND:                -1.141
REMARK SMILES CC(C)COC(=O)c1ccccc1C(=O)OCC(C)C
REMARK SMILES IDX 8 1 9 2 10 3 11 4 12 5 13 6 6 7 7 8 5 9 4 10 2 11 1 12 3 13
REMARK SMILES IDX 14 14 15 15 16 16 17 17 18 18 19 19 20 20
REMARK H PARENT
REMARK Flexibility Score: inf
ROOT
ATOM      1  C   UNL     1       0.885   2.934  -5.653  1.00  0.00     0.074 A 
ATOM      2  C   UNL     1       0.304   2.499  -6.857  1.00  0.00     0.016 A 
ATOM      3  C   UNL     1       0.896   2.800  -8.084  1.00  0.00     0.001 A 
ATOM      4  C   UNL     1       2.075   3.540  -8.128  1.00  0.00     0.001 A 
ATOM      5  C   UNL     1       2.680   3.962  -6.944  1.00  0.00     0.016 A 
ATOM      6  C   UNL     1       2.114   3.650  -5.696  1.00  0.00     0.074 A 
ENDROOT
BRANCH   1   7
ATOM      7  C   UNL     1       0.150   2.679  -4.394  1.00  0.00     0.339 C 
ATOM      8  O   UNL     1       0.147   1.526  -3.882  1.00  0.00    -0.246 OA
BRANCH   7   9
ATOM      9  O   UNL     1      -0.497   3.739  -3.749  1.00  0.00    -0.462 OA
BRANCH   9  10
ATOM     10  C   UNL     1      -1.327   4.683  -4.426  1.00  0.00     0.236 C 
BRANCH  10  11
ATOM     11  C   UNL     1      -2.772   4.164  -4.553  1.00  0.00     0.021 C 
ATOM     12  C   UNL     1      -3.092   3.773  -6.002  1.00  0.00     0.011 C 
ATOM     13  C   UNL     1      -3.763   5.222  -4.054  1.00  0.00     0.011 C 
ENDBRANCH  10  11
ENDBRANCH   9  10
ENDBRANCH   7   9
ENDBRANCH   1   7
BRANCH   6  14
ATOM     14  C   UNL     1       2.863   4.028  -4.478  1.00  0.00     0.339 C 
ATOM     15  O   UNL     1       2.890   5.231  -4.097  1.00  0.00    -0.246 OA
BRANCH  14  16
ATOM     16  O   UNL     1       3.494   3.034  -3.720  1.00  0.00    -0.462 OA
BRANCH  16  17
ATOM     17  C   UNL     1       4.439   2.113  -4.264  1.00  0.00     0.236 C 
BRANCH  17  18
ATOM     18  C   UNL     1       4.612   0.886  -3.349  1.00  0.00     0.021 C 
ATOM     19  C   UNL     1       5.639  -0.094  -3.929  1.00  0.00     0.011 C 
ATOM     20  C   UNL     1       3.267   0.185  -3.137  1.00  0.00     0.011 C 
ENDBRANCH  17  18
ENDBRANCH  16  17
ENDBRANCH  14  16
ENDBRANCH   6  14
TORSDOF 8
ENDMDL
MODEL 3
REMARK VINA RESULT:    -4.139      1.733      5.161
REMARK INTER + INTRA:          -7.216
REMARK INTER:                  -5.568
REMARK INTRA:                  -1.647
REMARK UNBOUND:                -1.141
REMARK SMILES CC(C)COC(=O)c1ccccc1C(=O)OCC(C)C
REMARK SMILES IDX 8 1 9 2 10 3 11 4 12 5 13 6 6 7 7 8 5 9 4 10 2 11 1 12 3 13
REMARK SMILES IDX 14 14 15 15 16 16 17 17 18 18 19 19 20 20
REMARK H PARENT
REMARK Flexibility Score: inf
ROOT
ATOM      1  C   UNL     1       0.644   2.867  -5.809  1.00  0.00     0.074 A 
ATOM      2  C   UNL     1       0.038   2.502  -7.023  1.00  0.00     0.016 A 
ATOM      3  C   UNL     1       0.655   2.785  -8.242  1.00  0.00     0.001 A 
ATOM      4  C   UNL     1       1.885   3.437  -8.267  1.00  0.00     0.001 A 
ATOM      5  C   UNL     1       2.515   3.788  -7.073  1.00  0.00     0.016 A 
ATOM      6  C   UNL     1       1.922   3.491  -5.833  1.00  0.00     0.074 A 
ENDROOT
BRANCH   1   7
ATOM      7  C   UNL     1      -0.113   2.640  -4.558  1.00  0.00     0.339 C 
ATOM      8  O   UNL     1      -0.231   1.475  -4.089  1.00  0.00    -0.246 OA
BRANCH   7   9
ATOM      9  O   UNL     1      -0.650   3.735  -3.871  1.00  0.00    -0.462 OA
BRANCH   9  10
ATOM     10  C   UNL     1      -1.471   4.726  -4.490  1.00  0.00     0.236 C 
BRANCH  10  11
ATOM     11  C   UNL     1      -2.928   4.242  -4.617  1.00  0.00     0.021 C 
ATOM     12  C   UNL     1      -3.266   3.884  -6.069  1.00  0.00     0.011 C 
ATOM     13  C   UNL     1      -3.892   5.312  -4.092  1.00  0.00     0.011 C 
ENDBRANCH  10  11
ENDBRANCH   9  10
ENDBRANCH   7   9
ENDBRANCH   1   7
BRANCH   6  14
ATOM     14  C   UNL     1       2.692   3.788  -4.605  1.00  0.00     0.339 C 
ATOM     15  O   UNL     1       3.174   2.848  -3.914  1.00  0.00    -0.246 OA
BRANCH  14  16
ATOM     16  O   UNL     1       2.929   5.121  -4.247  1.00  0.00    -0.462 OA
BRANCH  16  17
ATOM     17  C   UNL     1       1.901   6.108  -4.167  1.00  0.00     0.236 C 
BRANCH  17  18
ATOM     18  C   UNL     1       2.104   7.211  -5.223  1.00  0.00     0.021 C 
ATOM     19  C   UNL     1       1.063   7.100  -6.343  1.00  0.00     0.011 C 
ATOM     20  C   UNL     1       3.520   7.139  -5.802  1.00  0.00     0.011 C 
ENDBRANCH  17  18
ENDBRANCH  16  17
ENDBRANCH  14  16
ENDBRANCH   6  14
TORSDOF 8
ENDMDL
MODEL 4
REMARK VINA RESULT:    -4.086      1.628      2.084
REMARK INTER + INTRA:          -7.138
REMARK INTER:                  -5.502
REMARK INTRA:                  -1.636
REMARK UNBOUND:                -1.141
REMARK SMILES CC(C)COC(=O)c1ccccc1C(=O)OCC(C)C
REMARK SMILES IDX 8 1 9 2 10 3 11 4 12 5 13 6 6 7 7 8 5 9 4 10 2 11 1 12 3 13
REMARK SMILES IDX 14 14 15 15 16 16 17 17 18 18 19 19 20 20
REMARK H PARENT
REMARK Flexibility Score: inf
ROOT
ATOM      1  C   UNL     1       0.713   3.373  -5.805  1.00  0.00     0.074 A 
ATOM      2  C   UNL     1       1.813   3.575  -6.656  1.00  0.00     0.016 A 
ATOM      3  C   UNL     1       1.721   3.288  -8.019  1.00  0.00     0.001 A 
ATOM      4  C   UNL     1       0.532   2.796  -8.551  1.00  0.00     0.001 A 
ATOM      5  C   UNL     1      -0.578   2.609  -7.728  1.00  0.00     0.016 A 
ATOM      6  C   UNL     1      -0.515   2.914  -6.356  1.00  0.00     0.074 A 
ENDROOT
BRANCH   1   7
ATOM      7  C   UNL     1       0.909   3.588  -4.353  1.00  0.00     0.339 C 
ATOM      8  O   UNL     1       0.922   4.758  -3.881  1.00  0.00    -0.246 OA
BRANCH   7   9
ATOM      9  O   UNL     1       1.025   2.483  -3.503  1.00  0.00    -0.462 OA
BRANCH   9  10
ATOM     10  C   UNL     1       1.801   1.327  -3.818  1.00  0.00     0.236 C 
BRANCH  10  11
ATOM     11  C   UNL     1       3.236   1.454  -3.269  1.00  0.00     0.021 C 
ATOM     12  C   UNL     1       4.137   2.212  -4.252  1.00  0.00     0.011 C 
ATOM     13  C   UNL     1       3.817   0.067  -2.973  1.00  0.00     0.011 C 
ENDBRANCH  10  11
ENDBRANCH   9  10
ENDBRANCH   7   9
ENDBRANCH   1   7
BRANCH   6  14
ATOM     14  C   UNL     1      -1.758   2.802  -5.561  1.00  0.00     0.339 C 
ATOM     15  O   UNL     1      -1.948   1.801  -4.816  1.00  0.00    -0.246 OA
BRANCH  14  16
ATOM     16  O   UNL     1      -2.696   3.841  -5.599  1.00  0.00    -0.462 OA
BRANCH  16  17
ATOM     17  C   UNL     1      -2.444   5.146  -5.078  1.00  0.00     0.236 C 
BRANCH  17  18
ATOM     18  C   UNL     1      -2.327   6.184  -6.210  1.00  0.00     0.021 C 
ATOM     19  C   UNL     1      -2.852   5.618  -7.535  1.00  0.00     0.011 C 
ATOM     20  C   UNL     1      -0.873   6.642  -6.365  1.00  0.00     0.011 C 
ENDBRANCH  17  18
ENDBRANCH  16  17
ENDBRANCH  14  16
ENDBRANCH   6  14
TORSDOF 8
ENDMDL
MODEL 5
REMARK VINA RESULT:    -4.055      1.181      3.911
REMARK INTER + INTRA:          -7.093
REMARK INTER:                  -5.811
REMARK INTRA:                  -1.282
REMARK UNBOUND:                -1.141
REMARK SMILES CC(C)COC(=O)c1ccccc1C(=O)OCC(C)C
REMARK SMILES IDX 8 1 9 2 10 3 11 4 12 5 13 6 6 7 7 8 5 9 4 10 2 11 1 12 3 13
REMARK SMILES IDX 14 14 15 15 16 16 17 17 18 18 19 19 20 20
REMARK H PARENT
REMARK Flexibility Score: inf
ROOT
ATOM      1  C   UNL     1       2.849   2.938  -4.378  1.00  0.00     0.074 A 
ATOM      2  C   UNL     1       4.127   2.453  -4.055  1.00  0.00     0.016 A 
ATOM      3  C   UNL     1       4.283   1.213  -3.433  1.00  0.00     0.001 A 
ATOM      4  C   UNL     1       3.166   0.441  -3.125  1.00  0.00     0.001 A 
ATOM      5  C   UNL     1       1.889   0.893  -3.458  1.00  0.00     0.016 A 
ATOM      6  C   UNL     1       1.711   2.129  -4.106  1.00  0.00     0.074 A 
ENDROOT
BRANCH   1   7
ATOM      7  C   UNL     1       2.745   4.306  -4.933  1.00  0.00     0.339 C 
ATOM      8  O   UNL     1       2.423   5.272  -4.186  1.00  0.00    -0.246 OA
BRANCH   7   9
ATOM      9  O   UNL     1       3.059   4.529  -6.278  1.00  0.00    -0.462 OA
BRANCH   9  10
ATOM     10  C   UNL     1       2.377   3.894  -7.360  1.00  0.00     0.236 C 
BRANCH  10  11
ATOM     11  C   UNL     1       0.950   4.452  -7.522  1.00  0.00     0.021 C 
ATOM     12  C   UNL     1       0.202   3.734  -8.652  1.00  0.00     0.011 C 
ATOM     13  C   UNL     1       0.995   5.961  -7.786  1.00  0.00     0.011 C 
ENDBRANCH  10  11
ENDBRANCH   9  10
ENDBRANCH   7   9
ENDBRANCH   1   7
BRANCH   6  14
ATOM     14  C   UNL     1       0.344   2.500  -4.532  1.00  0.00     0.339 C 
ATOM     15  O   UNL     1      -0.169   1.969  -5.556  1.00  0.00    -0.246 OA
BRANCH  14  16
ATOM     16  O   UNL     1      -0.397   3.402  -3.758  1.00  0.00    -0.462 OA
BRANCH  16  17
ATOM     17  C   UNL     1      -1.091   4.523  -4.307  1.00  0.00     0.236 C 
BRANCH  17  18
ATOM     18  C   UNL     1      -2.548   4.162  -4.652  1.00  0.00     0.021 C 
ATOM     19  C   UNL     1      -2.766   4.142  -6.170  1.00  0.00     0.011 C 
ATOM     20  C   UNL     1      -3.513   5.150  -3.988  1.00  0.00     0.011 C 
ENDBRANCH  17  18
ENDBRANCH  16  17
ENDBRANCH  14  16
ENDBRANCH   6  14
TORSDOF 8
ENDMDL
MODEL 6
REMARK VINA RESULT:    -4.045      1.418      5.564
REMARK INTER + INTRA:          -7.079
REMARK INTER:                  -5.018
REMARK INTRA:                  -2.060
REMARK UNBOUND:                -1.141
REMARK SMILES CC(C)COC(=O)c1ccccc1C(=O)OCC(C)C
REMARK SMILES IDX 8 1 9 2 10 3 11 4 12 5 13 6 6 7 7 8 5 9 4 10 2 11 1 12 3 13
REMARK SMILES IDX 14 14 15 15 16 16 17 17 18 18 19 19 20 20
REMARK H PARENT
REMARK Flexibility Score: inf
ROOT
ATOM      1  C   UNL     1       0.516   3.012  -6.121  1.00  0.00     0.074 A 
ATOM      2  C   UNL     1       0.376   2.409  -7.383  1.00  0.00     0.016 A 
ATOM      3  C   UNL     1       0.848   3.044  -8.533  1.00  0.00     0.001 A 
ATOM      4  C   UNL     1       1.464   4.289  -8.440  1.00  0.00     0.001 A 
ATOM      5  C   UNL     1       1.634   4.895  -7.195  1.00  0.00     0.016 A 
ATOM      6  C   UNL     1       1.187   4.262  -6.021  1.00  0.00     0.074 A 
ENDROOT
BRANCH   1   7
ATOM      7  C   UNL     1      -0.104   2.340  -4.957  1.00  0.00     0.339 C 
ATOM      8  O   UNL     1       0.612   1.712  -4.130  1.00  0.00    -0.246 OA
BRANCH   7   9
ATOM      9  O   UNL     1      -1.484   2.454  -4.753  1.00  0.00    -0.462 OA
BRANCH   9  10
ATOM     10  C   UNL     1      -2.146   3.698  -4.532  1.00  0.00     0.236 C 
BRANCH  10  11
ATOM     11  C   UNL     1      -3.032   4.079  -5.734  1.00  0.00     0.021 C 
ATOM     12  C   UNL     1      -3.262   2.873  -6.653  1.00  0.00     0.011 C 
ATOM     13  C   UNL     1      -2.398   5.235  -6.517  1.00  0.00     0.011 C 
ENDBRANCH  10  11
ENDBRANCH   9  10
ENDBRANCH   7   9
ENDBRANCH   1   7
BRANCH   6  14
ATOM     14  C   UNL     1       1.497   4.903  -4.725  1.00  0.00     0.339 C 
ATOM     15  O   UNL     1       0.730   5.788  -4.254  1.00  0.00    -0.246 OA
BRANCH  14  16
ATOM     16  O   UNL     1       2.618   4.482  -3.998  1.00  0.00    -0.462 OA
BRANCH  16  17
ATOM     17  C   UNL     1       3.960   4.801  -4.368  1.00  0.00     0.236 C 
BRANCH  17  18
ATOM     18  C   UNL     1       4.735   3.540  -4.794  1.00  0.00     0.021 C 
ATOM     19  C   UNL     1       4.899   3.482  -6.318  1.00  0.00     0.011 C 
ATOM     20  C   UNL     1       4.025   2.281  -4.286  1.00  0.00     0.011 C 
ENDBRANCH  17  18
ENDBRANCH  16  17
ENDBRANCH  14  16
ENDBRANCH   6  14
TORSDOF 8
ENDMDL
MODEL 7
REMARK VINA RESULT:    -4.032      2.225      4.934
REMARK INTER + INTRA:          -7.059
REMARK INTER:                  -5.247
REMARK INTRA:                  -1.812
REMARK UNBOUND:                -1.141
REMARK SMILES CC(C)COC(=O)c1ccccc1C(=O)OCC(C)C
REMARK SMILES IDX 8 1 9 2 10 3 11 4 12 5 13 6 6 7 7 8 5 9 4 10 2 11 1 12 3 13
REMARK SMILES IDX 14 14 15 15 16 16 17 17 18 18 19 19 20 20
REMARK H PARENT
REMARK Flexibility Score: inf
ROOT
ATOM      1  C   UNL     1       0.322   2.789  -6.094  1.00  0.00     0.074 A 
ATOM      2  C   UNL     1       0.009   2.373  -7.399  1.00  0.00     0.016 A 
ATOM      3  C   UNL     1       0.656   2.934  -8.501  1.00  0.00     0.001 A 
ATOM      4  C   UNL     1       1.623   3.919  -8.316  1.00  0.00     0.001 A 
ATOM      5  C   UNL     1       1.965   4.331  -7.028  1.00  0.00     0.016 A 
ATOM      6  C   UNL     1       1.343   3.761  -5.902  1.00  0.00     0.074 A 
ENDROOT
BRANCH   1   7
ATOM      7  C   UNL     1      -0.478   2.237  -4.977  1.00  0.00     0.339 C 
ATOM      8  O   UNL     1       0.063   1.487  -4.118  1.00  0.00    -0.246 OA
BRANCH   7   9
ATOM      9  O   UNL     1      -1.825   2.596  -4.853  1.00  0.00    -0.462 OA
BRANCH   9  10
ATOM     10  C   UNL     1      -2.258   3.869  -4.374  1.00  0.00     0.236 C 
BRANCH  10  11
ATOM     11  C   UNL     1      -3.363   4.456  -5.274  1.00  0.00     0.021 C 
ATOM     12  C   UNL     1      -2.835   4.728  -6.688  1.00  0.00     0.011 C 
ATOM     13  C   UNL     1      -3.925   5.741  -4.656  1.00  0.00     0.011 C 
ENDBRANCH  10  11
ENDBRANCH   9  10
ENDBRANCH   7   9
ENDBRANCH   1   7
BRANCH   6  14
ATOM     14  C   UNL     1       1.829   4.159  -4.563  1.00  0.00     0.339 C 
ATOM     15  O   UNL     1       2.956   3.766  -4.154  1.00  0.00    -0.246 OA
BRANCH  14  16
ATOM     16  O   UNL     1       1.053   5.020  -3.777  1.00  0.00    -0.462 OA
BRANCH  16  17
ATOM     17  C   UNL     1       1.013   6.435  -3.966  1.00  0.00     0.236 C 
BRANCH  17  18
ATOM     18  C   UNL     1      -0.334   6.879  -4.566  1.00  0.00     0.021 C 
ATOM     19  C   UNL     1      -0.181   7.258  -6.044  1.00  0.00     0.011 C 
ATOM     20  C   UNL     1      -0.909   8.055  -3.771  1.00  0.00     0.011 C 
ENDBRANCH  17  18
ENDBRANCH  16  17
ENDBRANCH  14  16
ENDBRANCH   6  14
TORSDOF 8
ENDMDL
MODEL 8
REMARK VINA RESULT:    -4.020      2.156      3.726
REMARK INTER + INTRA:          -7.041
REMARK INTER:                  -5.250
REMARK INTRA:                  -1.791
REMARK UNBOUND:                -1.141
REMARK SMILES CC(C)COC(=O)c1ccccc1C(=O)OCC(C)C
REMARK SMILES IDX 8 1 9 2 10 3 11 4 12 5 13 6 6 7 7 8 5 9 4 10 2 11 1 12 3 13
REMARK SMILES IDX 14 14 15 15 16 16 17 17 18 18 19 19 20 20
REMARK H PARENT
REMARK Flexibility Score: inf
ROOT
ATOM      1  C   UNL     1       1.384   3.681  -5.873  1.00  0.00     0.074 A 
ATOM      2  C   UNL     1       1.997   4.233  -7.011  1.00  0.00     0.016 A 
ATOM      3  C   UNL     1       1.602   3.847  -8.292  1.00  0.00     0.001 A 
ATOM      4  C   UNL     1       0.590   2.904  -8.456  1.00  0.00     0.001 A 
ATOM      5  C   UNL     1      -0.047   2.360  -7.341  1.00  0.00     0.016 A 
ATOM      6  C   UNL     1       0.319   2.753  -6.041  1.00  0.00     0.074 A 
ENDROOT
BRANCH   1   7
ATOM      7  C   UNL     1       1.925   4.048  -4.545  1.00  0.00     0.339 C 
ATOM      8  O   UNL     1       3.020   3.561  -4.148  1.00  0.00    -0.246 OA
BRANCH   7   9
ATOM      9  O   UNL     1       1.240   4.979  -3.757  1.00  0.00    -0.462 OA
BRANCH   9  10
ATOM     10  C   UNL     1       1.204   6.377  -4.045  1.00  0.00     0.236 C 
BRANCH  10  11
ATOM     11  C   UNL     1      -0.128   6.773  -4.712  1.00  0.00     0.021 C 
ATOM     12  C   UNL     1       0.114   7.435  -6.074  1.00  0.00     0.011 C 
ATOM     13  C   UNL     1      -0.923   7.712  -3.796  1.00  0.00     0.011 C 
ENDBRANCH  10  11
ENDBRANCH   9  10
ENDBRANCH   7   9
ENDBRANCH   1   7
BRANCH   6  14
ATOM     14  C   UNL     1      -0.470   2.225  -4.907  1.00  0.00     0.339 C 
ATOM     15  O   UNL     1       0.069   1.460  -4.059  1.00  0.00    -0.246 OA
BRANCH  14  16
ATOM     16  O   UNL     1      -1.803   2.624  -4.750  1.00  0.00    -0.462 OA
BRANCH  16  17
ATOM     17  C   UNL     1      -2.187   3.945  -4.366  1.00  0.00     0.236 C 
BRANCH  17  18
ATOM     18  C   UNL     1      -3.299   4.489  -5.282  1.00  0.00     0.021 C 
ATOM     19  C   UNL     1      -2.723   4.993  -6.611  1.00  0.00     0.011 C 
ATOM     20  C   UNL     1      -4.069   5.610  -4.576  1.00  0.00     0.011 C 
ENDBRANCH  17  18
ENDBRANCH  16  17
ENDBRANCH  14  16
ENDBRANCH   6  14
TORSDOF 8
ENDMDL
MODEL 9
REMARK VINA RESULT:    -4.004      1.265      5.537
REMARK INTER + INTRA:          -7.017
REMARK INTER:                  -5.988
REMARK INTRA:                  -1.029
REMARK UNBOUND:                -1.141
REMARK SMILES CC(C)COC(=O)c1ccccc1C(=O)OCC(C)C
REMARK SMILES IDX 8 1 9 2 10 3 11 4 12 5 13 6 6 7 7 8 5 9 4 10 2 11 1 12 3 13
REMARK SMILES IDX 14 14 15 15 16 16 17 17 18 18 19 19 20 20
REMARK H PARENT
REMARK Flexibility Score: inf
ROOT
ATOM      1  C   UNL     1       1.393   2.145  -3.985  1.00  0.00     0.074 A 
ATOM      2  C   UNL     1       1.829   0.940  -3.409  1.00  0.00     0.016 A 
ATOM      3  C   UNL     1       3.190   0.638  -3.334  1.00  0.00     0.001 A 
ATOM      4  C   UNL     1       4.133   1.533  -3.833  1.00  0.00     0.001 A 
ATOM      5  C   UNL     1       3.722   2.745  -4.388  1.00  0.00     0.016 A 
ATOM      6  C   UNL     1       2.357   3.080  -4.452  1.00  0.00     0.074 A 
ENDROOT
BRANCH   1   7
ATOM      7  C   UNL     1      -0.065   2.355  -4.136  1.00  0.00     0.339 C 
ATOM      8  O   UNL     1      -0.806   1.410  -4.526  1.00  0.00    -0.246 OA
BRANCH   7   9
ATOM      9  O   UNL     1      -0.621   3.592  -3.792  1.00  0.00    -0.462 OA
BRANCH   9  10
ATOM     10  C   UNL     1      -1.923   4.010  -4.200  1.00  0.00     0.236 C 
BRANCH  10  11
ATOM     11  C   UNL     1      -1.968   4.290  -5.715  1.00  0.00     0.021 C 
ATOM     12  C   UNL     1      -2.076   5.794  -5.994  1.00  0.00     0.011 C 
ATOM     13  C   UNL     1      -3.140   3.542  -6.360  1.00  0.00     0.011 C 
ENDBRANCH  10  11
ENDBRANCH   9  10
ENDBRANCH   7   9
ENDBRANCH   1   7
BRANCH   6  14
ATOM     14  C   UNL     1       1.994   4.425  -4.948  1.00  0.00     0.339 C 
ATOM     15  O   UNL     1       2.218   5.446  -4.240  1.00  0.00    -0.246 OA
BRANCH  14  16
ATOM     16  O   UNL     1       1.452   4.563  -6.232  1.00  0.00    -0.462 OA
BRANCH  16  17
ATOM     17  C   UNL     1       2.167   4.240  -7.426  1.00  0.00     0.236 C 
BRANCH  17  18
ATOM     18  C   UNL     1       1.242   3.588  -8.470  1.00  0.00     0.021 C 
ATOM     19  C   UNL     1       0.380   2.489  -7.834  1.00  0.00     0.011 C 
ATOM     20  C   UNL     1       2.065   3.016  -9.628  1.00  0.00     0.011 C 
ENDBRANCH  17  18
ENDBRANCH  16  17
ENDBRANCH  14  16
ENDBRANCH   6  14
TORSDOF 8
ENDMDL
