MODEL 1
REMARK VINA RESULT:     8.471      0.000      0.000
REMARK INTER + INTRA:           9.845
REMARK INTER:                   9.461
REMARK INTRA:                   0.384
REMARK UNBOUND:                 0.384
REMARK SMILES C=C(C)[C@H]1CC[C@@]2(C(=O)[O-])CC[C@@]3(C)[C@@H](CC[C@@H]4[C@]5(C)CCC(=O)C(C)(C)[C@@H]5CC[C@]43C)[C@H]12
REMARK SMILES IDX 7 1 6 2 33 3 11 4 5 5 15 6 4 7 12 8 16 9 13 10 17 11 31 12
REMARK SMILES IDX 14 13 18 14 30 15 32 16 19 17 29 18 21 19 20 20 28 21 22 22
REMARK SMILES IDX 25 23 23 24 26 25 27 26 24 27 8 28 9 29 10 30 2 31 3 32 1 33
REMARK H PARENT
REMARK Flexibility Score: inf
ROOT
ATOM      1  C   UNL     1     -23.869  18.826 -33.433  1.00  0.00     0.014 C 
ATOM      2  C   UNL     1     -23.704  20.189 -34.102  1.00  0.00     0.014 C 
ATOM      3  C   UNL     1     -25.328  18.915 -32.926  1.00  0.00     0.012 C 
ATOM      4  C   UNL     1     -22.957  18.563 -32.208  1.00  0.00     0.014 C 
ATOM      5  C   UNL     1     -25.052  20.439 -34.804  1.00  0.00     0.009 C 
ATOM      6  C   UNL     1     -25.743  17.554 -32.308  1.00  0.00     0.000 C 
ATOM      7  C   UNL     1     -26.108  19.551 -34.091  1.00  0.00     0.018 C 
ATOM      8  C   UNL     1     -23.393  17.262 -31.455  1.00  0.00     0.008 C 
ATOM      9  C   UNL     1     -27.234  17.315 -32.083  1.00  0.00     0.005 C 
ATOM     10  C   UNL     1     -24.907  17.225 -31.001  1.00  0.00    -0.024 C 
ATOM     11  C   UNL     1     -27.503  15.803 -31.897  1.00  0.00     0.005 C 
ATOM     12  C   UNL     1     -25.401  15.783 -30.358  1.00  0.00    -0.024 C 
ATOM     13  C   UNL     1     -25.039  18.359 -29.920  1.00  0.00     0.012 C 
ATOM     14  C   UNL     1     -26.259  14.965 -31.410  1.00  0.00     0.002 C 
ATOM     15  C   UNL     1     -24.181  14.909 -29.957  1.00  0.00     0.008 C 
ATOM     16  C   UNL     1     -26.259  15.994 -29.062  1.00  0.00     0.012 C 
ATOM     17  C   UNL     1     -26.589  13.430 -31.088  1.00  0.00    -0.025 C 
ATOM     18  C   UNL     1     -24.546  13.509 -29.459  1.00  0.00     0.006 C 
ATOM     19  C   UNL     1     -27.848  13.255 -30.151  1.00  0.00     0.015 C 
ATOM     20  C   UNL     1     -26.964  12.754 -32.448  1.00  0.00     0.012 C 
ATOM     21  C   UNL     1     -25.293  12.675 -30.531  1.00  0.00     0.008 C 
ATOM     22  C   UNL     1     -27.722  12.165 -29.083  1.00  0.00     0.077 C 
ATOM     23  C   UNL     1     -25.542  11.155 -30.081  1.00  0.00     0.027 C 
ATOM     24  C   UNL     1     -26.974  10.981 -29.611  1.00  0.00     0.138 C 
ATOM     25  C   UNL     1     -25.240  10.179 -31.257  1.00  0.00     0.020 C 
ATOM     26  C   UNL     1     -24.632  10.693 -28.908  1.00  0.00     0.020 C 
ATOM     27  O   UNL     1     -27.499   9.877 -29.595  1.00  0.00    -0.299 OA
ENDROOT
BRANCH   1  28
ATOM     28  C   UNL     1     -23.594  17.757 -34.501  1.00  0.00     0.048 C 
ATOM     29  O   UNL     1     -23.695  16.528 -34.249  1.00  0.00    -0.550 OA
ATOM     30  O   UNL     1     -23.327  18.143 -35.810  1.00  0.00    -0.550 OA
ENDBRANCH   1  28
BRANCH   7  31
ATOM     31  C   UNL     1     -27.332  20.360 -33.652  1.00  0.00    -0.077 C 
ATOM     32  C   UNL     1     -28.716  19.778 -33.787  1.00  0.00     0.039 C 
ATOM     33  C   UNL     1     -27.213  21.624 -33.208  1.00  0.00     0.008 C 
ENDBRANCH   7  31
TORSDOF 2
ENDMDL
MODEL 2
REMARK VINA RESULT:     9.931     10.001     12.222
REMARK INTER + INTRA:          11.476
REMARK INTER:                  11.753
REMARK INTRA:                  -0.277
REMARK UNBOUND:                 0.384
REMARK SMILES C=C(C)[C@H]1CC[C@@]2(C(=O)[O-])CC[C@@]3(C)[C@@H](CC[C@@H]4[C@]5(C)CCC(=O)C(C)(C)[C@@H]5CC[C@]43C)[C@H]12
REMARK SMILES IDX 7 1 6 2 33 3 11 4 5 5 15 6 4 7 12 8 16 9 13 10 17 11 31 12
REMARK SMILES IDX 14 13 18 14 30 15 32 16 19 17 29 18 21 19 20 20 28 21 22 22
REMARK SMILES IDX 25 23 23 24 26 25 27 26 24 27 8 28 9 29 10 30 2 31 3 32 1 33
REMARK H PARENT
REMARK Flexibility Score: inf
ROOT
ATOM      1  C   UNL     1     -12.256  14.732 -32.894  1.00  0.00     0.014 C 
ATOM      2  C   UNL     1     -10.833  15.072 -33.336  1.00  0.00     0.014 C 
ATOM      3  C   UNL     1     -12.156  13.198 -32.715  1.00  0.00     0.012 C 
ATOM      4  C   UNL     1     -13.369  15.017 -33.934  1.00  0.00     0.014 C 
ATOM      5  C   UNL     1      -9.936  14.165 -32.473  1.00  0.00     0.009 C 
ATOM      6  C   UNL     1     -13.493  12.659 -32.141  1.00  0.00     0.000 C 
ATOM      7  C   UNL     1     -10.812  12.975 -31.998  1.00  0.00     0.018 C 
ATOM      8  C   UNL     1     -14.731  14.393 -33.480  1.00  0.00     0.008 C 
ATOM      9  C   UNL     1     -13.482  11.249 -31.555  1.00  0.00     0.005 C 
ATOM     10  C   UNL     1     -14.689  12.844 -33.165  1.00  0.00    -0.024 C 
ATOM     11  C   UNL     1     -14.720  11.044 -30.651  1.00  0.00     0.005 C 
ATOM     12  C   UNL     1     -16.085  12.229 -32.526  1.00  0.00    -0.024 C 
ATOM     13  C   UNL     1     -14.389  12.153 -34.546  1.00  0.00     0.012 C 
ATOM     14  C   UNL     1     -15.934  12.000 -30.966  1.00  0.00     0.002 C 
ATOM     15  C   UNL     1     -17.273  13.205 -32.751  1.00  0.00     0.008 C 
ATOM     16  C   UNL     1     -16.477  10.869 -33.201  1.00  0.00     0.012 C 
ATOM     17  C   UNL     1     -17.255  11.682 -30.115  1.00  0.00    -0.025 C 
ATOM     18  C   UNL     1     -18.581  12.767 -32.091  1.00  0.00     0.006 C 
ATOM     19  C   UNL     1     -17.655  10.156 -30.149  1.00  0.00     0.015 C 
ATOM     20  C   UNL     1     -16.921  12.011 -28.623  1.00  0.00     0.012 C 
ATOM     21  C   UNL     1     -18.456  12.647 -30.550  1.00  0.00     0.008 C 
ATOM     22  C   UNL     1     -19.157   9.875 -30.263  1.00  0.00     0.077 C 
ATOM     23  C   UNL     1     -19.856  12.343 -29.829  1.00  0.00     0.027 C 
ATOM     24  C   UNL     1     -19.949  10.871 -29.475  1.00  0.00     0.138 C 
ATOM     25  C   UNL     1     -20.014  13.215 -28.548  1.00  0.00     0.020 C 
ATOM     26  C   UNL     1     -21.097  12.664 -30.710  1.00  0.00     0.020 C 
ATOM     27  O   UNL     1     -20.712  10.482 -28.602  1.00  0.00    -0.299 OA
ENDROOT
BRANCH   1  28
ATOM     28  C   UNL     1     -12.542  15.539 -31.619  1.00  0.00     0.048 C 
ATOM     29  O   UNL     1     -12.639  16.795 -31.639  1.00  0.00    -0.550 OA
ATOM     30  O   UNL     1     -12.807  14.875 -30.427  1.00  0.00    -0.550 OA
ENDBRANCH   1  28
BRANCH   7  31
ATOM     31  C   UNL     1     -10.160  11.625 -32.306  1.00  0.00    -0.077 C 
ATOM     32  C   UNL     1      -9.876  11.225 -33.732  1.00  0.00     0.039 C 
ATOM     33  C   UNL     1      -9.891  10.738 -31.331  1.00  0.00     0.008 C 
ENDBRANCH   7  31
TORSDOF 2
ENDMDL
MODEL 3
REMARK VINA RESULT:    10.920     10.084     11.962
REMARK INTER + INTRA:          12.581
REMARK INTER:                  11.895
REMARK INTRA:                   0.686
REMARK UNBOUND:                 0.384
REMARK SMILES C=C(C)[C@H]1CC[C@@]2(C(=O)[O-])CC[C@@]3(C)[C@@H](CC[C@@H]4[C@]5(C)CCC(=O)C(C)(C)[C@@H]5CC[C@]43C)[C@H]12
REMARK SMILES IDX 7 1 6 2 33 3 11 4 5 5 15 6 4 7 12 8 16 9 13 10 17 11 31 12
REMARK SMILES IDX 14 13 18 14 30 15 32 16 19 17 29 18 21 19 20 20 28 21 22 22
REMARK SMILES IDX 25 23 23 24 26 25 27 26 24 27 8 28 9 29 10 30 2 31 3 32 1 33
REMARK H PARENT
REMARK Flexibility Score: inf
ROOT
ATOM      1  C   UNL     1     -11.226  12.840 -32.932  1.00  0.00     0.014 C 
ATOM      2  C   UNL     1      -9.888  13.306 -33.503  1.00  0.00     0.014 C 
ATOM      3  C   UNL     1     -11.856  14.187 -32.504  1.00  0.00     0.012 C 
ATOM      4  C   UNL     1     -11.143  11.936 -31.676  1.00  0.00     0.014 C 
ATOM      5  C   UNL     1     -10.225  14.603 -34.263  1.00  0.00     0.009 C 
ATOM      6  C   UNL     1     -13.302  13.943 -31.997  1.00  0.00     0.000 C 
ATOM      7  C   UNL     1     -11.552  15.147 -33.669  1.00  0.00     0.018 C 
ATOM      8  C   UNL     1     -12.557  11.741 -31.032  1.00  0.00     0.008 C 
ATOM      9  C   UNL     1     -14.212  15.162 -31.874  1.00  0.00     0.005 C 
ATOM     10  C   UNL     1     -13.319  13.078 -30.668  1.00  0.00    -0.024 C 
ATOM     11  C   UNL     1     -15.691  14.709 -31.799  1.00  0.00     0.005 C 
ATOM     12  C   UNL     1     -14.875  12.867 -30.147  1.00  0.00    -0.024 C 
ATOM     13  C   UNL     1     -12.463  13.740 -29.527  1.00  0.00     0.012 C 
ATOM     14  C   UNL     1     -15.904  13.231 -31.296  1.00  0.00     0.002 C 
ATOM     15  C   UNL     1     -15.125  11.391 -29.734  1.00  0.00     0.008 C 
ATOM     16  C   UNL     1     -15.186  13.753 -28.891  1.00  0.00     0.012 C 
ATOM     17  C   UNL     1     -17.442  12.825 -31.092  1.00  0.00    -0.025 C 
ATOM     18  C   UNL     1     -16.572  11.081 -29.347  1.00  0.00     0.006 C 
ATOM     19  C   UNL     1     -18.248  13.881 -30.240  1.00  0.00     0.015 C 
ATOM     20  C   UNL     1     -18.099  12.817 -32.511  1.00  0.00     0.012 C 
ATOM     21  C   UNL     1     -17.564  11.339 -30.510  1.00  0.00     0.008 C 
ATOM     22  C   UNL     1     -19.244  13.291 -29.237  1.00  0.00     0.077 C 
ATOM     23  C   UNL     1     -19.061  10.870 -30.172  1.00  0.00     0.027 C 
ATOM     24  C   UNL     1     -19.907  12.072 -29.797  1.00  0.00     0.138 C 
ATOM     25  C   UNL     1     -19.691  10.128 -31.389  1.00  0.00     0.020 C 
ATOM     26  C   UNL     1     -19.151   9.876 -28.981  1.00  0.00     0.020 C 
ATOM     27  O   UNL     1     -21.127  12.031 -29.880  1.00  0.00    -0.299 OA
ENDROOT
BRANCH   1  28
ATOM     28  C   UNL     1     -11.959  12.081 -34.048  1.00  0.00     0.048 C 
ATOM     29  O   UNL     1     -11.376  11.215 -34.753  1.00  0.00    -0.550 OA
ATOM     30  O   UNL     1     -13.325  12.268 -34.228  1.00  0.00    -0.550 OA
ENDBRANCH   1  28
BRANCH   7  31
ATOM     31  C   UNL     1     -11.431  16.614 -33.250  1.00  0.00    -0.077 C 
ATOM     32  C   UNL     1     -10.159  17.380 -33.516  1.00  0.00     0.039 C 
ATOM     33  C   UNL     1     -12.417  17.234 -32.576  1.00  0.00     0.008 C 
ENDBRANCH   7  31
TORSDOF 2
ENDMDL
MODEL 4
REMARK VINA RESULT:    11.354      2.382      4.422
REMARK INTER + INTRA:          13.066
REMARK INTER:                  12.765
REMARK INTRA:                   0.301
REMARK UNBOUND:                 0.384
REMARK SMILES C=C(C)[C@H]1CC[C@@]2(C(=O)[O-])CC[C@@]3(C)[C@@H](CC[C@@H]4[C@]5(C)CCC(=O)C(C)(C)[C@@H]5CC[C@]43C)[C@H]12
REMARK SMILES IDX 7 1 6 2 33 3 11 4 5 5 15 6 4 7 12 8 16 9 13 10 17 11 31 12
REMARK SMILES IDX 14 13 18 14 30 15 32 16 19 17 29 18 21 19 20 20 28 21 22 22
REMARK SMILES IDX 25 23 23 24 26 25 27 26 24 27 8 28 9 29 10 30 2 31 3 32 1 33
REMARK H PARENT
REMARK Flexibility Score: inf
ROOT
ATOM      1  C   UNL     1     -29.025  19.577 -33.157  1.00  0.00     0.014 C 
ATOM      2  C   UNL     1     -29.011  20.896 -33.929  1.00  0.00     0.014 C 
ATOM      3  C   UNL     1     -27.646  18.990 -33.541  1.00  0.00     0.012 C 
ATOM      4  C   UNL     1     -30.111  18.558 -33.587  1.00  0.00     0.014 C 
ATOM      5  C   UNL     1     -27.566  21.410 -33.784  1.00  0.00     0.009 C 
ATOM      6  C   UNL     1     -27.407  17.677 -32.749  1.00  0.00     0.000 C 
ATOM      7  C   UNL     1     -26.676  20.182 -33.455  1.00  0.00     0.018 C 
ATOM      8  C   UNL     1     -29.864  17.164 -32.919  1.00  0.00     0.008 C 
ATOM      9  C   UNL     1     -25.978  17.140 -32.706  1.00  0.00     0.005 C 
ATOM     10  C   UNL     1     -28.432  16.543 -33.170  1.00  0.00    -0.024 C 
ATOM     11  C   UNL     1     -25.833  16.124 -31.548  1.00  0.00     0.005 C 
ATOM     12  C   UNL     1     -28.122  15.155 -32.325  1.00  0.00    -0.024 C 
ATOM     13  C   UNL     1     -28.378  16.247 -34.713  1.00  0.00     0.012 C 
ATOM     14  C   UNL     1     -27.182  15.452 -31.085  1.00  0.00     0.002 C 
ATOM     15  C   UNL     1     -29.439  14.530 -31.785  1.00  0.00     0.008 C 
ATOM     16  C   UNL     1     -27.439  14.071 -33.229  1.00  0.00     0.012 C 
ATOM     17  C   UNL     1     -26.996  14.302 -29.983  1.00  0.00    -0.025 C 
ATOM     18  C   UNL     1     -29.235  13.304 -30.894  1.00  0.00     0.006 C 
ATOM     19  C   UNL     1     -25.892  13.246 -30.378  1.00  0.00     0.015 C 
ATOM     20  C   UNL     1     -26.482  15.003 -28.682  1.00  0.00     0.012 C 
ATOM     21  C   UNL     1     -28.401  13.625 -29.627  1.00  0.00     0.008 C 
ATOM     22  C   UNL     1     -26.231  11.789 -30.046  1.00  0.00     0.077 C 
ATOM     23  C   UNL     1     -28.313  12.390 -28.606  1.00  0.00     0.027 C 
ATOM     24  C   UNL     1     -26.973  11.694 -28.749  1.00  0.00     0.138 C 
ATOM     25  C   UNL     1     -28.512  12.876 -27.140  1.00  0.00     0.020 C 
ATOM     26  C   UNL     1     -29.402  11.305 -28.840  1.00  0.00     0.020 C 
ATOM     27  O   UNL     1     -26.525  11.002 -27.846  1.00  0.00    -0.299 OA
ENDROOT
BRANCH   1  28
ATOM     28  C   UNL     1     -29.218  19.920 -31.672  1.00  0.00     0.048 C 
ATOM     29  O   UNL     1     -28.647  20.909 -31.142  1.00  0.00    -0.550 OA
ATOM     30  O   UNL     1     -30.125  19.193 -30.909  1.00  0.00    -0.550 OA
ENDBRANCH   1  28
BRANCH   7  31
ATOM     31  C   UNL     1     -25.475  20.076 -34.398  1.00  0.00    -0.077 C 
ATOM     32  C   UNL     1     -24.072  20.069 -33.847  1.00  0.00     0.039 C 
ATOM     33  C   UNL     1     -25.634  20.060 -35.735  1.00  0.00     0.008 C 
ENDBRANCH   7  31
TORSDOF 2
ENDMDL
