MODEL 1
REMARK VINA RESULT:    -4.160      0.000      0.000
REMARK INTER + INTRA:          -6.641
REMARK INTER:                  -6.349
REMARK INTRA:                  -0.291
REMARK UNBOUND:                -0.291
REMARK SMILES CCCCCCCCCCC(=O)[O-]
REMARK SMILES IDX 7 1 8 2 9 3 10 4 11 5 12 6 13 7 6 8 5 9 4 10 3 11 2 12 1 13
REMARK H PARENT
REMARK Flexibility Score: inf
ROOT
ATOM      1  C   UNL     1       2.804   0.134  57.622  1.00  0.00     0.000 C 
ENDROOT
BRANCH   1   2
ATOM      2  C   UNL     1       1.293   0.016  57.877  1.00  0.00     0.000 C 
BRANCH   2   3
ATOM      3  C   UNL     1       0.683  -1.247  57.245  1.00  0.00     0.006 C 
BRANCH   3   4
ATOM      4  C   UNL     1      -0.433  -1.846  58.112  1.00  0.00     0.053 C 
BRANCH   4   5
ATOM      5  C   UNL     1      -1.793  -1.552  57.554  1.00  0.00     0.041 C 
ATOM      6  O   UNL     1      -2.803  -2.163  57.992  1.00  0.00    -0.550 OA
ATOM      7  O   UNL     1      -1.948  -0.582  56.572  1.00  0.00    -0.550 OA
ENDBRANCH   4   5
ENDBRANCH   3   4
ENDBRANCH   2   3
ENDBRANCH   1   2
BRANCH   1   8
ATOM      8  C   UNL     1       3.291   1.591  57.594  1.00  0.00     0.000 C 
BRANCH   8   9
ATOM      9  C   UNL     1       4.460   1.759  56.612  1.00  0.00    -0.000 C 
BRANCH   9  10
ATOM     10  C   UNL     1       5.624   2.566  57.208  1.00  0.00    -0.000 C 
BRANCH  10  11
ATOM     11  C   UNL     1       6.382   1.795  58.300  1.00  0.00    -0.000 C 
BRANCH  11  12
ATOM     12  C   UNL     1       7.693   2.502  58.659  1.00  0.00    -0.003 C 
ATOM     13  C   UNL     1       8.674   2.473  57.489  1.00  0.00     0.004 C 
ENDBRANCH  11  12
ENDBRANCH  10  11
ENDBRANCH   9  10
ENDBRANCH   8   9
ENDBRANCH   1   8
TORSDOF 9
ENDMDL
MODEL 2
REMARK VINA RESULT:    -3.702     12.394     16.131
REMARK INTER + INTRA:          -5.941
REMARK INTER:                  -5.047
REMARK INTRA:                  -0.893
REMARK UNBOUND:                -0.291
REMARK SMILES CCCCCCCCCCC(=O)[O-]
REMARK SMILES IDX 7 1 8 2 9 3 10 4 11 5 12 6 13 7 6 8 5 9 4 10 3 11 2 12 1 13
REMARK H PARENT
REMARK Flexibility Score: inf
ROOT
ATOM      1  C   UNL     1      -5.069 -10.616  64.867  1.00  0.00     0.000 C 
ENDROOT
BRANCH   1   2
ATOM      2  C   UNL     1      -3.615 -10.653  64.369  1.00  0.00     0.000 C 
BRANCH   2   3
ATOM      3  C   UNL     1      -3.013  -9.248  64.196  1.00  0.00     0.006 C 
BRANCH   3   4
ATOM      4  C   UNL     1      -3.651  -8.223  65.144  1.00  0.00     0.053 C 
BRANCH   4   5
ATOM      5  C   UNL     1      -3.438  -6.817  64.671  1.00  0.00     0.041 C 
ATOM      6  O   UNL     1      -2.311  -6.269  64.801  1.00  0.00    -0.550 OA
ATOM      7  O   UNL     1      -4.474  -6.123  64.060  1.00  0.00    -0.550 OA
ENDBRANCH   4   5
ENDBRANCH   3   4
ENDBRANCH   2   3
ENDBRANCH   1   2
BRANCH   1   8
ATOM      8  C   UNL     1      -5.313 -11.553  66.060  1.00  0.00     0.000 C 
BRANCH   8   9
ATOM      9  C   UNL     1      -4.017 -12.268  66.469  1.00  0.00    -0.000 C 
BRANCH   9  10
ATOM     10  C   UNL     1      -4.097 -13.791  66.288  1.00  0.00    -0.000 C 
BRANCH  10  11
ATOM     11  C   UNL     1      -5.039 -14.203  65.146  1.00  0.00    -0.000 C 
BRANCH  11  12
ATOM     12  C   UNL     1      -4.245 -14.573  63.888  1.00  0.00    -0.003 C 
ATOM     13  C   UNL     1      -4.935 -14.058  62.628  1.00  0.00     0.004 C 
ENDBRANCH  11  12
ENDBRANCH  10  11
ENDBRANCH   9  10
ENDBRANCH   8   9
ENDBRANCH   1   8
TORSDOF 9
ENDMDL
MODEL 3
REMARK VINA RESULT:    -3.669     11.245     12.373
REMARK INTER + INTRA:          -5.891
REMARK INTER:                  -4.627
REMARK INTRA:                  -1.264
REMARK UNBOUND:                -0.291
REMARK SMILES CCCCCCCCCCC(=O)[O-]
REMARK SMILES IDX 7 1 8 2 9 3 10 4 11 5 12 6 13 7 6 8 5 9 4 10 3 11 2 12 1 13
REMARK H PARENT
REMARK Flexibility Score: inf
ROOT
ATOM      1  C   UNL     1       3.460  -2.856  69.219  1.00  0.00     0.000 C 
ENDROOT
BRANCH   1   2
ATOM      2  C   UNL     1       4.104  -1.760  70.083  1.00  0.00     0.000 C 
BRANCH   2   3
ATOM      3  C   UNL     1       4.004  -0.365  69.440  1.00  0.00     0.006 C 
BRANCH   3   4
ATOM      4  C   UNL     1       5.223  -0.043  68.565  1.00  0.00     0.053 C 
BRANCH   4   5
ATOM      5  C   UNL     1       6.040   1.077  69.136  1.00  0.00     0.041 C 
ATOM      6  O   UNL     1       5.524   1.886  69.951  1.00  0.00    -0.550 OA
ATOM      7  O   UNL     1       7.379   1.208  68.791  1.00  0.00    -0.550 OA
ENDBRANCH   4   5
ENDBRANCH   3   4
ENDBRANCH   2   3
ENDBRANCH   1   2
BRANCH   1   8
ATOM      8  C   UNL     1       4.490  -3.645  68.396  1.00  0.00     0.000 C 
BRANCH   8   9
ATOM      9  C   UNL     1       4.337  -3.347  66.897  1.00  0.00    -0.000 C 
BRANCH   9  10
ATOM     10  C   UNL     1       2.986  -2.699  66.555  1.00  0.00    -0.000 C 
BRANCH  10  11
ATOM     11  C   UNL     1       3.103  -1.630  65.459  1.00  0.00    -0.000 C 
BRANCH  11  12
ATOM     12  C   UNL     1       2.553  -0.284  65.946  1.00  0.00    -0.003 C 
ATOM     13  C   UNL     1       1.322  -0.478  66.827  1.00  0.00     0.004 C 
ENDBRANCH  11  12
ENDBRANCH  10  11
ENDBRANCH   9  10
ENDBRANCH   8   9
ENDBRANCH   1   8
TORSDOF 9
ENDMDL
MODEL 4
REMARK VINA RESULT:    -3.641     15.253     16.912
REMARK INTER + INTRA:          -5.848
REMARK INTER:                  -4.806
REMARK INTRA:                  -1.043
REMARK UNBOUND:                -0.291
REMARK SMILES CCCCCCCCCCC(=O)[O-]
REMARK SMILES IDX 7 1 8 2 9 3 10 4 11 5 12 6 13 7 6 8 5 9 4 10 3 11 2 12 1 13
REMARK H PARENT
REMARK Flexibility Score: inf
ROOT
ATOM      1  C   UNL     1      -3.246 -12.992  67.117  1.00  0.00     0.000 C 
ENDROOT
BRANCH   1   2
ATOM      2  C   UNL     1      -4.615 -13.673  66.958  1.00  0.00     0.000 C 
BRANCH   2   3
ATOM      3  C   UNL     1      -4.706 -14.531  65.685  1.00  0.00     0.006 C 
BRANCH   3   4
ATOM      4  C   UNL     1      -5.548 -13.859  64.592  1.00  0.00     0.053 C 
BRANCH   4   5
ATOM      5  C   UNL     1      -4.797 -13.745  63.299  1.00  0.00     0.041 C 
ATOM      6  O   UNL     1      -5.342 -14.090  62.218  1.00  0.00    -0.550 OA
ATOM      7  O   UNL     1      -3.508 -13.230  63.286  1.00  0.00    -0.550 OA
ENDBRANCH   4   5
ENDBRANCH   3   4
ENDBRANCH   2   3
ENDBRANCH   1   2
BRANCH   1   8
ATOM      8  C   UNL     1      -3.334 -11.642  67.844  1.00  0.00     0.000 C 
BRANCH   8   9
ATOM      9  C   UNL     1      -4.037 -10.593  66.970  1.00  0.00    -0.000 C 
BRANCH   9  10
ATOM     10  C   UNL     1      -3.503 -10.568  65.529  1.00  0.00    -0.000 C 
BRANCH  10  11
ATOM     11  C   UNL     1      -4.568 -10.132  64.510  1.00  0.00    -0.000 C 
BRANCH  11  12
ATOM     12  C   UNL     1      -5.890  -9.799  65.210  1.00  0.00    -0.003 C 
ATOM     13  C   UNL     1      -6.416  -8.433  64.776  1.00  0.00     0.004 C 
ENDBRANCH  11  12
ENDBRANCH  10  11
ENDBRANCH   9  10
ENDBRANCH   8   9
ENDBRANCH   1   8
TORSDOF 9
ENDMDL
MODEL 5
REMARK VINA RESULT:    -3.639     15.235     17.733
REMARK INTER + INTRA:          -5.846
REMARK INTER:                  -4.703
REMARK INTRA:                  -1.143
REMARK UNBOUND:                -0.291
REMARK SMILES CCCCCCCCCCC(=O)[O-]
REMARK SMILES IDX 7 1 8 2 9 3 10 4 11 5 12 6 13 7 6 8 5 9 4 10 3 11 2 12 1 13
REMARK H PARENT
REMARK Flexibility Score: inf
ROOT
ATOM      1  C   UNL     1      -6.143 -11.465  67.893  1.00  0.00     0.000 C 
ENDROOT
BRANCH   1   2
ATOM      2  C   UNL     1      -6.868 -10.747  66.744  1.00  0.00     0.000 C 
BRANCH   2   3
ATOM      3  C   UNL     1      -5.958  -9.756  65.997  1.00  0.00     0.006 C 
BRANCH   3   4
ATOM      4  C   UNL     1      -5.235 -10.414  64.814  1.00  0.00     0.053 C 
BRANCH   4   5
ATOM      5  C   UNL     1      -3.771 -10.591  65.083  1.00  0.00     0.041 C 
ATOM      6  O   UNL     1      -2.947 -10.588  64.130  1.00  0.00    -0.550 OA
ATOM      7  O   UNL     1      -3.314 -10.729  66.387  1.00  0.00    -0.550 OA
ENDBRANCH   4   5
ENDBRANCH   3   4
ENDBRANCH   2   3
ENDBRANCH   1   2
BRANCH   1   8
ATOM      8  C   UNL     1      -5.955 -12.967  67.631  1.00  0.00     0.000 C 
BRANCH   8   9
ATOM      9  C   UNL     1      -6.960 -13.470  66.584  1.00  0.00    -0.000 C 
BRANCH   9  10
ATOM     10  C   UNL     1      -6.280 -14.173  65.398  1.00  0.00    -0.000 C 
BRANCH  10  11
ATOM     11  C   UNL     1      -4.746 -14.126  65.483  1.00  0.00    -0.000 C 
BRANCH  11  12
ATOM     12  C   UNL     1      -4.113 -14.498  64.138  1.00  0.00    -0.003 C 
ATOM     13  C   UNL     1      -4.920 -13.933  62.972  1.00  0.00     0.004 C 
ENDBRANCH  11  12
ENDBRANCH  10  11
ENDBRANCH   9  10
ENDBRANCH   8   9
ENDBRANCH   1   8
TORSDOF 9
ENDMDL
MODEL 6
REMARK VINA RESULT:    -3.615     14.342     16.300
REMARK INTER + INTRA:          -5.808
REMARK INTER:                  -4.461
REMARK INTRA:                  -1.347
REMARK UNBOUND:                -0.291
REMARK SMILES CCCCCCCCCCC(=O)[O-]
REMARK SMILES IDX 7 1 8 2 9 3 10 4 11 5 12 6 13 7 6 8 5 9 4 10 3 11 2 12 1 13
REMARK H PARENT
REMARK Flexibility Score: inf
ROOT
ATOM      1  C   UNL     1      -3.383  -9.265  64.605  1.00  0.00     0.000 C 
ENDROOT
BRANCH   1   2
ATOM      2  C   UNL     1      -3.479 -10.777  64.345  1.00  0.00     0.000 C 
BRANCH   2   3
ATOM      3  C   UNL     1      -4.933 -11.270  64.245  1.00  0.00     0.006 C 
BRANCH   3   4
ATOM      4  C   UNL     1      -5.092 -12.710  64.750  1.00  0.00     0.053 C 
BRANCH   4   5
ATOM      5  C   UNL     1      -4.948 -13.710  63.643  1.00  0.00     0.041 C 
ATOM      6  O   UNL     1      -4.265 -14.754  63.816  1.00  0.00    -0.550 OA
ATOM      7  O   UNL     1      -5.592 -13.503  62.430  1.00  0.00    -0.550 OA
ENDBRANCH   4   5
ENDBRANCH   3   4
ENDBRANCH   2   3
ENDBRANCH   1   2
BRANCH   1   8
ATOM      8  C   UNL     1      -4.638  -8.698  65.286  1.00  0.00     0.000 C 
BRANCH   8   9
ATOM      9  C   UNL     1      -4.414  -8.535  66.797  1.00  0.00    -0.000 C 
BRANCH   9  10
ATOM     10  C   UNL     1      -5.475  -9.264  67.636  1.00  0.00    -0.000 C 
BRANCH  10  11
ATOM     11  C   UNL     1      -5.087 -10.719  67.946  1.00  0.00    -0.000 C 
BRANCH  11  12
ATOM     12  C   UNL     1      -3.569 -10.858  68.106  1.00  0.00    -0.003 C 
ATOM     13  C   UNL     1      -3.118 -12.296  67.861  1.00  0.00     0.004 C 
ENDBRANCH  11  12
ENDBRANCH  10  11
ENDBRANCH   9  10
ENDBRANCH   8   9
ENDBRANCH   1   8
TORSDOF 9
ENDMDL
MODEL 7
REMARK VINA RESULT:    -3.592     10.692     11.840
REMARK INTER + INTRA:          -5.774
REMARK INTER:                  -4.649
REMARK INTRA:                  -1.125
REMARK UNBOUND:                -0.291
REMARK SMILES CCCCCCCCCCC(=O)[O-]
REMARK SMILES IDX 7 1 8 2 9 3 10 4 11 5 12 6 13 7 6 8 5 9 4 10 3 11 2 12 1 13
REMARK H PARENT
REMARK Flexibility Score: inf
ROOT
ATOM      1  C   UNL     1       1.944   0.822  66.924  1.00  0.00     0.000 C 
ENDROOT
BRANCH   1   2
ATOM      2  C   UNL     1       3.439   1.171  67.002  1.00  0.00     0.000 C 
BRANCH   2   3
ATOM      3  C   UNL     1       3.979   1.144  68.442  1.00  0.00     0.006 C 
BRANCH   3   4
ATOM      4  C   UNL     1       5.280   0.338  68.557  1.00  0.00     0.053 C 
BRANCH   4   5
ATOM      5  C   UNL     1       6.418   1.182  69.045  1.00  0.00     0.041 C 
ATOM      6  O   UNL     1       7.598   0.744  68.994  1.00  0.00    -0.550 OA
ATOM      7  O   UNL     1       6.180   2.462  69.528  1.00  0.00    -0.550 OA
ENDBRANCH   4   5
ENDBRANCH   3   4
ENDBRANCH   2   3
ENDBRANCH   1   2
BRANCH   1   8
ATOM      8  C   UNL     1       1.651  -0.323  65.942  1.00  0.00     0.000 C 
BRANCH   8   9
ATOM      9  C   UNL     1       2.948  -0.844  65.306  1.00  0.00    -0.000 C 
BRANCH   9  10
ATOM     10  C   UNL     1       3.268  -2.291  65.713  1.00  0.00    -0.000 C 
BRANCH  10  11
ATOM     11  C   UNL     1       2.414  -2.778  66.893  1.00  0.00    -0.000 C 
BRANCH  11  12
ATOM     12  C   UNL     1       3.258  -2.893  68.168  1.00  0.00    -0.003 C 
ATOM     13  C   UNL     1       4.677  -3.357  67.851  1.00  0.00     0.004 C 
ENDBRANCH  11  12
ENDBRANCH  10  11
ENDBRANCH   9  10
ENDBRANCH   8   9
ENDBRANCH   1   8
TORSDOF 9
ENDMDL
MODEL 8
REMARK VINA RESULT:    -3.577     14.776     17.750
REMARK INTER + INTRA:          -5.751
REMARK INTER:                  -4.583
REMARK INTRA:                  -1.168
REMARK UNBOUND:                -0.291
REMARK SMILES CCCCCCCCCCC(=O)[O-]
REMARK SMILES IDX 7 1 8 2 9 3 10 4 11 5 12 6 13 7 6 8 5 9 4 10 3 11 2 12 1 13
REMARK H PARENT
REMARK Flexibility Score: inf
ROOT
ATOM      1  C   UNL     1      -3.133 -13.006  67.871  1.00  0.00     0.000 C 
ENDROOT
BRANCH   1   2
ATOM      2  C   UNL     1      -3.372 -11.543  68.274  1.00  0.00     0.000 C 
BRANCH   2   3
ATOM      3  C   UNL     1      -3.944 -10.697  67.123  1.00  0.00     0.006 C 
BRANCH   3   4
ATOM      4  C   UNL     1      -3.412 -11.146  65.756  1.00  0.00     0.053 C 
BRANCH   4   5
ATOM      5  C   UNL     1      -3.864 -10.234  64.654  1.00  0.00     0.041 C 
ATOM      6  O   UNL     1      -3.018  -9.595  63.974  1.00  0.00    -0.550 OA
ATOM      7  O   UNL     1      -5.215 -10.114  64.360  1.00  0.00    -0.550 OA
ENDBRANCH   4   5
ENDBRANCH   3   4
ENDBRANCH   2   3
ENDBRANCH   1   2
BRANCH   1   8
ATOM      8  C   UNL     1      -4.161 -13.968  68.486  1.00  0.00     0.000 C 
BRANCH   8   9
ATOM      9  C   UNL     1      -4.927 -14.725  67.391  1.00  0.00    -0.000 C 
BRANCH   9  10
ATOM     10  C   UNL     1      -5.952 -13.841  66.665  1.00  0.00    -0.000 C 
BRANCH  10  11
ATOM     11  C   UNL     1      -5.957 -14.066  65.145  1.00  0.00    -0.000 C 
BRANCH  11  12
ATOM     12  C   UNL     1      -4.561 -14.450  64.644  1.00  0.00    -0.003 C 
ATOM     13  C   UNL     1      -4.250 -13.782  63.307  1.00  0.00     0.004 C 
ENDBRANCH  11  12
ENDBRANCH  10  11
ENDBRANCH   9  10
ENDBRANCH   8   9
ENDBRANCH   1   8
TORSDOF 9
ENDMDL
MODEL 9
REMARK VINA RESULT:    -3.516     12.014     13.138
REMARK INTER + INTRA:          -5.657
REMARK INTER:                  -4.394
REMARK INTRA:                  -1.264
REMARK UNBOUND:                -0.291
REMARK SMILES CCCCCCCCCCC(=O)[O-]
REMARK SMILES IDX 7 1 8 2 9 3 10 4 11 5 12 6 13 7 6 8 5 9 4 10 3 11 2 12 1 13
REMARK H PARENT
REMARK Flexibility Score: inf
ROOT
ATOM      1  C   UNL     1       4.505  -1.733  68.153  1.00  0.00     0.000 C 
ENDROOT
BRANCH   1   2
ATOM      2  C   UNL     1       3.881  -1.463  69.531  1.00  0.00     0.000 C 
BRANCH   2   3
ATOM      3  C   UNL     1       3.282  -2.729  70.168  1.00  0.00     0.006 C 
BRANCH   3   4
ATOM      4  C   UNL     1       3.880  -3.020  71.551  1.00  0.00     0.053 C 
BRANCH   4   5
ATOM      5  C   UNL     1       4.947  -4.071  71.487  1.00  0.00     0.041 C 
ATOM      6  O   UNL     1       4.867  -5.005  70.646  1.00  0.00    -0.550 OA
ATOM      7  O   UNL     1       6.044  -4.002  72.337  1.00  0.00    -0.550 OA
ENDBRANCH   4   5
ENDBRANCH   3   4
ENDBRANCH   2   3
ENDBRANCH   1   2
BRANCH   1   8
ATOM      8  C   UNL     1       4.384  -3.202  67.722  1.00  0.00     0.000 C 
BRANCH   8   9
ATOM      9  C   UNL     1       3.851  -3.309  66.285  1.00  0.00    -0.000 C 
BRANCH   9  10
ATOM     10  C   UNL     1       2.513  -2.578  66.093  1.00  0.00    -0.000 C 
BRANCH  10  11
ATOM     11  C   UNL     1       1.341  -3.298  66.780  1.00  0.00    -0.000 C 
BRANCH  11  12
ATOM     12  C   UNL     1       0.530  -2.324  67.642  1.00  0.00    -0.003 C 
ATOM     13  C   UNL     1       0.850  -0.874  67.286  1.00  0.00     0.004 C 
ENDBRANCH  11  12
ENDBRANCH  10  11
ENDBRANCH   9  10
ENDBRANCH   8   9
ENDBRANCH   1   8
TORSDOF 9
ENDMDL
