MODEL 1
REMARK VINA RESULT:    -4.646      0.000      0.000
REMARK INTER + INTRA:         -16.281
REMARK INTER:                 -11.706
REMARK INTRA:                  -4.574
REMARK UNBOUND:                -4.574
REMARK SMILES CCCCCCCCCCCCCCCCCCCCCCCCCCCC(=O)[O-]
REMARK SMILES IDX 15 1 16 2 17 3 18 4 19 5 20 6 21 7 22 8 23 9 24 10 25 11
REMARK SMILES IDX 26 12 27 13 28 14 29 15 30 16 14 17 13 18 12 19 11 20 10 21
REMARK SMILES IDX 9 22 8 23 7 24 6 25 5 26 4 27 3 28 2 29 1 30
REMARK H PARENT
REMARK Flexibility Score: inf
ROOT
ATOM      1  C   UNL     1     126.582 142.784 137.859  1.00  0.00     0.000 C 
ENDROOT
BRANCH   1   2
ATOM      2  C   UNL     1     126.187 143.812 138.929  1.00  0.00     0.000 C 
BRANCH   2   3
ATOM      3  C   UNL     1     127.029 143.694 140.215  1.00  0.00     0.000 C 
BRANCH   3   4
ATOM      4  C   UNL     1     127.955 142.465 140.281  1.00  0.00     0.000 C 
BRANCH   4   5
ATOM      5  C   UNL     1     128.991 142.479 141.422  1.00  0.00     0.000 C 
BRANCH   5   6
ATOM      6  C   UNL     1     129.214 141.104 142.087  1.00  0.00     0.000 C 
BRANCH   6   7
ATOM      7  C   UNL     1     128.336 139.996 141.479  1.00  0.00     0.000 C 
BRANCH   7   8
ATOM      8  C   UNL     1     129.089 138.667 141.314  1.00  0.00     0.000 C 
BRANCH   8   9
ATOM      9  C   UNL     1     128.147 137.456 141.226  1.00  0.00     0.000 C 
BRANCH   9  10
ATOM     10  C   UNL     1     128.927 136.181 140.882  1.00  0.00     0.000 C 
BRANCH  10  11
ATOM     11  C   UNL     1     129.128 136.047 139.366  1.00  0.00     0.000 C 
BRANCH  11  12
ATOM     12  C   UNL     1     130.558 135.627 138.982  1.00  0.00     0.006 C 
BRANCH  12  13
ATOM     13  C   UNL     1     131.229 134.684 139.998  1.00  0.00     0.053 C 
BRANCH  13  14
ATOM     14  C   UNL     1     131.667 133.388 139.388  1.00  0.00     0.041 C 
ATOM     15  O   UNL     1     132.747 133.319 138.741  1.00  0.00    -0.550 OA
ATOM     16  O   UNL     1     130.865 132.259 139.505  1.00  0.00    -0.550 OA
ENDBRANCH  13  14
ENDBRANCH  12  13
ENDBRANCH  11  12
ENDBRANCH  10  11
ENDBRANCH   9  10
ENDBRANCH   8   9
ENDBRANCH   7   8
ENDBRANCH   6   7
ENDBRANCH   5   6
ENDBRANCH   4   5
ENDBRANCH   3   4
ENDBRANCH   2   3
ENDBRANCH   1   2
BRANCH   1  17
ATOM     17  C   UNL     1     125.895 143.087 136.522  1.00  0.00     0.000 C 
BRANCH  17  18
ATOM     18  C   UNL     1     125.405 141.796 135.852  1.00  0.00     0.000 C 
BRANCH  18  19
ATOM     19  C   UNL     1     125.291 140.619 136.838  1.00  0.00     0.000 C 
BRANCH  19  20
ATOM     20  C   UNL     1     126.034 139.342 136.407  1.00  0.00     0.000 C 
BRANCH  20  21
ATOM     21  C   UNL     1     126.911 138.756 137.525  1.00  0.00     0.000 C 
BRANCH  21  22
ATOM     22  C   UNL     1     128.151 139.627 137.769  1.00  0.00    -0.000 C 
BRANCH  22  23
ATOM     23  C   UNL     1     129.436 138.854 137.446  1.00  0.00    -0.000 C 
BRANCH  23  24
ATOM     24  C   UNL     1     130.689 139.746 137.448  1.00  0.00    -0.000 C 
BRANCH  24  25
ATOM     25  C   UNL     1     130.658 140.853 138.524  1.00  0.00    -0.000 C 
BRANCH  25  26
ATOM     26  C   UNL     1     131.815 140.726 139.528  1.00  0.00    -0.000 C 
BRANCH  26  27
ATOM     27  C   UNL     1     132.208 139.255 139.787  1.00  0.00    -0.000 C 
BRANCH  27  28
ATOM     28  C   UNL     1     133.655 139.081 140.288  1.00  0.00    -0.000 C 
BRANCH  28  29
ATOM     29  C   UNL     1     134.499 138.081 139.479  1.00  0.00    -0.003 C 
ATOM     30  C   UNL     1     133.806 137.620 138.197  1.00  0.00     0.004 C 
ENDBRANCH  28  29
ENDBRANCH  27  28
ENDBRANCH  26  27
ENDBRANCH  25  26
ENDBRANCH  24  25
ENDBRANCH  23  24
ENDBRANCH  22  23
ENDBRANCH  21  22
ENDBRANCH  20  21
ENDBRANCH  19  20
ENDBRANCH  18  19
ENDBRANCH  17  18
ENDBRANCH   1  17
TORSDOF 26
ENDMDL
MODEL 2
REMARK VINA RESULT:    -4.596      1.993      5.464
REMARK INTER + INTRA:         -16.155
REMARK INTER:                 -12.686
REMARK INTRA:                  -3.469
REMARK UNBOUND:                -4.574
REMARK SMILES CCCCCCCCCCCCCCCCCCCCCCCCCCCC(=O)[O-]
REMARK SMILES IDX 15 1 16 2 17 3 18 4 19 5 20 6 21 7 22 8 23 9 24 10 25 11
REMARK SMILES IDX 26 12 27 13 28 14 29 15 30 16 14 17 13 18 12 19 11 20 10 21
REMARK SMILES IDX 9 22 8 23 7 24 6 25 5 26 4 27 3 28 2 29 1 30
REMARK H PARENT
REMARK Flexibility Score: inf
ROOT
ATOM      1  C   UNL     1     128.401 138.293 138.579  1.00  0.00     0.000 C 
ENDROOT
BRANCH   1   2
ATOM      2  C   UNL     1     128.297 136.792 138.272  1.00  0.00     0.000 C 
BRANCH   2   3
ATOM      3  C   UNL     1     127.710 135.978 139.442  1.00  0.00     0.000 C 
BRANCH   3   4
ATOM      4  C   UNL     1     128.717 135.076 140.180  1.00  0.00     0.000 C 
BRANCH   4   5
ATOM      5  C   UNL     1     128.123 133.798 140.804  1.00  0.00     0.000 C 
BRANCH   5   6
ATOM      6  C   UNL     1     129.021 132.550 140.656  1.00  0.00     0.000 C 
BRANCH   6   7
ATOM      7  C   UNL     1     130.235 132.572 141.600  1.00  0.00     0.000 C 
BRANCH   7   8
ATOM      8  C   UNL     1     131.546 132.205 140.887  1.00  0.00     0.000 C 
BRANCH   8   9
ATOM      9  C   UNL     1     131.434 132.284 139.357  1.00  0.00     0.000 C 
BRANCH   9  10
ATOM     10  C   UNL     1     132.542 133.170 138.774  1.00  0.00     0.000 C 
BRANCH  10  11
ATOM     11  C   UNL     1     132.012 134.572 138.438  1.00  0.00     0.000 C 
BRANCH  11  12
ATOM     12  C   UNL     1     132.432 135.637 139.466  1.00  0.00     0.006 C 
BRANCH  12  13
ATOM     13  C   UNL     1     131.863 137.040 139.183  1.00  0.00     0.053 C 
BRANCH  13  14
ATOM     14  C   UNL     1     132.412 137.648 137.928  1.00  0.00     0.041 C 
ATOM     15  O   UNL     1     133.646 137.590 137.676  1.00  0.00    -0.550 OA
ATOM     16  O   UNL     1     131.563 138.308 137.048  1.00  0.00    -0.550 OA
ENDBRANCH  13  14
ENDBRANCH  12  13
ENDBRANCH  11  12
ENDBRANCH  10  11
ENDBRANCH   9  10
ENDBRANCH   8   9
ENDBRANCH   7   8
ENDBRANCH   6   7
ENDBRANCH   5   6
ENDBRANCH   4   5
ENDBRANCH   3   4
ENDBRANCH   2   3
ENDBRANCH   1   2
BRANCH   1  17
ATOM     17  C   UNL     1     127.834 139.134 137.428  1.00  0.00     0.000 C 
BRANCH  17  18
ATOM     18  C   UNL     1     126.820 138.325 136.607  1.00  0.00     0.000 C 
BRANCH  18  19
ATOM     19  C   UNL     1     125.669 139.189 136.061  1.00  0.00     0.000 C 
BRANCH  19  20
ATOM     20  C   UNL     1     125.482 140.541 136.774  1.00  0.00     0.000 C 
BRANCH  20  21
ATOM     21  C   UNL     1     125.314 141.713 135.795  1.00  0.00     0.000 C 
BRANCH  21  22
ATOM     22  C   UNL     1     125.793 143.031 136.420  1.00  0.00    -0.000 C 
BRANCH  22  23
ATOM     23  C   UNL     1     126.577 142.772 137.713  1.00  0.00    -0.000 C 
BRANCH  23  24
ATOM     24  C   UNL     1     126.241 143.776 138.829  1.00  0.00    -0.000 C 
BRANCH  24  25
ATOM     25  C   UNL     1     126.691 143.312 140.232  1.00  0.00    -0.000 C 
BRANCH  25  26
ATOM     26  C   UNL     1     128.123 142.754 140.232  1.00  0.00    -0.000 C 
BRANCH  26  27
ATOM     27  C   UNL     1     128.481 142.056 141.562  1.00  0.00    -0.000 C 
BRANCH  27  28
ATOM     28  C   UNL     1     129.621 141.027 141.433  1.00  0.00    -0.000 C 
BRANCH  28  29
ATOM     29  C   UNL     1     130.887 141.555 140.739  1.00  0.00    -0.003 C 
ATOM     30  C   UNL     1     131.108 140.940 139.357  1.00  0.00     0.004 C 
ENDBRANCH  28  29
ENDBRANCH  27  28
ENDBRANCH  26  27
ENDBRANCH  25  26
ENDBRANCH  24  25
ENDBRANCH  23  24
ENDBRANCH  22  23
ENDBRANCH  21  22
ENDBRANCH  20  21
ENDBRANCH  19  20
ENDBRANCH  18  19
ENDBRANCH  17  18
ENDBRANCH   1  17
TORSDOF 26
ENDMDL
MODEL 3
REMARK VINA RESULT:    -4.581      3.012      7.573
REMARK INTER + INTRA:         -16.118
REMARK INTER:                 -12.456
REMARK INTRA:                  -3.662
REMARK UNBOUND:                -4.574
REMARK SMILES CCCCCCCCCCCCCCCCCCCCCCCCCCCC(=O)[O-]
REMARK SMILES IDX 15 1 16 2 17 3 18 4 19 5 20 6 21 7 22 8 23 9 24 10 25 11
REMARK SMILES IDX 26 12 27 13 28 14 29 15 30 16 14 17 13 18 12 19 11 20 10 21
REMARK SMILES IDX 9 22 8 23 7 24 6 25 5 26 4 27 3 28 2 29 1 30
REMARK H PARENT
REMARK Flexibility Score: inf
ROOT
ATOM      1  C   UNL     1     131.953 135.542 138.208  1.00  0.00     0.000 C 
ENDROOT
BRANCH   1   2
ATOM      2  C   UNL     1     133.188 135.391 139.108  1.00  0.00     0.000 C 
BRANCH   2   3
ATOM      3  C   UNL     1     132.831 135.238 140.599  1.00  0.00     0.000 C 
BRANCH   3   4
ATOM      4  C   UNL     1     133.316 136.382 141.509  1.00  0.00     0.000 C 
BRANCH   4   5
ATOM      5  C   UNL     1     132.824 137.789 141.120  1.00  0.00     0.000 C 
BRANCH   5   6
ATOM      6  C   UNL     1     133.944 138.849 141.047  1.00  0.00     0.000 C 
BRANCH   6   7
ATOM      7  C   UNL     1     134.395 139.144 139.605  1.00  0.00     0.000 C 
BRANCH   7   8
ATOM      8  C   UNL     1     135.920 139.073 139.436  1.00  0.00     0.000 C 
BRANCH   8   9
ATOM      9  C   UNL     1     136.660 138.891 140.769  1.00  0.00     0.000 C 
BRANCH   9  10
ATOM     10  C   UNL     1     137.642 137.716 140.694  1.00  0.00     0.000 C 
BRANCH  10  11
ATOM     11  C   UNL     1     136.916 136.375 140.871  1.00  0.00     0.000 C 
BRANCH  11  12
ATOM     12  C   UNL     1     137.430 135.281 139.919  1.00  0.00     0.006 C 
BRANCH  12  13
ATOM     13  C   UNL     1     138.630 134.486 140.466  1.00  0.00     0.053 C 
BRANCH  13  14
ATOM     14  C   UNL     1     139.411 133.796 139.390  1.00  0.00     0.041 C 
ATOM     15  O   UNL     1     139.815 132.613 139.553  1.00  0.00    -0.550 OA
ATOM     16  O   UNL     1     139.722 134.470 138.216  1.00  0.00    -0.550 OA
ENDBRANCH  13  14
ENDBRANCH  12  13
ENDBRANCH  11  12
ENDBRANCH  10  11
ENDBRANCH   9  10
ENDBRANCH   8   9
ENDBRANCH   7   8
ENDBRANCH   6   7
ENDBRANCH   5   6
ENDBRANCH   4   5
ENDBRANCH   3   4
ENDBRANCH   2   3
ENDBRANCH   1   2
BRANCH   1  17
ATOM     17  C   UNL     1     131.635 137.020 137.950  1.00  0.00     0.000 C 
BRANCH  17  18
ATOM     18  C   UNL     1     130.275 137.400 138.554  1.00  0.00     0.000 C 
BRANCH  18  19
ATOM     19  C   UNL     1     129.839 138.830 138.189  1.00  0.00     0.000 C 
BRANCH  19  20
ATOM     20  C   UNL     1     130.989 139.848 138.079  1.00  0.00     0.000 C 
BRANCH  20  21
ATOM     21  C   UNL     1     130.660 141.194 138.743  1.00  0.00     0.000 C 
BRANCH  21  22
ATOM     22  C   UNL     1     131.483 141.398 140.021  1.00  0.00    -0.000 C 
BRANCH  22  23
ATOM     23  C   UNL     1     130.606 141.241 141.270  1.00  0.00    -0.000 C 
BRANCH  23  24
ATOM     24  C   UNL     1     129.605 142.395 141.450  1.00  0.00    -0.000 C 
BRANCH  24  25
ATOM     25  C   UNL     1     128.135 141.929 141.534  1.00  0.00    -0.000 C 
BRANCH  25  26
ATOM     26  C   UNL     1     127.184 142.850 140.754  1.00  0.00    -0.000 C 
BRANCH  26  27
ATOM     27  C   UNL     1     127.501 142.875 139.242  1.00  0.00    -0.000 C 
BRANCH  27  28
ATOM     28  C   UNL     1     126.526 143.743 138.421  1.00  0.00    -0.000 C 
BRANCH  28  29
ATOM     29  C   UNL     1     126.037 145.012 139.138  1.00  0.00    -0.003 C 
ATOM     30  C   UNL     1     125.844 146.194 138.187  1.00  0.00     0.004 C 
ENDBRANCH  28  29
ENDBRANCH  27  28
ENDBRANCH  26  27
ENDBRANCH  25  26
ENDBRANCH  24  25
ENDBRANCH  23  24
ENDBRANCH  22  23
ENDBRANCH  21  22
ENDBRANCH  20  21
ENDBRANCH  19  20
ENDBRANCH  18  19
ENDBRANCH  17  18
ENDBRANCH   1  17
TORSDOF 26
ENDMDL
MODEL 4
REMARK VINA RESULT:    -4.543      2.874      5.746
REMARK INTER + INTRA:         -16.022
REMARK INTER:                 -11.677
REMARK INTRA:                  -4.345
REMARK UNBOUND:                -4.574
REMARK SMILES CCCCCCCCCCCCCCCCCCCCCCCCCCCC(=O)[O-]
REMARK SMILES IDX 15 1 16 2 17 3 18 4 19 5 20 6 21 7 22 8 23 9 24 10 25 11
REMARK SMILES IDX 26 12 27 13 28 14 29 15 30 16 14 17 13 18 12 19 11 20 10 21
REMARK SMILES IDX 9 22 8 23 7 24 6 25 5 26 4 27 3 28 2 29 1 30
REMARK H PARENT
REMARK Flexibility Score: inf
ROOT
ATOM      1  C   UNL     1     131.133 140.047 137.972  1.00  0.00     0.000 C 
ENDROOT
BRANCH   1   2
ATOM      2  C   UNL     1     130.556 141.250 138.731  1.00  0.00     0.000 C 
BRANCH   2   3
ATOM      3  C   UNL     1     131.177 141.431 140.130  1.00  0.00     0.000 C 
BRANCH   3   4
ATOM      4  C   UNL     1     130.199 141.257 141.308  1.00  0.00     0.000 C 
BRANCH   4   5
ATOM      5  C   UNL     1     129.233 142.434 141.544  1.00  0.00     0.000 C 
BRANCH   5   6
ATOM      6  C   UNL     1     127.798 142.182 141.035  1.00  0.00     0.000 C 
BRANCH   6   7
ATOM      7  C   UNL     1     127.334 143.232 140.010  1.00  0.00     0.000 C 
BRANCH   7   8
ATOM      8  C   UNL     1     127.220 142.661 138.588  1.00  0.00     0.000 C 
BRANCH   8   9
ATOM      9  C   UNL     1     126.307 143.499 137.681  1.00  0.00     0.000 C 
BRANCH   9  10
ATOM     10  C   UNL     1     125.812 142.671 136.489  1.00  0.00     0.000 C 
BRANCH  10  11
ATOM     11  C   UNL     1     125.798 141.172 136.822  1.00  0.00     0.000 C 
BRANCH  11  12
ATOM     12  C   UNL     1     125.006 140.335 135.802  1.00  0.00     0.006 C 
BRANCH  12  13
ATOM     13  C   UNL     1     125.481 138.875 135.686  1.00  0.00     0.053 C 
BRANCH  13  14
ATOM     14  C   UNL     1     124.793 138.125 134.586  1.00  0.00     0.041 C 
ATOM     15  O   UNL     1     124.339 138.737 133.582  1.00  0.00    -0.550 OA
ATOM     16  O   UNL     1     124.622 136.750 134.686  1.00  0.00    -0.550 OA
ENDBRANCH  13  14
ENDBRANCH  12  13
ENDBRANCH  11  12
ENDBRANCH  10  11
ENDBRANCH   9  10
ENDBRANCH   8   9
ENDBRANCH   7   8
ENDBRANCH   6   7
ENDBRANCH   5   6
ENDBRANCH   4   5
ENDBRANCH   3   4
ENDBRANCH   2   3
ENDBRANCH   1   2
BRANCH   1  17
ATOM     17  C   UNL     1     130.038 139.024 137.643  1.00  0.00     0.000 C 
BRANCH  17  18
ATOM     18  C   UNL     1     128.722 139.385 138.348  1.00  0.00     0.000 C 
BRANCH  18  19
ATOM     19  C   UNL     1     128.354 138.395 139.467  1.00  0.00     0.000 C 
BRANCH  19  20
ATOM     20  C   UNL     1     129.555 137.725 140.158  1.00  0.00     0.000 C 
BRANCH  20  21
ATOM     21  C   UNL     1     129.277 136.267 140.557  1.00  0.00     0.000 C 
BRANCH  21  22
ATOM     22  C   UNL     1     129.711 135.297 139.451  1.00  0.00    -0.000 C 
BRANCH  22  23
ATOM     23  C   UNL     1     131.230 135.083 139.473  1.00  0.00    -0.000 C 
BRANCH  23  24
ATOM     24  C   UNL     1     131.930 135.619 138.212  1.00  0.00    -0.000 C 
BRANCH  24  25
ATOM     25  C   UNL     1     132.859 136.822 138.486  1.00  0.00    -0.000 C 
BRANCH  25  26
ATOM     26  C   UNL     1     133.241 136.939 139.970  1.00  0.00    -0.000 C 
BRANCH  26  27
ATOM     27  C   UNL     1     133.383 138.408 140.426  1.00  0.00    -0.000 C 
BRANCH  27  28
ATOM     28  C   UNL     1     134.373 139.225 139.573  1.00  0.00    -0.000 C 
BRANCH  28  29
ATOM     29  C   UNL     1     135.797 139.311 140.147  1.00  0.00    -0.003 C 
ATOM     30  C   UNL     1     136.054 140.612 140.907  1.00  0.00     0.004 C 
ENDBRANCH  28  29
ENDBRANCH  27  28
ENDBRANCH  26  27
ENDBRANCH  25  26
ENDBRANCH  24  25
ENDBRANCH  23  24
ENDBRANCH  22  23
ENDBRANCH  21  22
ENDBRANCH  20  21
ENDBRANCH  19  20
ENDBRANCH  18  19
ENDBRANCH  17  18
ENDBRANCH   1  17
TORSDOF 26
ENDMDL
MODEL 5
REMARK VINA RESULT:    -4.496      1.439      4.062
REMARK INTER + INTRA:         -15.904
REMARK INTER:                 -11.163
REMARK INTRA:                  -4.741
REMARK UNBOUND:                -4.574
REMARK SMILES CCCCCCCCCCCCCCCCCCCCCCCCCCCC(=O)[O-]
REMARK SMILES IDX 15 1 16 2 17 3 18 4 19 5 20 6 21 7 22 8 23 9 24 10 25 11
REMARK SMILES IDX 26 12 27 13 28 14 29 15 30 16 14 17 13 18 12 19 11 20 10 21
REMARK SMILES IDX 9 22 8 23 7 24 6 25 5 26 4 27 3 28 2 29 1 30
REMARK H PARENT
REMARK Flexibility Score: inf
ROOT
ATOM      1  C   UNL     1     125.909 142.767 136.597  1.00  0.00     0.000 C 
ENDROOT
BRANCH   1   2
ATOM      2  C   UNL     1     125.375 141.400 136.146  1.00  0.00     0.000 C 
BRANCH   2   3
ATOM      3  C   UNL     1     126.057 140.220 136.867  1.00  0.00     0.000 C 
BRANCH   3   4
ATOM      4  C   UNL     1     125.494 138.829 136.522  1.00  0.00     0.000 C 
BRANCH   4   5
ATOM      5  C   UNL     1     126.537 137.787 136.076  1.00  0.00     0.000 C 
BRANCH   5   6
ATOM      6  C   UNL     1     126.627 136.551 136.998  1.00  0.00     0.000 C 
BRANCH   6   7
ATOM      7  C   UNL     1     126.425 136.898 138.483  1.00  0.00     0.000 C 
BRANCH   7   8
ATOM      8  C   UNL     1     126.022 135.678 139.326  1.00  0.00     0.000 C 
BRANCH   8   9
ATOM      9  C   UNL     1     127.205 135.066 140.091  1.00  0.00     0.000 C 
BRANCH   9  10
ATOM     10  C   UNL     1     127.922 136.129 140.932  1.00  0.00     0.000 C 
BRANCH  10  11
ATOM     11  C   UNL     1     129.436 136.105 140.681  1.00  0.00     0.000 C 
BRANCH  11  12
ATOM     12  C   UNL     1     129.812 135.512 139.312  1.00  0.00     0.006 C 
BRANCH  12  13
ATOM     13  C   UNL     1     130.845 136.343 138.530  1.00  0.00     0.053 C 
BRANCH  13  14
ATOM     14  C   UNL     1     132.231 135.782 138.617  1.00  0.00     0.041 C 
ATOM     15  O   UNL     1     133.202 136.522 138.932  1.00  0.00    -0.550 OA
ATOM     16  O   UNL     1     132.458 134.445 138.317  1.00  0.00    -0.550 OA
ENDBRANCH  13  14
ENDBRANCH  12  13
ENDBRANCH  11  12
ENDBRANCH  10  11
ENDBRANCH   9  10
ENDBRANCH   8   9
ENDBRANCH   7   8
ENDBRANCH   6   7
ENDBRANCH   5   6
ENDBRANCH   4   5
ENDBRANCH   3   4
ENDBRANCH   2   3
ENDBRANCH   1   2
BRANCH   1  17
ATOM     17  C   UNL     1     126.743 142.639 137.878  1.00  0.00     0.000 C 
BRANCH  17  18
ATOM     18  C   UNL     1     126.680 143.932 138.704  1.00  0.00     0.000 C 
BRANCH  18  19
ATOM     19  C   UNL     1     126.089 143.714 140.109  1.00  0.00     0.000 C 
BRANCH  19  20
ATOM     20  C   UNL     1     126.855 142.703 140.981  1.00  0.00     0.000 C 
BRANCH  20  21
ATOM     21  C   UNL     1     128.370 142.959 141.001  1.00  0.00     0.000 C 
BRANCH  21  22
ATOM     22  C   UNL     1     129.080 142.013 141.979  1.00  0.00    -0.000 C 
BRANCH  22  23
ATOM     23  C   UNL     1     128.422 140.628 141.978  1.00  0.00    -0.000 C 
BRANCH  23  24
ATOM     24  C   UNL     1     129.061 139.661 140.966  1.00  0.00    -0.000 C 
BRANCH  24  25
ATOM     25  C   UNL     1     128.383 139.682 139.579  1.00  0.00    -0.000 C 
BRANCH  25  26
ATOM     26  C   UNL     1     129.404 139.678 138.430  1.00  0.00    -0.000 C 
BRANCH  26  27
ATOM     27  C   UNL     1     130.592 140.627 138.697  1.00  0.00    -0.000 C 
BRANCH  27  28
ATOM     28  C   UNL     1     131.957 139.913 138.735  1.00  0.00    -0.000 C 
BRANCH  28  29
ATOM     29  C   UNL     1     132.713 140.044 140.067  1.00  0.00    -0.003 C 
ATOM     30  C   UNL     1     132.407 141.352 140.798  1.00  0.00     0.004 C 
ENDBRANCH  28  29
ENDBRANCH  27  28
ENDBRANCH  26  27
ENDBRANCH  25  26
ENDBRANCH  24  25
ENDBRANCH  23  24
ENDBRANCH  22  23
ENDBRANCH  21  22
ENDBRANCH  20  21
ENDBRANCH  19  20
ENDBRANCH  18  19
ENDBRANCH  17  18
ENDBRANCH   1  17
TORSDOF 26
ENDMDL
MODEL 6
REMARK VINA RESULT:    -4.489      1.352      4.293
REMARK INTER + INTRA:         -15.887
REMARK INTER:                 -10.840
REMARK INTRA:                  -5.047
REMARK UNBOUND:                -4.574
REMARK SMILES CCCCCCCCCCCCCCCCCCCCCCCCCCCC(=O)[O-]
REMARK SMILES IDX 15 1 16 2 17 3 18 4 19 5 20 6 21 7 22 8 23 9 24 10 25 11
REMARK SMILES IDX 26 12 27 13 28 14 29 15 30 16 14 17 13 18 12 19 11 20 10 21
REMARK SMILES IDX 9 22 8 23 7 24 6 25 5 26 4 27 3 28 2 29 1 30
REMARK H PARENT
REMARK Flexibility Score: inf
ROOT
ATOM      1  C   UNL     1     128.871 138.396 137.972  1.00  0.00     0.000 C 
ENDROOT
BRANCH   1   2
ATOM      2  C   UNL     1     128.061 138.066 139.234  1.00  0.00     0.000 C 
BRANCH   2   3
ATOM      3  C   UNL     1     128.947 137.650 140.425  1.00  0.00     0.000 C 
BRANCH   3   4
ATOM      4  C   UNL     1     130.425 138.070 140.320  1.00  0.00     0.000 C 
BRANCH   4   5
ATOM      5  C   UNL     1     131.329 137.597 141.474  1.00  0.00     0.000 C 
BRANCH   5   6
ATOM      6  C   UNL     1     132.840 137.693 141.170  1.00  0.00     0.000 C 
BRANCH   6   7
ATOM      7  C   UNL     1     133.134 138.309 139.791  1.00  0.00     0.000 C 
BRANCH   7   8
ATOM      8  C   UNL     1     133.610 137.267 138.767  1.00  0.00     0.000 C 
BRANCH   8   9
ATOM      9  C   UNL     1     132.578 137.005 137.660  1.00  0.00     0.000 C 
BRANCH   9  10
ATOM     10  C   UNL     1     131.800 135.712 137.934  1.00  0.00     0.000 C 
BRANCH  10  11
ATOM     11  C   UNL     1     132.653 134.709 138.724  1.00  0.00     0.000 C 
BRANCH  11  12
ATOM     12  C   UNL     1     131.986 134.248 140.032  1.00  0.00     0.006 C 
BRANCH  12  13
ATOM     13  C   UNL     1     130.447 134.247 139.984  1.00  0.00     0.053 C 
BRANCH  13  14
ATOM     14  C   UNL     1     129.855 132.921 140.352  1.00  0.00     0.041 C 
ATOM     15  O   UNL     1     130.578 131.889 140.402  1.00  0.00    -0.550 OA
ATOM     16  O   UNL     1     128.494 132.816 140.609  1.00  0.00    -0.550 OA
ENDBRANCH  13  14
ENDBRANCH  12  13
ENDBRANCH  11  12
ENDBRANCH  10  11
ENDBRANCH   9  10
ENDBRANCH   8   9
ENDBRANCH   7   8
ENDBRANCH   6   7
ENDBRANCH   5   6
ENDBRANCH   4   5
ENDBRANCH   3   4
ENDBRANCH   2   3
ENDBRANCH   1   2
BRANCH   1  17
ATOM     17  C   UNL     1     127.977 139.009 136.886  1.00  0.00     0.000 C 
BRANCH  17  18
ATOM     18  C   UNL     1     126.521 138.552 137.053  1.00  0.00     0.000 C 
BRANCH  18  19
ATOM     19  C   UNL     1     125.580 139.164 136.001  1.00  0.00     0.000 C 
BRANCH  19  20
ATOM     20  C   UNL     1     124.748 140.361 136.497  1.00  0.00     0.000 C 
BRANCH  20  21
ATOM     21  C   UNL     1     125.062 141.660 135.738  1.00  0.00     0.000 C 
BRANCH  21  22
ATOM     22  C   UNL     1     126.128 142.486 136.470  1.00  0.00    -0.000 C 
BRANCH  22  23
ATOM     23  C   UNL     1     126.150 142.152 137.967  1.00  0.00    -0.000 C 
BRANCH  23  24
ATOM     24  C   UNL     1     127.513 142.428 138.624  1.00  0.00    -0.000 C 
BRANCH  24  25
ATOM     25  C   UNL     1     127.426 143.347 139.862  1.00  0.00    -0.000 C 
BRANCH  25  26
ATOM     26  C   UNL     1     128.297 142.845 141.025  1.00  0.00    -0.000 C 
BRANCH  26  27
ATOM     27  C   UNL     1     129.046 141.540 140.677  1.00  0.00    -0.000 C 
BRANCH  27  28
ATOM     28  C   UNL     1     130.478 141.480 141.242  1.00  0.00    -0.000 C 
BRANCH  28  29
ATOM     29  C   UNL     1     131.590 141.548 140.182  1.00  0.00    -0.003 C 
ATOM     30  C   UNL     1     131.072 141.320 138.762  1.00  0.00     0.004 C 
ENDBRANCH  28  29
ENDBRANCH  27  28
ENDBRANCH  26  27
ENDBRANCH  25  26
ENDBRANCH  24  25
ENDBRANCH  23  24
ENDBRANCH  22  23
ENDBRANCH  21  22
ENDBRANCH  20  21
ENDBRANCH  19  20
ENDBRANCH  18  19
ENDBRANCH  17  18
ENDBRANCH   1  17
TORSDOF 26
ENDMDL
MODEL 7
REMARK VINA RESULT:    -4.469      2.587      7.488
REMARK INTER + INTRA:         -15.836
REMARK INTER:                 -11.221
REMARK INTRA:                  -4.615
REMARK UNBOUND:                -4.574
REMARK SMILES CCCCCCCCCCCCCCCCCCCCCCCCCCCC(=O)[O-]
REMARK SMILES IDX 15 1 16 2 17 3 18 4 19 5 20 6 21 7 22 8 23 9 24 10 25 11
REMARK SMILES IDX 26 12 27 13 28 14 29 15 30 16 14 17 13 18 12 19 11 20 10 21
REMARK SMILES IDX 9 22 8 23 7 24 6 25 5 26 4 27 3 28 2 29 1 30
REMARK H PARENT
REMARK Flexibility Score: inf
ROOT
ATOM      1  C   UNL     1     132.798 134.479 138.733  1.00  0.00     0.000 C 
ENDROOT
BRANCH   1   2
ATOM      2  C   UNL     1     133.594 134.891 139.979  1.00  0.00     0.000 C 
BRANCH   2   3
ATOM      3  C   UNL     1     133.475 136.395 140.298  1.00  0.00     0.000 C 
BRANCH   3   4
ATOM      4  C   UNL     1     133.908 137.341 139.162  1.00  0.00     0.000 C 
BRANCH   4   5
ATOM      5  C   UNL     1     133.551 138.826 139.369  1.00  0.00     0.000 C 
BRANCH   5   6
ATOM      6  C   UNL     1     132.777 139.112 140.674  1.00  0.00     0.000 C 
BRANCH   6   7
ATOM      7  C   UNL     1     132.937 140.563 141.158  1.00  0.00     0.000 C 
BRANCH   7   8
ATOM      8  C   UNL     1     134.130 140.742 142.109  1.00  0.00     0.000 C 
BRANCH   8   9
ATOM      9  C   UNL     1     135.201 141.690 141.550  1.00  0.00     0.000 C 
BRANCH   9  10
ATOM     10  C   UNL     1     136.550 140.973 141.417  1.00  0.00     0.000 C 
BRANCH  10  11
ATOM     11  C   UNL     1     136.417 139.478 141.742  1.00  0.00     0.000 C 
BRANCH  11  12
ATOM     12  C   UNL     1     137.074 138.570 140.687  1.00  0.00     0.006 C 
BRANCH  12  13
ATOM     13  C   UNL     1     137.125 137.083 141.083  1.00  0.00     0.053 C 
BRANCH  13  14
ATOM     14  C   UNL     1     137.549 136.194 139.954  1.00  0.00     0.041 C 
ATOM     15  O   UNL     1     138.255 136.649 139.014  1.00  0.00    -0.550 OA
ATOM     16  O   UNL     1     137.138 134.868 139.923  1.00  0.00    -0.550 OA
ENDBRANCH  13  14
ENDBRANCH  12  13
ENDBRANCH  11  12
ENDBRANCH  10  11
ENDBRANCH   9  10
ENDBRANCH   8   9
ENDBRANCH   7   8
ENDBRANCH   6   7
ENDBRANCH   5   6
ENDBRANCH   4   5
ENDBRANCH   3   4
ENDBRANCH   2   3
ENDBRANCH   1   2
BRANCH   1  17
ATOM     17  C   UNL     1     132.314 133.028 138.841  1.00  0.00     0.000 C 
BRANCH  17  18
ATOM     18  C   UNL     1     131.761 132.739 140.244  1.00  0.00     0.000 C 
BRANCH  18  19
ATOM     19  C   UNL     1     130.277 132.329 140.228  1.00  0.00     0.000 C 
BRANCH  19  20
ATOM     20  C   UNL     1     129.340 133.262 141.015  1.00  0.00     0.000 C 
BRANCH  20  21
ATOM     21  C   UNL     1     129.841 134.715 141.054  1.00  0.00     0.000 C 
BRANCH  21  22
ATOM     22  C   UNL     1     129.139 135.572 139.992  1.00  0.00    -0.000 C 
BRANCH  22  23
ATOM     23  C   UNL     1     129.852 136.919 139.814  1.00  0.00    -0.000 C 
BRANCH  23  24
ATOM     24  C   UNL     1     130.256 137.196 138.357  1.00  0.00    -0.000 C 
BRANCH  24  25
ATOM     25  C   UNL     1     130.151 138.685 137.960  1.00  0.00    -0.000 C 
BRANCH  25  26
ATOM     26  C   UNL     1     128.959 139.386 138.631  1.00  0.00    -0.000 C 
BRANCH  26  27
ATOM     27  C   UNL     1     129.395 140.594 139.487  1.00  0.00    -0.000 C 
BRANCH  27  28
ATOM     28  C   UNL     1     128.751 141.925 139.052  1.00  0.00    -0.000 C 
BRANCH  28  29
ATOM     29  C   UNL     1     128.032 142.689 140.176  1.00  0.00    -0.003 C 
ATOM     30  C   UNL     1     128.237 142.053 141.552  1.00  0.00     0.004 C 
ENDBRANCH  28  29
ENDBRANCH  27  28
ENDBRANCH  26  27
ENDBRANCH  25  26
ENDBRANCH  24  25
ENDBRANCH  23  24
ENDBRANCH  22  23
ENDBRANCH  21  22
ENDBRANCH  20  21
ENDBRANCH  19  20
ENDBRANCH  18  19
ENDBRANCH  17  18
ENDBRANCH   1  17
TORSDOF 26
ENDMDL
MODEL 8
REMARK VINA RESULT:    -4.444      3.742      8.026
REMARK INTER + INTRA:         -15.774
REMARK INTER:                 -11.457
REMARK INTRA:                  -4.317
REMARK UNBOUND:                -4.574
REMARK SMILES CCCCCCCCCCCCCCCCCCCCCCCCCCCC(=O)[O-]
REMARK SMILES IDX 15 1 16 2 17 3 18 4 19 5 20 6 21 7 22 8 23 9 24 10 25 11
REMARK SMILES IDX 26 12 27 13 28 14 29 15 30 16 14 17 13 18 12 19 11 20 10 21
REMARK SMILES IDX 9 22 8 23 7 24 6 25 5 26 4 27 3 28 2 29 1 30
REMARK H PARENT
REMARK Flexibility Score: inf
ROOT
ATOM      1  C   UNL     1     133.490 138.319 139.411  1.00  0.00     0.000 C 
ENDROOT
BRANCH   1   2
ATOM      2  C   UNL     1     134.846 138.371 138.694  1.00  0.00     0.000 C 
BRANCH   2   3
ATOM      3  C   UNL     1     135.869 139.276 139.408  1.00  0.00     0.000 C 
BRANCH   3   4
ATOM      4  C   UNL     1     135.586 139.534 140.900  1.00  0.00     0.000 C 
BRANCH   4   5
ATOM      5  C   UNL     1     135.749 140.996 141.359  1.00  0.00     0.000 C 
BRANCH   5   6
ATOM      6  C   UNL     1     134.434 141.805 141.364  1.00  0.00     0.000 C 
BRANCH   6   7
ATOM      7  C   UNL     1     133.225 140.978 141.836  1.00  0.00     0.000 C 
BRANCH   7   8
ATOM      8  C   UNL     1     131.991 141.168 140.940  1.00  0.00     0.000 C 
BRANCH   8   9
ATOM      9  C   UNL     1     130.827 140.244 141.326  1.00  0.00     0.000 C 
BRANCH   9  10
ATOM     10  C   UNL     1     129.486 140.838 140.878  1.00  0.00     0.000 C 
BRANCH  10  11
ATOM     11  C   UNL     1     129.687 141.904 139.791  1.00  0.00     0.000 C 
BRANCH  11  12
ATOM     12  C   UNL     1     128.382 142.280 139.067  1.00  0.00     0.006 C 
BRANCH  12  13
ATOM     13  C   UNL     1     127.277 142.807 140.000  1.00  0.00     0.053 C 
BRANCH  13  14
ATOM     14  C   UNL     1     126.433 143.868 139.363  1.00  0.00     0.041 C 
ATOM     15  O   UNL     1     126.130 143.796 138.141  1.00  0.00    -0.550 OA
ATOM     16  O   UNL     1     126.007 144.959 140.111  1.00  0.00    -0.550 OA
ENDBRANCH  13  14
ENDBRANCH  12  13
ENDBRANCH  11  12
ENDBRANCH  10  11
ENDBRANCH   9  10
ENDBRANCH   8   9
ENDBRANCH   7   8
ENDBRANCH   6   7
ENDBRANCH   5   6
ENDBRANCH   4   5
ENDBRANCH   3   4
ENDBRANCH   2   3
ENDBRANCH   1   2
BRANCH   1  17
ATOM     17  C   UNL     1     133.003 136.873 139.569  1.00  0.00     0.000 C 
BRANCH  17  18
ATOM     18  C   UNL     1     134.177 135.929 139.867  1.00  0.00     0.000 C 
BRANCH  18  19
ATOM     19  C   UNL     1     133.821 134.448 139.652  1.00  0.00     0.000 C 
BRANCH  19  20
ATOM     20  C   UNL     1     132.633 134.199 138.706  1.00  0.00     0.000 C 
BRANCH  20  21
ATOM     21  C   UNL     1     132.135 132.746 138.742  1.00  0.00     0.000 C 
BRANCH  21  22
ATOM     22  C   UNL     1     131.590 132.381 140.130  1.00  0.00    -0.000 C 
BRANCH  22  23
ATOM     23  C   UNL     1     130.291 133.141 140.427  1.00  0.00    -0.000 C 
BRANCH  23  24
ATOM     24  C   UNL     1     130.470 134.245 141.483  1.00  0.00    -0.000 C 
BRANCH  24  25
ATOM     25  C   UNL     1     129.722 135.552 141.143  1.00  0.00    -0.000 C 
BRANCH  25  26
ATOM     26  C   UNL     1     128.955 135.458 139.814  1.00  0.00    -0.000 C 
BRANCH  26  27
ATOM     27  C   UNL     1     129.598 136.315 138.702  1.00  0.00    -0.000 C 
BRANCH  27  28
ATOM     28  C   UNL     1     129.434 137.832 138.918  1.00  0.00    -0.000 C 
BRANCH  28  29
ATOM     29  C   UNL     1     129.338 138.658 137.624  1.00  0.00    -0.003 C 
ATOM     30  C   UNL     1     130.661 139.325 137.247  1.00  0.00     0.004 C 
ENDBRANCH  28  29
ENDBRANCH  27  28
ENDBRANCH  26  27
ENDBRANCH  25  26
ENDBRANCH  24  25
ENDBRANCH  23  24
ENDBRANCH  22  23
ENDBRANCH  21  22
ENDBRANCH  20  21
ENDBRANCH  19  20
ENDBRANCH  18  19
ENDBRANCH  17  18
ENDBRANCH   1  17
TORSDOF 26
ENDMDL
MODEL 9
REMARK VINA RESULT:    -4.443      3.806      8.131
REMARK INTER + INTRA:         -15.770
REMARK INTER:                 -11.172
REMARK INTRA:                  -4.598
REMARK UNBOUND:                -4.574
REMARK SMILES CCCCCCCCCCCCCCCCCCCCCCCCCCCC(=O)[O-]
REMARK SMILES IDX 15 1 16 2 17 3 18 4 19 5 20 6 21 7 22 8 23 9 24 10 25 11
REMARK SMILES IDX 26 12 27 13 28 14 29 15 30 16 14 17 13 18 12 19 11 20 10 21
REMARK SMILES IDX 9 22 8 23 7 24 6 25 5 26 4 27 3 28 2 29 1 30
REMARK H PARENT
REMARK Flexibility Score: inf
ROOT
ATOM      1  C   UNL     1     132.842 135.964 138.831  1.00  0.00     0.000 C 
ENDROOT
BRANCH   1   2
ATOM      2  C   UNL     1     132.168 134.767 138.146  1.00  0.00     0.000 C 
BRANCH   2   3
ATOM      3  C   UNL     1     132.439 133.431 138.865  1.00  0.00     0.000 C 
BRANCH   3   4
ATOM      4  C   UNL     1     131.186 132.705 139.391  1.00  0.00     0.000 C 
BRANCH   4   5
ATOM      5  C   UNL     1     130.569 133.297 140.673  1.00  0.00     0.000 C 
BRANCH   5   6
ATOM      6  C   UNL     1     129.465 134.345 140.414  1.00  0.00     0.000 C 
BRANCH   6   7
ATOM      7  C   UNL     1     129.816 135.734 140.976  1.00  0.00     0.000 C 
BRANCH   7   8
ATOM      8  C   UNL     1     129.073 136.870 140.255  1.00  0.00     0.000 C 
BRANCH   8   9
ATOM      9  C   UNL     1     129.263 136.833 138.732  1.00  0.00     0.000 C 
BRANCH   9  10
ATOM     10  C   UNL     1     128.833 138.160 138.095  1.00  0.00     0.000 C 
BRANCH  10  11
ATOM     11  C   UNL     1     130.025 138.872 137.439  1.00  0.00     0.000 C 
BRANCH  11  12
ATOM     12  C   UNL     1     131.106 139.294 138.449  1.00  0.00     0.006 C 
BRANCH  12  13
ATOM     13  C   UNL     1     131.215 140.816 138.651  1.00  0.00     0.053 C 
BRANCH  13  14
ATOM     14  C   UNL     1     130.611 141.277 139.942  1.00  0.00     0.041 C 
ATOM     15  O   UNL     1     129.448 141.763 139.966  1.00  0.00    -0.550 OA
ATOM     16  O   UNL     1     131.346 141.202 141.119  1.00  0.00    -0.550 OA
ENDBRANCH  13  14
ENDBRANCH  12  13
ENDBRANCH  11  12
ENDBRANCH  10  11
ENDBRANCH   9  10
ENDBRANCH   8   9
ENDBRANCH   7   8
ENDBRANCH   6   7
ENDBRANCH   5   6
ENDBRANCH   4   5
ENDBRANCH   3   4
ENDBRANCH   2   3
ENDBRANCH   1   2
BRANCH   1  17
ATOM     17  C   UNL     1     133.860 135.499 139.880  1.00  0.00     0.000 C 
BRANCH  17  18
ATOM     18  C   UNL     1     133.604 136.180 141.232  1.00  0.00     0.000 C 
BRANCH  18  19
ATOM     19  C   UNL     1     132.963 137.572 141.086  1.00  0.00     0.000 C 
BRANCH  19  20
ATOM     20  C   UNL     1     133.941 138.752 141.229  1.00  0.00     0.000 C 
BRANCH  20  21
ATOM     21  C   UNL     1     134.508 139.223 139.881  1.00  0.00     0.000 C 
BRANCH  21  22
ATOM     22  C   UNL     1     136.041 139.286 139.915  1.00  0.00    -0.000 C 
BRANCH  22  23
ATOM     23  C   UNL     1     136.586 138.677 141.213  1.00  0.00    -0.000 C 
BRANCH  23  24
ATOM     24  C   UNL     1     137.417 137.404 140.977  1.00  0.00    -0.000 C 
BRANCH  24  25
ATOM     25  C   UNL     1     137.394 136.915 139.512  1.00  0.00    -0.000 C 
BRANCH  25  26
ATOM     26  C   UNL     1     138.778 136.457 139.027  1.00  0.00    -0.000 C 
BRANCH  26  27
ATOM     27  C   UNL     1     139.828 136.460 140.159  1.00  0.00    -0.000 C 
BRANCH  27  28
ATOM     28  C   UNL     1     140.544 135.108 140.341  1.00  0.00    -0.000 C 
BRANCH  28  29
ATOM     29  C   UNL     1     139.798 133.901 139.749  1.00  0.00    -0.003 C 
ATOM     30  C   UNL     1     140.520 133.286 138.550  1.00  0.00     0.004 C 
ENDBRANCH  28  29
ENDBRANCH  27  28
ENDBRANCH  26  27
ENDBRANCH  25  26
ENDBRANCH  24  25
ENDBRANCH  23  24
ENDBRANCH  22  23
ENDBRANCH  21  22
ENDBRANCH  20  21
ENDBRANCH  19  20
ENDBRANCH  18  19
ENDBRANCH  17  18
ENDBRANCH   1  17
TORSDOF 26
ENDMDL
