MODEL 1
REMARK VINA RESULT:    -2.436      0.000      0.000
REMARK INTER + INTRA:          -2.650
REMARK INTER:                  -2.650
REMARK INTRA:                   0.000
REMARK UNBOUND:                 0.000
REMARK SMILES [NH3+]CC(=O)[O-]
REMARK SMILES IDX 2 1 1 2 3 6 4 7 5 8
REMARK H PARENT 1 3 1 4 1 5
REMARK Flexibility Score: inf
ROOT
ATOM      1  C   UNL     1     194.456 186.917 183.747  1.00  0.00     0.312 C 
ENDROOT
BRANCH   1   2
ATOM      2  N   UNL     1     193.633 186.460 182.628  1.00  0.00    -0.353 N 
ATOM      3  H   UNL     1     193.195 185.538 182.858  1.00  0.00     0.344 HD
ATOM      4  H   UNL     1     194.218 186.368 181.766  1.00  0.00     0.344 HD
ATOM      5  H   UNL     1     192.877 187.160 182.451  1.00  0.00     0.344 HD
ENDBRANCH   1   2
BRANCH   1   6
ATOM      6  C   UNL     1     195.384 188.006 183.309  1.00  0.00     0.096 C 
ATOM      7  O   UNL     1     195.750 188.893 184.125  1.00  0.00    -0.544 OA
ATOM      8  O   UNL     1     195.886 188.014 182.014  1.00  0.00    -0.544 OA
ENDBRANCH   1   6
TORSDOF 2
ENDMDL
MODEL 2
REMARK VINA RESULT:    -2.419      8.117      8.592
REMARK INTER + INTRA:          -2.631
REMARK INTER:                  -2.631
REMARK INTRA:                   0.000
REMARK UNBOUND:                 0.000
REMARK SMILES [NH3+]CC(=O)[O-]
REMARK SMILES IDX 2 1 1 2 3 6 4 7 5 8
REMARK H PARENT 1 3 1 4 1 5
REMARK Flexibility Score: inf
ROOT
ATOM      1  C   UNL     1     195.562 186.009 174.776  1.00  0.00     0.312 C 
ENDROOT
BRANCH   1   2
ATOM      2  N   UNL     1     195.127 185.667 173.423  1.00  0.00    -0.353 N 
ATOM      3  H   UNL     1     194.527 184.811 173.444  1.00  0.00     0.344 HD
ATOM      4  H   UNL     1     195.959 185.500 172.810  1.00  0.00     0.344 HD
ATOM      5  H   UNL     1     194.573 186.461 173.030  1.00  0.00     0.344 HD
ENDBRANCH   1   2
BRANCH   1   6
ATOM      6  C   UNL     1     195.230 187.434 175.093  1.00  0.00     0.096 C 
ATOM      7  O   UNL     1     194.364 188.048 174.415  1.00  0.00    -0.544 OA
ATOM      8  O   UNL     1     195.838 188.068 176.168  1.00  0.00    -0.544 OA
ENDBRANCH   1   6
TORSDOF 2
ENDMDL
MODEL 3
REMARK VINA RESULT:    -2.405      2.350      2.436
REMARK INTER + INTRA:          -2.616
REMARK INTER:                  -2.616
REMARK INTRA:                   0.000
REMARK UNBOUND:                 0.000
REMARK SMILES [NH3+]CC(=O)[O-]
REMARK SMILES IDX 2 1 1 2 3 6 4 7 5 8
REMARK H PARENT 1 3 1 4 1 5
REMARK Flexibility Score: inf
ROOT
ATOM      1  C   UNL     1     196.313 185.748 182.465  1.00  0.00     0.312 C 
ENDROOT
BRANCH   1   2
ATOM      2  N   UNL     1     196.468 184.709 183.483  1.00  0.00    -0.353 N 
ATOM      3  H   UNL     1     196.809 185.131 184.377  1.00  0.00     0.344 HD
ATOM      4  H   UNL     1     197.144 183.982 183.153  1.00  0.00     0.344 HD
ATOM      5  H   UNL     1     195.540 184.257 183.653  1.00  0.00     0.344 HD
ENDBRANCH   1   2
BRANCH   1   6
ATOM      6  C   UNL     1     195.353 186.799 182.925  1.00  0.00     0.096 C 
ATOM      7  O   UNL     1     194.205 186.476 183.331  1.00  0.00    -0.544 OA
ATOM      8  O   UNL     1     195.742 188.132 182.955  1.00  0.00    -0.544 OA
ENDBRANCH   1   6
TORSDOF 2
ENDMDL
MODEL 4
REMARK VINA RESULT:    -2.382      8.482      8.743
REMARK INTER + INTRA:          -2.591
REMARK INTER:                  -2.591
REMARK INTRA:                   0.000
REMARK UNBOUND:                 0.000
REMARK SMILES [NH3+]CC(=O)[O-]
REMARK SMILES IDX 2 1 1 2 3 6 4 7 5 8
REMARK H PARENT 1 3 1 4 1 5
REMARK Flexibility Score: inf
ROOT
ATOM      1  C   UNL     1     195.468 186.109 174.737  1.00  0.00     0.312 C 
ENDROOT
BRANCH   1   2
ATOM      2  N   UNL     1     195.109 185.630 173.403  1.00  0.00    -0.353 N 
ATOM      3  H   UNL     1     194.289 184.983 173.463  1.00  0.00     0.344 HD
ATOM      4  H   UNL     1     195.921 185.134 172.969  1.00  0.00     0.344 HD
ATOM      5  H   UNL     1     194.853 186.448 172.804  1.00  0.00     0.344 HD
ENDBRANCH   1   2
BRANCH   1   6
ATOM      6  C   UNL     1     195.261 187.588 174.841  1.00  0.00     0.096 C 
ATOM      7  O   UNL     1     196.110 188.306 175.433  1.00  0.00    -0.544 OA
ATOM      8  O   UNL     1     194.157 188.180 174.242  1.00  0.00    -0.544 OA
ENDBRANCH   1   6
TORSDOF 2
ENDMDL
MODEL 5
REMARK VINA RESULT:    -2.357      2.278      2.359
REMARK INTER + INTRA:          -2.563
REMARK INTER:                  -2.563
REMARK INTRA:                   0.000
REMARK UNBOUND:                 0.000
REMARK SMILES [NH3+]CC(=O)[O-]
REMARK SMILES IDX 2 1 1 2 3 6 4 7 5 8
REMARK H PARENT 1 3 1 4 1 5
REMARK Flexibility Score: inf
ROOT
ATOM      1  C   UNL     1     196.179 185.861 182.351  1.00  0.00     0.312 C 
ENDROOT
BRANCH   1   2
ATOM      2  N   UNL     1     196.459 184.856 183.374  1.00  0.00    -0.353 N 
ATOM      3  H   UNL     1     195.675 184.820 184.066  1.00  0.00     0.344 HD
ATOM      4  H   UNL     1     197.354 185.083 183.866  1.00  0.00     0.344 HD
ATOM      5  H   UNL     1     196.552 183.920 182.917  1.00  0.00     0.344 HD
ENDBRANCH   1   2
BRANCH   1   6
ATOM      6  C   UNL     1     195.380 186.990 182.923  1.00  0.00     0.096 C 
ATOM      7  O   UNL     1     195.741 188.181 182.735  1.00  0.00    -0.544 OA
ATOM      8  O   UNL     1     194.208 186.729 183.621  1.00  0.00    -0.544 OA
ENDBRANCH   1   6
TORSDOF 2
ENDMDL
MODEL 6
REMARK VINA RESULT:    -2.353     11.059     11.454
REMARK INTER + INTRA:          -2.560
REMARK INTER:                  -2.560
REMARK INTRA:                   0.000
REMARK UNBOUND:                 0.000
REMARK SMILES [NH3+]CC(=O)[O-]
REMARK SMILES IDX 2 1 1 2 3 6 4 7 5 8
REMARK H PARENT 1 3 1 4 1 5
REMARK Flexibility Score: inf
ROOT
ATOM      1  C   UNL     1     194.336 180.118 173.568  1.00  0.00     0.312 C 
ENDROOT
BRANCH   1   2
ATOM      2  N   UNL     1     195.212 180.193 172.400  1.00  0.00    -0.353 N 
ATOM      3  H   UNL     1     194.995 179.414 171.737  1.00  0.00     0.344 HD
ATOM      4  H   UNL     1     196.213 180.135 172.698  1.00  0.00     0.344 HD
ATOM      5  H   UNL     1     195.056 181.106 171.915  1.00  0.00     0.344 HD
ENDBRANCH   1   2
BRANCH   1   6
ATOM      6  C   UNL     1     194.928 180.864 174.722  1.00  0.00     0.096 C 
ATOM      7  O   UNL     1     194.811 182.116 174.795  1.00  0.00    -0.544 OA
ATOM      8  O   UNL     1     195.567 180.172 175.743  1.00  0.00    -0.544 OA
ENDBRANCH   1   6
TORSDOF 2
ENDMDL
MODEL 7
REMARK VINA RESULT:    -2.339      2.636      2.979
REMARK INTER + INTRA:          -2.544
REMARK INTER:                  -2.544
REMARK INTRA:                   0.000
REMARK UNBOUND:                 0.000
REMARK SMILES [NH3+]CC(=O)[O-]
REMARK SMILES IDX 2 1 1 2 3 6 4 7 5 8
REMARK H PARENT 1 3 1 4 1 5
REMARK Flexibility Score: inf
ROOT
ATOM      1  C   UNL     1     196.375 188.272 180.259  1.00  0.00     0.312 C 
ENDROOT
BRANCH   1   2
ATOM      2  N   UNL     1     195.198 188.995 179.779  1.00  0.00    -0.353 N 
ATOM      3  H   UNL     1     195.406 189.450 178.861  1.00  0.00     0.344 HD
ATOM      4  H   UNL     1     194.914 189.721 180.477  1.00  0.00     0.344 HD
ATOM      5  H   UNL     1     194.410 188.320 179.654  1.00  0.00     0.344 HD
ENDBRANCH   1   2
BRANCH   1   6
ATOM      6  C   UNL     1     196.095 187.623 181.578  1.00  0.00     0.096 C 
ATOM      7  O   UNL     1     195.768 188.324 182.572  1.00  0.00    -0.544 OA
ATOM      8  O   UNL     1     196.145 186.240 181.697  1.00  0.00    -0.544 OA
ENDBRANCH   1   6
TORSDOF 2
ENDMDL
MODEL 8
REMARK VINA RESULT:    -2.312      1.061      1.681
REMARK INTER + INTRA:          -2.515
REMARK INTER:                  -2.515
REMARK INTRA:                   0.000
REMARK UNBOUND:                 0.000
REMARK SMILES [NH3+]CC(=O)[O-]
REMARK SMILES IDX 2 1 1 2 3 6 4 7 5 8
REMARK H PARENT 1 3 1 4 1 5
REMARK Flexibility Score: inf
ROOT
ATOM      1  C   UNL     1     194.624 186.434 182.593  1.00  0.00     0.312 C 
ENDROOT
BRANCH   1   2
ATOM      2  N   UNL     1     193.817 186.289 183.803  1.00  0.00    -0.353 N 
ATOM      3  H   UNL     1     193.264 185.402 183.762  1.00  0.00     0.344 HD
ATOM      4  H   UNL     1     193.169 187.105 183.903  1.00  0.00     0.344 HD
ATOM      5  H   UNL     1     194.450 186.256 184.634  1.00  0.00     0.344 HD
ENDBRANCH   1   2
BRANCH   1   6
ATOM      6  C   UNL     1     195.725 187.425 182.808  1.00  0.00     0.096 C 
ATOM      7  O   UNL     1     196.826 187.287 182.213  1.00  0.00    -0.544 OA
ATOM      8  O   UNL     1     195.518 188.528 183.626  1.00  0.00    -0.544 OA
ENDBRANCH   1   6
TORSDOF 2
ENDMDL
MODEL 9
REMARK VINA RESULT:    -2.244      8.643      8.879
REMARK INTER + INTRA:          -2.441
REMARK INTER:                  -2.441
REMARK INTRA:                   0.000
REMARK UNBOUND:                 0.000
REMARK SMILES [NH3+]CC(=O)[O-]
REMARK SMILES IDX 2 1 1 2 3 6 4 7 5 8
REMARK H PARENT 1 3 1 4 1 5
REMARK Flexibility Score: inf
ROOT
ATOM      1  C   UNL     1     196.081 188.004 175.626  1.00  0.00     0.312 C 
ENDROOT
BRANCH   1   2
ATOM      2  N   UNL     1     196.874 189.125 175.126  1.00  0.00    -0.353 N 
ATOM      3  H   UNL     1     197.877 189.004 175.396  1.00  0.00     0.344 HD
ATOM      4  H   UNL     1     196.509 190.025 175.514  1.00  0.00     0.344 HD
ATOM      5  H   UNL     1     196.805 189.154 174.083  1.00  0.00     0.344 HD
ENDBRANCH   1   2
BRANCH   1   6
ATOM      6  C   UNL     1     195.198 187.458 174.548  1.00  0.00     0.096 C 
ATOM      7  O   UNL     1     195.329 186.266 174.164  1.00  0.00    -0.544 OA
ATOM      8  O   UNL     1     194.197 188.251 174.001  1.00  0.00    -0.544 OA
ENDBRANCH   1   6
TORSDOF 2
ENDMDL
