MODEL 1
REMARK VINA RESULT:    -5.606      0.000      0.000
REMARK INTER + INTRA:          -9.037
REMARK INTER:                  -7.736
REMARK INTRA:                  -1.301
REMARK UNBOUND:                -1.301
REMARK SMILES CCCCc1cccc(O)c1CCCC
REMARK SMILES IDX 5 1 11 2 9 3 8 4 7 5 6 6 4 7 3 8 2 9 1 10 12 11 13 12 14 13
REMARK SMILES IDX 15 14 10 15
REMARK H PARENT 10 16
REMARK Flexibility Score: inf
ROOT
ATOM      1  C   UNL     1      -4.638  -0.291  13.397  1.00  0.00    -0.041 A 
ATOM      2  C   UNL     1      -5.393  -1.059  12.458  1.00  0.00    -0.003 A 
ATOM      3  C   UNL     1      -6.517  -0.454  11.828  1.00  0.00     0.119 A 
ATOM      4  C   UNL     1      -6.842   0.876  12.098  1.00  0.00     0.046 A 
ATOM      5  C   UNL     1      -6.088   1.623  12.994  1.00  0.00     0.004 A 
ATOM      6  C   UNL     1      -5.003   1.046  13.642  1.00  0.00     0.004 A 
ENDROOT
BRANCH   1   7
ATOM      7  C   UNL     1      -3.461  -0.845  14.187  1.00  0.00     0.036 C 
BRANCH   7   8
ATOM      8  C   UNL     1      -2.086  -0.404  13.649  1.00  0.00     0.004 C 
BRANCH   8   9
ATOM      9  C   UNL     1      -0.981  -1.465  13.789  1.00  0.00    -0.003 C 
ATOM     10  C   UNL     1      -0.139  -1.609  12.522  1.00  0.00     0.004 C 
ENDBRANCH   8   9
ENDBRANCH   7   8
ENDBRANCH   1   7
BRANCH   2  11
ATOM     11  C   UNL     1      -4.995  -2.477  12.081  1.00  0.00     0.040 C 
BRANCH  11  12
ATOM     12  C   UNL     1      -3.988  -2.476  10.914  1.00  0.00     0.005 C 
BRANCH  12  13
ATOM     13  C   UNL     1      -2.953  -3.604  11.025  1.00  0.00    -0.003 C 
ATOM     14  C   UNL     1      -2.919  -4.236  12.417  1.00  0.00     0.004 C 
ENDBRANCH  12  13
ENDBRANCH  11  12
ENDBRANCH   2  11
BRANCH   3  15
ATOM     15  O   UNL     1      -7.342  -1.140  10.930  1.00  0.00    -0.508 OA
ATOM     16  H   UNL     1      -8.313  -1.357  11.102  1.00  0.00     0.293 HD
ENDBRANCH   3  15
TORSDOF 7
ENDMDL
MODEL 2
REMARK VINA RESULT:    -5.574      2.129      4.970
REMARK INTER + INTRA:          -8.993
REMARK INTER:                  -7.734
REMARK INTRA:                  -1.259
REMARK UNBOUND:                -1.301
REMARK SMILES CCCCc1cccc(O)c1CCCC
REMARK SMILES IDX 5 1 11 2 9 3 8 4 7 5 6 6 4 7 3 8 2 9 1 10 12 11 13 12 14 13
REMARK SMILES IDX 15 14 10 15
REMARK H PARENT 10 16
REMARK Flexibility Score: inf
ROOT
ATOM      1  C   UNL     1      -5.892  -2.275  10.617  1.00  0.00    -0.041 A 
ATOM      2  C   UNL     1      -4.716  -2.816  11.222  1.00  0.00    -0.003 A 
ATOM      3  C   UNL     1      -3.909  -3.712  10.464  1.00  0.00     0.119 A 
ATOM      4  C   UNL     1      -4.247  -4.016   9.143  1.00  0.00     0.046 A 
ATOM      5  C   UNL     1      -5.378  -3.465   8.556  1.00  0.00     0.004 A 
ATOM      6  C   UNL     1      -6.196  -2.610   9.284  1.00  0.00     0.004 A 
ENDROOT
BRANCH   1   7
ATOM      7  C   UNL     1      -6.871  -1.365  11.344  1.00  0.00     0.036 C 
BRANCH   7   8
ATOM      8  C   UNL     1      -6.619   0.137  11.110  1.00  0.00     0.004 C 
BRANCH   8   9
ATOM      9  C   UNL     1      -6.867   1.021  12.344  1.00  0.00    -0.003 C 
ATOM     10  C   UNL     1      -5.832   2.136  12.489  1.00  0.00     0.004 C 
ENDBRANCH   8   9
ENDBRANCH   7   8
ENDBRANCH   1   7
BRANCH   2  11
ATOM     11  C   UNL     1      -4.282  -2.421  12.624  1.00  0.00     0.040 C 
BRANCH  11  12
ATOM     12  C   UNL     1      -3.389  -1.165  12.593  1.00  0.00     0.005 C 
BRANCH  12  13
ATOM     13  C   UNL     1      -3.336  -0.444  13.947  1.00  0.00    -0.003 C 
ATOM     14  C   UNL     1      -4.628  -0.603  14.749  1.00  0.00     0.004 C 
ENDBRANCH  12  13
ENDBRANCH  11  12
ENDBRANCH   2  11
BRANCH   3  15
ATOM     15  O   UNL     1      -2.766  -4.327  10.985  1.00  0.00    -0.508 OA
ATOM     16  H   UNL     1      -2.506  -5.287  10.809  1.00  0.00     0.293 HD
ENDBRANCH   3  15
TORSDOF 7
ENDMDL
MODEL 3
REMARK VINA RESULT:    -5.558      2.103      4.886
REMARK INTER + INTRA:          -8.971
REMARK INTER:                  -7.682
REMARK INTRA:                  -1.289
REMARK UNBOUND:                -1.301
REMARK SMILES CCCCc1cccc(O)c1CCCC
REMARK SMILES IDX 5 1 11 2 9 3 8 4 7 5 6 6 4 7 3 8 2 9 1 10 12 11 13 12 14 13
REMARK SMILES IDX 15 14 10 15
REMARK H PARENT 10 16
REMARK Flexibility Score: inf
ROOT
ATOM      1  C   UNL     1      -2.755  -2.918  12.211  1.00  0.00    -0.041 A 
ATOM      2  C   UNL     1      -3.468  -1.930  12.960  1.00  0.00    -0.003 A 
ATOM      3  C   UNL     1      -2.729  -1.038  13.789  1.00  0.00     0.119 A 
ATOM      4  C   UNL     1      -1.335  -1.110  13.831  1.00  0.00     0.046 A 
ATOM      5  C   UNL     1      -0.651  -2.056  13.080  1.00  0.00     0.004 A 
ATOM      6  C   UNL     1      -1.351  -2.955  12.285  1.00  0.00     0.004 A 
ENDROOT
BRANCH   1   7
ATOM      7  C   UNL     1      -3.434  -3.970  11.345  1.00  0.00     0.036 C 
BRANCH   7   8
ATOM      8  C   UNL     1      -3.372  -3.670   9.835  1.00  0.00     0.004 C 
BRANCH   8   9
ATOM      9  C   UNL     1      -4.605  -4.140   9.045  1.00  0.00    -0.003 C 
ATOM     10  C   UNL     1      -5.105  -3.090   8.054  1.00  0.00     0.004 C 
ENDBRANCH   8   9
ENDBRANCH   7   8
ENDBRANCH   1   7
BRANCH   2  11
ATOM     11  C   UNL     1      -4.976  -1.777  12.851  1.00  0.00     0.040 C 
BRANCH  11  12
ATOM     12  C   UNL     1      -5.353  -0.820  11.703  1.00  0.00     0.005 C 
BRANCH  12  13
ATOM     13  C   UNL     1      -6.659  -1.223  11.003  1.00  0.00    -0.003 C 
ATOM     14  C   UNL     1      -7.064  -2.667  11.300  1.00  0.00     0.004 C 
ENDBRANCH  12  13
ENDBRANCH  11  12
ENDBRANCH   2  11
BRANCH   3  15
ATOM     15  O   UNL     1      -3.340  -0.070  14.592  1.00  0.00    -0.508 OA
ATOM     16  H   UNL     1      -2.886   0.401  15.361  1.00  0.00     0.293 HD
ENDBRANCH   3  15
TORSDOF 7
ENDMDL
MODEL 4
REMARK VINA RESULT:    -5.465      1.715      3.385
REMARK INTER + INTRA:          -8.843
REMARK INTER:                  -7.507
REMARK INTRA:                  -1.336
REMARK UNBOUND:                -1.301
REMARK SMILES CCCCc1cccc(O)c1CCCC
REMARK SMILES IDX 5 1 11 2 9 3 8 4 7 5 6 6 4 7 3 8 2 9 1 10 12 11 13 12 14 13
REMARK SMILES IDX 15 14 10 15
REMARK H PARENT 10 16
REMARK Flexibility Score: inf
ROOT
ATOM      1  C   UNL     1      -5.091  -0.534  11.965  1.00  0.00    -0.041 A 
ATOM      2  C   UNL     1      -4.039   0.372  12.306  1.00  0.00    -0.003 A 
ATOM      3  C   UNL     1      -4.379   1.707  12.668  1.00  0.00     0.119 A 
ATOM      4  C   UNL     1      -5.717   2.100  12.725  1.00  0.00     0.046 A 
ATOM      5  C   UNL     1      -6.733   1.205  12.416  1.00  0.00     0.004 A 
ATOM      6  C   UNL     1      -6.425  -0.095  12.033  1.00  0.00     0.004 A 
ENDROOT
BRANCH   1   7
ATOM      7  C   UNL     1      -4.853  -1.962  11.495  1.00  0.00     0.036 C 
BRANCH   7   8
ATOM      8  C   UNL     1      -4.853  -3.002  12.632  1.00  0.00     0.004 C 
BRANCH   8   9
ATOM      9  C   UNL     1      -3.625  -3.929  12.642  1.00  0.00    -0.003 C 
ATOM     10  C   UNL     1      -2.814  -3.847  11.349  1.00  0.00     0.004 C 
ENDBRANCH   8   9
ENDBRANCH   7   8
ENDBRANCH   1   7
BRANCH   2  11
ATOM     11  C   UNL     1      -2.584  -0.068  12.341  1.00  0.00     0.040 C 
BRANCH  11  12
ATOM     12  C   UNL     1      -2.188  -0.552  13.749  1.00  0.00     0.005 C 
BRANCH  12  13
ATOM     13  C   UNL     1      -0.999  -1.524  13.727  1.00  0.00    -0.003 C 
ATOM     14  C   UNL     1      -0.156  -1.392  12.458  1.00  0.00     0.004 C 
ENDBRANCH  12  13
ENDBRANCH  11  12
ENDBRANCH   2  11
BRANCH   3  15
ATOM     15  O   UNL     1      -3.418   2.676  12.973  1.00  0.00    -0.508 OA
ATOM     16  H   UNL     1      -2.756   2.602  13.732  1.00  0.00     0.293 HD
ENDBRANCH   3  15
TORSDOF 7
ENDMDL
MODEL 5
REMARK VINA RESULT:    -5.436      2.620      4.907
REMARK INTER + INTRA:          -8.803
REMARK INTER:                  -7.482
REMARK INTRA:                  -1.320
REMARK UNBOUND:                -1.301
REMARK SMILES CCCCc1cccc(O)c1CCCC
REMARK SMILES IDX 5 1 11 2 9 3 8 4 7 5 6 6 4 7 3 8 2 9 1 10 12 11 13 12 14 13
REMARK SMILES IDX 15 14 10 15
REMARK H PARENT 10 16
REMARK Flexibility Score: inf
ROOT
ATOM      1  C   UNL     1      -2.819  -1.572  12.285  1.00  0.00    -0.041 A 
ATOM      2  C   UNL     1      -2.243  -1.951  11.033  1.00  0.00    -0.003 A 
ATOM      3  C   UNL     1      -0.828  -2.084  10.946  1.00  0.00     0.119 A 
ATOM      4  C   UNL     1      -0.032  -1.887  12.076  1.00  0.00     0.046 A 
ATOM      5  C   UNL     1      -0.603  -1.544  13.294  1.00  0.00     0.004 A 
ATOM      6  C   UNL     1      -1.979  -1.381  13.398  1.00  0.00     0.004 A 
ENDROOT
BRANCH   1   7
ATOM      7  C   UNL     1      -4.307  -1.329  12.489  1.00  0.00     0.036 C 
BRANCH   7   8
ATOM      8  C   UNL     1      -5.095  -2.588  12.900  1.00  0.00     0.004 C 
BRANCH   8   9
ATOM      9  C   UNL     1      -6.423  -2.779  12.149  1.00  0.00    -0.003 C 
ATOM     10  C   UNL     1      -6.712  -1.645  11.165  1.00  0.00     0.004 C 
ENDBRANCH   8   9
ENDBRANCH   7   8
ENDBRANCH   1   7
BRANCH   2  11
ATOM     11  C   UNL     1      -3.102  -2.262   9.818  1.00  0.00     0.040 C 
BRANCH  11  12
ATOM     12  C   UNL     1      -3.428  -3.766   9.744  1.00  0.00     0.005 C 
BRANCH  12  13
ATOM     13  C   UNL     1      -4.754  -4.048   9.022  1.00  0.00    -0.003 C 
ATOM     14  C   UNL     1      -5.104  -2.972   7.995  1.00  0.00     0.004 C 
ENDBRANCH  12  13
ENDBRANCH  11  12
ENDBRANCH   2  11
BRANCH   3  15
ATOM     15  O   UNL     1      -0.170  -2.405   9.754  1.00  0.00    -0.508 OA
ATOM     16  H   UNL     1       0.590  -3.068   9.684  1.00  0.00     0.293 HD
ENDBRANCH   3  15
TORSDOF 7
ENDMDL
MODEL 6
REMARK VINA RESULT:    -5.387      1.944      4.630
REMARK INTER + INTRA:          -8.736
REMARK INTER:                  -7.411
REMARK INTRA:                  -1.324
REMARK UNBOUND:                -1.301
REMARK SMILES CCCCc1cccc(O)c1CCCC
REMARK SMILES IDX 5 1 11 2 9 3 8 4 7 5 6 6 4 7 3 8 2 9 1 10 12 11 13 12 14 13
REMARK SMILES IDX 15 14 10 15
REMARK H PARENT 10 16
REMARK Flexibility Score: inf
ROOT
ATOM      1  C   UNL     1      -4.488  -2.327  10.544  1.00  0.00    -0.041 A 
ATOM      2  C   UNL     1      -5.169  -1.266   9.870  1.00  0.00    -0.003 A 
ATOM      3  C   UNL     1      -5.668  -1.500   8.557  1.00  0.00     0.119 A 
ATOM      4  C   UNL     1      -5.527  -2.757   7.966  1.00  0.00     0.046 A 
ATOM      5  C   UNL     1      -4.886  -3.789   8.638  1.00  0.00     0.004 A 
ATOM      6  C   UNL     1      -4.366  -3.577   9.909  1.00  0.00     0.004 A 
ENDROOT
BRANCH   1   7
ATOM      7  C   UNL     1      -3.849  -2.181  11.917  1.00  0.00     0.036 C 
BRANCH   7   8
ATOM      8  C   UNL     1      -4.785  -2.551  13.084  1.00  0.00     0.004 C 
BRANCH   8   9
ATOM      9  C   UNL     1      -4.761  -1.555  14.256  1.00  0.00    -0.003 C 
ATOM     10  C   UNL     1      -3.691  -0.476  14.090  1.00  0.00     0.004 C 
ENDBRANCH   8   9
ENDBRANCH   7   8
ENDBRANCH   1   7
BRANCH   2  11
ATOM     11  C   UNL     1      -5.415   0.078  10.537  1.00  0.00     0.040 C 
BRANCH  11  12
ATOM     12  C   UNL     1      -6.788   0.104  11.236  1.00  0.00     0.005 C 
BRANCH  12  13
ATOM     13  C   UNL     1      -6.797   0.990  12.490  1.00  0.00    -0.003 C 
ATOM     14  C   UNL     1      -5.822   2.163  12.387  1.00  0.00     0.004 C 
ENDBRANCH  12  13
ENDBRANCH  11  12
ENDBRANCH   2  11
BRANCH   3  15
ATOM     15  O   UNL     1      -6.307  -0.511   7.802  1.00  0.00    -0.508 OA
ATOM     16  H   UNL     1      -6.453   0.438   8.115  1.00  0.00     0.293 HD
ENDBRANCH   3  15
TORSDOF 7
ENDMDL
MODEL 7
REMARK VINA RESULT:    -5.290      2.038      3.801
REMARK INTER + INTRA:          -8.601
REMARK INTER:                  -7.750
REMARK INTRA:                  -0.851
REMARK UNBOUND:                -1.301
REMARK SMILES CCCCc1cccc(O)c1CCCC
REMARK SMILES IDX 5 1 11 2 9 3 8 4 7 5 6 6 4 7 3 8 2 9 1 10 12 11 13 12 14 13
REMARK SMILES IDX 15 14 10 15
REMARK H PARENT 10 16
REMARK Flexibility Score: inf
ROOT
ATOM      1  C   UNL     1      -5.961  -0.917  11.896  1.00  0.00    -0.041 A 
ATOM      2  C   UNL     1      -4.934  -1.082  12.878  1.00  0.00    -0.003 A 
ATOM      3  C   UNL     1      -4.715  -0.035  13.818  1.00  0.00     0.119 A 
ATOM      4  C   UNL     1      -5.519   1.107  13.798  1.00  0.00     0.046 A 
ATOM      5  C   UNL     1      -6.529   1.246  12.857  1.00  0.00     0.004 A 
ATOM      6  C   UNL     1      -6.745   0.251  11.912  1.00  0.00     0.004 A 
ENDROOT
BRANCH   1   7
ATOM      7  C   UNL     1      -6.245  -1.930  10.797  1.00  0.00     0.036 C 
BRANCH   7   8
ATOM      8  C   UNL     1      -5.425  -1.704   9.512  1.00  0.00     0.004 C 
BRANCH   8   9
ATOM      9  C   UNL     1      -5.483  -2.869   8.510  1.00  0.00    -0.003 C 
ATOM     10  C   UNL     1      -4.848  -4.148   9.056  1.00  0.00     0.004 C 
ENDBRANCH   8   9
ENDBRANCH   7   8
ENDBRANCH   1   7
BRANCH   2  11
ATOM     11  C   UNL     1      -4.115  -2.359  12.973  1.00  0.00     0.040 C 
BRANCH  11  12
ATOM     12  C   UNL     1      -2.807  -2.237  12.167  1.00  0.00     0.005 C 
BRANCH  12  13
ATOM     13  C   UNL     1      -1.600  -2.829  12.909  1.00  0.00    -0.003 C 
ATOM     14  C   UNL     1      -0.863  -1.791  13.756  1.00  0.00     0.004 C 
ENDBRANCH  12  13
ENDBRANCH  11  12
ENDBRANCH   2  11
BRANCH   3  15
ATOM     15  O   UNL     1      -3.706  -0.085  14.785  1.00  0.00    -0.508 OA
ATOM     16  H   UNL     1      -3.405   0.706  15.335  1.00  0.00     0.293 HD
ENDBRANCH   3  15
TORSDOF 7
ENDMDL
MODEL 8
REMARK VINA RESULT:    -5.274      2.705      5.100
REMARK INTER + INTRA:          -8.579
REMARK INTER:                  -7.368
REMARK INTRA:                  -1.211
REMARK UNBOUND:                -1.301
REMARK SMILES CCCCc1cccc(O)c1CCCC
REMARK SMILES IDX 5 1 11 2 9 3 8 4 7 5 6 6 4 7 3 8 2 9 1 10 12 11 13 12 14 13
REMARK SMILES IDX 15 14 10 15
REMARK H PARENT 10 16
REMARK Flexibility Score: inf
ROOT
ATOM      1  C   UNL     1      -2.995  -0.632  12.564  1.00  0.00    -0.041 A 
ATOM      2  C   UNL     1      -2.383  -0.907  11.302  1.00  0.00    -0.003 A 
ATOM      3  C   UNL     1      -1.053  -1.416  11.284  1.00  0.00     0.119 A 
ATOM      4  C   UNL     1      -0.384  -1.675  12.482  1.00  0.00     0.046 A 
ATOM      5  C   UNL     1      -0.996  -1.428  13.704  1.00  0.00     0.004 A 
ATOM      6  C   UNL     1      -2.283  -0.906  13.746  1.00  0.00     0.004 A 
ENDROOT
BRANCH   1   7
ATOM      7  C   UNL     1      -4.381  -0.022  12.713  1.00  0.00     0.036 C 
BRANCH   7   8
ATOM      8  C   UNL     1      -4.390   1.518  12.710  1.00  0.00     0.004 C 
BRANCH   8   9
ATOM      9  C   UNL     1      -5.767   2.144  12.435  1.00  0.00    -0.003 C 
ATOM     10  C   UNL     1      -6.916   1.158  12.648  1.00  0.00     0.004 C 
ENDBRANCH   8   9
ENDBRANCH   7   8
ENDBRANCH   1   7
BRANCH   2  11
ATOM     11  C   UNL     1      -3.132  -0.721   9.992  1.00  0.00     0.040 C 
BRANCH  11  12
ATOM     12  C   UNL     1      -2.872   0.679   9.402  1.00  0.00     0.005 C 
BRANCH  12  13
ATOM     13  C   UNL     1      -4.096   1.247   8.668  1.00  0.00    -0.003 C 
ATOM     14  C   UNL     1      -5.396   0.546   9.062  1.00  0.00     0.004 C 
ENDBRANCH  12  13
ENDBRANCH  11  12
ENDBRANCH   2  11
BRANCH   3  15
ATOM     15  O   UNL     1      -0.356  -1.672  10.099  1.00  0.00    -0.508 OA
ATOM     16  H   UNL     1       0.636  -1.526   9.980  1.00  0.00     0.293 HD
ENDBRANCH   3  15
TORSDOF 7
ENDMDL
MODEL 9
REMARK VINA RESULT:    -5.241      2.594      4.338
REMARK INTER + INTRA:          -8.534
REMARK INTER:                  -7.290
REMARK INTRA:                  -1.244
REMARK UNBOUND:                -1.301
REMARK SMILES CCCCc1cccc(O)c1CCCC
REMARK SMILES IDX 5 1 11 2 9 3 8 4 7 5 6 6 4 7 3 8 2 9 1 10 12 11 13 12 14 13
REMARK SMILES IDX 15 14 10 15
REMARK H PARENT 10 16
REMARK Flexibility Score: inf
ROOT
ATOM      1  C   UNL     1      -3.444  -2.415  10.502  1.00  0.00    -0.041 A 
ATOM      2  C   UNL     1      -4.059  -1.347   9.776  1.00  0.00    -0.003 A 
ATOM      3  C   UNL     1      -4.851  -1.664   8.636  1.00  0.00     0.119 A 
ATOM      4  C   UNL     1      -5.049  -2.996   8.267  1.00  0.00     0.046 A 
ATOM      5  C   UNL     1      -4.469  -4.027   8.993  1.00  0.00     0.004 A 
ATOM      6  C   UNL     1      -3.670  -3.742  10.093  1.00  0.00     0.004 A 
ENDROOT
BRANCH   1   7
ATOM      7  C   UNL     1      -2.521  -2.202  11.692  1.00  0.00     0.036 C 
BRANCH   7   8
ATOM      8  C   UNL     1      -1.036  -2.050  11.311  1.00  0.00     0.004 C 
BRANCH   8   9
ATOM      9  C   UNL     1      -0.135  -1.556  12.456  1.00  0.00    -0.003 C 
ATOM     10  C   UNL     1      -0.832  -1.602  13.816  1.00  0.00     0.004 C 
ENDBRANCH   8   9
ENDBRANCH   7   8
ENDBRANCH   1   7
BRANCH   2  11
ATOM     11  C   UNL     1      -3.931   0.101  10.221  1.00  0.00     0.040 C 
BRANCH  11  12
ATOM     12  C   UNL     1      -2.717   0.778   9.554  1.00  0.00     0.005 C 
BRANCH  12  13
ATOM     13  C   UNL     1      -1.906   1.635  10.536  1.00  0.00    -0.003 C 
ATOM     14  C   UNL     1      -2.402   1.508  11.976  1.00  0.00     0.004 C 
ENDBRANCH  12  13
ENDBRANCH  11  12
ENDBRANCH   2  11
BRANCH   3  15
ATOM     15  O   UNL     1      -5.454  -0.687   7.837  1.00  0.00    -0.508 OA
ATOM     16  H   UNL     1      -6.423  -0.412   7.909  1.00  0.00     0.293 HD
ENDBRANCH   3  15
TORSDOF 7
ENDMDL
