MODEL 1
REMARK VINA RESULT:    -7.714      0.000      0.000
REMARK INTER + INTRA:          -9.536
REMARK INTER:                  -9.293
REMARK INTRA:                  -0.244
REMARK UNBOUND:                -0.244
REMARK SMILES O=c1c(O)c(-c2ccc(O)c(O)c2)oc2cc(O)cc(O)c12
REMARK SMILES IDX 5 1 3 2 2 3 1 4 22 5 20 6 19 7 17 8 16 9 15 10 14 11 6 12
REMARK SMILES IDX 7 13 8 14 9 15 13 16 11 17 10 18 12 20 4 22 21 24 18 26
REMARK H PARENT 10 19 12 21 4 23 21 25 18 27
REMARK Flexibility Score: inf
ROOT
ATOM      1  C   UNL     1      21.469  -6.560 -28.216  1.00  0.00     0.180 A 
ATOM      2  C   UNL     1      22.830  -6.899 -28.119  1.00  0.00     0.208 A 
ATOM      3  C   UNL     1      23.737  -5.944 -27.633  1.00  0.00     0.238 A 
ATOM      4  O   UNL     1      24.945  -6.273 -27.498  1.00  0.00    -0.285 OA
ATOM      5  C   UNL     1      23.277  -4.658 -27.265  1.00  0.00     0.111 A 
ATOM      6  C   UNL     1      24.114  -3.600 -26.798  1.00  0.00     0.134 A 
ATOM      7  C   UNL     1      23.533  -2.411 -26.338  1.00  0.00     0.093 A 
ATOM      8  C   UNL     1      22.153  -2.217 -26.389  1.00  0.00     0.123 A 
ATOM      9  C   UNL     1      21.331  -3.222 -26.900  1.00  0.00     0.094 A 
ATOM     10  C   UNL     1      21.877  -4.432 -27.332  1.00  0.00     0.146 A 
ATOM     11  O   UNL     1      21.058  -5.367 -27.800  1.00  0.00    -0.452 OA
ENDROOT
BRANCH   1  12
ATOM     12  C   UNL     1      20.457  -7.503 -28.741  1.00  0.00     0.025 A 
ATOM     13  C   UNL     1      20.417  -7.851 -30.103  1.00  0.00     0.016 A 
ATOM     14  C   UNL     1      19.438  -8.725 -30.581  1.00  0.00     0.051 A 
ATOM     15  C   UNL     1      18.475  -9.252 -29.710  1.00  0.00     0.157 A 
ATOM     16  C   UNL     1      19.476  -8.018 -27.877  1.00  0.00     0.062 A 
ATOM     17  C   UNL     1      18.492  -8.896 -28.356  1.00  0.00     0.158 A 
BRANCH  15  18
ATOM     18  O   UNL     1      17.497 -10.125 -30.183  1.00  0.00    -0.504 OA
ATOM     19  H   UNL     1      17.056  -9.987 -31.085  1.00  0.00     0.293 HD
ENDBRANCH  15  18
BRANCH  17  20
ATOM     20  O   UNL     1      17.530  -9.415 -27.494  1.00  0.00    -0.504 OA
ATOM     21  H   UNL     1      17.406  -9.051 -26.556  1.00  0.00     0.293 HD
ENDBRANCH  17  20
ENDBRANCH   1  12
BRANCH   2  22
ATOM     22  O   UNL     1      23.260  -8.182 -28.468  1.00  0.00    -0.502 OA
ATOM     23  H   UNL     1      22.899  -9.017 -28.022  1.00  0.00     0.293 HD
ENDBRANCH   2  22
BRANCH   6  24
ATOM     24  O   UNL     1      25.511  -3.656 -26.791  1.00  0.00    -0.507 OA
ATOM     25  H   UNL     1      26.107  -3.192 -27.460  1.00  0.00     0.293 HD
ENDBRANCH   6  24
BRANCH   8  26
ATOM     26  O   UNL     1      21.612  -1.016 -25.938  1.00  0.00    -0.508 OA
ATOM     27  H   UNL     1      22.084  -0.132 -26.087  1.00  0.00     0.293 HD
ENDBRANCH   8  26
TORSDOF 6
ENDMDL
MODEL 2
REMARK VINA RESULT:    -7.631      3.896      5.549
REMARK INTER + INTRA:          -9.436
REMARK INTER:                  -9.152
REMARK INTRA:                  -0.284
REMARK UNBOUND:                -0.244
REMARK SMILES O=c1c(O)c(-c2ccc(O)c(O)c2)oc2cc(O)cc(O)c12
REMARK SMILES IDX 5 1 3 2 2 3 1 4 22 5 20 6 19 7 17 8 16 9 15 10 14 11 6 12
REMARK SMILES IDX 7 13 8 14 9 15 13 16 11 17 10 18 12 20 4 22 21 24 18 26
REMARK H PARENT 10 19 12 21 4 23 21 25 18 27
REMARK Flexibility Score: inf
ROOT
ATOM      1  C   UNL     1      24.560  -4.204 -26.778  1.00  0.00     0.180 A 
ATOM      2  C   UNL     1      23.308  -3.624 -26.510  1.00  0.00     0.208 A 
ATOM      3  C   UNL     1      23.222  -2.231 -26.353  1.00  0.00     0.238 A 
ATOM      4  O   UNL     1      22.090  -1.713 -26.168  1.00  0.00    -0.285 OA
ATOM      5  C   UNL     1      24.390  -1.438 -26.450  1.00  0.00     0.111 A 
ATOM      6  C   UNL     1      24.425  -0.023 -26.268  1.00  0.00     0.134 A 
ATOM      7  C   UNL     1      25.614   0.676 -26.515  1.00  0.00     0.093 A 
ATOM      8  C   UNL     1      26.783   0.004 -26.873  1.00  0.00     0.123 A 
ATOM      9  C   UNL     1      26.774  -1.386 -26.995  1.00  0.00     0.094 A 
ATOM     10  C   UNL     1      25.595  -2.106 -26.791  1.00  0.00     0.146 A 
ATOM     11  O   UNL     1      25.626  -3.427 -26.928  1.00  0.00    -0.452 OA
ENDROOT
BRANCH   1  12
ATOM     12  C   UNL     1      24.735  -5.666 -26.932  1.00  0.00     0.025 A 
ATOM     13  C   UNL     1      24.372  -6.326 -28.119  1.00  0.00     0.016 A 
ATOM     14  C   UNL     1      24.524  -7.710 -28.234  1.00  0.00     0.051 A 
ATOM     15  C   UNL     1      25.026  -8.457 -27.160  1.00  0.00     0.157 A 
ATOM     16  C   UNL     1      25.217  -6.423 -25.851  1.00  0.00     0.062 A 
ATOM     17  C   UNL     1      25.370  -7.813 -25.965  1.00  0.00     0.158 A 
BRANCH  15  18
ATOM     18  O   UNL     1      25.179  -9.837 -27.271  1.00  0.00    -0.504 OA
ATOM     19  H   UNL     1      24.603 -10.386 -27.898  1.00  0.00     0.293 HD
ENDBRANCH  15  18
BRANCH  17  20
ATOM     20  O   UNL     1      25.861  -8.559 -24.896  1.00  0.00    -0.504 OA
ATOM     21  H   UNL     1      26.763  -9.020 -24.941  1.00  0.00     0.293 HD
ENDBRANCH  17  20
ENDBRANCH   1  12
BRANCH   2  22
ATOM     22  O   UNL     1      22.163  -4.424 -26.441  1.00  0.00    -0.502 OA
ATOM     23  H   UNL     1      22.106  -5.331 -26.885  1.00  0.00     0.293 HD
ENDBRANCH   2  22
BRANCH   6  24
ATOM     24  O   UNL     1      23.338   0.734 -25.823  1.00  0.00    -0.507 OA
ATOM     25  H   UNL     1      23.411   1.624 -25.353  1.00  0.00     0.293 HD
ENDBRANCH   6  24
BRANCH   8  26
ATOM     26  O   UNL     1      27.951   0.730 -27.096  1.00  0.00    -0.508 OA
ATOM     27  H   UNL     1      28.455   1.170 -26.336  1.00  0.00     0.293 HD
ENDBRANCH   8  26
TORSDOF 6
ENDMDL
MODEL 3
REMARK VINA RESULT:    -7.355      1.615      7.179
REMARK INTER + INTRA:          -9.104
REMARK INTER:                  -9.077
REMARK INTRA:                  -0.026
REMARK UNBOUND:                -0.244
REMARK SMILES O=c1c(O)c(-c2ccc(O)c(O)c2)oc2cc(O)cc(O)c12
REMARK SMILES IDX 5 1 3 2 2 3 1 4 22 5 20 6 19 7 17 8 16 9 15 10 14 11 6 12
REMARK SMILES IDX 7 13 8 14 9 15 13 16 11 17 10 18 12 20 4 22 21 24 18 26
REMARK H PARENT 10 19 12 21 4 23 21 25 18 27
REMARK Flexibility Score: inf
ROOT
ATOM      1  C   UNL     1      20.872  -6.439 -28.199  1.00  0.00     0.180 A 
ATOM      2  C   UNL     1      19.649  -6.869 -27.655  1.00  0.00     0.208 A 
ATOM      3  C   UNL     1      18.905  -7.845 -28.338  1.00  0.00     0.238 A 
ATOM      4  O   UNL     1      17.838  -8.265 -27.818  1.00  0.00    -0.285 OA
ATOM      5  C   UNL     1      19.384  -8.367 -29.563  1.00  0.00     0.111 A 
ATOM      6  C   UNL     1      18.693  -9.329 -30.359  1.00  0.00     0.134 A 
ATOM      7  C   UNL     1      19.321  -9.871 -31.488  1.00  0.00     0.093 A 
ATOM      8  C   UNL     1      20.587  -9.439 -31.885  1.00  0.00     0.123 A 
ATOM      9  C   UNL     1      21.246  -8.455 -31.146  1.00  0.00     0.094 A 
ATOM     10  C   UNL     1      20.661  -7.922 -29.996  1.00  0.00     0.146 A 
ATOM     11  O   UNL     1      21.326  -6.996 -29.316  1.00  0.00    -0.452 OA
ENDROOT
BRANCH   1  12
ATOM     12  C   UNL     1      21.700  -5.398 -27.551  1.00  0.00     0.025 A 
ATOM     13  C   UNL     1      23.042  -5.639 -27.206  1.00  0.00     0.016 A 
ATOM     14  C   UNL     1      23.799  -4.650 -26.573  1.00  0.00     0.051 A 
ATOM     15  C   UNL     1      23.222  -3.411 -26.263  1.00  0.00     0.157 A 
ATOM     16  C   UNL     1      21.122  -4.162 -27.218  1.00  0.00     0.062 A 
ATOM     17  C   UNL     1      21.881  -3.167 -26.583  1.00  0.00     0.158 A 
BRANCH  15  18
ATOM     18  O   UNL     1      23.974  -2.421 -25.633  1.00  0.00    -0.504 OA
ATOM     19  H   UNL     1      24.797  -2.647 -25.088  1.00  0.00     0.293 HD
ENDBRANCH  15  18
BRANCH  17  20
ATOM     20  O   UNL     1      21.309  -1.937 -26.267  1.00  0.00    -0.504 OA
ATOM     21  H   UNL     1      20.585  -1.854 -25.563  1.00  0.00     0.293 HD
ENDBRANCH  17  20
ENDBRANCH   1  12
BRANCH   2  22
ATOM     22  O   UNL     1      19.205  -6.357 -26.433  1.00  0.00    -0.502 OA
ATOM     23  H   UNL     1      19.675  -5.595 -25.959  1.00  0.00     0.293 HD
ENDBRANCH   2  22
BRANCH   6  24
ATOM     24  O   UNL     1      17.388  -9.761 -30.104  1.00  0.00    -0.507 OA
ATOM     25  H   UNL     1      16.981  -9.848 -29.185  1.00  0.00     0.293 HD
ENDBRANCH   6  24
BRANCH   8  26
ATOM     26  O   UNL     1      21.175  -9.990 -33.021  1.00  0.00    -0.508 OA
ATOM     27  H   UNL     1      20.619 -10.304 -33.806  1.00  0.00     0.293 HD
ENDBRANCH   8  26
TORSDOF 6
ENDMDL
MODEL 4
REMARK VINA RESULT:    -7.297      1.709      2.802
REMARK INTER + INTRA:          -9.034
REMARK INTER:                  -8.954
REMARK INTRA:                  -0.079
REMARK UNBOUND:                -0.244
REMARK SMILES O=c1c(O)c(-c2ccc(O)c(O)c2)oc2cc(O)cc(O)c12
REMARK SMILES IDX 5 1 3 2 2 3 1 4 22 5 20 6 19 7 17 8 16 9 15 10 14 11 6 12
REMARK SMILES IDX 7 13 8 14 9 15 13 16 11 17 10 18 12 20 4 22 21 24 18 26
REMARK H PARENT 10 19 12 21 4 23 21 25 18 27
REMARK Flexibility Score: inf
ROOT
ATOM      1  C   UNL     1      22.158  -4.385 -27.248  1.00  0.00     0.180 A 
ATOM      2  C   UNL     1      23.525  -4.710 -27.216  1.00  0.00     0.208 A 
ATOM      3  C   UNL     1      24.458  -3.700 -26.929  1.00  0.00     0.238 A 
ATOM      4  O   UNL     1      25.676  -4.009 -26.849  1.00  0.00    -0.285 OA
ATOM      5  C   UNL     1      24.015  -2.377 -26.693  1.00  0.00     0.111 A 
ATOM      6  C   UNL     1      24.875  -1.269 -26.433  1.00  0.00     0.134 A 
ATOM      7  C   UNL     1      24.320  -0.030 -26.085  1.00  0.00     0.093 A 
ATOM      8  C   UNL     1      22.939   0.156 -26.051  1.00  0.00     0.123 A 
ATOM      9  C   UNL     1      22.089  -0.906 -26.363  1.00  0.00     0.094 A 
ATOM     10  C   UNL     1      22.612  -2.162 -26.678  1.00  0.00     0.146 A 
ATOM     11  O   UNL     1      21.768  -3.149 -26.957  1.00  0.00    -0.452 OA
ENDROOT
BRANCH   1  12
ATOM     12  C   UNL     1      21.117  -5.388 -27.567  1.00  0.00     0.025 A 
ATOM     13  C   UNL     1      20.094  -5.698 -26.653  1.00  0.00     0.016 A 
ATOM     14  C   UNL     1      19.135  -6.665 -26.966  1.00  0.00     0.051 A 
ATOM     15  C   UNL     1      19.192  -7.347 -28.188  1.00  0.00     0.157 A 
ATOM     16  C   UNL     1      21.181  -6.090 -28.782  1.00  0.00     0.062 A 
ATOM     17  C   UNL     1      20.219  -7.061 -29.097  1.00  0.00     0.158 A 
BRANCH  15  18
ATOM     18  O   UNL     1      18.238  -8.311 -28.504  1.00  0.00    -0.504 OA
ATOM     19  H   UNL     1      17.868  -8.403 -29.443  1.00  0.00     0.293 HD
ENDBRANCH  15  18
BRANCH  17  20
ATOM     20  O   UNL     1      20.278  -7.746 -30.309  1.00  0.00    -0.504 OA
ATOM     21  H   UNL     1      19.723  -8.577 -30.477  1.00  0.00     0.293 HD
ENDBRANCH  17  20
ENDBRANCH   1  12
BRANCH   2  22
ATOM     22  O   UNL     1      23.940  -6.027 -27.431  1.00  0.00    -0.502 OA
ATOM     23  H   UNL     1      23.292  -6.770 -27.661  1.00  0.00     0.293 HD
ENDBRANCH   2  22
BRANCH   6  24
ATOM     24  O   UNL     1      26.269  -1.323 -26.529  1.00  0.00    -0.507 OA
ATOM     25  H   UNL     1      26.794  -1.149 -27.373  1.00  0.00     0.293 HD
ENDBRANCH   6  24
BRANCH   8  26
ATOM     26  O   UNL     1      22.422   1.405 -25.716  1.00  0.00    -0.508 OA
ATOM     27  H   UNL     1      21.631   1.501 -25.090  1.00  0.00     0.293 HD
ENDBRANCH   8  26
TORSDOF 6
ENDMDL
MODEL 5
REMARK VINA RESULT:    -7.181      1.696      7.211
REMARK INTER + INTRA:          -8.895
REMARK INTER:                  -8.679
REMARK INTRA:                  -0.216
REMARK UNBOUND:                -0.244
REMARK SMILES O=c1c(O)c(-c2ccc(O)c(O)c2)oc2cc(O)cc(O)c12
REMARK SMILES IDX 5 1 3 2 2 3 1 4 22 5 20 6 19 7 17 8 16 9 15 10 14 11 6 12
REMARK SMILES IDX 7 13 8 14 9 15 13 16 11 17 10 18 12 20 4 22 21 24 18 26
REMARK H PARENT 10 19 12 21 4 23 21 25 18 27
REMARK Flexibility Score: inf
ROOT
ATOM      1  C   UNL     1      21.909  -5.141 -27.783  1.00  0.00     0.180 A 
ATOM      2  C   UNL     1      20.743  -5.316 -27.017  1.00  0.00     0.208 A 
ATOM      3  C   UNL     1      19.802  -6.278 -27.419  1.00  0.00     0.238 A 
ATOM      4  O   UNL     1      18.787  -6.468 -26.699  1.00  0.00    -0.285 OA
ATOM      5  C   UNL     1      20.031  -7.041 -28.589  1.00  0.00     0.111 A 
ATOM      6  C   UNL     1      19.126  -8.014 -29.111  1.00  0.00     0.134 A 
ATOM      7  C   UNL     1      19.514  -8.802 -30.202  1.00  0.00     0.093 A 
ATOM      8  C   UNL     1      20.744  -8.608 -30.830  1.00  0.00     0.123 A 
ATOM      9  C   UNL     1      21.611  -7.618 -30.365  1.00  0.00     0.094 A 
ATOM     10  C   UNL     1      21.268  -6.841 -29.256  1.00  0.00     0.146 A 
ATOM     11  O   UNL     1      22.126  -5.918 -28.838  1.00  0.00    -0.452 OA
ENDROOT
BRANCH   1  12
ATOM     12  C   UNL     1      22.935  -4.131 -27.437  1.00  0.00     0.025 A 
ATOM     13  C   UNL     1      22.663  -2.754 -27.519  1.00  0.00     0.016 A 
ATOM     14  C   UNL     1      23.653  -1.818 -27.211  1.00  0.00     0.051 A 
ATOM     15  C   UNL     1      24.933  -2.243 -26.831  1.00  0.00     0.157 A 
ATOM     16  C   UNL     1      24.226  -4.551 -27.077  1.00  0.00     0.062 A 
ATOM     17  C   UNL     1      25.221  -3.612 -26.767  1.00  0.00     0.158 A 
BRANCH  15  18
ATOM     18  O   UNL     1      25.923  -1.313 -26.522  1.00  0.00    -0.504 OA
ATOM     19  H   UNL     1      26.693  -1.129 -27.155  1.00  0.00     0.293 HD
ENDBRANCH  15  18
BRANCH  17  20
ATOM     20  O   UNL     1      26.497  -4.032 -26.396  1.00  0.00    -0.504 OA
ATOM     21  H   UNL     1      26.990  -4.749 -26.915  1.00  0.00     0.293 HD
ENDBRANCH  17  20
ENDBRANCH   1  12
BRANCH   2  22
ATOM     22  O   UNL     1      20.548  -4.567 -25.853  1.00  0.00    -0.502 OA
ATOM     23  H   UNL     1      20.087  -3.666 -25.858  1.00  0.00     0.293 HD
ENDBRANCH   2  22
BRANCH   6  24
ATOM     24  O   UNL     1      17.836  -8.225 -28.616  1.00  0.00    -0.507 OA
ATOM     25  H   UNL     1      17.549  -9.036 -28.088  1.00  0.00     0.293 HD
ENDBRANCH   6  24
BRANCH   8  26
ATOM     26  O   UNL     1      21.091  -9.400 -31.922  1.00  0.00    -0.508 OA
ATOM     27  H   UNL     1      21.344 -10.374 -31.811  1.00  0.00     0.293 HD
ENDBRANCH   8  26
TORSDOF 6
ENDMDL
MODEL 6
REMARK VINA RESULT:    -7.154      4.110      9.054
REMARK INTER + INTRA:          -8.861
REMARK INTER:                  -9.196
REMARK INTRA:                   0.334
REMARK UNBOUND:                -0.244
REMARK SMILES O=c1c(O)c(-c2ccc(O)c(O)c2)oc2cc(O)cc(O)c12
REMARK SMILES IDX 5 1 3 2 2 3 1 4 22 5 20 6 19 7 17 8 16 9 15 10 14 11 6 12
REMARK SMILES IDX 7 13 8 14 9 15 13 16 11 17 10 18 12 20 4 22 21 24 18 26
REMARK H PARENT 10 19 12 21 4 23 21 25 18 27
REMARK Flexibility Score: inf
ROOT
ATOM      1  C   UNL     1      23.706   0.463 -26.475  1.00  0.00     0.180 A 
ATOM      2  C   UNL     1      24.984  -0.087 -26.675  1.00  0.00     0.208 A 
ATOM      3  C   UNL     1      25.134  -1.483 -26.668  1.00  0.00     0.238 A 
ATOM      4  O   UNL     1      26.271  -1.970 -26.903  1.00  0.00    -0.285 OA
ATOM      5  C   UNL     1      24.008  -2.312 -26.446  1.00  0.00     0.111 A 
ATOM      6  C   UNL     1      24.052  -3.737 -26.378  1.00  0.00     0.134 A 
ATOM      7  C   UNL     1      22.856  -4.461 -26.283  1.00  0.00     0.093 A 
ATOM      8  C   UNL     1      21.626  -3.810 -26.188  1.00  0.00     0.123 A 
ATOM      9  C   UNL     1      21.578  -2.416 -26.193  1.00  0.00     0.094 A 
ATOM     10  C   UNL     1      22.749  -1.667 -26.323  1.00  0.00     0.146 A 
ATOM     11  O   UNL     1      22.658  -0.342 -26.335  1.00  0.00    -0.452 OA
ENDROOT
BRANCH   1  12
ATOM     12  C   UNL     1      23.472   1.924 -26.444  1.00  0.00     0.025 A 
ATOM     13  C   UNL     1      24.330   2.817 -27.110  1.00  0.00     0.016 A 
ATOM     14  C   UNL     1      24.104   4.194 -27.048  1.00  0.00     0.051 A 
ATOM     15  C   UNL     1      23.027   4.700 -26.309  1.00  0.00     0.157 A 
ATOM     16  C   UNL     1      22.406   2.438 -25.688  1.00  0.00     0.062 A 
ATOM     17  C   UNL     1      22.178   3.822 -25.625  1.00  0.00     0.158 A 
BRANCH  15  18
ATOM     18  O   UNL     1      22.798   6.073 -26.245  1.00  0.00    -0.504 OA
ATOM     19  H   UNL     1      22.150   6.471 -25.575  1.00  0.00     0.293 HD
ENDBRANCH  15  18
BRANCH  17  20
ATOM     20  O   UNL     1      21.112   4.327 -24.885  1.00  0.00    -0.504 OA
ATOM     21  H   UNL     1      20.621   5.168 -25.168  1.00  0.00     0.293 HD
ENDBRANCH  17  20
ENDBRANCH   1  12
BRANCH   2  22
ATOM     22  O   UNL     1      26.078   0.749 -26.915  1.00  0.00    -0.502 OA
ATOM     23  H   UNL     1      26.998   0.563 -26.534  1.00  0.00     0.293 HD
ENDBRANCH   2  22
BRANCH   6  24
ATOM     24  O   UNL     1      25.235  -4.482 -26.372  1.00  0.00    -0.507 OA
ATOM     25  H   UNL     1      25.434  -5.247 -26.999  1.00  0.00     0.293 HD
ENDBRANCH   6  24
BRANCH   8  26
ATOM     26  O   UNL     1      20.458  -4.562 -26.080  1.00  0.00    -0.508 OA
ATOM     27  H   UNL     1      19.585  -4.143 -25.784  1.00  0.00     0.293 HD
ENDBRANCH   8  26
TORSDOF 6
ENDMDL
MODEL 7
REMARK VINA RESULT:    -7.075      3.942      7.647
REMARK INTER + INTRA:          -8.767
REMARK INTER:                  -8.458
REMARK INTRA:                  -0.309
REMARK UNBOUND:                -0.244
REMARK SMILES O=c1c(O)c(-c2ccc(O)c(O)c2)oc2cc(O)cc(O)c12
REMARK SMILES IDX 5 1 3 2 2 3 1 4 22 5 20 6 19 7 17 8 16 9 15 10 14 11 6 12
REMARK SMILES IDX 7 13 8 14 9 15 13 16 11 17 10 18 12 20 4 22 21 24 18 26
REMARK H PARENT 10 19 12 21 4 23 21 25 18 27
REMARK Flexibility Score: inf
ROOT
ATOM      1  C   UNL     1      24.693  -3.586 -27.371  1.00  0.00     0.180 A 
ATOM      2  C   UNL     1      24.198  -3.995 -28.622  1.00  0.00     0.208 A 
ATOM      3  C   UNL     1      24.139  -5.367 -28.915  1.00  0.00     0.238 A 
ATOM      4  O   UNL     1      23.644  -5.729 -30.015  1.00  0.00    -0.285 OA
ATOM      5  C   UNL     1      24.589  -6.311 -27.962  1.00  0.00     0.111 A 
ATOM      6  C   UNL     1      24.613  -7.723 -28.169  1.00  0.00     0.134 A 
ATOM      7  C   UNL     1      24.957  -8.571 -27.109  1.00  0.00     0.093 A 
ATOM      8  C   UNL     1      25.341  -8.057 -25.871  1.00  0.00     0.123 A 
ATOM      9  C   UNL     1      25.380  -6.675 -25.676  1.00  0.00     0.094 A 
ATOM     10  C   UNL     1      25.007  -5.806 -26.703  1.00  0.00     0.146 A 
ATOM     11  O   UNL     1      25.047  -4.498 -26.473  1.00  0.00    -0.452 OA
ENDROOT
BRANCH   1  12
ATOM     12  C   UNL     1      24.809  -2.158 -26.998  1.00  0.00     0.025 A 
ATOM     13  C   UNL     1      26.030  -1.469 -27.110  1.00  0.00     0.016 A 
ATOM     14  C   UNL     1      26.122  -0.128 -26.730  1.00  0.00     0.051 A 
ATOM     15  C   UNL     1      25.002   0.540 -26.219  1.00  0.00     0.157 A 
ATOM     16  C   UNL     1      23.695  -1.489 -26.465  1.00  0.00     0.062 A 
ATOM     17  C   UNL     1      23.787  -0.142 -26.083  1.00  0.00     0.158 A 
BRANCH  15  18
ATOM     18  O   UNL     1      25.090   1.878 -25.839  1.00  0.00    -0.504 OA
ATOM     19  H   UNL     1      24.306   2.361 -25.416  1.00  0.00     0.293 HD
ENDBRANCH  15  18
BRANCH  17  20
ATOM     20  O   UNL     1      22.676   0.522 -25.568  1.00  0.00    -0.504 OA
ATOM     21  H   UNL     1      21.830   0.024 -25.314  1.00  0.00     0.293 HD
ENDBRANCH  17  20
ENDBRANCH   1  12
BRANCH   2  22
ATOM     22  O   UNL     1      23.737  -3.047 -29.540  1.00  0.00    -0.502 OA
ATOM     23  H   UNL     1      23.846  -3.161 -30.540  1.00  0.00     0.293 HD
ENDBRANCH   2  22
BRANCH   6  24
ATOM     24  O   UNL     1      24.335  -8.337 -29.394  1.00  0.00    -0.507 OA
ATOM     25  H   UNL     1      24.334  -7.865 -30.286  1.00  0.00     0.293 HD
ENDBRANCH   6  24
BRANCH   8  26
ATOM     26  O   UNL     1      25.692  -8.929 -24.843  1.00  0.00    -0.508 OA
ATOM     27  H   UNL     1      26.110  -8.595 -23.983  1.00  0.00     0.293 HD
ENDBRANCH   8  26
TORSDOF 6
ENDMDL
MODEL 8
REMARK VINA RESULT:    -6.970      2.401      4.003
REMARK INTER + INTRA:          -8.640
REMARK INTER:                  -8.464
REMARK INTRA:                  -0.176
REMARK UNBOUND:                -0.244
REMARK SMILES O=c1c(O)c(-c2ccc(O)c(O)c2)oc2cc(O)cc(O)c12
REMARK SMILES IDX 5 1 3 2 2 3 1 4 22 5 20 6 19 7 17 8 16 9 15 10 14 11 6 12
REMARK SMILES IDX 7 13 8 14 9 15 13 16 11 17 10 18 12 20 4 22 21 24 18 26
REMARK H PARENT 10 19 12 21 4 23 21 25 18 27
REMARK Flexibility Score: inf
ROOT
ATOM      1  C   UNL     1      23.055  -3.067 -27.310  1.00  0.00     0.180 A 
ATOM      2  C   UNL     1      24.448  -3.213 -27.184  1.00  0.00     0.208 A 
ATOM      3  C   UNL     1      25.228  -2.083 -26.892  1.00  0.00     0.238 A 
ATOM      4  O   UNL     1      26.467  -2.230 -26.726  1.00  0.00    -0.285 OA
ATOM      5  C   UNL     1      24.609  -0.818 -26.745  1.00  0.00     0.111 A 
ATOM      6  C   UNL     1      25.307   0.400 -26.488  1.00  0.00     0.134 A 
ATOM      7  C   UNL     1      24.581   1.571 -26.232  1.00  0.00     0.093 A 
ATOM      8  C   UNL     1      23.188   1.581 -26.288  1.00  0.00     0.123 A 
ATOM      9  C   UNL     1      22.498   0.408 -26.598  1.00  0.00     0.094 A 
ATOM     10  C   UNL     1      23.192  -0.783 -26.822  1.00  0.00     0.146 A 
ATOM     11  O   UNL     1      22.497  -1.880 -27.102  1.00  0.00    -0.452 OA
ENDROOT
BRANCH   1  12
ATOM     12  C   UNL     1      22.170  -4.206 -27.641  1.00  0.00     0.025 A 
ATOM     13  C   UNL     1      22.281  -4.887 -28.866  1.00  0.00     0.016 A 
ATOM     14  C   UNL     1      21.419  -5.945 -29.168  1.00  0.00     0.051 A 
ATOM     15  C   UNL     1      20.424  -6.326 -28.257  1.00  0.00     0.157 A 
ATOM     16  C   UNL     1      21.157  -4.579 -26.742  1.00  0.00     0.062 A 
ATOM     17  C   UNL     1      20.291  -5.641 -27.044  1.00  0.00     0.158 A 
BRANCH  15  18
ATOM     18  O   UNL     1      19.563  -7.381 -28.554  1.00  0.00    -0.504 OA
ATOM     19  H   UNL     1      19.650  -8.281 -28.097  1.00  0.00     0.293 HD
ENDBRANCH  15  18
BRANCH  17  20
ATOM     20  O   UNL     1      19.296  -6.017 -26.144  1.00  0.00    -0.504 OA
ATOM     21  H   UNL     1      19.216  -6.971 -25.811  1.00  0.00     0.293 HD
ENDBRANCH  17  20
ENDBRANCH   1  12
BRANCH   2  22
ATOM     22  O   UNL     1      25.036  -4.475 -27.311  1.00  0.00    -0.502 OA
ATOM     23  H   UNL     1      25.079  -5.134 -26.544  1.00  0.00     0.293 HD
ENDBRANCH   2  22
BRANCH   6  24
ATOM     24  O   UNL     1      26.700   0.520 -26.501  1.00  0.00    -0.507 OA
ATOM     25  H   UNL     1      27.255   0.683 -27.327  1.00  0.00     0.293 HD
ENDBRANCH   6  24
BRANCH   8  26
ATOM     26  O   UNL     1      22.499   2.767 -26.043  1.00  0.00    -0.508 OA
ATOM     27  H   UNL     1      21.522   2.766 -25.775  1.00  0.00     0.293 HD
ENDBRANCH   8  26
TORSDOF 6
ENDMDL
MODEL 9
REMARK VINA RESULT:    -6.809      3.404      7.859
REMARK INTER + INTRA:          -8.446
REMARK INTER:                  -8.197
REMARK INTRA:                  -0.249
REMARK UNBOUND:                -0.244
REMARK SMILES O=c1c(O)c(-c2ccc(O)c(O)c2)oc2cc(O)cc(O)c12
REMARK SMILES IDX 5 1 3 2 2 3 1 4 22 5 20 6 19 7 17 8 16 9 15 10 14 11 6 12
REMARK SMILES IDX 7 13 8 14 9 15 13 16 11 17 10 18 12 20 4 22 21 24 18 26
REMARK H PARENT 10 19 12 21 4 23 21 25 18 27
REMARK Flexibility Score: inf
ROOT
ATOM      1  C   UNL     1      23.776  -2.328 -27.406  1.00  0.00     0.180 A 
ATOM      2  C   UNL     1      22.767  -2.822 -28.252  1.00  0.00     0.208 A 
ATOM      3  C   UNL     1      22.650  -4.210 -28.434  1.00  0.00     0.238 A 
ATOM      4  O   UNL     1      21.711  -4.648 -29.149  1.00  0.00    -0.285 OA
ATOM      5  C   UNL     1      23.552  -5.085 -27.782  1.00  0.00     0.111 A 
ATOM      6  C   UNL     1      23.550  -6.504 -27.927  1.00  0.00     0.134 A 
ATOM      7  C   UNL     1      24.404  -7.281 -27.134  1.00  0.00     0.093 A 
ATOM      8  C   UNL     1      25.304  -6.686 -26.250  1.00  0.00     0.123 A 
ATOM      9  C   UNL     1      25.356  -5.295 -26.144  1.00  0.00     0.094 A 
ATOM     10  C   UNL     1      24.491  -4.497 -26.895  1.00  0.00     0.146 A 
ATOM     11  O   UNL     1      24.565  -3.178 -26.757  1.00  0.00    -0.452 OA
ENDROOT
BRANCH   1  12
ATOM     12  C   UNL     1      23.979  -0.879 -27.183  1.00  0.00     0.025 A 
ATOM     13  C   UNL     1      25.077  -0.199 -27.739  1.00  0.00     0.016 A 
ATOM     14  C   UNL     1      25.261   1.164 -27.496  1.00  0.00     0.051 A 
ATOM     15  C   UNL     1      24.360   1.865 -26.683  1.00  0.00     0.157 A 
ATOM     16  C   UNL     1      23.091  -0.176 -26.352  1.00  0.00     0.062 A 
ATOM     17  C   UNL     1      23.275   1.193 -26.108  1.00  0.00     0.158 A 
BRANCH  15  18
ATOM     18  O   UNL     1      24.540   3.225 -26.439  1.00  0.00    -0.504 OA
ATOM     19  H   UNL     1      25.431   3.594 -26.127  1.00  0.00     0.293 HD
ENDBRANCH  15  18
BRANCH  17  20
ATOM     20  O   UNL     1      22.384   1.890 -25.294  1.00  0.00    -0.504 OA
ATOM     21  H   UNL     1      21.694   1.409 -24.730  1.00  0.00     0.293 HD
ENDBRANCH  17  20
ENDBRANCH   1  12
BRANCH   2  22
ATOM     22  O   UNL     1      21.874  -1.942 -28.868  1.00  0.00    -0.502 OA
ATOM     23  H   UNL     1      21.029  -2.258 -29.327  1.00  0.00     0.293 HD
ENDBRANCH   2  22
BRANCH   6  24
ATOM     24  O   UNL     1      22.755  -7.194 -28.848  1.00  0.00    -0.507 OA
ATOM     25  H   UNL     1      21.787  -7.436 -28.703  1.00  0.00     0.293 HD
ENDBRANCH   6  24
BRANCH   8  26
ATOM     26  O   UNL     1      26.150  -7.488 -25.487  1.00  0.00    -0.508 OA
ATOM     27  H   UNL     1      25.804  -8.026 -24.701  1.00  0.00     0.293 HD
ENDBRANCH   8  26
TORSDOF 6
ENDMDL
