MODEL 1
REMARK VINA RESULT:    -4.705      0.000      0.000
REMARK INTER + INTRA:          -6.179
REMARK INTER:                  -5.668
REMARK INTRA:                  -0.511
REMARK UNBOUND:                -0.511
REMARK SMILES NC(=O)C[C@@H]([NH3+])C(=O)[O-]
REMARK SMILES IDX 4 1 5 2 6 3 7 7 8 8 9 9 2 10 3 11 1 12
REMARK H PARENT 6 4 6 5 6 6 1 13 1 14
REMARK Flexibility Score: inf
ROOT
ATOM      1  C   UNL     1     -18.858 -68.964   0.669  1.00  0.00     0.171 C 
ENDROOT
BRANCH   1   2
ATOM      2  C   UNL     1     -20.263 -69.224   0.091  1.00  0.00     0.237 C 
BRANCH   2   3
ATOM      3  N   UNL     1     -21.141 -68.060   0.272  1.00  0.00    -0.350 N 
ATOM      4  H   UNL     1     -20.568 -67.218   0.514  1.00  0.00     0.345 HD
ATOM      5  H   UNL     1     -21.653 -67.855  -0.617  1.00  0.00     0.345 HD
ATOM      6  H   UNL     1     -21.834 -68.232   1.037  1.00  0.00     0.345 HD
ENDBRANCH   2   3
BRANCH   2   7
ATOM      7  C   UNL     1     -20.154 -69.569  -1.370  1.00  0.00     0.100 C 
ATOM      8  O   UNL     1     -20.218 -70.769  -1.744  1.00  0.00    -0.544 OA
ATOM      9  O   UNL     1     -19.967 -68.565  -2.314  1.00  0.00    -0.544 OA
ENDBRANCH   2   7
ENDBRANCH   1   2
BRANCH   1  10
ATOM     10  C   UNL     1     -18.495 -67.508   0.616  1.00  0.00     0.223 C 
ATOM     11  O   UNL     1     -18.763 -66.759   1.593  1.00  0.00    -0.275 OA
ATOM     12  N   UNL     1     -17.822 -66.973  -0.523  1.00  0.00    -0.369 N 
ATOM     13  H   UNL     1     -17.559 -65.964  -0.554  1.00  0.00     0.159 HD
ATOM     14  H   UNL     1     -17.583 -67.583  -1.336  1.00  0.00     0.159 HD
ENDBRANCH   1  10
TORSDOF 4
ENDMDL
MODEL 2
REMARK VINA RESULT:    -4.505      1.623      3.674
REMARK INTER + INTRA:          -5.938
REMARK INTER:                  -5.472
REMARK INTRA:                  -0.466
REMARK UNBOUND:                -0.511
REMARK SMILES NC(=O)C[C@@H]([NH3+])C(=O)[O-]
REMARK SMILES IDX 4 1 5 2 6 3 7 7 8 8 9 9 2 10 3 11 1 12
REMARK H PARENT 6 4 6 5 6 6 1 13 1 14
REMARK Flexibility Score: inf
ROOT
ATOM      1  C   UNL     1     -19.958 -68.900   0.524  1.00  0.00     0.171 C 
ENDROOT
BRANCH   1   2
ATOM      2  C   UNL     1     -18.538 -68.570   1.024  1.00  0.00     0.237 C 
BRANCH   2   3
ATOM      3  N   UNL     1     -17.556 -69.543   0.528  1.00  0.00    -0.350 N 
ATOM      4  H   UNL     1     -17.793 -69.817  -0.454  1.00  0.00     0.345 HD
ATOM      5  H   UNL     1     -16.601 -69.117   0.520  1.00  0.00     0.345 HD
ATOM      6  H   UNL     1     -17.545 -70.400   1.129  1.00  0.00     0.345 HD
ENDBRANCH   2   3
BRANCH   2   7
ATOM      7  C   UNL     1     -18.157 -67.181   0.587  1.00  0.00     0.100 C 
ATOM      8  O   UNL     1     -17.706 -66.982  -0.571  1.00  0.00    -0.544 OA
ATOM      9  O   UNL     1     -18.285 -66.111   1.466  1.00  0.00    -0.544 OA
ENDBRANCH   2   7
ENDBRANCH   1   2
BRANCH   1  10
ATOM     10  C   UNL     1     -19.938 -69.503  -0.851  1.00  0.00     0.223 C 
ATOM     11  O   UNL     1     -19.804 -70.749  -0.987  1.00  0.00    -0.275 OA
ATOM     12  N   UNL     1     -20.099 -68.678  -2.004  1.00  0.00    -0.369 N 
ATOM     13  H   UNL     1     -20.097 -69.101  -2.958  1.00  0.00     0.159 HD
ATOM     14  H   UNL     1     -20.223 -67.646  -1.907  1.00  0.00     0.159 HD
ENDBRANCH   1  10
TORSDOF 4
ENDMDL
MODEL 3
REMARK VINA RESULT:    -3.820      1.668      3.768
REMARK INTER + INTRA:          -5.113
REMARK INTER:                  -4.913
REMARK INTRA:                  -0.200
REMARK UNBOUND:                -0.511
REMARK SMILES NC(=O)C[C@@H]([NH3+])C(=O)[O-]
REMARK SMILES IDX 4 1 5 2 6 3 7 7 8 8 9 9 2 10 3 11 1 12
REMARK H PARENT 6 4 6 5 6 6 1 13 1 14
REMARK Flexibility Score: inf
ROOT
ATOM      1  C   UNL     1     -19.864 -69.675  -0.231  1.00  0.00     0.171 C 
ENDROOT
BRANCH   1   2
ATOM      2  C   UNL     1     -19.941 -68.170   0.091  1.00  0.00     0.237 C 
BRANCH   2   3
ATOM      3  N   UNL     1     -21.294 -67.780   0.510  1.00  0.00    -0.350 N 
ATOM      4  H   UNL     1     -21.998 -68.173  -0.156  1.00  0.00     0.345 HD
ATOM      5  H   UNL     1     -21.501 -68.164   1.460  1.00  0.00     0.345 HD
ATOM      6  H   UNL     1     -21.389 -66.737   0.533  1.00  0.00     0.345 HD
ENDBRANCH   2   3
BRANCH   2   7
ATOM      7  C   UNL     1     -18.947 -67.831   1.170  1.00  0.00     0.100 C 
ATOM      8  O   UNL     1     -19.121 -66.817   1.896  1.00  0.00    -0.544 OA
ATOM      9  O   UNL     1     -17.822 -68.625   1.360  1.00  0.00    -0.544 OA
ENDBRANCH   2   7
ENDBRANCH   1   2
BRANCH   1  10
ATOM     10  C   UNL     1     -20.164 -69.951  -1.676  1.00  0.00     0.223 C 
ATOM     11  O   UNL     1     -20.381 -68.994  -2.465  1.00  0.00    -0.275 OA
ATOM     12  N   UNL     1     -20.173 -71.291  -2.168  1.00  0.00    -0.369 N 
ATOM     13  H   UNL     1     -20.370 -71.480  -3.175  1.00  0.00     0.159 HD
ATOM     14  H   UNL     1     -19.983 -72.094  -1.529  1.00  0.00     0.159 HD
ENDBRANCH   1  10
TORSDOF 4
ENDMDL
MODEL 4
REMARK VINA RESULT:    -3.801      8.720      9.512
REMARK INTER + INTRA:          -5.090
REMARK INTER:                  -4.814
REMARK INTRA:                  -0.276
REMARK UNBOUND:                -0.511
REMARK SMILES NC(=O)C[C@@H]([NH3+])C(=O)[O-]
REMARK SMILES IDX 4 1 5 2 6 3 7 7 8 8 9 9 2 10 3 11 1 12
REMARK H PARENT 6 4 6 5 6 6 1 13 1 14
REMARK Flexibility Score: inf
ROOT
ATOM      1  C   UNL     1     -10.161 -71.369   2.155  1.00  0.00     0.171 C 
ENDROOT
BRANCH   1   2
ATOM      2  C   UNL     1     -11.325 -70.981   3.088  1.00  0.00     0.237 C 
BRANCH   2   3
ATOM      3  N   UNL     1     -11.710 -69.574   2.910  1.00  0.00    -0.350 N 
ATOM      4  H   UNL     1     -12.079 -69.428   1.942  1.00  0.00     0.345 HD
ATOM      5  H   UNL     1     -12.467 -69.321   3.585  1.00  0.00     0.345 HD
ATOM      6  H   UNL     1     -10.888 -68.943   3.061  1.00  0.00     0.345 HD
ENDBRANCH   2   3
BRANCH   2   7
ATOM      7  C   UNL     1     -12.505 -71.878   2.825  1.00  0.00     0.100 C 
ATOM      8  O   UNL     1     -13.674 -71.471   3.057  1.00  0.00    -0.544 OA
ATOM      9  O   UNL     1     -12.311 -73.167   2.341  1.00  0.00    -0.544 OA
ENDBRANCH   2   7
ENDBRANCH   1   2
BRANCH   1  10
ATOM     10  C   UNL     1      -9.266 -70.199   1.867  1.00  0.00     0.223 C 
ATOM     11  O   UNL     1      -8.812 -69.507   2.817  1.00  0.00    -0.275 OA
ATOM     12  N   UNL     1      -8.900 -69.884   0.524  1.00  0.00    -0.369 N 
ATOM     13  H   UNL     1      -8.267 -69.078   0.326  1.00  0.00     0.159 HD
ATOM     14  H   UNL     1      -9.258 -70.454  -0.274  1.00  0.00     0.159 HD
ENDBRANCH   1  10
TORSDOF 4
ENDMDL
MODEL 5
REMARK VINA RESULT:    -3.763      1.947      2.379
REMARK INTER + INTRA:          -5.045
REMARK INTER:                  -5.079
REMARK INTRA:                   0.034
REMARK UNBOUND:                -0.511
REMARK SMILES NC(=O)C[C@@H]([NH3+])C(=O)[O-]
REMARK SMILES IDX 4 1 5 2 6 3 7 7 8 8 9 9 2 10 3 11 1 12
REMARK H PARENT 6 4 6 5 6 6 1 13 1 14
REMARK Flexibility Score: inf
ROOT
ATOM      1  C   UNL     1     -17.867 -67.175  -0.058  1.00  0.00     0.171 C 
ENDROOT
BRANCH   1   2
ATOM      2  C   UNL     1     -17.939 -68.715  -0.061  1.00  0.00     0.237 C 
BRANCH   2   3
ATOM      3  N   UNL     1     -17.550 -69.273   1.241  1.00  0.00    -0.350 N 
ATOM      4  H   UNL     1     -18.100 -68.812   2.003  1.00  0.00     0.345 HD
ATOM      5  H   UNL     1     -17.757 -70.297   1.270  1.00  0.00     0.345 HD
ATOM      6  H   UNL     1     -16.529 -69.124   1.419  1.00  0.00     0.345 HD
ENDBRANCH   2   3
BRANCH   2   7
ATOM      7  C   UNL     1     -19.333 -69.156  -0.417  1.00  0.00     0.100 C 
ATOM      8  O   UNL     1     -19.902 -68.693  -1.440  1.00  0.00    -0.544 OA
ATOM      9  O   UNL     1     -20.008 -70.065   0.390  1.00  0.00    -0.544 OA
ENDBRANCH   2   7
ENDBRANCH   1   2
BRANCH   1  10
ATOM     10  C   UNL     1     -18.460 -66.594   1.194  1.00  0.00     0.223 C 
ATOM     11  O   UNL     1     -19.366 -67.218   1.807  1.00  0.00    -0.275 OA
ATOM     12  N   UNL     1     -17.980 -65.353   1.710  1.00  0.00    -0.369 N 
ATOM     13  H   UNL     1     -18.384 -64.956   2.587  1.00  0.00     0.159 HD
ATOM     14  H   UNL     1     -17.221 -64.830   1.220  1.00  0.00     0.159 HD
ENDBRANCH   1  10
TORSDOF 4
ENDMDL
MODEL 6
REMARK VINA RESULT:    -3.554     11.584     12.534
REMARK INTER + INTRA:          -4.793
REMARK INTER:                  -4.546
REMARK INTRA:                  -0.246
REMARK UNBOUND:                -0.511
REMARK SMILES NC(=O)C[C@@H]([NH3+])C(=O)[O-]
REMARK SMILES IDX 4 1 5 2 6 3 7 7 8 8 9 9 2 10 3 11 1 12
REMARK H PARENT 6 4 6 5 6 6 1 13 1 14
REMARK Flexibility Score: inf
ROOT
ATOM      1  C   UNL     1     -16.464 -62.706 -10.541  1.00  0.00     0.171 C 
ENDROOT
BRANCH   1   2
ATOM      2  C   UNL     1     -16.302 -64.009 -11.350  1.00  0.00     0.237 C 
BRANCH   2   3
ATOM      3  N   UNL     1     -14.922 -64.179 -11.822  1.00  0.00    -0.350 N 
ATOM      4  H   UNL     1     -14.766 -65.172 -12.112  1.00  0.00     0.345 HD
ATOM      5  H   UNL     1     -14.749 -63.571 -12.655  1.00  0.00     0.345 HD
ATOM      6  H   UNL     1     -14.238 -63.932 -11.068  1.00  0.00     0.345 HD
ENDBRANCH   2   3
BRANCH   2   7
ATOM      7  C   UNL     1     -16.708 -65.185 -10.502  1.00  0.00     0.100 C 
ATOM      8  O   UNL     1     -16.678 -66.350 -10.979  1.00  0.00    -0.544 OA
ATOM      9  O   UNL     1     -17.135 -64.990  -9.193  1.00  0.00    -0.544 OA
ENDBRANCH   2   7
ENDBRANCH   1   2
BRANCH   1  10
ATOM     10  C   UNL     1     -16.783 -61.537 -11.428  1.00  0.00     0.223 C 
ATOM     11  O   UNL     1     -16.029 -61.263 -12.399  1.00  0.00    -0.275 OA
ATOM     12  N   UNL     1     -17.954 -60.754 -11.196  1.00  0.00    -0.369 N 
ATOM     13  H   UNL     1     -18.181 -59.950 -11.820  1.00  0.00     0.159 HD
ATOM     14  H   UNL     1     -18.594 -60.976 -10.403  1.00  0.00     0.159 HD
ENDBRANCH   1  10
TORSDOF 4
ENDMDL
MODEL 7
REMARK VINA RESULT:    -3.507     10.198     10.962
REMARK INTER + INTRA:          -4.736
REMARK INTER:                  -4.261
REMARK INTRA:                  -0.474
REMARK UNBOUND:                -0.511
REMARK SMILES NC(=O)C[C@@H]([NH3+])C(=O)[O-]
REMARK SMILES IDX 4 1 5 2 6 3 7 7 8 8 9 9 2 10 3 11 1 12
REMARK H PARENT 6 4 6 5 6 6 1 13 1 14
REMARK Flexibility Score: inf
ROOT
ATOM      1  C   UNL     1      -8.332 -72.351   0.332  1.00  0.00     0.171 C 
ENDROOT
BRANCH   1   2
ATOM      2  C   UNL     1      -9.182 -71.759   1.473  1.00  0.00     0.237 C 
BRANCH   2   3
ATOM      3  N   UNL     1      -9.428 -70.324   1.270  1.00  0.00    -0.350 N 
ATOM      4  H   UNL     1     -10.331 -70.052   1.723  1.00  0.00     0.345 HD
ATOM      5  H   UNL     1      -8.664 -69.763   1.713  1.00  0.00     0.345 HD
ATOM      6  H   UNL     1      -9.475 -70.096   0.250  1.00  0.00     0.345 HD
ENDBRANCH   2   3
BRANCH   2   7
ATOM      7  C   UNL     1     -10.489 -72.499   1.568  1.00  0.00     0.100 C 
ATOM      8  O   UNL     1     -11.300 -72.236   2.494  1.00  0.00    -0.544 OA
ATOM      9  O   UNL     1     -10.801 -73.490   0.644  1.00  0.00    -0.544 OA
ENDBRANCH   2   7
ENDBRANCH   1   2
BRANCH   1  10
ATOM     10  C   UNL     1      -8.539 -71.610  -0.958  1.00  0.00     0.223 C 
ATOM     11  O   UNL     1      -7.877 -70.564  -1.193  1.00  0.00    -0.275 OA
ATOM     12  N   UNL     1      -9.460 -72.100  -1.932  1.00  0.00    -0.369 N 
ATOM     13  H   UNL     1      -9.593 -71.591  -2.833  1.00  0.00     0.159 HD
ATOM     14  H   UNL     1     -10.007 -72.971  -1.756  1.00  0.00     0.159 HD
ENDBRANCH   1  10
TORSDOF 4
ENDMDL
MODEL 8
REMARK VINA RESULT:    -3.439     11.636     12.689
REMARK INTER + INTRA:          -4.654
REMARK INTER:                  -4.395
REMARK INTRA:                  -0.259
REMARK UNBOUND:                -0.511
REMARK SMILES NC(=O)C[C@@H]([NH3+])C(=O)[O-]
REMARK SMILES IDX 4 1 5 2 6 3 7 7 8 8 9 9 2 10 3 11 1 12
REMARK H PARENT 6 4 6 5 6 6 1 13 1 14
REMARK Flexibility Score: inf
ROOT
ATOM      1  C   UNL     1     -16.495 -63.236 -10.695  1.00  0.00     0.171 C 
ENDROOT
BRANCH   1   2
ATOM      2  C   UNL     1     -16.564 -61.790 -10.166  1.00  0.00     0.237 C 
BRANCH   2   3
ATOM      3  N   UNL     1     -17.620 -61.022 -10.839  1.00  0.00    -0.350 N 
ATOM      4  H   UNL     1     -18.383 -61.666 -11.149  1.00  0.00     0.345 HD
ATOM      5  H   UNL     1     -18.036 -60.327 -10.177  1.00  0.00     0.345 HD
ATOM      6  H   UNL     1     -17.239 -60.517 -11.672  1.00  0.00     0.345 HD
ENDBRANCH   2   3
BRANCH   2   7
ATOM      7  C   UNL     1     -16.801 -61.805  -8.680  1.00  0.00     0.100 C 
ATOM      8  O   UNL     1     -16.912 -60.723  -8.045  1.00  0.00    -0.544 OA
ATOM      9  O   UNL     1     -16.882 -63.012  -7.995  1.00  0.00    -0.544 OA
ENDBRANCH   2   7
ENDBRANCH   1   2
BRANCH   1  10
ATOM     10  C   UNL     1     -15.741 -63.319 -11.990  1.00  0.00     0.223 C 
ATOM     11  O   UNL     1     -16.132 -62.656 -12.987  1.00  0.00    -0.275 OA
ATOM     12  N   UNL     1     -14.564 -64.122 -12.089  1.00  0.00    -0.369 N 
ATOM     13  H   UNL     1     -14.034 -64.169 -12.987  1.00  0.00     0.159 HD
ATOM     14  H   UNL     1     -14.221 -64.668 -11.269  1.00  0.00     0.159 HD
ENDBRANCH   1  10
TORSDOF 4
ENDMDL
