MODEL 1
REMARK VINA RESULT:    -4.460      0.000      0.000
REMARK INTER + INTRA:         -10.323
REMARK INTER:                  -8.371
REMARK INTRA:                  -1.951
REMARK UNBOUND:                -1.951
REMARK SMILES O=C([O-])CCCCCCCCCCCCCCC(=O)[O-]
REMARK SMILES IDX 10 1 9 2 8 3 7 4 6 5 5 6 4 7 2 8 1 9 3 10 11 11 12 12 13 13
REMARK SMILES IDX 14 14 15 15 16 16 17 17 18 18 19 19 20 20
REMARK H PARENT
REMARK Flexibility Score: inf
ROOT
ATOM      1  C   UNL     1      18.275  69.555  18.297  1.00  0.00     0.000 C 
ENDROOT
BRANCH   1   2
ATOM      2  C   UNL     1      17.672  70.243  17.062  1.00  0.00     0.000 C 
BRANCH   2   3
ATOM      3  C   UNL     1      16.350  69.595  16.612  1.00  0.00     0.000 C 
BRANCH   3   4
ATOM      4  C   UNL     1      15.164  70.568  16.685  1.00  0.00     0.000 C 
BRANCH   4   5
ATOM      5  C   UNL     1      14.064  70.085  17.648  1.00  0.00     0.000 C 
BRANCH   5   6
ATOM      6  C   UNL     1      13.774  68.579  17.511  1.00  0.00     0.006 C 
BRANCH   6   7
ATOM      7  C   UNL     1      12.476  68.124  18.198  1.00  0.00     0.053 C 
BRANCH   7   8
ATOM      8  C   UNL     1      12.714  67.012  19.170  1.00  0.00     0.041 C 
ATOM      9  O   UNL     1      13.889  66.695  19.495  1.00  0.00    -0.550 OA
ATOM     10  O   UNL     1      11.641  66.300  19.691  1.00  0.00    -0.550 OA
ENDBRANCH   7   8
ENDBRANCH   6   7
ENDBRANCH   5   6
ENDBRANCH   4   5
ENDBRANCH   3   4
ENDBRANCH   2   3
ENDBRANCH   1   2
BRANCH   1  11
ATOM     11  C   UNL     1      17.227  69.289  19.393  1.00  0.00     0.000 C 
BRANCH  11  12
ATOM     12  C   UNL     1      17.068  70.473  20.360  1.00  0.00     0.000 C 
BRANCH  12  13
ATOM     13  C   UNL     1      18.418  71.097  20.752  1.00  0.00     0.000 C 
BRANCH  13  14
ATOM     14  C   UNL     1      18.492  72.598  20.431  1.00  0.00     0.000 C 
BRANCH  14  15
ATOM     15  C   UNL     1      17.346  73.067  19.520  1.00  0.00     0.000 C 
BRANCH  15  16
ATOM     16  C   UNL     1      17.867  74.000  18.420  1.00  0.00     0.006 C 
BRANCH  16  17
ATOM     17  C   UNL     1      19.183  73.480  17.834  1.00  0.00     0.053 C 
BRANCH  17  18
ATOM     18  C   UNL     1      20.179  74.590  17.715  1.00  0.00     0.041 C 
ATOM     19  O   UNL     1      20.164  75.544  18.536  1.00  0.00    -0.550 OA
ATOM     20  O   UNL     1      21.095  74.593  16.671  1.00  0.00    -0.550 OA
ENDBRANCH  17  18
ENDBRANCH  16  17
ENDBRANCH  15  16
ENDBRANCH  14  15
ENDBRANCH  13  14
ENDBRANCH  12  13
ENDBRANCH  11  12
ENDBRANCH   1  11
TORSDOF 15
ENDMDL
MODEL 2
REMARK VINA RESULT:    -4.460      1.621      3.082
REMARK INTER + INTRA:         -10.322
REMARK INTER:                  -7.805
REMARK INTRA:                  -2.517
REMARK UNBOUND:                -1.951
REMARK SMILES O=C([O-])CCCCCCCCCCCCCCC(=O)[O-]
REMARK SMILES IDX 10 1 9 2 8 3 7 4 6 5 5 6 4 7 2 8 1 9 3 10 11 11 12 12 13 13
REMARK SMILES IDX 14 14 15 15 16 16 17 17 18 18 19 19 20 20
REMARK H PARENT
REMARK Flexibility Score: inf
ROOT
ATOM      1  C   UNL     1      16.659  70.811  20.671  1.00  0.00     0.000 C 
ENDROOT
BRANCH   1   2
ATOM      2  C   UNL     1      18.164  70.507  20.597  1.00  0.00     0.000 C 
BRANCH   2   3
ATOM      3  C   UNL     1      18.721  70.627  19.166  1.00  0.00     0.000 C 
BRANCH   3   4
ATOM      4  C   UNL     1      18.201  69.518  18.239  1.00  0.00     0.000 C 
BRANCH   4   5
ATOM      5  C   UNL     1      17.475  70.077  17.002  1.00  0.00     0.000 C 
BRANCH   5   6
ATOM      6  C   UNL     1      16.325  69.169  16.527  1.00  0.00     0.006 C 
BRANCH   6   7
ATOM      7  C   UNL     1      14.922  69.723  16.827  1.00  0.00     0.053 C 
BRANCH   7   8
ATOM      8  C   UNL     1      14.218  68.928  17.882  1.00  0.00     0.041 C 
ATOM      9  O   UNL     1      12.959  68.902  17.920  1.00  0.00    -0.550 OA
ATOM     10  O   UNL     1      14.950  68.246  18.845  1.00  0.00    -0.550 OA
ENDBRANCH   7   8
ENDBRANCH   6   7
ENDBRANCH   5   6
ENDBRANCH   4   5
ENDBRANCH   3   4
ENDBRANCH   2   3
ENDBRANCH   1   2
BRANCH   1  11
ATOM     11  C   UNL     1      16.341  72.287  20.371  1.00  0.00     0.000 C 
BRANCH  11  12
ATOM     12  C   UNL     1      15.264  72.452  19.286  1.00  0.00     0.000 C 
BRANCH  12  13
ATOM     13  C   UNL     1      15.790  73.197  18.046  1.00  0.00     0.000 C 
BRANCH  13  14
ATOM     14  C   UNL     1      17.060  74.011  18.340  1.00  0.00     0.000 C 
BRANCH  14  15
ATOM     15  C   UNL     1      18.154  73.807  17.281  1.00  0.00     0.000 C 
BRANCH  15  16
ATOM     16  C   UNL     1      19.498  74.367  17.765  1.00  0.00     0.006 C 
BRANCH  16  17
ATOM     17  C   UNL     1      19.710  74.077  19.253  1.00  0.00     0.053 C 
BRANCH  17  18
ATOM     18  C   UNL     1      20.393  75.229  19.919  1.00  0.00     0.041 C 
ATOM     19  O   UNL     1      20.523  75.250  21.172  1.00  0.00    -0.550 OA
ATOM     20  O   UNL     1      20.849  76.300  19.162  1.00  0.00    -0.550 OA
ENDBRANCH  17  18
ENDBRANCH  16  17
ENDBRANCH  15  16
ENDBRANCH  14  15
ENDBRANCH  13  14
ENDBRANCH  12  13
ENDBRANCH  11  12
ENDBRANCH   1  11
TORSDOF 15
ENDMDL
MODEL 3
REMARK VINA RESULT:    -4.415      2.879      8.129
REMARK INTER + INTRA:         -10.239
REMARK INTER:                  -8.494
REMARK INTRA:                  -1.745
REMARK UNBOUND:                -1.951
REMARK SMILES O=C([O-])CCCCCCCCCCCCCCC(=O)[O-]
REMARK SMILES IDX 10 1 9 2 8 3 7 4 6 5 5 6 4 7 2 8 1 9 3 10 11 11 12 12 13 13
REMARK SMILES IDX 14 14 15 15 16 16 17 17 18 18 19 19 20 20
REMARK H PARENT
REMARK Flexibility Score: inf
ROOT
ATOM      1  C   UNL     1      18.234  73.118  19.984  1.00  0.00     0.000 C 
ENDROOT
BRANCH   1   2
ATOM      2  C   UNL     1      19.397  73.612  19.109  1.00  0.00     0.000 C 
BRANCH   2   3
ATOM      3  C   UNL     1      19.261  75.099  18.732  1.00  0.00     0.000 C 
BRANCH   3   4
ATOM      4  C   UNL     1      20.172  76.005  19.573  1.00  0.00     0.000 C 
BRANCH   4   5
ATOM      5  C   UNL     1      21.204  76.760  18.717  1.00  0.00     0.000 C 
BRANCH   5   6
ATOM      6  C   UNL     1      21.260  76.250  17.265  1.00  0.00     0.006 C 
BRANCH   6   7
ATOM      7  C   UNL     1      20.986  77.333  16.208  1.00  0.00     0.053 C 
BRANCH   7   8
ATOM      8  C   UNL     1      19.863  78.238  16.610  1.00  0.00     0.041 C 
ATOM      9  O   UNL     1      18.675  77.822  16.589  1.00  0.00    -0.550 OA
ATOM     10  O   UNL     1      20.125  79.554  16.972  1.00  0.00    -0.550 OA
ENDBRANCH   7   8
ENDBRANCH   6   7
ENDBRANCH   5   6
ENDBRANCH   4   5
ENDBRANCH   3   4
ENDBRANCH   2   3
ENDBRANCH   1   2
BRANCH   1  11
ATOM     11  C   UNL     1      18.322  71.611  20.285  1.00  0.00     0.000 C 
BRANCH  11  12
ATOM     12  C   UNL     1      18.925  70.809  19.120  1.00  0.00     0.000 C 
BRANCH  12  13
ATOM     13  C   UNL     1      18.113  69.543  18.797  1.00  0.00     0.000 C 
BRANCH  13  14
ATOM     14  C   UNL     1      17.400  69.628  17.438  1.00  0.00     0.000 C 
BRANCH  14  15
ATOM     15  C   UNL     1      17.567  70.999  16.765  1.00  0.00     0.000 C 
BRANCH  15  16
ATOM     16  C   UNL     1      16.203  71.624  16.447  1.00  0.00     0.006 C 
BRANCH  16  17
ATOM     17  C   UNL     1      15.809  72.655  17.509  1.00  0.00     0.053 C 
BRANCH  17  18
ATOM     18  C   UNL     1      14.808  72.074  18.457  1.00  0.00     0.041 C 
ATOM     19  O   UNL     1      14.596  72.625  19.570  1.00  0.00    -0.550 OA
ATOM     20  O   UNL     1      14.139  70.901  18.130  1.00  0.00    -0.550 OA
ENDBRANCH  17  18
ENDBRANCH  16  17
ENDBRANCH  15  16
ENDBRANCH  14  15
ENDBRANCH  13  14
ENDBRANCH  12  13
ENDBRANCH  11  12
ENDBRANCH   1  11
TORSDOF 15
ENDMDL
MODEL 4
REMARK VINA RESULT:    -4.412      2.989      5.290
REMARK INTER + INTRA:         -10.232
REMARK INTER:                  -8.649
REMARK INTRA:                  -1.583
REMARK UNBOUND:                -1.951
REMARK SMILES O=C([O-])CCCCCCCCCCCCCCC(=O)[O-]
REMARK SMILES IDX 10 1 9 2 8 3 7 4 6 5 5 6 4 7 2 8 1 9 3 10 11 11 12 12 13 13
REMARK SMILES IDX 14 14 15 15 16 16 17 17 18 18 19 19 20 20
REMARK H PARENT
REMARK Flexibility Score: inf
ROOT
ATOM      1  C   UNL     1      17.497  75.262  18.500  1.00  0.00     0.000 C 
ENDROOT
BRANCH   1   2
ATOM      2  C   UNL     1      17.884  73.888  19.068  1.00  0.00     0.000 C 
BRANCH   2   3
ATOM      3  C   UNL     1      19.134  73.299  18.388  1.00  0.00     0.000 C 
BRANCH   3   4
ATOM      4  C   UNL     1      19.195  71.767  18.497  1.00  0.00     0.000 C 
BRANCH   4   5
ATOM      5  C   UNL     1      18.026  71.078  17.771  1.00  0.00     0.000 C 
BRANCH   5   6
ATOM      6  C   UNL     1      17.827  69.618  18.218  1.00  0.00     0.006 C 
BRANCH   6   7
ATOM      7  C   UNL     1      16.626  69.406  19.154  1.00  0.00     0.053 C 
BRANCH   7   8
ATOM      8  C   UNL     1      16.718  70.250  20.387  1.00  0.00     0.041 C 
ATOM      9  O   UNL     1      15.897  71.186  20.576  1.00  0.00    -0.550 OA
ATOM     10  O   UNL     1      17.733  70.027  21.309  1.00  0.00    -0.550 OA
ENDBRANCH   7   8
ENDBRANCH   6   7
ENDBRANCH   5   6
ENDBRANCH   4   5
ENDBRANCH   3   4
ENDBRANCH   2   3
ENDBRANCH   1   2
BRANCH   1  11
ATOM     11  C   UNL     1      16.849  75.163  17.107  1.00  0.00     0.000 C 
BRANCH  11  12
ATOM     12  C   UNL     1      17.784  75.637  15.983  1.00  0.00     0.000 C 
BRANCH  12  13
ATOM     13  C   UNL     1      18.134  77.131  16.102  1.00  0.00     0.000 C 
BRANCH  13  14
ATOM     14  C   UNL     1      19.631  77.406  15.889  1.00  0.00     0.000 C 
BRANCH  14  15
ATOM     15  C   UNL     1      20.159  78.540  16.782  1.00  0.00     0.000 C 
BRANCH  15  16
ATOM     16  C   UNL     1      20.351  78.058  18.225  1.00  0.00     0.006 C 
BRANCH  16  17
ATOM     17  C   UNL     1      20.939  76.645  18.259  1.00  0.00     0.053 C 
BRANCH  17  18
ATOM     18  C   UNL     1      21.530  76.355  19.603  1.00  0.00     0.041 C 
ATOM     19  O   UNL     1      20.883  75.683  20.448  1.00  0.00    -0.550 OA
ATOM     20  O   UNL     1      22.779  76.864  19.938  1.00  0.00    -0.550 OA
ENDBRANCH  17  18
ENDBRANCH  16  17
ENDBRANCH  15  16
ENDBRANCH  14  15
ENDBRANCH  13  14
ENDBRANCH  12  13
ENDBRANCH  11  12
ENDBRANCH   1  11
TORSDOF 15
ENDMDL
MODEL 5
REMARK VINA RESULT:    -4.408      1.697      7.795
REMARK INTER + INTRA:         -10.224
REMARK INTER:                  -8.387
REMARK INTRA:                  -1.837
REMARK UNBOUND:                -1.951
REMARK SMILES O=C([O-])CCCCCCCCCCCCCCC(=O)[O-]
REMARK SMILES IDX 10 1 9 2 8 3 7 4 6 5 5 6 4 7 2 8 1 9 3 10 11 11 12 12 13 13
REMARK SMILES IDX 14 14 15 15 16 16 17 17 18 18 19 19 20 20
REMARK H PARENT
REMARK Flexibility Score: inf
ROOT
ATOM      1  C   UNL     1      17.953  72.633  20.227  1.00  0.00     0.000 C 
ENDROOT
BRANCH   1   2
ATOM      2  C   UNL     1      16.459  72.768  19.890  1.00  0.00     0.000 C 
BRANCH   2   3
ATOM      3  C   UNL     1      16.220  73.170  18.423  1.00  0.00     0.000 C 
BRANCH   3   4
ATOM      4  C   UNL     1      17.334  74.072  17.871  1.00  0.00     0.000 C 
BRANCH   4   5
ATOM      5  C   UNL     1      17.056  75.566  18.112  1.00  0.00     0.000 C 
BRANCH   5   6
ATOM      6  C   UNL     1      18.315  76.439  17.951  1.00  0.00     0.006 C 
BRANCH   6   7
ATOM      7  C   UNL     1      18.983  76.830  19.280  1.00  0.00     0.053 C 
BRANCH   7   8
ATOM      8  C   UNL     1      20.323  76.184  19.446  1.00  0.00     0.041 C 
ATOM      9  O   UNL     1      20.596  75.555  20.503  1.00  0.00    -0.550 OA
ATOM     10  O   UNL     1      21.284  76.307  18.451  1.00  0.00    -0.550 OA
ENDBRANCH   7   8
ENDBRANCH   6   7
ENDBRANCH   5   6
ENDBRANCH   4   5
ENDBRANCH   3   4
ENDBRANCH   2   3
ENDBRANCH   1   2
BRANCH   1  11
ATOM     11  C   UNL     1      18.412  71.165  20.289  1.00  0.00     0.000 C 
BRANCH  11  12
ATOM     12  C   UNL     1      18.976  70.664  18.949  1.00  0.00     0.000 C 
BRANCH  12  13
ATOM     13  C   UNL     1      18.149  69.508  18.361  1.00  0.00     0.000 C 
BRANCH  13  14
ATOM     14  C   UNL     1      17.437  69.895  17.055  1.00  0.00     0.000 C 
BRANCH  14  15
ATOM     15  C   UNL     1      15.956  69.484  17.042  1.00  0.00     0.000 C 
BRANCH  15  16
ATOM     16  C   UNL     1      15.379  69.469  18.462  1.00  0.00     0.006 C 
BRANCH  16  17
ATOM     17  C   UNL     1      14.743  68.113  18.783  1.00  0.00     0.053 C 
BRANCH  17  18
ATOM     18  C   UNL     1      13.567  67.863  17.893  1.00  0.00     0.041 C 
ATOM     19  O   UNL     1      12.490  68.491  18.075  1.00  0.00    -0.550 OA
ATOM     20  O   UNL     1      13.645  66.906  16.889  1.00  0.00    -0.550 OA
ENDBRANCH  17  18
ENDBRANCH  16  17
ENDBRANCH  15  16
ENDBRANCH  14  15
ENDBRANCH  13  14
ENDBRANCH  12  13
ENDBRANCH  11  12
ENDBRANCH   1  11
TORSDOF 15
ENDMDL
MODEL 6
REMARK VINA RESULT:    -4.403      3.090      4.680
REMARK INTER + INTRA:         -10.215
REMARK INTER:                  -8.617
REMARK INTRA:                  -1.598
REMARK UNBOUND:                -1.951
REMARK SMILES O=C([O-])CCCCCCCCCCCCCCC(=O)[O-]
REMARK SMILES IDX 10 1 9 2 8 3 7 4 6 5 5 6 4 7 2 8 1 9 3 10 11 11 12 12 13 13
REMARK SMILES IDX 14 14 15 15 16 16 17 17 18 18 19 19 20 20
REMARK H PARENT
REMARK Flexibility Score: inf
ROOT
ATOM      1  C   UNL     1      17.864  73.835  18.526  1.00  0.00     0.000 C 
ENDROOT
BRANCH   1   2
ATOM      2  C   UNL     1      17.721  73.519  17.028  1.00  0.00     0.000 C 
BRANCH   2   3
ATOM      3  C   UNL     1      16.438  72.728  16.712  1.00  0.00     0.000 C 
BRANCH   3   4
ATOM      4  C   UNL     1      16.408  71.357  17.404  1.00  0.00     0.000 C 
BRANCH   4   5
ATOM      5  C   UNL     1      17.652  70.510  17.087  1.00  0.00     0.000 C 
BRANCH   5   6
ATOM      6  C   UNL     1      18.358  69.992  18.354  1.00  0.00     0.006 C 
BRANCH   6   7
ATOM      7  C   UNL     1      17.399  69.486  19.445  1.00  0.00     0.053 C 
BRANCH   7   8
ATOM      8  C   UNL     1      17.464  70.324  20.683  1.00  0.00     0.041 C 
ATOM      9  O   UNL     1      16.404  70.709  21.244  1.00  0.00    -0.550 OA
ATOM     10  O   UNL     1      18.695  70.711  21.199  1.00  0.00    -0.550 OA
ENDBRANCH   7   8
ENDBRANCH   6   7
ENDBRANCH   5   6
ENDBRANCH   4   5
ENDBRANCH   3   4
ENDBRANCH   2   3
ENDBRANCH   1   2
BRANCH   1  11
ATOM     11  C   UNL     1      19.278  73.543  19.057  1.00  0.00     0.000 C 
BRANCH  11  12
ATOM     12  C   UNL     1      19.496  74.071  20.485  1.00  0.00     0.000 C 
BRANCH  12  13
ATOM     13  C   UNL     1      20.558  75.182  20.544  1.00  0.00     0.000 C 
BRANCH  13  14
ATOM     14  C   UNL     1      20.232  76.362  19.615  1.00  0.00     0.000 C 
BRANCH  14  15
ATOM     15  C   UNL     1      21.386  76.700  18.658  1.00  0.00     0.000 C 
BRANCH  15  16
ATOM     16  C   UNL     1      21.115  76.143  17.255  1.00  0.00     0.006 C 
BRANCH  16  17
ATOM     17  C   UNL     1      21.054  77.269  16.218  1.00  0.00     0.053 C 
BRANCH  17  18
ATOM     18  C   UNL     1      19.948  78.221  16.544  1.00  0.00     0.041 C 
ATOM     19  O   UNL     1      18.757  77.813  16.601  1.00  0.00    -0.550 OA
ATOM     20  O   UNL     1      20.224  79.568  16.743  1.00  0.00    -0.550 OA
ENDBRANCH  17  18
ENDBRANCH  16  17
ENDBRANCH  15  16
ENDBRANCH  14  15
ENDBRANCH  13  14
ENDBRANCH  12  13
ENDBRANCH  11  12
ENDBRANCH   1  11
TORSDOF 15
ENDMDL
MODEL 7
REMARK VINA RESULT:    -4.394      2.731      7.743
REMARK INTER + INTRA:         -10.198
REMARK INTER:                  -8.183
REMARK INTRA:                  -2.014
REMARK UNBOUND:                -1.951
REMARK SMILES O=C([O-])CCCCCCCCCCCCCCC(=O)[O-]
REMARK SMILES IDX 10 1 9 2 8 3 7 4 6 5 5 6 4 7 2 8 1 9 3 10 11 11 12 12 13 13
REMARK SMILES IDX 14 14 15 15 16 16 17 17 18 18 19 19 20 20
REMARK H PARENT
REMARK Flexibility Score: inf
ROOT
ATOM      1  C   UNL     1      16.892  74.127  18.609  1.00  0.00     0.000 C 
ENDROOT
BRANCH   1   2
ATOM      2  C   UNL     1      18.043  73.903  17.615  1.00  0.00     0.000 C 
BRANCH   2   3
ATOM      3  C   UNL     1      19.382  73.612  18.318  1.00  0.00     0.000 C 
BRANCH   3   4
ATOM      4  C   UNL     1      19.396  74.093  19.777  1.00  0.00     0.000 C 
BRANCH   4   5
ATOM      5  C   UNL     1      20.292  75.326  19.982  1.00  0.00     0.000 C 
BRANCH   5   6
ATOM      6  C   UNL     1      19.792  76.560  19.208  1.00  0.00     0.006 C 
BRANCH   6   7
ATOM      7  C   UNL     1      20.903  77.345  18.491  1.00  0.00     0.053 C 
BRANCH   7   8
ATOM      8  C   UNL     1      20.955  77.036  17.028  1.00  0.00     0.041 C 
ATOM      9  O   UNL     1      21.368  75.914  16.631  1.00  0.00    -0.550 OA
ATOM     10  O   UNL     1      20.583  78.000  16.099  1.00  0.00    -0.550 OA
ENDBRANCH   7   8
ENDBRANCH   6   7
ENDBRANCH   5   6
ENDBRANCH   4   5
ENDBRANCH   3   4
ENDBRANCH   2   3
ENDBRANCH   1   2
BRANCH   1  11
ATOM     11  C   UNL     1      15.630  73.329  18.238  1.00  0.00     0.000 C 
BRANCH  11  12
ATOM     12  C   UNL     1      15.245  72.297  19.312  1.00  0.00     0.000 C 
BRANCH  12  13
ATOM     13  C   UNL     1      16.374  72.062  20.330  1.00  0.00     0.000 C 
BRANCH  13  14
ATOM     14  C   UNL     1      16.265  70.697  21.028  1.00  0.00     0.000 C 
BRANCH  14  15
ATOM     15  C   UNL     1      17.257  69.664  20.470  1.00  0.00     0.000 C 
BRANCH  15  16
ATOM     16  C   UNL     1      18.213  70.311  19.460  1.00  0.00     0.006 C 
BRANCH  16  17
ATOM     17  C   UNL     1      18.314  69.472  18.183  1.00  0.00     0.053 C 
BRANCH  17  18
ATOM     18  C   UNL     1      17.121  69.701  17.309  1.00  0.00     0.041 C 
ATOM     19  O   UNL     1      16.118  68.944  17.396  1.00  0.00    -0.550 OA
ATOM     20  O   UNL     1      17.133  70.724  16.369  1.00  0.00    -0.550 OA
ENDBRANCH  17  18
ENDBRANCH  16  17
ENDBRANCH  15  16
ENDBRANCH  14  15
ENDBRANCH  13  14
ENDBRANCH  12  13
ENDBRANCH  11  12
ENDBRANCH   1  11
TORSDOF 15
ENDMDL
MODEL 8
REMARK VINA RESULT:    -4.393      2.885      4.991
REMARK INTER + INTRA:         -10.196
REMARK INTER:                  -8.102
REMARK INTRA:                  -2.094
REMARK UNBOUND:                -1.951
REMARK SMILES O=C([O-])CCCCCCCCCCCCCCC(=O)[O-]
REMARK SMILES IDX 10 1 9 2 8 3 7 4 6 5 5 6 4 7 2 8 1 9 3 10 11 11 12 12 13 13
REMARK SMILES IDX 14 14 15 15 16 16 17 17 18 18 19 19 20 20
REMARK H PARENT
REMARK Flexibility Score: inf
ROOT
ATOM      1  C   UNL     1      15.795  73.802  17.373  1.00  0.00     0.000 C 
ENDROOT
BRANCH   1   2
ATOM      2  C   UNL     1      16.080  72.709  18.415  1.00  0.00     0.000 C 
BRANCH   2   3
ATOM      3  C   UNL     1      16.881  73.235  19.620  1.00  0.00     0.000 C 
BRANCH   3   4
ATOM      4  C   UNL     1      18.367  72.854  19.550  1.00  0.00     0.000 C 
BRANCH   4   5
ATOM      5  C   UNL     1      18.685  71.940  18.354  1.00  0.00     0.000 C 
BRANCH   5   6
ATOM      6  C   UNL     1      19.102  70.521  18.783  1.00  0.00     0.006 C 
BRANCH   6   7
ATOM      7  C   UNL     1      18.104  69.424  18.376  1.00  0.00     0.053 C 
BRANCH   7   8
ATOM      8  C   UNL     1      16.977  69.298  19.353  1.00  0.00     0.041 C 
ATOM      9  O   UNL     1      17.199  69.384  20.590  1.00  0.00    -0.550 OA
ATOM     10  O   UNL     1      15.687  69.051  18.901  1.00  0.00    -0.550 OA
ENDBRANCH   7   8
ENDBRANCH   6   7
ENDBRANCH   5   6
ENDBRANCH   4   5
ENDBRANCH   3   4
ENDBRANCH   2   3
ENDBRANCH   1   2
BRANCH   1  11
ATOM     11  C   UNL     1      16.089  75.215  17.908  1.00  0.00     0.000 C 
BRANCH  11  12
ATOM     12  C   UNL     1      17.128  75.966  17.058  1.00  0.00     0.000 C 
BRANCH  12  13
ATOM     13  C   UNL     1      17.906  75.028  16.118  1.00  0.00     0.000 C 
BRANCH  13  14
ATOM     14  C   UNL     1      19.379  75.436  15.962  1.00  0.00     0.000 C 
BRANCH  14  15
ATOM     15  C   UNL     1      20.193  75.226  17.249  1.00  0.00     0.000 C 
BRANCH  15  16
ATOM     16  C   UNL     1      21.148  76.402  17.492  1.00  0.00     0.006 C 
BRANCH  16  17
ATOM     17  C   UNL     1      20.557  77.709  16.958  1.00  0.00     0.053 C 
BRANCH  17  18
ATOM     18  C   UNL     1      20.076  78.566  18.086  1.00  0.00     0.041 C 
ATOM     19  O   UNL     1      20.543  79.725  18.244  1.00  0.00    -0.550 OA
ATOM     20  O   UNL     1      19.143  78.071  18.987  1.00  0.00    -0.550 OA
ENDBRANCH  17  18
ENDBRANCH  16  17
ENDBRANCH  15  16
ENDBRANCH  14  15
ENDBRANCH  13  14
ENDBRANCH  12  13
ENDBRANCH  11  12
ENDBRANCH   1  11
TORSDOF 15
ENDMDL
MODEL 9
REMARK VINA RESULT:    -4.357      2.741      5.062
REMARK INTER + INTRA:         -10.128
REMARK INTER:                  -8.788
REMARK INTRA:                  -1.340
REMARK UNBOUND:                -1.951
REMARK SMILES O=C([O-])CCCCCCCCCCCCCCC(=O)[O-]
REMARK SMILES IDX 10 1 9 2 8 3 7 4 6 5 5 6 4 7 2 8 1 9 3 10 11 11 12 12 13 13
REMARK SMILES IDX 14 14 15 15 16 16 17 17 18 18 19 19 20 20
REMARK H PARENT
REMARK Flexibility Score: inf
ROOT
ATOM      1  C   UNL     1      16.937  75.373  17.583  1.00  0.00     0.000 C 
ENDROOT
BRANCH   1   2
ATOM      2  C   UNL     1      16.323  73.965  17.643  1.00  0.00     0.000 C 
BRANCH   2   3
ATOM      3  C   UNL     1      16.479  73.197  16.317  1.00  0.00     0.000 C 
BRANCH   3   4
ATOM      4  C   UNL     1      16.624  71.682  16.530  1.00  0.00     0.000 C 
BRANCH   4   5
ATOM      5  C   UNL     1      17.844  71.323  17.397  1.00  0.00     0.000 C 
BRANCH   5   6
ATOM      6  C   UNL     1      17.867  69.839  17.805  1.00  0.00     0.006 C 
BRANCH   6   7
ATOM      7  C   UNL     1      17.947  69.606  19.323  1.00  0.00     0.053 C 
BRANCH   7   8
ATOM      8  C   UNL     1      16.620  69.230  19.904  1.00  0.00     0.041 C 
ATOM      9  O   UNL     1      16.364  69.480  21.112  1.00  0.00    -0.550 OA
ATOM     10  O   UNL     1      15.678  68.573  19.123  1.00  0.00    -0.550 OA
ENDBRANCH   7   8
ENDBRANCH   6   7
ENDBRANCH   5   6
ENDBRANCH   4   5
ENDBRANCH   3   4
ENDBRANCH   2   3
ENDBRANCH   1   2
BRANCH   1  11
ATOM     11  C   UNL     1      17.646  75.650  16.246  1.00  0.00     0.000 C 
BRANCH  11  12
ATOM     12  C   UNL     1      18.129  77.105  16.121  1.00  0.00     0.000 C 
BRANCH  12  13
ATOM     13  C   UNL     1      19.660  77.208  16.013  1.00  0.00     0.000 C 
BRANCH  13  14
ATOM     14  C   UNL     1      20.209  78.507  16.624  1.00  0.00     0.000 C 
BRANCH  14  15
ATOM     15  C   UNL     1      20.514  78.375  18.125  1.00  0.00     0.000 C 
BRANCH  15  16
ATOM     16  C   UNL     1      20.772  76.911  18.505  1.00  0.00     0.006 C 
BRANCH  16  17
ATOM     17  C   UNL     1      19.800  76.447  19.593  1.00  0.00     0.053 C 
BRANCH  17  18
ATOM     18  C   UNL     1      20.097  75.036  19.994  1.00  0.00     0.041 C 
ATOM     19  O   UNL     1      20.558  74.787  21.139  1.00  0.00    -0.550 OA
ATOM     20  O   UNL     1      19.907  74.000  19.088  1.00  0.00    -0.550 OA
ENDBRANCH  17  18
ENDBRANCH  16  17
ENDBRANCH  15  16
ENDBRANCH  14  15
ENDBRANCH  13  14
ENDBRANCH  12  13
ENDBRANCH  11  12
ENDBRANCH   1  11
TORSDOF 15
ENDMDL
