MODEL 1
REMARK VINA RESULT:   100.948      0.000      0.000
REMARK INTER + INTRA:         109.360
REMARK INTER:                 109.800
REMARK INTRA:                  -0.440
REMARK UNBOUND:                -0.440
REMARK SMILES C=C(C)[C@H]1CC[C@]2(C)CC[C@@]3(C)[C@H](CC[C@@H]4[C@]5(C)CC[C@@H](O)C(C)(C)[C@H]5CC[C@@]43C)[C@H]12
REMARK SMILES IDX 4 1 5 2 6 3 7 4 31 5 13 6 14 7 15 8 16 9 17 10 19 11 20 12
REMARK SMILES IDX 21 13 23 14 26 15 27 16 28 17 29 18 11 19 10 20 9 21 12 22
REMARK SMILES IDX 30 23 24 24 25 25 18 26 8 27 2 28 3 29 1 30 22 31
REMARK H PARENT 22 32
REMARK Flexibility Score: inf
ROOT
ATOM      1  C   UNL     1       8.920  69.766   3.292  1.00  0.00     0.018 C 
ATOM      2  C   UNL     1       7.925  68.784   3.925  1.00  0.00     0.009 C 
ATOM      3  C   UNL     1       8.031  68.986   5.425  1.00  0.00     0.008 C 
ATOM      4  C   UNL     1       9.512  69.303   5.703  1.00  0.00    -0.029 C 
ATOM      5  C   UNL     1       9.994  70.014   4.402  1.00  0.00     0.006 C 
ATOM      6  C   UNL     1      10.381  71.523   4.609  1.00  0.00    -0.000 C 
ATOM      7  C   UNL     1       9.164  72.485   4.754  1.00  0.00     0.005 C 
ATOM      8  C   UNL     1       9.232  73.450   5.930  1.00  0.00     0.005 C 
ATOM      9  C   UNL     1      10.571  74.223   6.067  1.00  0.00     0.002 C 
ATOM     10  C   UNL     1      10.617  75.706   5.414  1.00  0.00    -0.026 C 
ATOM     11  C   UNL     1       9.196  76.249   5.062  1.00  0.00     0.010 C 
ATOM     12  C   UNL     1       9.202  77.599   4.340  1.00  0.00     0.033 C 
ATOM     13  C   UNL     1       9.955  77.505   3.009  1.00  0.00     0.120 C 
ATOM     14  C   UNL     1      11.426  77.005   3.177  1.00  0.00    -0.006 C 
ATOM     15  C   UNL     1      11.451  75.696   4.086  1.00  0.00     0.003 C 
ATOM     16  C   UNL     1      12.859  75.151   4.366  1.00  0.00     0.005 C 
ATOM     17  C   UNL     1      12.768  73.668   4.673  1.00  0.00     0.008 C 
ATOM     18  C   UNL     1      11.868  73.266   5.902  1.00  0.00    -0.024 C 
ATOM     19  C   UNL     1      11.468  71.693   5.740  1.00  0.00    -0.024 C 
ATOM     20  C   UNL     1      10.942  71.040   7.082  1.00  0.00     0.008 C 
ATOM     21  C   UNL     1       9.658  70.169   6.987  1.00  0.00     0.007 C 
ATOM     22  C   UNL     1      12.735  70.863   5.310  1.00  0.00     0.012 C 
ATOM     23  C   UNL     1      12.773  73.461   7.170  1.00  0.00     0.012 C 
ATOM     24  C   UNL     1      12.336  78.155   3.700  1.00  0.00     0.014 C 
ATOM     25  C   UNL     1      11.936  76.637   1.751  1.00  0.00     0.014 C 
ATOM     26  C   UNL     1      11.210  76.667   6.496  1.00  0.00     0.012 C 
ATOM     27  C   UNL     1      10.267  67.962   5.916  1.00  0.00     0.011 C 
ENDROOT
BRANCH   1  28
ATOM     28  C   UNL     1       9.460  69.264   1.941  1.00  0.00    -0.077 C 
ATOM     29  C   UNL     1       9.435  70.159   0.722  1.00  0.00     0.039 C 
ATOM     30  C   UNL     1      10.137  68.107   1.832  1.00  0.00     0.008 C 
ENDBRANCH   1  28
BRANCH  13  31
ATOM     31  O   UNL     1       9.921  78.769   2.387  1.00  0.00    -0.393 OA
ATOM     32  H   UNL     1       8.970  78.993   2.213  1.00  0.00     0.210 HD
ENDBRANCH  13  31
TORSDOF 2
ENDMDL
