MODEL 1
REMARK VINA RESULT:     7.733      0.000      0.000
REMARK INTER + INTRA:           9.443
REMARK INTER:                   9.315
REMARK INTRA:                   0.127
REMARK UNBOUND:                 0.127
REMARK SMILES O=c1c(O)c(-c2ccc(O)c(O)c2)oc2cc(O)cc(O)c12
REMARK SMILES IDX 5 1 3 2 2 3 1 4 22 5 20 6 19 7 17 8 16 9 15 10 14 11 6 12
REMARK SMILES IDX 7 13 8 14 9 15 13 16 11 17 10 18 12 20 4 22 21 24 18 26
REMARK H PARENT 10 19 12 21 4 23 21 25 18 27
REMARK Flexibility Score: inf
ROOT
ATOM      1  C   UNL     1     -14.783  -2.029  19.389  1.00  0.00     0.180 A 
ATOM      2  C   UNL     1     -15.569  -1.012  18.821  1.00  0.00     0.208 A 
ATOM      3  C   UNL     1     -16.100  -1.198  17.535  1.00  0.00     0.238 A 
ATOM      4  O   UNL     1     -16.758  -0.261  17.011  1.00  0.00    -0.285 OA
ATOM      5  C   UNL     1     -15.852  -2.405  16.839  1.00  0.00     0.111 A 
ATOM      6  C   UNL     1     -16.372  -2.717  15.547  1.00  0.00     0.134 A 
ATOM      7  C   UNL     1     -15.956  -3.886  14.898  1.00  0.00     0.093 A 
ATOM      8  C   UNL     1     -15.087  -4.785  15.521  1.00  0.00     0.123 A 
ATOM      9  C   UNL     1     -14.621  -4.519  16.807  1.00  0.00     0.094 A 
ATOM     10  C   UNL     1     -14.990  -3.343  17.464  1.00  0.00     0.146 A 
ATOM     11  O   UNL     1     -14.514  -3.123  18.684  1.00  0.00    -0.452 OA
ENDROOT
BRANCH   1  12
ATOM     12  C   UNL     1     -14.211  -1.917  20.749  1.00  0.00     0.025 A 
ATOM     13  C   UNL     1     -12.875  -2.268  21.013  1.00  0.00     0.016 A 
ATOM     14  C   UNL     1     -12.350  -2.131  22.300  1.00  0.00     0.051 A 
ATOM     15  C   UNL     1     -13.144  -1.630  23.340  1.00  0.00     0.157 A 
ATOM     16  C   UNL     1     -14.998  -1.396  21.791  1.00  0.00     0.062 A 
ATOM     17  C   UNL     1     -14.475  -1.259  23.081  1.00  0.00     0.158 A 
BRANCH  15  18
ATOM     18  O   UNL     1     -12.618  -1.498  24.623  1.00  0.00    -0.504 OA
ATOM     19  H   UNL     1     -12.131  -0.657  24.913  1.00  0.00     0.293 HD
ENDBRANCH  15  18
BRANCH  17  20
ATOM     20  O   UNL     1     -15.290  -0.751  24.092  1.00  0.00    -0.504 OA
ATOM     21  H   UNL     1     -15.697   0.175  24.040  1.00  0.00     0.293 HD
ENDBRANCH  17  20
ENDBRANCH   1  12
BRANCH   2  22
ATOM     22  O   UNL     1     -15.783   0.181  19.517  1.00  0.00    -0.502 OA
ATOM     23  H   UNL     1     -15.429   0.335  20.454  1.00  0.00     0.293 HD
ENDBRANCH   2  22
BRANCH   6  24
ATOM     24  O   UNL     1     -17.315  -1.933  14.876  1.00  0.00    -0.507 OA
ATOM     25  H   UNL     1     -17.305  -0.925  14.841  1.00  0.00     0.293 HD
ENDBRANCH   6  24
BRANCH   8  26
ATOM     26  O   UNL     1     -14.690  -5.954  14.875  1.00  0.00    -0.508 OA
ATOM     27  H   UNL     1     -14.698  -6.851  15.349  1.00  0.00     0.293 HD
ENDBRANCH   8  26
TORSDOF 6
ENDMDL
