MODEL 1
REMARK VINA RESULT:    -5.356      0.000      0.000
REMARK INTER + INTRA:         -11.086
REMARK INTER:                 -10.052
REMARK INTRA:                  -1.034
REMARK UNBOUND:                -1.034
REMARK SMILES O=C([O-])CCCCCCCCCCCCCCC(=O)[O-]
REMARK SMILES IDX 10 1 9 2 8 3 7 4 6 5 5 6 4 7 2 8 1 9 3 10 11 11 12 12 13 13
REMARK SMILES IDX 14 14 15 15 16 16 17 17 18 18 19 19 20 20
REMARK H PARENT
REMARK Flexibility Score: inf
ROOT
ATOM      1  C   UNL     1     -16.585  37.203  16.524  1.00  0.00     0.000 C 
ENDROOT
BRANCH   1   2
ATOM      2  C   UNL     1     -15.834  35.885  16.283  1.00  0.00     0.000 C 
BRANCH   2   3
ATOM      3  C   UNL     1     -14.631  36.046  15.337  1.00  0.00     0.000 C 
BRANCH   3   4
ATOM      4  C   UNL     1     -14.722  37.235  14.359  1.00  0.00     0.000 C 
BRANCH   4   5
ATOM      5  C   UNL     1     -14.904  36.849  12.880  1.00  0.00     0.000 C 
BRANCH   5   6
ATOM      6  C   UNL     1     -16.383  36.752  12.467  1.00  0.00     0.006 C 
BRANCH   6   7
ATOM      7  C   UNL     1     -16.816  35.304  12.205  1.00  0.00     0.053 C 
BRANCH   7   8
ATOM      8  C   UNL     1     -17.716  34.791  13.287  1.00  0.00     0.041 C 
ATOM      9  O   UNL     1     -17.687  33.575  13.614  1.00  0.00    -0.550 OA
ATOM     10  O   UNL     1     -18.559  35.665  13.962  1.00  0.00    -0.550 OA
ENDBRANCH   7   8
ENDBRANCH   6   7
ENDBRANCH   5   6
ENDBRANCH   4   5
ENDBRANCH   3   4
ENDBRANCH   2   3
ENDBRANCH   1   2
BRANCH   1  11
ATOM     11  C   UNL     1     -16.780  37.457  18.026  1.00  0.00     0.000 C 
BRANCH  11  12
ATOM     12  C   UNL     1     -17.038  38.939  18.357  1.00  0.00     0.000 C 
BRANCH  12  13
ATOM     13  C   UNL     1     -17.884  39.188  19.620  1.00  0.00     0.000 C 
BRANCH  13  14
ATOM     14  C   UNL     1     -18.792  40.423  19.497  1.00  0.00     0.000 C 
BRANCH  14  15
ATOM     15  C   UNL     1     -18.888  41.214  20.812  1.00  0.00     0.000 C 
BRANCH  15  16
ATOM     16  C   UNL     1     -17.793  42.288  20.937  1.00  0.00     0.006 C 
BRANCH  16  17
ATOM     17  C   UNL     1     -16.602  41.804  21.776  1.00  0.00     0.053 C 
BRANCH  17  18
ATOM     18  C   UNL     1     -15.639  42.914  22.061  1.00  0.00     0.041 C 
ATOM     19  O   UNL     1     -14.509  42.662  22.557  1.00  0.00    -0.550 OA
ATOM     20  O   UNL     1     -16.002  44.231  21.809  1.00  0.00    -0.550 OA
ENDBRANCH  17  18
ENDBRANCH  16  17
ENDBRANCH  15  16
ENDBRANCH  14  15
ENDBRANCH  13  14
ENDBRANCH  12  13
ENDBRANCH  11  12
ENDBRANCH   1  11
TORSDOF 15
ENDMDL
MODEL 2
REMARK VINA RESULT:    -5.219      1.142      9.259
REMARK INTER + INTRA:         -10.830
REMARK INTER:                  -9.641
REMARK INTRA:                  -1.189
REMARK UNBOUND:                -1.034
REMARK SMILES O=C([O-])CCCCCCCCCCCCCCC(=O)[O-]
REMARK SMILES IDX 10 1 9 2 8 3 7 4 6 5 5 6 4 7 2 8 1 9 3 10 11 11 12 12 13 13
REMARK SMILES IDX 14 14 15 15 16 16 17 17 18 18 19 19 20 20
REMARK H PARENT
REMARK Flexibility Score: inf
ROOT
ATOM      1  C   UNL     1     -16.719  37.472  18.093  1.00  0.00     0.000 C 
ENDROOT
BRANCH   1   2
ATOM      2  C   UNL     1     -17.062  38.937  18.404  1.00  0.00     0.000 C 
BRANCH   2   3
ATOM      3  C   UNL     1     -18.220  39.081  19.407  1.00  0.00     0.000 C 
BRANCH   3   4
ATOM      4  C   UNL     1     -18.832  40.493  19.501  1.00  0.00     0.000 C 
BRANCH   4   5
ATOM      5  C   UNL     1     -17.818  41.627  19.737  1.00  0.00     0.000 C 
BRANCH   5   6
ATOM      6  C   UNL     1     -17.792  42.111  21.197  1.00  0.00     0.006 C 
BRANCH   6   7
ATOM      7  C   UNL     1     -16.369  42.148  21.769  1.00  0.00     0.053 C 
BRANCH   7   8
ATOM      8  C   UNL     1     -16.028  40.878  22.488  1.00  0.00     0.041 C 
ATOM      9  O   UNL     1     -14.877  40.710  22.969  1.00  0.00    -0.550 OA
ATOM     10  O   UNL     1     -16.997  39.898  22.662  1.00  0.00    -0.550 OA
ENDBRANCH   7   8
ENDBRANCH   6   7
ENDBRANCH   5   6
ENDBRANCH   4   5
ENDBRANCH   3   4
ENDBRANCH   2   3
ENDBRANCH   1   2
BRANCH   1  11
ATOM     11  C   UNL     1     -16.638  37.237  16.578  1.00  0.00     0.000 C 
BRANCH  11  12
ATOM     12  C   UNL     1     -15.724  36.057  16.199  1.00  0.00     0.000 C 
BRANCH  12  13
ATOM     13  C   UNL     1     -14.726  36.342  15.062  1.00  0.00     0.000 C 
BRANCH  13  14
ATOM     14  C   UNL     1     -14.969  37.698  14.378  1.00  0.00     0.000 C 
BRANCH  14  15
ATOM     15  C   UNL     1     -15.466  37.545  12.931  1.00  0.00     0.000 C 
BRANCH  15  16
ATOM     16  C   UNL     1     -15.415  36.087  12.439  1.00  0.00     0.006 C 
BRANCH  16  17
ATOM     17  C   UNL     1     -16.787  35.587  11.969  1.00  0.00     0.053 C 
BRANCH  17  18
ATOM     18  C   UNL     1     -17.578  35.000  13.097  1.00  0.00     0.041 C 
ATOM     19  O   UNL     1     -18.271  35.743  13.841  1.00  0.00    -0.550 OA
ATOM     20  O   UNL     1     -17.523  33.635  13.347  1.00  0.00    -0.550 OA
ENDBRANCH  17  18
ENDBRANCH  16  17
ENDBRANCH  15  16
ENDBRANCH  14  15
ENDBRANCH  13  14
ENDBRANCH  12  13
ENDBRANCH  11  12
ENDBRANCH   1  11
TORSDOF 15
ENDMDL
MODEL 3
REMARK VINA RESULT:    -5.217      1.958     10.228
REMARK INTER + INTRA:         -10.826
REMARK INTER:                  -9.946
REMARK INTRA:                  -0.880
REMARK UNBOUND:                -1.034
REMARK SMILES O=C([O-])CCCCCCCCCCCCCCC(=O)[O-]
REMARK SMILES IDX 10 1 9 2 8 3 7 4 6 5 5 6 4 7 2 8 1 9 3 10 11 11 12 12 13 13
REMARK SMILES IDX 14 14 15 15 16 16 17 17 18 18 19 19 20 20
REMARK H PARENT
REMARK Flexibility Score: inf
ROOT
ATOM      1  C   UNL     1     -18.710  40.974  19.001  1.00  0.00     0.000 C 
ENDROOT
BRANCH   1   2
ATOM      2  C   UNL     1     -18.529  40.902  20.524  1.00  0.00     0.000 C 
BRANCH   2   3
ATOM      3  C   UNL     1     -17.962  42.202  21.122  1.00  0.00     0.000 C 
BRANCH   3   4
ATOM      4  C   UNL     1     -16.565  42.073  21.762  1.00  0.00     0.000 C 
BRANCH   4   5
ATOM      5  C   UNL     1     -15.806  43.400  21.940  1.00  0.00     0.000 C 
BRANCH   5   6
ATOM      6  C   UNL     1     -16.732  44.628  21.899  1.00  0.00     0.006 C 
BRANCH   6   7
ATOM      7  C   UNL     1     -16.911  45.264  23.284  1.00  0.00     0.053 C 
BRANCH   7   8
ATOM      8  C   UNL     1     -16.291  46.626  23.352  1.00  0.00     0.041 C 
ATOM      9  O   UNL     1     -16.205  47.230  24.454  1.00  0.00    -0.550 OA
ATOM     10  O   UNL     1     -15.770  47.210  22.204  1.00  0.00    -0.550 OA
ENDBRANCH   7   8
ENDBRANCH   6   7
ENDBRANCH   5   6
ENDBRANCH   4   5
ENDBRANCH   3   4
ENDBRANCH   2   3
ENDBRANCH   1   2
BRANCH   1  11
ATOM     11  C   UNL     1     -17.702  40.064  18.284  1.00  0.00     0.000 C 
BRANCH  11  12
ATOM     12  C   UNL     1     -17.106  38.983  19.204  1.00  0.00     0.000 C 
BRANCH  12  13
ATOM     13  C   UNL     1     -16.987  37.582  18.576  1.00  0.00     0.000 C 
BRANCH  13  14
ATOM     14  C   UNL     1     -16.624  37.626  17.082  1.00  0.00     0.000 C 
BRANCH  14  15
ATOM     15  C   UNL     1     -16.150  36.263  16.552  1.00  0.00     0.000 C 
BRANCH  15  16
ATOM     16  C   UNL     1     -16.094  36.213  15.015  1.00  0.00     0.006 C 
BRANCH  16  17
ATOM     17  C   UNL     1     -16.481  37.554  14.378  1.00  0.00     0.053 C 
BRANCH  17  18
ATOM     18  C   UNL     1     -17.754  37.447  13.596  1.00  0.00     0.041 C 
ATOM     19  O   UNL     1     -18.154  38.417  12.898  1.00  0.00    -0.550 OA
ATOM     20  O   UNL     1     -18.516  36.288  13.663  1.00  0.00    -0.550 OA
ENDBRANCH  17  18
ENDBRANCH  16  17
ENDBRANCH  15  16
ENDBRANCH  14  15
ENDBRANCH  13  14
ENDBRANCH  12  13
ENDBRANCH  11  12
ENDBRANCH   1  11
TORSDOF 15
ENDMDL
MODEL 4
REMARK VINA RESULT:    -5.193      2.338      3.003
REMARK INTER + INTRA:         -10.781
REMARK INTER:                  -9.685
REMARK INTRA:                  -1.096
REMARK UNBOUND:                -1.034
REMARK SMILES O=C([O-])CCCCCCCCCCCCCCC(=O)[O-]
REMARK SMILES IDX 10 1 9 2 8 3 7 4 6 5 5 6 4 7 2 8 1 9 3 10 11 11 12 12 13 13
REMARK SMILES IDX 14 14 15 15 16 16 17 17 18 18 19 19 20 20
REMARK H PARENT
REMARK Flexibility Score: inf
ROOT
ATOM      1  C   UNL     1     -16.599  37.563  16.472  1.00  0.00     0.000 C 
ENDROOT
BRANCH   1   2
ATOM      2  C   UNL     1     -15.665  36.619  15.700  1.00  0.00     0.000 C 
BRANCH   2   3
ATOM      3  C   UNL     1     -16.426  35.577  14.861  1.00  0.00     0.000 C 
BRANCH   3   4
ATOM      4  C   UNL     1     -16.735  36.004  13.412  1.00  0.00     0.000 C 
BRANCH   4   5
ATOM      5  C   UNL     1     -18.050  36.784  13.229  1.00  0.00     0.000 C 
BRANCH   5   6
ATOM      6  C   UNL     1     -17.833  38.303  13.129  1.00  0.00     0.006 C 
BRANCH   6   7
ATOM      7  C   UNL     1     -16.411  38.656  12.671  1.00  0.00     0.053 C 
BRANCH   7   8
ATOM      8  C   UNL     1     -16.372  39.969  11.951  1.00  0.00     0.041 C 
ATOM      9  O   UNL     1     -15.292  40.610  11.857  1.00  0.00    -0.550 OA
ATOM     10  O   UNL     1     -17.521  40.465  11.348  1.00  0.00    -0.550 OA
ENDBRANCH   7   8
ENDBRANCH   6   7
ENDBRANCH   5   6
ENDBRANCH   4   5
ENDBRANCH   3   4
ENDBRANCH   2   3
ENDBRANCH   1   2
BRANCH   1  11
ATOM     11  C   UNL     1     -16.649  37.191  17.960  1.00  0.00     0.000 C 
BRANCH  11  12
ATOM     12  C   UNL     1     -17.057  38.370  18.863  1.00  0.00     0.000 C 
BRANCH  12  13
ATOM     13  C   UNL     1     -17.743  39.541  18.137  1.00  0.00     0.000 C 
BRANCH  13  14
ATOM     14  C   UNL     1     -17.384  40.911  18.738  1.00  0.00     0.000 C 
BRANCH  14  15
ATOM     15  C   UNL     1     -18.592  41.599  19.394  1.00  0.00     0.000 C 
BRANCH  15  16
ATOM     16  C   UNL     1     -18.544  41.541  20.931  1.00  0.00     0.006 C 
BRANCH  16  17
ATOM     17  C   UNL     1     -17.105  41.514  21.463  1.00  0.00     0.053 C 
BRANCH  17  18
ATOM     18  C   UNL     1     -16.592  42.893  21.743  1.00  0.00     0.041 C 
ATOM     19  O   UNL     1     -17.370  43.882  21.689  1.00  0.00    -0.550 OA
ATOM     20  O   UNL     1     -15.248  43.089  22.031  1.00  0.00    -0.550 OA
ENDBRANCH  17  18
ENDBRANCH  16  17
ENDBRANCH  15  16
ENDBRANCH  14  15
ENDBRANCH  13  14
ENDBRANCH  12  13
ENDBRANCH  11  12
ENDBRANCH   1  11
TORSDOF 15
ENDMDL
MODEL 5
REMARK VINA RESULT:    -5.191      1.942      2.752
REMARK INTER + INTRA:         -10.777
REMARK INTER:                 -10.065
REMARK INTRA:                  -0.712
REMARK UNBOUND:                -1.034
REMARK SMILES O=C([O-])CCCCCCCCCCCCCCC(=O)[O-]
REMARK SMILES IDX 10 1 9 2 8 3 7 4 6 5 5 6 4 7 2 8 1 9 3 10 11 11 12 12 13 13
REMARK SMILES IDX 14 14 15 15 16 16 17 17 18 18 19 19 20 20
REMARK H PARENT
REMARK Flexibility Score: inf
ROOT
ATOM      1  C   UNL     1     -16.967  37.516  18.312  1.00  0.00     0.000 C 
ENDROOT
BRANCH   1   2
ATOM      2  C   UNL     1     -16.626  37.329  16.826  1.00  0.00     0.000 C 
BRANCH   2   3
ATOM      3  C   UNL     1     -15.939  35.984  16.534  1.00  0.00     0.000 C 
BRANCH   3   4
ATOM      4  C   UNL     1     -15.803  35.629  15.039  1.00  0.00     0.000 C 
BRANCH   4   5
ATOM      5  C   UNL     1     -17.131  35.340  14.316  1.00  0.00     0.000 C 
BRANCH   5   6
ATOM      6  C   UNL     1     -17.258  36.088  12.978  1.00  0.00     0.006 C 
BRANCH   6   7
ATOM      7  C   UNL     1     -16.202  37.191  12.830  1.00  0.00     0.053 C 
BRANCH   7   8
ATOM      8  C   UNL     1     -16.830  38.546  12.712  1.00  0.00     0.041 C 
ATOM      9  O   UNL     1     -18.041  38.714  13.013  1.00  0.00    -0.550 OA
ATOM     10  O   UNL     1     -16.065  39.633  12.307  1.00  0.00    -0.550 OA
ENDBRANCH   7   8
ENDBRANCH   6   7
ENDBRANCH   5   6
ENDBRANCH   4   5
ENDBRANCH   3   4
ENDBRANCH   2   3
ENDBRANCH   1   2
BRANCH   1  11
ATOM     11  C   UNL     1     -17.018  39.006  18.680  1.00  0.00     0.000 C 
BRANCH  11  12
ATOM     12  C   UNL     1     -18.295  39.393  19.450  1.00  0.00     0.000 C 
BRANCH  12  13
ATOM     13  C   UNL     1     -18.793  40.829  19.208  1.00  0.00     0.000 C 
BRANCH  13  14
ATOM     14  C   UNL     1     -18.880  41.658  20.501  1.00  0.00     0.000 C 
BRANCH  14  15
ATOM     15  C   UNL     1     -17.497  42.099  21.010  1.00  0.00     0.000 C 
BRANCH  15  16
ATOM     16  C   UNL     1     -17.404  43.619  21.227  1.00  0.00     0.006 C 
BRANCH  16  17
ATOM     17  C   UNL     1     -16.440  43.982  22.364  1.00  0.00     0.053 C 
BRANCH  17  18
ATOM     18  C   UNL     1     -16.636  45.394  22.826  1.00  0.00     0.041 C 
ATOM     19  O   UNL     1     -16.423  46.354  22.040  1.00  0.00    -0.550 OA
ATOM     20  O   UNL     1     -17.023  45.648  24.135  1.00  0.00    -0.550 OA
ENDBRANCH  17  18
ENDBRANCH  16  17
ENDBRANCH  15  16
ENDBRANCH  14  15
ENDBRANCH  13  14
ENDBRANCH  12  13
ENDBRANCH  11  12
ENDBRANCH   1  11
TORSDOF 15
ENDMDL
MODEL 6
REMARK VINA RESULT:    -5.181      1.680      3.064
REMARK INTER + INTRA:         -10.759
REMARK INTER:                  -9.874
REMARK INTRA:                  -0.885
REMARK UNBOUND:                -1.034
REMARK SMILES O=C([O-])CCCCCCCCCCCCCCC(=O)[O-]
REMARK SMILES IDX 10 1 9 2 8 3 7 4 6 5 5 6 4 7 2 8 1 9 3 10 11 11 12 12 13 13
REMARK SMILES IDX 14 14 15 15 16 16 17 17 18 18 19 19 20 20
REMARK H PARENT
REMARK Flexibility Score: inf
ROOT
ATOM      1  C   UNL     1     -16.981  39.748  18.616  1.00  0.00     0.000 C 
ENDROOT
BRANCH   1   2
ATOM      2  C   UNL     1     -17.507  38.318  18.815  1.00  0.00     0.000 C 
BRANCH   2   3
ATOM      3  C   UNL     1     -16.636  37.258  18.119  1.00  0.00     0.000 C 
BRANCH   3   4
ATOM      4  C   UNL     1     -16.604  37.345  16.579  1.00  0.00     0.000 C 
BRANCH   4   5
ATOM      5  C   UNL     1     -15.788  36.242  15.881  1.00  0.00     0.000 C 
BRANCH   5   6
ATOM      6  C   UNL     1     -16.626  35.415  14.892  1.00  0.00     0.006 C 
BRANCH   6   7
ATOM      7  C   UNL     1     -16.272  35.727  13.432  1.00  0.00     0.053 C 
BRANCH   7   8
ATOM      8  C   UNL     1     -16.971  36.958  12.943  1.00  0.00     0.041 C 
ATOM      9  O   UNL     1     -18.172  37.173  13.254  1.00  0.00    -0.550 OA
ATOM     10  O   UNL     1     -16.282  37.890  12.177  1.00  0.00    -0.550 OA
ENDBRANCH   7   8
ENDBRANCH   6   7
ENDBRANCH   5   6
ENDBRANCH   4   5
ENDBRANCH   3   4
ENDBRANCH   2   3
ENDBRANCH   1   2
BRANCH   1  11
ATOM     11  C   UNL     1     -18.140  40.751  18.524  1.00  0.00     0.000 C 
BRANCH  11  12
ATOM     12  C   UNL     1     -19.175  40.581  19.652  1.00  0.00     0.000 C 
BRANCH  12  13
ATOM     13  C   UNL     1     -18.747  41.141  21.021  1.00  0.00     0.000 C 
BRANCH  13  14
ATOM     14  C   UNL     1     -17.829  42.369  20.905  1.00  0.00     0.000 C 
BRANCH  14  15
ATOM     15  C   UNL     1     -16.499  42.182  21.651  1.00  0.00     0.000 C 
BRANCH  15  16
ATOM     16  C   UNL     1     -15.835  43.520  22.022  1.00  0.00     0.006 C 
BRANCH  16  17
ATOM     17  C   UNL     1     -16.850  44.669  22.093  1.00  0.00     0.053 C 
BRANCH  17  18
ATOM     18  C   UNL     1     -16.479  45.670  23.143  1.00  0.00     0.041 C 
ATOM     19  O   UNL     1     -15.881  45.302  24.188  1.00  0.00    -0.550 OA
ATOM     20  O   UNL     1     -16.824  47.006  22.981  1.00  0.00    -0.550 OA
ENDBRANCH  17  18
ENDBRANCH  16  17
ENDBRANCH  15  16
ENDBRANCH  14  15
ENDBRANCH  13  14
ENDBRANCH  12  13
ENDBRANCH  11  12
ENDBRANCH   1  11
TORSDOF 15
ENDMDL
MODEL 7
REMARK VINA RESULT:    -5.158      1.405      2.681
REMARK INTER + INTRA:         -10.715
REMARK INTER:                  -9.915
REMARK INTRA:                  -0.800
REMARK UNBOUND:                -1.034
REMARK SMILES O=C([O-])CCCCCCCCCCCCCCC(=O)[O-]
REMARK SMILES IDX 10 1 9 2 8 3 7 4 6 5 5 6 4 7 2 8 1 9 3 10 11 11 12 12 13 13
REMARK SMILES IDX 14 14 15 15 16 16 17 17 18 18 19 19 20 20
REMARK H PARENT
REMARK Flexibility Score: inf
ROOT
ATOM      1  C   UNL     1     -17.272  39.204  18.726  1.00  0.00     0.000 C 
ENDROOT
BRANCH   1   2
ATOM      2  C   UNL     1     -16.983  37.731  18.402  1.00  0.00     0.000 C 
BRANCH   2   3
ATOM      3  C   UNL     1     -16.612  37.503  16.926  1.00  0.00     0.000 C 
BRANCH   3   4
ATOM      4  C   UNL     1     -15.855  36.192  16.636  1.00  0.00     0.000 C 
BRANCH   4   5
ATOM      5  C   UNL     1     -15.009  36.199  15.350  1.00  0.00     0.000 C 
BRANCH   5   6
ATOM      6  C   UNL     1     -15.864  36.176  14.073  1.00  0.00     0.006 C 
BRANCH   6   7
ATOM      7  C   UNL     1     -16.904  35.047  14.093  1.00  0.00     0.053 C 
BRANCH   7   8
ATOM      8  C   UNL     1     -18.281  35.557  13.796  1.00  0.00     0.041 C 
ATOM      9  O   UNL     1     -19.287  34.834  14.018  1.00  0.00    -0.550 OA
ATOM     10  O   UNL     1     -18.453  36.848  13.313  1.00  0.00    -0.550 OA
ENDBRANCH   7   8
ENDBRANCH   6   7
ENDBRANCH   5   6
ENDBRANCH   4   5
ENDBRANCH   3   4
ENDBRANCH   2   3
ENDBRANCH   1   2
BRANCH   1  11
ATOM     11  C   UNL     1     -18.524  39.338  19.604  1.00  0.00     0.000 C 
BRANCH  11  12
ATOM     12  C   UNL     1     -19.145  40.747  19.556  1.00  0.00     0.000 C 
BRANCH  12  13
ATOM     13  C   UNL     1     -18.134  41.908  19.576  1.00  0.00     0.000 C 
BRANCH  13  14
ATOM     14  C   UNL     1     -17.925  42.495  20.983  1.00  0.00     0.000 C 
BRANCH  14  15
ATOM     15  C   UNL     1     -16.614  42.019  21.629  1.00  0.00     0.000 C 
BRANCH  15  16
ATOM     16  C   UNL     1     -15.743  43.186  22.127  1.00  0.00     0.006 C 
BRANCH  16  17
ATOM     17  C   UNL     1     -16.522  44.507  22.182  1.00  0.00     0.053 C 
BRANCH  17  18
ATOM     18  C   UNL     1     -16.295  45.229  23.474  1.00  0.00     0.041 C 
ATOM     19  O   UNL     1     -17.140  46.065  23.892  1.00  0.00    -0.550 OA
ATOM     20  O   UNL     1     -15.133  45.004  24.201  1.00  0.00    -0.550 OA
ENDBRANCH  17  18
ENDBRANCH  16  17
ENDBRANCH  15  16
ENDBRANCH  14  15
ENDBRANCH  13  14
ENDBRANCH  12  13
ENDBRANCH  11  12
ENDBRANCH   1  11
TORSDOF 15
ENDMDL
MODEL 8
REMARK VINA RESULT:    -5.131      1.661     10.344
REMARK INTER + INTRA:         -10.664
REMARK INTER:                  -9.989
REMARK INTRA:                  -0.676
REMARK UNBOUND:                -1.034
REMARK SMILES O=C([O-])CCCCCCCCCCCCCCC(=O)[O-]
REMARK SMILES IDX 10 1 9 2 8 3 7 4 6 5 5 6 4 7 2 8 1 9 3 10 11 11 12 12 13 13
REMARK SMILES IDX 14 14 15 15 16 16 17 17 18 18 19 19 20 20
REMARK H PARENT
REMARK Flexibility Score: inf
ROOT
ATOM      1  C   UNL     1     -17.120  39.515  18.837  1.00  0.00     0.000 C 
ENDROOT
BRANCH   1   2
ATOM      2  C   UNL     1     -18.489  39.961  19.371  1.00  0.00     0.000 C 
BRANCH   2   3
ATOM      3  C   UNL     1     -18.397  40.688  20.724  1.00  0.00     0.000 C 
BRANCH   3   4
ATOM      4  C   UNL     1     -17.468  41.919  20.743  1.00  0.00     0.000 C 
BRANCH   4   5
ATOM      5  C   UNL     1     -16.370  41.889  21.822  1.00  0.00     0.000 C 
BRANCH   5   6
ATOM      6  C   UNL     1     -15.888  43.293  22.222  1.00  0.00     0.006 C 
BRANCH   6   7
ATOM      7  C   UNL     1     -16.954  44.366  21.965  1.00  0.00     0.053 C 
BRANCH   7   8
ATOM      8  C   UNL     1     -16.632  45.647  22.672  1.00  0.00     0.041 C 
ATOM      9  O   UNL     1     -16.260  46.657  22.018  1.00  0.00    -0.550 OA
ATOM     10  O   UNL     1     -16.782  45.737  24.050  1.00  0.00    -0.550 OA
ENDBRANCH   7   8
ENDBRANCH   6   7
ENDBRANCH   5   6
ENDBRANCH   4   5
ENDBRANCH   3   4
ENDBRANCH   2   3
ENDBRANCH   1   2
BRANCH   1  11
ATOM     11  C   UNL     1     -17.119  38.015  18.510  1.00  0.00     0.000 C 
BRANCH  11  12
ATOM     12  C   UNL     1     -16.754  37.718  17.044  1.00  0.00     0.000 C 
BRANCH  12  13
ATOM     13  C   UNL     1     -16.039  36.375  16.807  1.00  0.00     0.000 C 
BRANCH  13  14
ATOM     14  C   UNL     1     -15.856  36.049  15.316  1.00  0.00     0.000 C 
BRANCH  14  15
ATOM     15  C   UNL     1     -15.252  37.223  14.528  1.00  0.00     0.000 C 
BRANCH  15  16
ATOM     16  C   UNL     1     -15.926  37.426  13.160  1.00  0.00     0.006 C 
BRANCH  16  17
ATOM     17  C   UNL     1     -17.000  36.366  12.881  1.00  0.00     0.053 C 
BRANCH  17  18
ATOM     18  C   UNL     1     -16.586  35.435  11.783  1.00  0.00     0.041 C 
ATOM     19  O   UNL     1     -16.979  34.238  11.785  1.00  0.00    -0.550 OA
ATOM     20  O   UNL     1     -15.739  35.880  10.777  1.00  0.00    -0.550 OA
ENDBRANCH  17  18
ENDBRANCH  16  17
ENDBRANCH  15  16
ENDBRANCH  14  15
ENDBRANCH  13  14
ENDBRANCH  12  13
ENDBRANCH  11  12
ENDBRANCH   1  11
TORSDOF 15
ENDMDL
MODEL 9
REMARK VINA RESULT:    -5.096      1.039      2.070
REMARK INTER + INTRA:         -10.599
REMARK INTER:                  -9.626
REMARK INTRA:                  -0.973
REMARK UNBOUND:                -1.034
REMARK SMILES O=C([O-])CCCCCCCCCCCCCCC(=O)[O-]
REMARK SMILES IDX 10 1 9 2 8 3 7 4 6 5 5 6 4 7 2 8 1 9 3 10 11 11 12 12 13 13
REMARK SMILES IDX 14 14 15 15 16 16 17 17 18 18 19 19 20 20
REMARK H PARENT
REMARK Flexibility Score: inf
ROOT
ATOM      1  C   UNL     1     -16.247  37.328  15.589  1.00  0.00     0.000 C 
ENDROOT
BRANCH   1   2
ATOM      2  C   UNL     1     -14.944  37.223  14.781  1.00  0.00     0.000 C 
BRANCH   2   3
ATOM      3  C   UNL     1     -15.068  37.814  13.366  1.00  0.00     0.000 C 
BRANCH   3   4
ATOM      4  C   UNL     1     -16.236  37.261  12.526  1.00  0.00     0.000 C 
BRANCH   4   5
ATOM      5  C   UNL     1     -15.859  36.130  11.551  1.00  0.00     0.000 C 
BRANCH   5   6
ATOM      6  C   UNL     1     -16.726  34.872  11.732  1.00  0.00     0.006 C 
BRANCH   6   7
ATOM      7  C   UNL     1     -17.310  34.771  13.147  1.00  0.00     0.053 C 
BRANCH   7   8
ATOM      8  C   UNL     1     -18.014  33.466  13.363  1.00  0.00     0.041 C 
ATOM      9  O   UNL     1     -19.140  33.437  13.925  1.00  0.00    -0.550 OA
ATOM     10  O   UNL     1     -17.442  32.285  12.907  1.00  0.00    -0.550 OA
ENDBRANCH   7   8
ENDBRANCH   6   7
ENDBRANCH   5   6
ENDBRANCH   4   5
ENDBRANCH   3   4
ENDBRANCH   2   3
ENDBRANCH   1   2
BRANCH   1  11
ATOM     11  C   UNL     1     -16.219  36.385  16.800  1.00  0.00     0.000 C 
BRANCH  11  12
ATOM     12  C   UNL     1     -16.628  37.079  18.113  1.00  0.00     0.000 C 
BRANCH  12  13
ATOM     13  C   UNL     1     -17.087  38.541  17.964  1.00  0.00     0.000 C 
BRANCH  13  14
ATOM     14  C   UNL     1     -17.323  39.235  19.316  1.00  0.00     0.000 C 
BRANCH  14  15
ATOM     15  C   UNL     1     -18.530  40.186  19.285  1.00  0.00     0.000 C 
BRANCH  15  16
ATOM     16  C   UNL     1     -18.742  40.916  20.624  1.00  0.00     0.006 C 
BRANCH  16  17
ATOM     17  C   UNL     1     -18.005  42.261  20.672  1.00  0.00     0.053 C 
BRANCH  17  18
ATOM     18  C   UNL     1     -16.870  42.235  21.649  1.00  0.00     0.041 C 
ATOM     19  O   UNL     1     -16.204  43.280  21.876  1.00  0.00    -0.550 OA
ATOM     20  O   UNL     1     -16.528  41.049  22.285  1.00  0.00    -0.550 OA
ENDBRANCH  17  18
ENDBRANCH  16  17
ENDBRANCH  15  16
ENDBRANCH  14  15
ENDBRANCH  13  14
ENDBRANCH  12  13
ENDBRANCH  11  12
ENDBRANCH   1  11
TORSDOF 15
ENDMDL
