MODEL 1
REMARK VINA RESULT:    -5.411      0.000      0.000
REMARK INTER + INTRA:          -5.411
REMARK INTER:                  -5.411
REMARK INTRA:                   0.000
REMARK UNBOUND:                 0.000
REMARK SMILES CC1=CC(=O)[C@@H]2C[C@H]1C2(C)C
REMARK SMILES IDX 1 1 2 2 3 3 4 4 5 5 6 6 7 7 8 8 9 9 10 10 11 11
REMARK H PARENT
REMARK Flexibility Score: inf
ROOT
ATOM      1  C   UNL     1      18.760 -13.588  67.749  1.00  0.00     0.040 C 
ATOM      2  C   UNL     1      18.906 -12.108  67.915  1.00  0.00    -0.066 C 
ATOM      3  C   UNL     1      19.264 -11.562  69.110  1.00  0.00     0.047 C 
ATOM      4  C   UNL     1      19.406 -10.070  69.140  1.00  0.00     0.159 C 
ATOM      5  O   UNL     1      19.770  -9.450  70.174  1.00  0.00    -0.295 OA
ATOM      6  C   UNL     1      19.081  -9.354  67.829  1.00  0.00     0.067 C 
ATOM      7  C   UNL     1      17.765 -10.011  67.358  1.00  0.00     0.021 C 
ATOM      8  C   UNL     1      18.641 -11.130  66.751  1.00  0.00     0.022 C 
ATOM      9  C   UNL     1      19.802 -10.098  66.668  1.00  0.00    -0.019 C 
ATOM     10  C   UNL     1      21.253 -10.602  66.903  1.00  0.00     0.012 C 
ATOM     11  C   UNL     1      19.778  -9.288  65.346  1.00  0.00     0.012 C 
ENDROOT
TORSDOF 0
ENDMDL
MODEL 2
REMARK VINA RESULT:    -5.035      1.004      3.053
REMARK INTER + INTRA:          -5.035
REMARK INTER:                  -5.035
REMARK INTRA:                   0.000
REMARK UNBOUND:                 0.000
REMARK SMILES CC1=CC(=O)[C@@H]2C[C@H]1C2(C)C
REMARK SMILES IDX 1 1 2 2 3 3 4 4 5 5 6 6 7 7 8 8 9 9 10 10 11 11
REMARK H PARENT
REMARK Flexibility Score: inf
ROOT
ATOM      1  C   UNL     1      18.174  -9.827  65.611  1.00  0.00     0.040 C 
ATOM      2  C   UNL     1      18.904 -10.278  66.836  1.00  0.00    -0.066 C 
ATOM      3  C   UNL     1      18.838  -9.573  67.999  1.00  0.00     0.047 C 
ATOM      4  C   UNL     1      19.588 -10.145  69.165  1.00  0.00     0.159 C 
ATOM      5  O   UNL     1      19.573  -9.608  70.303  1.00  0.00    -0.295 OA
ATOM      6  C   UNL     1      20.369 -11.427  68.875  1.00  0.00     0.067 C 
ATOM      7  C   UNL     1      21.090 -11.136  67.540  1.00  0.00     0.021 C 
ATOM      8  C   UNL     1      19.777 -11.551  66.840  1.00  0.00     0.022 C 
ATOM      9  C   UNL     1      19.443 -12.405  68.096  1.00  0.00    -0.019 C 
ATOM     10  C   UNL     1      17.956 -12.520  68.534  1.00  0.00     0.012 C 
ATOM     11  C   UNL     1      20.035 -13.836  68.011  1.00  0.00     0.012 C 
ENDROOT
TORSDOF 0
ENDMDL
MODEL 3
REMARK VINA RESULT:    -4.955      4.278      5.402
REMARK INTER + INTRA:          -4.955
REMARK INTER:                  -4.955
REMARK INTRA:                   0.000
REMARK UNBOUND:                 0.000
REMARK SMILES CC1=CC(=O)[C@@H]2C[C@H]1C2(C)C
REMARK SMILES IDX 1 1 2 2 3 3 4 4 5 5 6 6 7 7 8 8 9 9 10 10 11 11
REMARK H PARENT
REMARK Flexibility Score: inf
ROOT
ATOM      1  C   UNL     1      16.624 -11.471  66.920  1.00  0.00     0.040 C 
ATOM      2  C   UNL     1      16.822 -11.172  65.468  1.00  0.00    -0.066 C 
ATOM      3  C   UNL     1      16.999 -12.169  64.558  1.00  0.00     0.047 C 
ATOM      4  C   UNL     1      17.157 -11.742  63.129  1.00  0.00     0.159 C 
ATOM      5  O   UNL     1      17.287 -12.571  62.191  1.00  0.00    -0.295 OA
ATOM      6  C   UNL     1      17.144 -10.232  62.893  1.00  0.00     0.067 C 
ATOM      7  C   UNL     1      18.076  -9.670  63.990  1.00  0.00     0.021 C 
ATOM      8  C   UNL     1      16.854  -9.725  64.933  1.00  0.00     0.022 C 
ATOM      9  C   UNL     1      15.947  -9.618  63.674  1.00  0.00    -0.019 C 
ATOM     10  C   UNL     1      14.595 -10.385  63.673  1.00  0.00     0.012 C 
ATOM     11  C   UNL     1      15.671  -8.147  63.268  1.00  0.00     0.012 C 
ENDROOT
TORSDOF 0
ENDMDL
MODEL 4
REMARK VINA RESULT:    -4.876      1.845      2.811
REMARK INTER + INTRA:          -4.876
REMARK INTER:                  -4.876
REMARK INTRA:                   0.000
REMARK UNBOUND:                 0.000
REMARK SMILES CC1=CC(=O)[C@@H]2C[C@H]1C2(C)C
REMARK SMILES IDX 1 1 2 2 3 3 4 4 5 5 6 6 7 7 8 8 9 9 10 10 11 11
REMARK H PARENT
REMARK Flexibility Score: inf
ROOT
ATOM      1  C   UNL     1      16.709 -10.018  65.060  1.00  0.00     0.040 C 
ATOM      2  C   UNL     1      17.528 -10.548  66.194  1.00  0.00    -0.066 C 
ATOM      3  C   UNL     1      17.102 -11.604  66.942  1.00  0.00     0.047 C 
ATOM      4  C   UNL     1      18.027 -12.061  68.030  1.00  0.00     0.159 C 
ATOM      5  O   UNL     1      17.764 -13.050  68.763  1.00  0.00    -0.295 OA
ATOM      6  C   UNL     1      19.310 -11.245  68.185  1.00  0.00     0.067 C 
ATOM      7  C   UNL     1      18.833  -9.777  68.122  1.00  0.00     0.021 C 
ATOM      8  C   UNL     1      18.882  -9.918  66.584  1.00  0.00     0.022 C 
ATOM      9  C   UNL     1      19.940 -11.042  66.777  1.00  0.00    -0.019 C 
ATOM     10  C   UNL     1      19.932 -12.239  65.785  1.00  0.00     0.012 C 
ATOM     11  C   UNL     1      21.385 -10.485  66.853  1.00  0.00     0.012 C 
ENDROOT
TORSDOF 0
ENDMDL
MODEL 5
REMARK VINA RESULT:    -4.866      1.209      2.895
REMARK INTER + INTRA:          -4.866
REMARK INTER:                  -4.866
REMARK INTRA:                   0.000
REMARK UNBOUND:                 0.000
REMARK SMILES CC1=CC(=O)[C@@H]2C[C@H]1C2(C)C
REMARK SMILES IDX 1 1 2 2 3 3 4 4 5 5 6 6 7 7 8 8 9 9 10 10 11 11
REMARK H PARENT
REMARK Flexibility Score: inf
ROOT
ATOM      1  C   UNL     1      21.081 -10.545  65.164  1.00  0.00     0.040 C 
ATOM      2  C   UNL     1      20.319 -11.023  66.359  1.00  0.00    -0.066 C 
ATOM      3  C   UNL     1      20.793 -10.835  67.621  1.00  0.00     0.047 C 
ATOM      4  C   UNL     1      19.923 -11.333  68.737  1.00  0.00     0.159 C 
ATOM      5  O   UNL     1      20.232 -11.183  69.948  1.00  0.00    -0.295 OA
ATOM      6  C   UNL     1      18.635 -12.031  68.301  1.00  0.00     0.067 C 
ATOM      7  C   UNL     1      19.085 -12.981  67.170  1.00  0.00     0.021 C 
ATOM      8  C   UNL     1      18.973 -11.766  66.222  1.00  0.00     0.022 C 
ATOM      9  C   UNL     1      17.942 -11.158  67.215  1.00  0.00    -0.019 C 
ATOM     10  C   UNL     1      17.927  -9.616  67.407  1.00  0.00     0.012 C 
ATOM     11  C   UNL     1      16.493 -11.625  66.921  1.00  0.00     0.012 C 
ENDROOT
TORSDOF 0
ENDMDL
MODEL 6
REMARK VINA RESULT:    -4.864      1.487      1.931
REMARK INTER + INTRA:          -4.864
REMARK INTER:                  -4.864
REMARK INTRA:                   0.000
REMARK UNBOUND:                 0.000
REMARK SMILES CC1=CC(=O)[C@@H]2C[C@H]1C2(C)C
REMARK SMILES IDX 1 1 2 2 3 3 4 4 5 5 6 6 7 7 8 8 9 9 10 10 11 11
REMARK H PARENT
REMARK Flexibility Score: inf
ROOT
ATOM      1  C   UNL     1      19.849 -13.383  66.261  1.00  0.00     0.040 C 
ATOM      2  C   UNL     1      19.107 -12.155  66.684  1.00  0.00    -0.066 C 
ATOM      3  C   UNL     1      19.541 -11.388  67.721  1.00  0.00     0.047 C 
ATOM      4  C   UNL     1      18.727 -10.166  68.029  1.00  0.00     0.159 C 
ATOM      5  O   UNL     1      19.048  -9.356  68.937  1.00  0.00    -0.295 OA
ATOM      6  C   UNL     1      17.484  -9.974  67.161  1.00  0.00     0.067 C 
ATOM      7  C   UNL     1      16.826 -11.371  67.127  1.00  0.00     0.021 C 
ATOM      8  C   UNL     1      17.806 -11.709  65.982  1.00  0.00     0.022 C 
ATOM      9  C   UNL     1      17.881 -10.187  65.672  1.00  0.00    -0.019 C 
ATOM     10  C   UNL     1      19.234  -9.602  65.178  1.00  0.00     0.012 C 
ATOM     11  C   UNL     1      16.769  -9.729  64.694  1.00  0.00     0.012 C 
ENDROOT
TORSDOF 0
ENDMDL
MODEL 7
REMARK VINA RESULT:    -4.789      3.026      4.258
REMARK INTER + INTRA:          -4.789
REMARK INTER:                  -4.789
REMARK INTRA:                   0.000
REMARK UNBOUND:                 0.000
REMARK SMILES CC1=CC(=O)[C@@H]2C[C@H]1C2(C)C
REMARK SMILES IDX 1 1 2 2 3 3 4 4 5 5 6 6 7 7 8 8 9 9 10 10 11 11
REMARK H PARENT
REMARK Flexibility Score: inf
ROOT
ATOM      1  C   UNL     1      18.378  -9.739  67.838  1.00  0.00     0.040 C 
ATOM      2  C   UNL     1      18.299 -10.000  66.367  1.00  0.00    -0.066 C 
ATOM      3  C   UNL     1      19.390  -9.863  65.565  1.00  0.00     0.047 C 
ATOM      4  C   UNL     1      19.190 -10.183  64.113  1.00  0.00     0.159 C 
ATOM      5  O   UNL     1      20.130 -10.133  63.278  1.00  0.00    -0.295 OA
ATOM      6  C   UNL     1      17.766 -10.577  63.721  1.00  0.00     0.067 C 
ATOM      7  C   UNL     1      16.876  -9.530  64.426  1.00  0.00     0.021 C 
ATOM      8  C   UNL     1      16.979 -10.419  65.686  1.00  0.00     0.022 C 
ATOM      9  C   UNL     1      17.244 -11.627  64.743  1.00  0.00    -0.019 C 
ATOM     10  C   UNL     1      18.219 -12.737  65.225  1.00  0.00     0.012 C 
ATOM     11  C   UNL     1      15.932 -12.306  64.271  1.00  0.00     0.012 C 
ENDROOT
TORSDOF 0
ENDMDL
MODEL 8
REMARK VINA RESULT:    -4.767      4.213      5.579
REMARK INTER + INTRA:          -4.767
REMARK INTER:                  -4.767
REMARK INTRA:                   0.000
REMARK UNBOUND:                 0.000
REMARK SMILES CC1=CC(=O)[C@@H]2C[C@H]1C2(C)C
REMARK SMILES IDX 1 1 2 2 3 3 4 4 5 5 6 6 7 7 8 8 9 9 10 10 11 11
REMARK H PARENT
REMARK Flexibility Score: inf
ROOT
ATOM      1  C   UNL     1      15.552  -8.301  63.181  1.00  0.00     0.040 C 
ATOM      2  C   UNL     1      16.166  -9.634  63.470  1.00  0.00    -0.066 C 
ATOM      3  C   UNL     1      16.351 -10.557  62.487  1.00  0.00     0.047 C 
ATOM      4  C   UNL     1      17.004 -11.843  62.898  1.00  0.00     0.159 C 
ATOM      5  O   UNL     1      17.265 -12.758  62.074  1.00  0.00    -0.295 OA
ATOM      6  C   UNL     1      17.332 -11.963  64.386  1.00  0.00     0.067 C 
ATOM      7  C   UNL     1      16.054 -11.467  65.096  1.00  0.00     0.021 C 
ATOM      8  C   UNL     1      16.601 -10.036  64.895  1.00  0.00     0.022 C 
ATOM      9  C   UNL     1      18.030 -10.651  64.847  1.00  0.00    -0.019 C 
ATOM     10  C   UNL     1      19.078 -10.001  63.900  1.00  0.00     0.012 C 
ATOM     11  C   UNL     1      18.663 -10.783  66.255  1.00  0.00     0.012 C 
ENDROOT
TORSDOF 0
ENDMDL
MODEL 9
REMARK VINA RESULT:    -4.753      2.726      4.253
REMARK INTER + INTRA:          -4.753
REMARK INTER:                  -4.753
REMARK INTRA:                   0.000
REMARK UNBOUND:                 0.000
REMARK SMILES CC1=CC(=O)[C@@H]2C[C@H]1C2(C)C
REMARK SMILES IDX 1 1 2 2 3 3 4 4 5 5 6 6 7 7 8 8 9 9 10 10 11 11
REMARK H PARENT
REMARK Flexibility Score: inf
ROOT
ATOM      1  C   UNL     1      19.354  -9.644  64.055  1.00  0.00     0.040 C 
ATOM      2  C   UNL     1      18.316 -10.230  64.959  1.00  0.00    -0.066 C 
ATOM      3  C   UNL     1      17.069 -10.531  64.503  1.00  0.00     0.047 C 
ATOM      4  C   UNL     1      16.128 -11.142  65.499  1.00  0.00     0.159 C 
ATOM      5  O   UNL     1      14.962 -11.500  65.189  1.00  0.00    -0.295 OA
ATOM      6  C   UNL     1      16.686 -11.302  66.913  1.00  0.00     0.067 C 
ATOM      7  C   UNL     1      17.370  -9.948  67.204  1.00  0.00     0.021 C 
ATOM      8  C   UNL     1      18.599 -10.506  66.451  1.00  0.00     0.022 C 
ATOM      9  C   UNL     1      18.104 -11.934  66.817  1.00  0.00    -0.019 C 
ATOM     10  C   UNL     1      18.334 -13.078  65.790  1.00  0.00     0.012 C 
ATOM     11  C   UNL     1      18.632 -12.407  68.196  1.00  0.00     0.012 C 
ENDROOT
TORSDOF 0
ENDMDL
