MODEL 1
REMARK VINA RESULT:    -5.023      0.000      0.000
REMARK INTER + INTRA:          -5.023
REMARK INTER:                  -5.023
REMARK INTRA:                   0.000
REMARK UNBOUND:                 0.000
REMARK SMILES C[C@H]1CCC=C2CC[C@H]3[C@H](C3(C)C)[C@]21C
REMARK SMILES IDX 1 1 2 2 3 3 4 4 5 5 6 6 14 7 10 8 9 9 11 10 12 11 13 12 8 13
REMARK SMILES IDX 7 14 15 15
REMARK H PARENT
REMARK Flexibility Score: inf
ROOT
ATOM      1  C   UNL     1       1.395  15.749  12.965  1.00  0.00     0.008 C 
ATOM      2  C   UNL     1       1.707  16.012  14.453  1.00  0.00    -0.004 C 
ATOM      3  C   UNL     1       0.876  17.191  14.975  1.00  0.00     0.008 C 
ATOM      4  C   UNL     1       1.377  17.567  16.367  1.00  0.00     0.027 C 
ATOM      5  C   UNL     1       1.320  16.385  17.290  1.00  0.00    -0.027 C 
ATOM      6  C   UNL     1       1.406  15.105  16.861  1.00  0.00    -0.068 C 
ATOM      7  C   UNL     1       1.579  14.731  15.378  1.00  0.00    -0.005 C 
ATOM      8  C   UNL     1       0.271  13.943  14.977  1.00  0.00     0.009 C 
ATOM      9  C   UNL     1      -0.255  12.926  16.024  1.00  0.00    -0.000 C 
ATOM     10  C   UNL     1       0.097  12.453  14.604  1.00  0.00    -0.028 C 
ATOM     11  C   UNL     1      -1.124  12.190  13.710  1.00  0.00     0.012 C 
ATOM     12  C   UNL     1       1.284  11.514  14.326  1.00  0.00     0.012 C 
ATOM     13  C   UNL     1       0.666  12.688  17.236  1.00  0.00     0.009 C 
ATOM     14  C   UNL     1       1.118  14.010  17.876  1.00  0.00     0.031 C 
ATOM     15  C   UNL     1       2.919  13.964  15.236  1.00  0.00     0.017 C 
ENDROOT
TORSDOF 0
ENDMDL
MODEL 2
REMARK VINA RESULT:    -4.815      1.449      3.838
REMARK INTER + INTRA:          -4.815
REMARK INTER:                  -4.815
REMARK INTRA:                   0.000
REMARK UNBOUND:                 0.000
REMARK SMILES C[C@H]1CCC=C2CC[C@H]3[C@H](C3(C)C)[C@]21C
REMARK SMILES IDX 1 1 2 2 3 3 4 4 5 5 6 6 14 7 10 8 9 9 11 10 12 11 13 12 8 13
REMARK SMILES IDX 7 14 15 15
REMARK H PARENT
REMARK Flexibility Score: inf
ROOT
ATOM      1  C   UNL     1       1.531  17.355  13.519  1.00  0.00     0.008 C 
ATOM      2  C   UNL     1       1.602  15.861  13.145  1.00  0.00    -0.004 C 
ATOM      3  C   UNL     1       2.989  15.512  12.590  1.00  0.00     0.008 C 
ATOM      4  C   UNL     1       2.948  14.097  12.020  1.00  0.00     0.027 C 
ATOM      5  C   UNL     1       2.496  13.116  13.061  1.00  0.00    -0.027 C 
ATOM      6  C   UNL     1       1.694  13.453  14.097  1.00  0.00    -0.068 C 
ATOM      7  C   UNL     1       1.158  14.880  14.309  1.00  0.00    -0.005 C 
ATOM      8  C   UNL     1       1.790  15.382  15.666  1.00  0.00     0.009 C 
ATOM      9  C   UNL     1       1.834  14.342  16.817  1.00  0.00    -0.000 C 
ATOM     10  C   UNL     1       1.104  15.680  17.019  1.00  0.00    -0.028 C 
ATOM     11  C   UNL     1       1.875  16.692  17.879  1.00  0.00     0.012 C 
ATOM     12  C   UNL     1      -0.424  15.761  17.184  1.00  0.00     0.012 C 
ATOM     13  C   UNL     1       1.094  13.019  16.543  1.00  0.00     0.009 C 
ATOM     14  C   UNL     1       1.493  12.413  15.188  1.00  0.00     0.031 C 
ATOM     15  C   UNL     1      -0.391  14.819  14.250  1.00  0.00     0.017 C 
ENDROOT
TORSDOF 0
ENDMDL
MODEL 3
REMARK VINA RESULT:    -4.732      1.424      3.467
REMARK INTER + INTRA:          -4.732
REMARK INTER:                  -4.732
REMARK INTRA:                   0.000
REMARK UNBOUND:                 0.000
REMARK SMILES C[C@H]1CCC=C2CC[C@H]3[C@H](C3(C)C)[C@]21C
REMARK SMILES IDX 1 1 2 2 3 3 4 4 5 5 6 6 14 7 10 8 9 9 11 10 12 11 13 12 8 13
REMARK SMILES IDX 7 14 15 15
REMARK H PARENT
REMARK Flexibility Score: inf
ROOT
ATOM      1  C   UNL     1      -0.323  17.320  15.616  1.00  0.00     0.008 C 
ATOM      2  C   UNL     1       0.442  16.969  14.324  1.00  0.00    -0.004 C 
ATOM      3  C   UNL     1       1.536  18.008  14.049  1.00  0.00     0.008 C 
ATOM      4  C   UNL     1       2.111  17.761  12.658  1.00  0.00     0.027 C 
ATOM      5  C   UNL     1       2.625  16.357  12.536  1.00  0.00    -0.027 C 
ATOM      6  C   UNL     1       2.138  15.324  13.261  1.00  0.00    -0.068 C 
ATOM      7  C   UNL     1       1.000  15.485  14.285  1.00  0.00    -0.005 C 
ATOM      8  C   UNL     1       1.631  15.142  15.690  1.00  0.00     0.009 C 
ATOM      9  C   UNL     1       2.596  13.927  15.720  1.00  0.00    -0.000 C 
ATOM     10  C   UNL     1       1.354  13.943  16.626  1.00  0.00    -0.028 C 
ATOM     11  C   UNL     1       1.657  14.242  18.101  1.00  0.00     0.012 C 
ATOM     12  C   UNL     1       0.178  12.972  16.418  1.00  0.00     0.012 C 
ATOM     13  C   UNL     1       2.670  13.108  14.417  1.00  0.00     0.009 C 
ATOM     14  C   UNL     1       2.895  14.007  13.191  1.00  0.00     0.031 C 
ATOM     15  C   UNL     1      -0.183  14.595  13.822  1.00  0.00     0.017 C 
ENDROOT
TORSDOF 0
ENDMDL
MODEL 4
REMARK VINA RESULT:    -4.670      1.481      3.720
REMARK INTER + INTRA:          -4.670
REMARK INTER:                  -4.670
REMARK INTRA:                   0.000
REMARK UNBOUND:                 0.000
REMARK SMILES C[C@H]1CCC=C2CC[C@H]3[C@H](C3(C)C)[C@]21C
REMARK SMILES IDX 1 1 2 2 3 3 4 4 5 5 6 6 14 7 10 8 9 9 11 10 12 11 13 12 8 13
REMARK SMILES IDX 7 14 15 15
REMARK H PARENT
REMARK Flexibility Score: inf
ROOT
ATOM      1  C   UNL     1       1.410  12.915  16.245  1.00  0.00     0.008 C 
ATOM      2  C   UNL     1       1.020  14.404  16.340  1.00  0.00    -0.004 C 
ATOM      3  C   UNL     1       1.874  15.116  17.396  1.00  0.00     0.008 C 
ATOM      4  C   UNL     1       1.308  16.514  17.626  1.00  0.00     0.027 C 
ATOM      5  C   UNL     1       1.250  17.282  16.338  1.00  0.00    -0.027 C 
ATOM      6  C   UNL     1       1.127  16.691  15.127  1.00  0.00    -0.068 C 
ATOM      7  C   UNL     1       1.028  15.166  14.949  1.00  0.00    -0.005 C 
ATOM      8  C   UNL     1       2.317  14.740  14.144  1.00  0.00     0.009 C 
ATOM      9  C   UNL     1       2.727  15.678  12.978  1.00  0.00    -0.000 C 
ATOM     10  C   UNL     1       2.441  14.193  12.704  1.00  0.00    -0.028 C 
ATOM     11  C   UNL     1       3.700  13.341  12.485  1.00  0.00     0.012 C 
ATOM     12  C   UNL     1       1.228  13.733  11.875  1.00  0.00     0.012 C 
ATOM     13  C   UNL     1       1.723  16.798  12.645  1.00  0.00     0.009 C 
ATOM     14  C   UNL     1       1.298  17.574  13.901  1.00  0.00     0.031 C 
ATOM     15  C   UNL     1      -0.337  14.854  14.282  1.00  0.00     0.017 C 
ENDROOT
TORSDOF 0
ENDMDL
MODEL 5
REMARK VINA RESULT:    -4.637      1.497      3.668
REMARK INTER + INTRA:          -4.637
REMARK INTER:                  -4.637
REMARK INTRA:                   0.000
REMARK UNBOUND:                 0.000
REMARK SMILES C[C@H]1CCC=C2CC[C@H]3[C@H](C3(C)C)[C@]21C
REMARK SMILES IDX 1 1 2 2 3 3 4 4 5 5 6 6 14 7 10 8 9 9 11 10 12 11 13 12 8 13
REMARK SMILES IDX 7 14 15 15
REMARK H PARENT
REMARK Flexibility Score: inf
ROOT
ATOM      1  C   UNL     1       0.915  14.693  17.829  1.00  0.00     0.008 C 
ATOM      2  C   UNL     1       0.943  16.173  17.395  1.00  0.00    -0.004 C 
ATOM      3  C   UNL     1       2.231  16.850  17.881  1.00  0.00     0.008 C 
ATOM      4  C   UNL     1       2.118  18.352  17.640  1.00  0.00     0.027 C 
ATOM      5  C   UNL     1       1.842  18.639  16.193  1.00  0.00    -0.027 C 
ATOM      6  C   UNL     1       1.207  17.771  15.373  1.00  0.00    -0.068 C 
ATOM      7  C   UNL     1       0.695  16.399  15.846  1.00  0.00    -0.005 C 
ATOM      8  C   UNL     1       1.523  15.327  15.036  1.00  0.00     0.009 C 
ATOM      9  C   UNL     1       1.756  15.644  13.535  1.00  0.00    -0.000 C 
ATOM     10  C   UNL     1       1.052  14.340  13.944  1.00  0.00    -0.028 C 
ATOM     11  C   UNL     1       1.935  13.089  13.835  1.00  0.00     0.012 C 
ATOM     12  C   UNL     1      -0.434  14.081  13.633  1.00  0.00     0.012 C 
ATOM     13  C   UNL     1       0.996  16.869  12.992  1.00  0.00     0.009 C 
ATOM     14  C   UNL     1       1.188  18.102  13.889  1.00  0.00     0.031 C 
ATOM     15  C   UNL     1      -0.844  16.374  15.651  1.00  0.00     0.017 C 
ENDROOT
TORSDOF 0
ENDMDL
MODEL 6
REMARK VINA RESULT:    -4.609      1.306      4.087
REMARK INTER + INTRA:          -4.609
REMARK INTER:                  -4.609
REMARK INTRA:                   0.000
REMARK UNBOUND:                 0.000
REMARK SMILES C[C@H]1CCC=C2CC[C@H]3[C@H](C3(C)C)[C@]21C
REMARK SMILES IDX 1 1 2 2 3 3 4 4 5 5 6 6 14 7 10 8 9 9 11 10 12 11 13 12 8 13
REMARK SMILES IDX 7 14 15 15
REMARK H PARENT
REMARK Flexibility Score: inf
ROOT
ATOM      1  C   UNL     1       1.832  16.461  17.752  1.00  0.00     0.008 C 
ATOM      2  C   UNL     1       1.562  15.017  17.282  1.00  0.00    -0.004 C 
ATOM      3  C   UNL     1       0.671  14.282  18.291  1.00  0.00     0.008 C 
ATOM      4  C   UNL     1       0.618  12.805  17.916  1.00  0.00     0.027 C 
ATOM      5  C   UNL     1       0.133  12.631  16.506  1.00  0.00    -0.027 C 
ATOM      6  C   UNL     1       0.297  13.569  15.546  1.00  0.00    -0.068 C 
ATOM      7  C   UNL     1       1.005  14.912  15.802  1.00  0.00    -0.005 C 
ATOM      8  C   UNL     1      -0.093  16.026  15.591  1.00  0.00     0.009 C 
ATOM      9  C   UNL     1      -1.047  15.817  14.384  1.00  0.00    -0.000 C 
ATOM     10  C   UNL     1      -0.205  17.100  14.485  1.00  0.00    -0.028 C 
ATOM     11  C   UNL     1      -1.000  18.339  14.921  1.00  0.00     0.012 C 
ATOM     12  C   UNL     1       0.936  17.409  13.499  1.00  0.00     0.012 C 
ATOM     13  C   UNL     1      -0.682  14.650  13.447  1.00  0.00     0.009 C 
ATOM     14  C   UNL     1      -0.429  13.350  14.228  1.00  0.00     0.031 C 
ATOM     15  C   UNL     1       2.244  14.979  14.872  1.00  0.00     0.017 C 
ENDROOT
TORSDOF 0
ENDMDL
MODEL 7
REMARK VINA RESULT:    -4.542      1.522      3.209
REMARK INTER + INTRA:          -4.542
REMARK INTER:                  -4.542
REMARK INTRA:                   0.000
REMARK UNBOUND:                 0.000
REMARK SMILES C[C@H]1CCC=C2CC[C@H]3[C@H](C3(C)C)[C@]21C
REMARK SMILES IDX 1 1 2 2 3 3 4 4 5 5 6 6 14 7 10 8 9 9 11 10 12 11 13 12 8 13
REMARK SMILES IDX 7 14 15 15
REMARK H PARENT
REMARK Flexibility Score: inf
ROOT
ATOM      1  C   UNL     1      -0.823  13.819  13.676  1.00  0.00     0.008 C 
ATOM      2  C   UNL     1      -0.124  15.193  13.624  1.00  0.00    -0.004 C 
ATOM      3  C   UNL     1      -1.115  16.284  13.200  1.00  0.00     0.008 C 
ATOM      4  C   UNL     1      -0.343  17.573  12.936  1.00  0.00     0.027 C 
ATOM      5  C   UNL     1       0.453  17.973  14.144  1.00  0.00    -0.027 C 
ATOM      6  C   UNL     1       0.906  17.087  15.060  1.00  0.00    -0.068 C 
ATOM      7  C   UNL     1       0.655  15.573  14.952  1.00  0.00    -0.005 C 
ATOM      8  C   UNL     1      -0.241  15.193  16.194  1.00  0.00     0.009 C 
ATOM      9  C   UNL     1       0.143  15.868  17.538  1.00  0.00    -0.000 C 
ATOM     10  C   UNL     1       0.105  14.335  17.432  1.00  0.00    -0.028 C 
ATOM     11  C   UNL     1      -1.125  13.690  18.087  1.00  0.00     0.012 C 
ATOM     12  C   UNL     1       1.380  13.477  17.526  1.00  0.00     0.012 C 
ATOM     13  C   UNL     1       1.456  16.675  17.521  1.00  0.00     0.009 C 
ATOM     14  C   UNL     1       1.508  17.652  16.337  1.00  0.00     0.031 C 
ATOM     15  C   UNL     1       2.034  14.870  14.855  1.00  0.00     0.017 C 
ENDROOT
TORSDOF 0
ENDMDL
MODEL 8
REMARK VINA RESULT:    -4.325      1.360      4.133
REMARK INTER + INTRA:          -4.325
REMARK INTER:                  -4.325
REMARK INTRA:                   0.000
REMARK UNBOUND:                 0.000
REMARK SMILES C[C@H]1CCC=C2CC[C@H]3[C@H](C3(C)C)[C@]21C
REMARK SMILES IDX 1 1 2 2 3 3 4 4 5 5 6 6 14 7 10 8 9 9 11 10 12 11 13 12 8 13
REMARK SMILES IDX 7 14 15 15
REMARK H PARENT
REMARK Flexibility Score: inf
ROOT
ATOM      1  C   UNL     1       2.261  15.744  12.950  1.00  0.00     0.008 C 
ATOM      2  C   UNL     1       1.550  14.543  13.607  1.00  0.00    -0.004 C 
ATOM      3  C   UNL     1       2.572  13.487  14.043  1.00  0.00     0.008 C 
ATOM      4  C   UNL     1       1.826  12.227  14.470  1.00  0.00     0.027 C 
ATOM      5  C   UNL     1       0.838  12.537  15.557  1.00  0.00    -0.027 C 
ATOM      6  C   UNL     1       0.263  13.751  15.711  1.00  0.00    -0.068 C 
ATOM      7  C   UNL     1       0.560  14.940  14.780  1.00  0.00    -0.005 C 
ATOM      8  C   UNL     1       1.253  16.033  15.683  1.00  0.00     0.009 C 
ATOM      9  C   UNL     1       0.644  16.229  17.097  1.00  0.00    -0.000 C 
ATOM     10  C   UNL     1       0.730  17.419  16.126  1.00  0.00    -0.028 C 
ATOM     11  C   UNL     1       1.853  18.414  16.453  1.00  0.00     0.012 C 
ATOM     12  C   UNL     1      -0.525  18.073  15.521  1.00  0.00     0.012 C 
ATOM     13  C   UNL     1      -0.666  15.463  17.365  1.00  0.00     0.009 C 
ATOM     14  C   UNL     1      -0.549  13.981  16.977  1.00  0.00     0.031 C 
ATOM     15  C   UNL     1      -0.771  15.351  14.097  1.00  0.00     0.017 C 
ENDROOT
TORSDOF 0
ENDMDL
