MODEL 1
REMARK VINA RESULT:    -5.791      0.000      0.000
REMARK INTER + INTRA:          -7.284
REMARK INTER:                  -6.976
REMARK INTRA:                  -0.308
REMARK UNBOUND:                -0.308
REMARK SMILES O=c1c(O)c(-c2ccc(O)c(O)c2)oc2cc(O)cc(O)c12
REMARK SMILES IDX 5 1 3 2 2 3 1 4 22 5 20 6 19 7 17 8 16 9 15 10 14 11 6 12
REMARK SMILES IDX 7 13 8 14 9 15 13 16 11 17 10 18 12 20 4 22 21 24 18 26
REMARK H PARENT 10 19 12 21 4 23 21 25 18 27
REMARK Flexibility Score: inf
ROOT
ATOM      1  C   UNL     1     109.986 102.026  86.111  1.00  0.00     0.180 A 
ATOM      2  C   UNL     1     108.614 102.294  85.970  1.00  0.00     0.208 A 
ATOM      3  C   UNL     1     108.125 102.697  84.718  1.00  0.00     0.238 A 
ATOM      4  O   UNL     1     106.887 102.882  84.584  1.00  0.00    -0.285 OA
ATOM      5  C   UNL     1     109.014 102.842  83.626  1.00  0.00     0.111 A 
ATOM      6  C   UNL     1     108.634 103.283  82.323  1.00  0.00     0.134 A 
ATOM      7  C   UNL     1     109.574 103.265  81.286  1.00  0.00     0.093 A 
ATOM      8  C   UNL     1     110.895 102.884  81.517  1.00  0.00     0.123 A 
ATOM      9  C   UNL     1     111.293 102.508  82.801  1.00  0.00     0.094 A 
ATOM     10  C   UNL     1     110.369 102.482  83.849  1.00  0.00     0.146 A 
ATOM     11  O   UNL     1     110.785 102.108  85.053  1.00  0.00    -0.452 OA
ENDROOT
BRANCH   1  12
ATOM     12  C   UNL     1     110.581 101.620  87.405  1.00  0.00     0.025 A 
ATOM     13  C   UNL     1     110.911 100.276  87.622  1.00  0.00     0.016 A 
ATOM     14  C   UNL     1     111.492  99.875  88.828  1.00  0.00     0.051 A 
ATOM     15  C   UNL     1     111.767 100.809  89.831  1.00  0.00     0.157 A 
ATOM     16  C   UNL     1     110.877 102.565  88.402  1.00  0.00     0.062 A 
ATOM     17  C   UNL     1     111.462 102.174  89.614  1.00  0.00     0.158 A 
BRANCH  15  18
ATOM     18  O   UNL     1     112.341 100.344  91.017  1.00  0.00    -0.504 OA
ATOM     19  H   UNL     1     111.903  99.670  91.629  1.00  0.00     0.293 HD
ENDBRANCH  15  18
BRANCH  17  20
ATOM     20  O   UNL     1     111.727 103.167  90.560  1.00  0.00    -0.504 OA
ATOM     21  H   UNL     1     112.131 104.064  90.338  1.00  0.00     0.293 HD
ENDBRANCH  17  20
ENDBRANCH   1  12
BRANCH   2  22
ATOM     22  O   UNL     1     107.749 102.123  87.055  1.00  0.00    -0.502 OA
ATOM     23  H   UNL     1     106.755 101.969  86.938  1.00  0.00     0.293 HD
ENDBRANCH   2  22
BRANCH   6  24
ATOM     24  O   UNL     1     107.364 103.771  82.005  1.00  0.00    -0.507 OA
ATOM     25  H   UNL     1     106.570 103.197  81.766  1.00  0.00     0.293 HD
ENDBRANCH   6  24
BRANCH   8  26
ATOM     26  O   UNL     1     111.808 102.892  80.465  1.00  0.00    -0.508 OA
ATOM     27  H   UNL     1     112.362 102.074  80.238  1.00  0.00     0.293 HD
ENDBRANCH   8  26
TORSDOF 6
ENDMDL
MODEL 2
REMARK VINA RESULT:    -5.308      2.740      6.737
REMARK INTER + INTRA:          -6.703
REMARK INTER:                  -6.372
REMARK INTRA:                  -0.330
REMARK UNBOUND:                -0.308
REMARK SMILES O=c1c(O)c(-c2ccc(O)c(O)c2)oc2cc(O)cc(O)c12
REMARK SMILES IDX 5 1 3 2 2 3 1 4 22 5 20 6 19 7 17 8 16 9 15 10 14 11 6 12
REMARK SMILES IDX 7 13 8 14 9 15 13 16 11 17 10 18 12 20 4 22 21 24 18 26
REMARK H PARENT 10 19 12 21 4 23 21 25 18 27
REMARK Flexibility Score: inf
ROOT
ATOM      1  C   UNL     1     109.432 102.636  86.460  1.00  0.00     0.180 A 
ATOM      2  C   UNL     1     109.961 101.797  87.456  1.00  0.00     0.208 A 
ATOM      3  C   UNL     1     109.370 101.794  88.728  1.00  0.00     0.238 A 
ATOM      4  O   UNL     1     109.814 101.001  89.599  1.00  0.00    -0.285 OA
ATOM      5  C   UNL     1     108.267 102.640  88.995  1.00  0.00     0.111 A 
ATOM      6  C   UNL     1     107.615 102.748  90.261  1.00  0.00     0.134 A 
ATOM      7  C   UNL     1     106.453 103.519  90.376  1.00  0.00     0.093 A 
ATOM      8  C   UNL     1     105.955 104.239  89.290  1.00  0.00     0.123 A 
ATOM      9  C   UNL     1     106.618 104.189  88.063  1.00  0.00     0.094 A 
ATOM     10  C   UNL     1     107.760 103.399  87.908  1.00  0.00     0.146 A 
ATOM     11  O   UNL     1     108.356 103.370  86.722  1.00  0.00    -0.452 OA
ENDROOT
BRANCH   1  12
ATOM     12  C   UNL     1     110.016 102.713  85.102  1.00  0.00     0.025 A 
ATOM     13  C   UNL     1     109.521 101.881  84.088  1.00  0.00     0.016 A 
ATOM     14  C   UNL     1     110.044 101.951  82.796  1.00  0.00     0.051 A 
ATOM     15  C   UNL     1     111.058 102.863  82.486  1.00  0.00     0.157 A 
ATOM     16  C   UNL     1     111.020 103.646  84.789  1.00  0.00     0.062 A 
ATOM     17  C   UNL     1     111.549 103.727  83.494  1.00  0.00     0.158 A 
BRANCH  15  18
ATOM     18  O   UNL     1     111.544 102.879  81.176  1.00  0.00    -0.504 OA
ATOM     19  H   UNL     1     111.512 103.687  80.572  1.00  0.00     0.293 HD
ENDBRANCH  15  18
BRANCH  17  20
ATOM     20  O   UNL     1     112.545 104.676  83.255  1.00  0.00    -0.504 OA
ATOM     21  H   UNL     1     112.897 104.906  82.337  1.00  0.00     0.293 HD
ENDBRANCH  17  20
ENDBRANCH   1  12
BRANCH   2  22
ATOM     22  O   UNL     1     111.037 100.953  87.164  1.00  0.00    -0.502 OA
ATOM     23  H   UNL     1     111.853 101.270  86.655  1.00  0.00     0.293 HD
ENDBRANCH   2  22
BRANCH   6  24
ATOM     24  O   UNL     1     108.081 102.144  91.432  1.00  0.00    -0.507 OA
ATOM     25  H   UNL     1     108.940 101.620  91.507  1.00  0.00     0.293 HD
ENDBRANCH   6  24
BRANCH   8  26
ATOM     26  O   UNL     1     104.804 105.009  89.444  1.00  0.00    -0.508 OA
ATOM     27  H   UNL     1     103.898 104.674  89.139  1.00  0.00     0.293 HD
ENDBRANCH   8  26
TORSDOF 6
ENDMDL
MODEL 3
REMARK VINA RESULT:    -5.291      3.513      5.890
REMARK INTER + INTRA:          -6.682
REMARK INTER:                  -6.394
REMARK INTRA:                  -0.288
REMARK UNBOUND:                -0.308
REMARK SMILES O=c1c(O)c(-c2ccc(O)c(O)c2)oc2cc(O)cc(O)c12
REMARK SMILES IDX 5 1 3 2 2 3 1 4 22 5 20 6 19 7 17 8 16 9 15 10 14 11 6 12
REMARK SMILES IDX 7 13 8 14 9 15 13 16 11 17 10 18 12 20 4 22 21 24 18 26
REMARK H PARENT 10 19 12 21 4 23 21 25 18 27
REMARK Flexibility Score: inf
ROOT
ATOM      1  C   UNL     1     108.847 103.063  88.806  1.00  0.00     0.180 A 
ATOM      2  C   UNL     1     109.312 101.904  89.450  1.00  0.00     0.208 A 
ATOM      3  C   UNL     1     110.470 101.275  88.967  1.00  0.00     0.238 A 
ATOM      4  O   UNL     1     110.913 100.270  89.582  1.00  0.00    -0.285 OA
ATOM      5  C   UNL     1     111.140 101.803  87.837  1.00  0.00     0.111 A 
ATOM      6  C   UNL     1     112.299 101.224  87.237  1.00  0.00     0.134 A 
ATOM      7  C   UNL     1     112.953 101.902  86.203  1.00  0.00     0.093 A 
ATOM      8  C   UNL     1     112.456 103.105  85.701  1.00  0.00     0.123 A 
ATOM      9  C   UNL     1     111.289 103.650  86.240  1.00  0.00     0.094 A 
ATOM     10  C   UNL     1     110.634 103.014  87.297  1.00  0.00     0.146 A 
ATOM     11  O   UNL     1     109.533 103.571  87.788  1.00  0.00    -0.452 OA
ENDROOT
BRANCH   1  12
ATOM     12  C   UNL     1     107.619 103.768  89.241  1.00  0.00     0.025 A 
ATOM     13  C   UNL     1     107.676 104.641  90.336  1.00  0.00     0.016 A 
ATOM     14  C   UNL     1     106.535 105.331  90.751  1.00  0.00     0.051 A 
ATOM     15  C   UNL     1     105.322 105.175  90.073  1.00  0.00     0.157 A 
ATOM     16  C   UNL     1     106.408 103.626  88.543  1.00  0.00     0.062 A 
ATOM     17  C   UNL     1     105.258 104.316  88.950  1.00  0.00     0.158 A 
BRANCH  15  18
ATOM     18  O   UNL     1     104.215 105.887  90.543  1.00  0.00    -0.504 OA
ATOM     19  H   UNL     1     104.253 106.554  91.301  1.00  0.00     0.293 HD
ENDBRANCH  15  18
BRANCH  17  20
ATOM     20  O   UNL     1     104.088 104.127  88.211  1.00  0.00    -0.504 OA
ATOM     21  H   UNL     1     103.694 104.819  87.591  1.00  0.00     0.293 HD
ENDBRANCH  17  20
ENDBRANCH   1  12
BRANCH   2  22
ATOM     22  O   UNL     1     108.649 101.413  90.578  1.00  0.00    -0.502 OA
ATOM     23  H   UNL     1     108.740 101.840  91.492  1.00  0.00     0.293 HD
ENDBRANCH   2  22
BRANCH   6  24
ATOM     24  O   UNL     1     112.826  99.982  87.600  1.00  0.00    -0.507 OA
ATOM     25  H   UNL     1     112.342  99.289  88.151  1.00  0.00     0.293 HD
ENDBRANCH   6  24
BRANCH   8  26
ATOM     26  O   UNL     1     113.124 103.746  84.661  1.00  0.00    -0.508 OA
ATOM     27  H   UNL     1     112.929 103.526  83.691  1.00  0.00     0.293 HD
ENDBRANCH   8  26
TORSDOF 6
ENDMDL
MODEL 4
REMARK VINA RESULT:    -5.166      2.193      6.718
REMARK INTER + INTRA:          -6.531
REMARK INTER:                  -6.201
REMARK INTRA:                  -0.330
REMARK UNBOUND:                -0.308
REMARK SMILES O=c1c(O)c(-c2ccc(O)c(O)c2)oc2cc(O)cc(O)c12
REMARK SMILES IDX 5 1 3 2 2 3 1 4 22 5 20 6 19 7 17 8 16 9 15 10 14 11 6 12
REMARK SMILES IDX 7 13 8 14 9 15 13 16 11 17 10 18 12 20 4 22 21 24 18 26
REMARK H PARENT 10 19 12 21 4 23 21 25 18 27
REMARK Flexibility Score: inf
ROOT
ATOM      1  C   UNL     1     110.065 102.905  85.311  1.00  0.00     0.180 A 
ATOM      2  C   UNL     1     110.897 102.371  86.310  1.00  0.00     0.208 A 
ATOM      3  C   UNL     1     110.347 102.074  87.566  1.00  0.00     0.238 A 
ATOM      4  O   UNL     1     111.084 101.546  88.439  1.00  0.00    -0.285 OA
ATOM      5  C   UNL     1     108.976 102.329  87.814  1.00  0.00     0.111 A 
ATOM      6  C   UNL     1     108.322 102.104  89.063  1.00  0.00     0.134 A 
ATOM      7  C   UNL     1     106.935 102.268  89.155  1.00  0.00     0.093 A 
ATOM      8  C   UNL     1     106.187 102.712  88.065  1.00  0.00     0.123 A 
ATOM      9  C   UNL     1     106.825 102.992  86.855  1.00  0.00     0.094 A 
ATOM     10  C   UNL     1     108.203 102.803  86.722  1.00  0.00     0.146 A 
ATOM     11  O   UNL     1     108.770 103.072  85.552  1.00  0.00    -0.452 OA
ENDROOT
BRANCH   1  12
ATOM     12  C   UNL     1     110.578 103.267  83.969  1.00  0.00     0.025 A 
ATOM     13  C   UNL     1     110.434 102.363  82.908  1.00  0.00     0.016 A 
ATOM     14  C   UNL     1     110.892 102.692  81.631  1.00  0.00     0.051 A 
ATOM     15  C   UNL     1     111.487 103.934  81.384  1.00  0.00     0.157 A 
ATOM     16  C   UNL     1     111.155 104.524  83.721  1.00  0.00     0.062 A 
ATOM     17  C   UNL     1     111.615 104.865  82.442  1.00  0.00     0.158 A 
BRANCH  15  18
ATOM     18  O   UNL     1     111.931 104.199  80.087  1.00  0.00    -0.504 OA
ATOM     19  H   UNL     1     111.730 103.612  79.290  1.00  0.00     0.293 HD
ENDBRANCH  15  18
BRANCH  17  20
ATOM     20  O   UNL     1     112.179 106.131  82.268  1.00  0.00    -0.504 OA
ATOM     21  H   UNL     1     113.161 106.293  82.100  1.00  0.00     0.293 HD
ENDBRANCH  17  20
ENDBRANCH   1  12
BRANCH   2  22
ATOM     22  O   UNL     1     112.243 102.108  86.038  1.00  0.00    -0.502 OA
ATOM     23  H   UNL     1     112.672 101.214  86.240  1.00  0.00     0.293 HD
ENDBRANCH   2  22
BRANCH   6  24
ATOM     24  O   UNL     1     108.988 101.747  90.238  1.00  0.00    -0.507 OA
ATOM     25  H   UNL     1     109.818 101.175  90.279  1.00  0.00     0.293 HD
ENDBRANCH   6  24
BRANCH   8  26
ATOM     26  O   UNL     1     104.811 102.879  88.197  1.00  0.00    -0.508 OA
ATOM     27  H   UNL     1     104.156 102.200  87.825  1.00  0.00     0.293 HD
ENDBRANCH   8  26
TORSDOF 6
ENDMDL
MODEL 5
REMARK VINA RESULT:    -5.076      5.407      8.905
REMARK INTER + INTRA:          -6.423
REMARK INTER:                  -6.260
REMARK INTRA:                  -0.163
REMARK UNBOUND:                -0.308
REMARK SMILES O=c1c(O)c(-c2ccc(O)c(O)c2)oc2cc(O)cc(O)c12
REMARK SMILES IDX 5 1 3 2 2 3 1 4 22 5 20 6 19 7 17 8 16 9 15 10 14 11 6 12
REMARK SMILES IDX 7 13 8 14 9 15 13 16 11 17 10 18 12 20 4 22 21 24 18 26
REMARK H PARENT 10 19 12 21 4 23 21 25 18 27
REMARK Flexibility Score: inf
ROOT
ATOM      1  C   UNL     1     107.112 104.305  80.063  1.00  0.00     0.180 A 
ATOM      2  C   UNL     1     107.495 103.945  81.366  1.00  0.00     0.208 A 
ATOM      3  C   UNL     1     108.835 103.609  81.612  1.00  0.00     0.238 A 
ATOM      4  O   UNL     1     109.184 103.341  82.792  1.00  0.00    -0.285 OA
ATOM      5  C   UNL     1     109.772 103.620  80.551  1.00  0.00     0.111 A 
ATOM      6  C   UNL     1     111.147 103.257  80.678  1.00  0.00     0.134 A 
ATOM      7  C   UNL     1     112.011 103.431  79.591  1.00  0.00     0.093 A 
ATOM      8  C   UNL     1     111.539 103.891  78.362  1.00  0.00     0.123 A 
ATOM      9  C   UNL     1     110.184 104.192  78.208  1.00  0.00     0.094 A 
ATOM     10  C   UNL     1     109.305 104.063  79.286  1.00  0.00     0.146 A 
ATOM     11  O   UNL     1     108.026 104.369  79.102  1.00  0.00    -0.452 OA
ENDROOT
BRANCH   1  12
ATOM     12  C   UNL     1     105.712 104.648  79.720  1.00  0.00     0.025 A 
ATOM     13  C   UNL     1     105.140 105.816  80.244  1.00  0.00     0.016 A 
ATOM     14  C   UNL     1     103.829 106.169  79.917  1.00  0.00     0.051 A 
ATOM     15  C   UNL     1     103.071 105.374  79.051  1.00  0.00     0.157 A 
ATOM     16  C   UNL     1     104.962 103.859  78.832  1.00  0.00     0.062 A 
ATOM     17  C   UNL     1     103.647 104.207  78.495  1.00  0.00     0.158 A 
BRANCH  15  18
ATOM     18  O   UNL     1     101.763 105.778  78.770  1.00  0.00    -0.504 OA
ATOM     19  H   UNL     1     101.078 106.003  79.477  1.00  0.00     0.293 HD
ENDBRANCH  15  18
BRANCH  17  20
ATOM     20  O   UNL     1     102.960 103.376  77.608  1.00  0.00    -0.504 OA
ATOM     21  H   UNL     1     102.547 102.492  77.867  1.00  0.00     0.293 HD
ENDBRANCH  17  20
ENDBRANCH   1  12
BRANCH   2  22
ATOM     22  O   UNL     1     106.559 103.962  82.404  1.00  0.00    -0.502 OA
ATOM     23  H   UNL     1     106.824 103.864  83.376  1.00  0.00     0.293 HD
ENDBRANCH   2  22
BRANCH   6  24
ATOM     24  O   UNL     1     111.703 102.702  81.834  1.00  0.00    -0.507 OA
ATOM     25  H   UNL     1     111.538 101.760  82.156  1.00  0.00     0.293 HD
ENDBRANCH   6  24
BRANCH   8  26
ATOM     26  O   UNL     1     112.423 104.037  77.296  1.00  0.00    -0.508 OA
ATOM     27  H   UNL     1     112.443 104.882  76.736  1.00  0.00     0.293 HD
ENDBRANCH   8  26
TORSDOF 6
ENDMDL
MODEL 6
REMARK VINA RESULT:    -5.031      1.545      6.930
REMARK INTER + INTRA:          -6.368
REMARK INTER:                  -6.084
REMARK INTRA:                  -0.284
REMARK UNBOUND:                -0.308
REMARK SMILES O=c1c(O)c(-c2ccc(O)c(O)c2)oc2cc(O)cc(O)c12
REMARK SMILES IDX 5 1 3 2 2 3 1 4 22 5 20 6 19 7 17 8 16 9 15 10 14 11 6 12
REMARK SMILES IDX 7 13 8 14 9 15 13 16 11 17 10 18 12 20 4 22 21 24 18 26
REMARK H PARENT 10 19 12 21 4 23 21 25 18 27
REMARK Flexibility Score: inf
ROOT
ATOM      1  C   UNL     1     110.450 102.361  85.578  1.00  0.00     0.180 A 
ATOM      2  C   UNL     1     110.088 101.159  86.211  1.00  0.00     0.208 A 
ATOM      3  C   UNL     1     110.459 100.956  87.549  1.00  0.00     0.238 A 
ATOM      4  O   UNL     1     110.085  99.902  88.127  1.00  0.00    -0.285 OA
ATOM      5  C   UNL     1     111.201 101.949  88.233  1.00  0.00     0.111 A 
ATOM      6  C   UNL     1     111.665 101.832  89.579  1.00  0.00     0.134 A 
ATOM      7  C   UNL     1     112.276 102.929  90.196  1.00  0.00     0.093 A 
ATOM      8  C   UNL     1     112.500 104.116  89.500  1.00  0.00     0.123 A 
ATOM      9  C   UNL     1     112.104 104.222  88.165  1.00  0.00     0.094 A 
ATOM     10  C   UNL     1     111.459 103.156  87.533  1.00  0.00     0.146 A 
ATOM     11  O   UNL     1     111.089 103.300  86.266  1.00  0.00    -0.452 OA
ENDROOT
BRANCH   1  12
ATOM     12  C   UNL     1     110.117 102.637  84.162  1.00  0.00     0.025 A 
ATOM     13  C   UNL     1     108.826 103.070  83.828  1.00  0.00     0.016 A 
ATOM     14  C   UNL     1     108.496 103.355  82.502  1.00  0.00     0.051 A 
ATOM     15  C   UNL     1     109.450 103.230  81.487  1.00  0.00     0.157 A 
ATOM     16  C   UNL     1     111.084 102.531  83.148  1.00  0.00     0.062 A 
ATOM     17  C   UNL     1     110.764 102.818  81.814  1.00  0.00     0.158 A 
BRANCH  15  18
ATOM     18  O   UNL     1     109.055 103.522  80.179  1.00  0.00    -0.504 OA
ATOM     19  H   UNL     1     108.551 104.357  79.915  1.00  0.00     0.293 HD
ENDBRANCH  15  18
BRANCH  17  20
ATOM     20  O   UNL     1     111.775 102.690  80.859  1.00  0.00    -0.504 OA
ATOM     21  H   UNL     1     112.298 101.841  80.702  1.00  0.00     0.293 HD
ENDBRANCH  17  20
ENDBRANCH   1  12
BRANCH   2  22
ATOM     22  O   UNL     1     109.337 100.201  85.524  1.00  0.00    -0.502 OA
ATOM     23  H   UNL     1     109.535  99.941  84.565  1.00  0.00     0.293 HD
ENDBRANCH   2  22
BRANCH   6  24
ATOM     24  O   UNL     1     111.575 100.661  90.335  1.00  0.00    -0.507 OA
ATOM     25  H   UNL     1     112.364 100.120  90.655  1.00  0.00     0.293 HD
ENDBRANCH   6  24
BRANCH   8  26
ATOM     26  O   UNL     1     113.125 105.184  90.141  1.00  0.00    -0.508 OA
ATOM     27  H   UNL     1     114.094 105.132  90.435  1.00  0.00     0.293 HD
ENDBRANCH   8  26
TORSDOF 6
ENDMDL
MODEL 7
REMARK VINA RESULT:    -4.976     17.124     18.481
REMARK INTER + INTRA:          -6.303
REMARK INTER:                  -6.139
REMARK INTRA:                  -0.163
REMARK UNBOUND:                -0.308
REMARK SMILES O=c1c(O)c(-c2ccc(O)c(O)c2)oc2cc(O)cc(O)c12
REMARK SMILES IDX 5 1 3 2 2 3 1 4 22 5 20 6 19 7 17 8 16 9 15 10 14 11 6 12
REMARK SMILES IDX 7 13 8 14 9 15 13 16 11 17 10 18 12 20 4 22 21 24 18 26
REMARK H PARENT 10 19 12 21 4 23 21 25 18 27
REMARK Flexibility Score: inf
ROOT
ATOM      1  C   UNL     1     100.643 116.956  82.603  1.00  0.00     0.180 A 
ATOM      2  C   UNL     1     102.035 117.058  82.768  1.00  0.00     0.208 A 
ATOM      3  C   UNL     1     102.788 117.737  81.798  1.00  0.00     0.238 A 
ATOM      4  O   UNL     1     104.026 117.872  81.979  1.00  0.00    -0.285 OA
ATOM      5  C   UNL     1     102.143 118.292  80.666  1.00  0.00     0.111 A 
ATOM      6  C   UNL     1     102.813 118.966  79.600  1.00  0.00     0.134 A 
ATOM      7  C   UNL     1     102.062 119.588  78.597  1.00  0.00     0.093 A 
ATOM      8  C   UNL     1     100.670 119.506  78.583  1.00  0.00     0.123 A 
ATOM      9  C   UNL     1     100.007 118.799  79.587  1.00  0.00     0.094 A 
ATOM     10  C   UNL     1     100.728 118.198  80.622  1.00  0.00     0.146 A 
ATOM     11  O   UNL     1     100.059 117.543  81.564  1.00  0.00    -0.452 OA
ENDROOT
BRANCH   1  12
ATOM     12  C   UNL     1      99.785 116.234  83.570  1.00  0.00     0.025 A 
ATOM     13  C   UNL     1      99.625 116.745  84.866  1.00  0.00     0.016 A 
ATOM     14  C   UNL     1      98.805 116.092  85.788  1.00  0.00     0.051 A 
ATOM     15  C   UNL     1      98.117 114.927  85.430  1.00  0.00     0.157 A 
ATOM     16  C   UNL     1      99.079 115.077  83.201  1.00  0.00     0.062 A 
ATOM     17  C   UNL     1      98.251 114.416  84.117  1.00  0.00     0.158 A 
BRANCH  15  18
ATOM     18  O   UNL     1      97.319 114.316  86.401  1.00  0.00    -0.504 OA
ATOM     19  H   UNL     1      97.623 113.545  86.978  1.00  0.00     0.293 HD
ENDBRANCH  15  18
BRANCH  17  20
ATOM     20  O   UNL     1      97.580 113.271  83.682  1.00  0.00    -0.504 OA
ATOM     21  H   UNL     1      96.576 113.167  83.691  1.00  0.00     0.293 HD
ENDBRANCH  17  20
ENDBRANCH   1  12
BRANCH   2  22
ATOM     22  O   UNL     1     102.649 116.522  83.904  1.00  0.00    -0.502 OA
ATOM     23  H   UNL     1     103.014 117.102  84.649  1.00  0.00     0.293 HD
ENDBRANCH   2  22
BRANCH   6  24
ATOM     24  O   UNL     1     104.203 119.028  79.469  1.00  0.00    -0.507 OA
ATOM     25  H   UNL     1     104.704 119.766  78.998  1.00  0.00     0.293 HD
ENDBRANCH   6  24
BRANCH   8  26
ATOM     26  O   UNL     1      99.954 120.125  77.560  1.00  0.00    -0.508 OA
ATOM     27  H   UNL     1      99.611 119.603  76.762  1.00  0.00     0.293 HD
ENDBRANCH   8  26
TORSDOF 6
ENDMDL
MODEL 8
REMARK VINA RESULT:    -4.919      1.586      6.544
REMARK INTER + INTRA:          -6.234
REMARK INTER:                  -6.189
REMARK INTRA:                  -0.045
REMARK UNBOUND:                -0.308
REMARK SMILES O=c1c(O)c(-c2ccc(O)c(O)c2)oc2cc(O)cc(O)c12
REMARK SMILES IDX 5 1 3 2 2 3 1 4 22 5 20 6 19 7 17 8 16 9 15 10 14 11 6 12
REMARK SMILES IDX 7 13 8 14 9 15 13 16 11 17 10 18 12 20 4 22 21 24 18 26
REMARK H PARENT 10 19 12 21 4 23 21 25 18 27
REMARK Flexibility Score: inf
ROOT
ATOM      1  C   UNL     1     109.348 102.985  85.008  1.00  0.00     0.180 A 
ATOM      2  C   UNL     1     108.008 103.247  85.343  1.00  0.00     0.208 A 
ATOM      3  C   UNL     1     107.574 102.998  86.655  1.00  0.00     0.238 A 
ATOM      4  O   UNL     1     106.387 103.286  86.963  1.00  0.00    -0.285 OA
ATOM      5  C   UNL     1     108.478 102.477  87.610  1.00  0.00     0.111 A 
ATOM      6  C   UNL     1     108.136 102.149  88.957  1.00  0.00     0.134 A 
ATOM      7  C   UNL     1     109.141 101.764  89.851  1.00  0.00     0.093 A 
ATOM      8  C   UNL     1     110.465 101.629  89.433  1.00  0.00     0.123 A 
ATOM      9  C   UNL     1     110.802 101.889  88.103  1.00  0.00     0.094 A 
ATOM     10  C   UNL     1     109.826 102.311  87.197  1.00  0.00     0.146 A 
ATOM     11  O   UNL     1     110.189 102.558  85.943  1.00  0.00    -0.452 OA
ENDROOT
BRANCH   1  12
ATOM     12  C   UNL     1     109.874 103.198  83.641  1.00  0.00     0.025 A 
ATOM     13  C   UNL     1     109.234 102.590  82.552  1.00  0.00     0.016 A 
ATOM     14  C   UNL     1     109.702 102.793  81.252  1.00  0.00     0.051 A 
ATOM     15  C   UNL     1     110.805 103.619  81.012  1.00  0.00     0.157 A 
ATOM     16  C   UNL     1     110.969 104.046  83.402  1.00  0.00     0.062 A 
ATOM     17  C   UNL     1     111.444 104.260  82.101  1.00  0.00     0.158 A 
BRANCH  15  18
ATOM     18  O   UNL     1     111.228 103.776  79.690  1.00  0.00    -0.504 OA
ATOM     19  H   UNL     1     110.607 103.770  78.894  1.00  0.00     0.293 HD
ENDBRANCH  15  18
BRANCH  17  20
ATOM     20  O   UNL     1     112.537 105.114  81.938  1.00  0.00    -0.504 OA
ATOM     21  H   UNL     1     113.474 104.798  81.737  1.00  0.00     0.293 HD
ENDBRANCH  17  20
ENDBRANCH   1  12
BRANCH   2  22
ATOM     22  O   UNL     1     107.137 103.782  84.390  1.00  0.00    -0.502 OA
ATOM     23  H   UNL     1     106.155 103.938  84.579  1.00  0.00     0.293 HD
ENDBRANCH   2  22
BRANCH   6  24
ATOM     24  O   UNL     1     106.830 102.161  89.454  1.00  0.00    -0.507 OA
ATOM     25  H   UNL     1     106.375 101.376  89.895  1.00  0.00     0.293 HD
ENDBRANCH   6  24
BRANCH   8  26
ATOM     26  O   UNL     1     111.438 101.228  90.346  1.00  0.00    -0.508 OA
ATOM     27  H   UNL     1     111.300 100.425  90.949  1.00  0.00     0.293 HD
ENDBRANCH   8  26
TORSDOF 6
ENDMDL
MODEL 9
REMARK VINA RESULT:    -4.919     15.975     19.051
REMARK INTER + INTRA:          -6.233
REMARK INTER:                  -5.923
REMARK INTRA:                  -0.311
REMARK UNBOUND:                -0.308
REMARK SMILES O=c1c(O)c(-c2ccc(O)c(O)c2)oc2cc(O)cc(O)c12
REMARK SMILES IDX 5 1 3 2 2 3 1 4 22 5 20 6 19 7 17 8 16 9 15 10 14 11 6 12
REMARK SMILES IDX 7 13 8 14 9 15 13 16 11 17 10 18 12 20 4 22 21 24 18 26
REMARK H PARENT 10 19 12 21 4 23 21 25 18 27
REMARK Flexibility Score: inf
ROOT
ATOM      1  C   UNL     1     101.442 117.292  81.880  1.00  0.00     0.180 A 
ATOM      2  C   UNL     1     102.781 117.075  82.247  1.00  0.00     0.208 A 
ATOM      3  C   UNL     1     103.065 116.607  83.540  1.00  0.00     0.238 A 
ATOM      4  O   UNL     1     104.262 116.363  83.844  1.00  0.00    -0.285 OA
ATOM      5  C   UNL     1     102.009 116.378  84.454  1.00  0.00     0.111 A 
ATOM      6  C   UNL     1     102.184 115.943  85.803  1.00  0.00     0.134 A 
ATOM      7  C   UNL     1     101.063 115.624  86.577  1.00  0.00     0.093 A 
ATOM      8  C   UNL     1      99.772 115.785  86.076  1.00  0.00     0.123 A 
ATOM      9  C   UNL     1      99.587 116.267  84.778  1.00  0.00     0.094 A 
ATOM     10  C   UNL     1     100.688 116.560  83.970  1.00  0.00     0.146 A 
ATOM     11  O   UNL     1     100.469 117.006  82.738  1.00  0.00    -0.452 OA
ENDROOT
BRANCH   1  12
ATOM     12  C   UNL     1     101.065 117.807  80.544  1.00  0.00     0.025 A 
ATOM     13  C   UNL     1     101.117 119.186  80.295  1.00  0.00     0.016 A 
ATOM     14  C   UNL     1     100.785 119.691  79.037  1.00  0.00     0.051 A 
ATOM     15  C   UNL     1     100.411 118.831  77.999  1.00  0.00     0.157 A 
ATOM     16  C   UNL     1     100.711 116.938  79.498  1.00  0.00     0.062 A 
ATOM     17  C   UNL     1     100.379 117.435  78.230  1.00  0.00     0.158 A 
BRANCH  15  18
ATOM     18  O   UNL     1     100.083 119.400  76.766  1.00  0.00    -0.504 OA
ATOM     19  H   UNL     1     100.404 119.044  75.877  1.00  0.00     0.293 HD
ENDBRANCH  15  18
BRANCH  17  20
ATOM     20  O   UNL     1     100.035 116.514  77.238  1.00  0.00    -0.504 OA
ATOM     21  H   UNL     1     100.609 116.312  76.433  1.00  0.00     0.293 HD
ENDBRANCH  17  20
ENDBRANCH   1  12
BRANCH   2  22
ATOM     22  O   UNL     1     103.807 117.286  81.321  1.00  0.00    -0.502 OA
ATOM     23  H   UNL     1     104.673 116.762  81.340  1.00  0.00     0.293 HD
ENDBRANCH   2  22
BRANCH   6  24
ATOM     24  O   UNL     1     103.428 115.836  86.432  1.00  0.00    -0.507 OA
ATOM     25  H   UNL     1     103.600 116.040  87.405  1.00  0.00     0.293 HD
ENDBRANCH   6  24
BRANCH   8  26
ATOM     26  O   UNL     1      98.677 115.472  86.879  1.00  0.00    -0.508 OA
ATOM     27  H   UNL     1      98.229 114.564  86.833  1.00  0.00     0.293 HD
ENDBRANCH   8  26
TORSDOF 6
ENDMDL
