MODEL 1
REMARK VINA RESULT:     3.432      0.000      0.000
REMARK INTER + INTRA:          18.194
REMARK INTER:                   8.147
REMARK INTRA:                  10.047
REMARK UNBOUND:                10.047
REMARK SMILES O=C(OC[C@H]1O[C@H](OC(=O)c2cc(O)c(O)c(O)c2)[C@H](OC(=O)c2cc(O)c(O)c(O)c2)[C@@H](OC(=O)c2cc(O)c(O)c(O)c2)[C@H]1OC(=O)c1cc(O)c(O)c(O)c1)c1cc(O)c(O)c(O)c1
REMARK SMILES IDX 5 1 46 2 33 3 20 4 7 5 6 6 4 7 3 8 2 9 1 10 59 11 60 12
REMARK SMILES IDX 61 13 67 14 63 15 65 16 62 17 64 19 66 21 47 23 48 24 49 25
REMARK SMILES IDX 50 26 58 27 51 28 56 29 52 30 54 31 57 32 53 34 55 36 34 38
REMARK SMILES IDX 35 39 36 40 37 41 45 42 38 43 43 44 39 45 41 46 44 47 40 49
REMARK SMILES IDX 42 51 8 53 9 54 10 55 11 56 19 57 12 58 17 59 13 60 15 61
REMARK SMILES IDX 18 62 14 64 16 66 21 68 22 69 23 70 24 71 32 72 25 73 30 74
REMARK SMILES IDX 26 75 28 76 31 77 27 79 29 81
REMARK H PARENT 62 18 64 20 66 22 57 33 53 35 55 37 44 48 40 50 42 52 18 63
REMARK H PARENT 14 65 16 67 31 78 27 80 29 82
REMARK Flexibility Score: inf
ROOT
ATOM      1  C   UNL     1       8.640  -0.692  14.663  1.00  0.00     0.205 C 
ATOM      2  C   UNL     1      10.031  -0.956  15.266  1.00  0.00     0.254 C 
ATOM      3  C   UNL     1       9.874  -0.981  16.791  1.00  0.00     0.267 C 
ATOM      4  C   UNL     1       8.842  -2.053  17.187  1.00  0.00     0.290 C 
ATOM      5  C   UNL     1       7.533  -1.829  16.396  1.00  0.00     0.357 C 
ATOM      6  O   UNL     1       7.755  -1.754  14.993  1.00  0.00    -0.329 OA
ENDROOT
BRANCH   1   7
ATOM      7  C   UNL     1       8.687  -0.531  13.132  1.00  0.00     0.269 C 
BRANCH   7   8
ATOM      8  O   UNL     1       8.486   0.838  12.793  1.00  0.00    -0.459 OA
BRANCH   8   9
ATOM      9  C   UNL     1       8.365   1.271  11.465  1.00  0.00     0.338 C 
ATOM     10  O   UNL     1       8.484   0.441  10.518  1.00  0.00    -0.246 OA
BRANCH   9  11
ATOM     11  C   UNL     1       8.130   2.701  11.174  1.00  0.00     0.067 A 
ATOM     12  C   UNL     1       8.434   3.676  12.134  1.00  0.00     0.066 A 
ATOM     13  C   UNL     1       8.170   5.026  11.893  1.00  0.00     0.162 A 
ATOM     14  C   UNL     1       7.560   3.095   9.947  1.00  0.00     0.066 A 
ATOM     15  C   UNL     1       7.563   5.417  10.676  1.00  0.00     0.200 A 
ATOM     16  C   UNL     1       7.267   4.442   9.706  1.00  0.00     0.162 A 
BRANCH  13  17
ATOM     17  O   UNL     1       8.535   5.942  12.880  1.00  0.00    -0.504 OA
ATOM     18  H   UNL     1       8.623   6.931  12.718  1.00  0.00     0.293 HD
ENDBRANCH  13  17
BRANCH  15  19
ATOM     19  O   UNL     1       7.238   6.750  10.404  1.00  0.00    -0.502 OA
ATOM     20  H   UNL     1       7.894   7.515  10.433  1.00  0.00     0.293 HD
ENDBRANCH  15  19
BRANCH  16  21
ATOM     21  O   UNL     1       6.677   4.790   8.491  1.00  0.00    -0.504 OA
ATOM     22  H   UNL     1       5.680   4.941   8.401  1.00  0.00     0.293 HD
ENDBRANCH  16  21
ENDBRANCH   9  11
ENDBRANCH   8   9
ENDBRANCH   7   8
ENDBRANCH   1   7
BRANCH   2  23
ATOM     23  O   UNL     1      10.528  -2.222  14.831  1.00  0.00    -0.452 OA
BRANCH  23  24
ATOM     24  C   UNL     1      10.038  -2.921  13.718  1.00  0.00     0.338 C 
ATOM     25  O   UNL     1       9.198  -3.843  13.879  1.00  0.00    -0.246 OA
BRANCH  24  26
ATOM     26  C   UNL     1      10.503  -2.551  12.363  1.00  0.00     0.067 A 
ATOM     27  C   UNL     1      10.710  -1.203  12.015  1.00  0.00     0.066 A 
ATOM     28  C   UNL     1      10.690  -3.544  11.388  1.00  0.00     0.066 A 
ATOM     29  C   UNL     1      11.084  -0.853  10.706  1.00  0.00     0.162 A 
ATOM     30  C   UNL     1      11.072  -3.201  10.087  1.00  0.00     0.162 A 
ATOM     31  C   UNL     1      11.269  -1.856   9.740  1.00  0.00     0.200 A 
BRANCH  29  32
ATOM     32  O   UNL     1      11.266   0.484  10.363  1.00  0.00    -0.504 OA
ATOM     33  H   UNL     1      12.010   0.774   9.740  1.00  0.00     0.293 HD
ENDBRANCH  29  32
BRANCH  30  34
ATOM     34  O   UNL     1      11.245  -4.215   9.148  1.00  0.00    -0.504 OA
ATOM     35  H   UNL     1      10.585  -4.369   8.392  1.00  0.00     0.293 HD
ENDBRANCH  30  34
BRANCH  31  36
ATOM     36  O   UNL     1      11.638  -1.536   8.435  1.00  0.00    -0.502 OA
ATOM     37  H   UNL     1      12.048  -0.644   8.192  1.00  0.00     0.293 HD
ENDBRANCH  31  36
ENDBRANCH  24  26
ENDBRANCH  23  24
ENDBRANCH   2  23
BRANCH   3  38
ATOM     38  O   UNL     1      11.134  -1.219  17.417  1.00  0.00    -0.450 OA
BRANCH  38  39
ATOM     39  C   UNL     1      11.665  -2.507  17.580  1.00  0.00     0.338 C 
ATOM     40  O   UNL     1      11.039  -3.508  17.137  1.00  0.00    -0.246 OA
BRANCH  39  41
ATOM     41  C   UNL     1      12.969  -2.693  18.254  1.00  0.00     0.067 A 
ATOM     42  C   UNL     1      13.844  -1.606  18.422  1.00  0.00     0.066 A 
ATOM     43  C   UNL     1      13.346  -3.957  18.735  1.00  0.00     0.066 A 
ATOM     44  C   UNL     1      15.077  -1.777  19.056  1.00  0.00     0.162 A 
ATOM     45  C   UNL     1      14.579  -4.143  19.368  1.00  0.00     0.162 A 
ATOM     46  C   UNL     1      15.463  -3.044  19.523  1.00  0.00     0.200 A 
BRANCH  44  47
ATOM     47  O   UNL     1      15.926  -0.682  19.226  1.00  0.00    -0.504 OA
ATOM     48  H   UNL     1      16.814  -0.614  18.734  1.00  0.00     0.293 HD
ENDBRANCH  44  47
BRANCH  45  49
ATOM     49  O   UNL     1      14.885  -5.427  19.820  1.00  0.00    -0.504 OA
ATOM     50  H   UNL     1      14.610  -6.275  19.345  1.00  0.00     0.293 HD
ENDBRANCH  45  49
BRANCH  46  51
ATOM     51  O   UNL     1      16.719  -3.162  20.124  1.00  0.00    -0.502 OA
ATOM     52  H   UNL     1      16.973  -3.916  20.753  1.00  0.00     0.293 HD
ENDBRANCH  46  51
ENDBRANCH  39  41
ENDBRANCH  38  39
ENDBRANCH   3  38
BRANCH   5  53
ATOM     53  O   UNL     1       6.858  -0.663  16.868  1.00  0.00    -0.428 OA
BRANCH  53  54
ATOM     54  C   UNL     1       6.724  -0.349  18.224  1.00  0.00     0.340 C 
ATOM     55  O   UNL     1       6.092  -1.111  19.000  1.00  0.00    -0.246 OA
BRANCH  54  56
ATOM     56  C   UNL     1       7.336   0.885  18.743  1.00  0.00     0.067 A 
ATOM     57  C   UNL     1       8.726   0.995  18.876  1.00  0.00     0.066 A 
ATOM     58  C   UNL     1       6.526   1.971  19.095  1.00  0.00     0.066 A 
ATOM     59  C   UNL     1       9.315   2.184  19.325  1.00  0.00     0.162 A 
ATOM     60  C   UNL     1       7.090   3.154  19.572  1.00  0.00     0.162 A 
ATOM     61  C   UNL     1       8.490   3.283  19.677  1.00  0.00     0.200 A 
BRANCH  59  62
ATOM     62  O   UNL     1      10.711   2.224  19.397  1.00  0.00    -0.504 OA
ATOM     63  H   UNL     1      11.227   2.641  20.164  1.00  0.00     0.293 HD
ENDBRANCH  59  62
BRANCH  60  64
ATOM     64  O   UNL     1       6.237   4.194  19.944  1.00  0.00    -0.504 OA
ATOM     65  H   UNL     1       5.778   4.214  20.849  1.00  0.00     0.293 HD
ENDBRANCH  60  64
BRANCH  61  66
ATOM     66  O   UNL     1       9.022   4.501  20.125  1.00  0.00    -0.502 OA
ATOM     67  H   UNL     1       9.044   4.789  21.094  1.00  0.00     0.293 HD
ENDBRANCH  61  66
ENDBRANCH  54  56
ENDBRANCH  53  54
ENDBRANCH   5  53
BRANCH   4  68
ATOM     68  O   UNL     1       8.543  -1.957  18.578  1.00  0.00    -0.448 OA
BRANCH  68  69
ATOM     69  C   UNL     1       7.803  -2.905  19.291  1.00  0.00     0.339 C 
ATOM     70  O   UNL     1       6.672  -2.604  19.765  1.00  0.00    -0.246 OA
BRANCH  69  71
ATOM     71  C   UNL     1       8.361  -4.258  19.498  1.00  0.00     0.067 A 
ATOM     72  C   UNL     1       7.525  -5.378  19.573  1.00  0.00     0.066 A 
ATOM     73  C   UNL     1       9.749  -4.439  19.615  1.00  0.00     0.066 A 
ATOM     74  C   UNL     1       8.060  -6.664  19.748  1.00  0.00     0.162 A 
ATOM     75  C   UNL     1      10.293  -5.715  19.785  1.00  0.00     0.162 A 
ATOM     76  C   UNL     1       9.450  -6.834  19.852  1.00  0.00     0.200 A 
BRANCH  74  77
ATOM     77  O   UNL     1       7.216  -7.773  19.808  1.00  0.00    -0.504 OA
ATOM     78  H   UNL     1       6.244  -7.686  20.089  1.00  0.00     0.293 HD
ENDBRANCH  74  77
BRANCH  75  79
ATOM     79  O   UNL     1      11.679  -5.853  19.884  1.00  0.00    -0.504 OA
ATOM     80  H   UNL     1      12.154  -6.715  19.654  1.00  0.00     0.293 HD
ENDBRANCH  75  79
BRANCH  76  81
ATOM     81  O   UNL     1      10.001  -8.106  20.022  1.00  0.00    -0.502 OA
ATOM     82  H   UNL     1       9.978  -8.594  20.905  1.00  0.00     0.293 HD
ENDBRANCH  76  81
ENDBRANCH  69  71
ENDBRANCH  68  69
ENDBRANCH   4  68
TORSDOF 31
ENDMDL
