MODEL 1
REMARK VINA RESULT:    -4.589      0.000      0.000
REMARK INTER + INTRA:          -8.148
REMARK INTER:                  -7.003
REMARK INTRA:                  -1.145
REMARK UNBOUND:                -1.145
REMARK SMILES CCCCCCCCCCC(=O)[O-]
REMARK SMILES IDX 7 1 8 2 9 3 10 4 11 5 12 6 13 7 6 8 5 9 4 10 3 11 2 12 1 13
REMARK H PARENT
REMARK Flexibility Score: inf
ROOT
ATOM      1  C   UNL     1      14.544  45.269   6.806  1.00  0.00     0.000 C 
ENDROOT
BRANCH   1   2
ATOM      2  C   UNL     1      16.011  45.267   7.260  1.00  0.00     0.000 C 
BRANCH   2   3
ATOM      3  C   UNL     1      16.824  44.222   6.487  1.00  0.00     0.006 C 
BRANCH   3   4
ATOM      4  C   UNL     1      16.336  42.805   6.797  1.00  0.00     0.053 C 
BRANCH   4   5
ATOM      5  C   UNL     1      16.460  42.516   8.259  1.00  0.00     0.041 C 
ATOM      6  O   UNL     1      17.595  42.460   8.801  1.00  0.00    -0.550 OA
ATOM      7  O   UNL     1      15.323  42.258   9.016  1.00  0.00    -0.550 OA
ENDBRANCH   4   5
ENDBRANCH   3   4
ENDBRANCH   2   3
ENDBRANCH   1   2
BRANCH   1   8
ATOM      8  C   UNL     1      14.255  46.339   5.740  1.00  0.00     0.000 C 
BRANCH   8   9
ATOM      9  C   UNL     1      13.762  45.737   4.413  1.00  0.00    -0.000 C 
BRANCH   9  10
ATOM     10  C   UNL     1      14.923  45.191   3.554  1.00  0.00    -0.000 C 
BRANCH  10  11
ATOM     11  C   UNL     1      14.882  43.664   3.357  1.00  0.00    -0.000 C 
BRANCH  11  12
ATOM     12  C   UNL     1      13.639  42.976   3.947  1.00  0.00    -0.003 C 
ATOM     13  C   UNL     1      12.708  42.412   2.874  1.00  0.00     0.004 C 
ENDBRANCH  11  12
ENDBRANCH  10  11
ENDBRANCH   9  10
ENDBRANCH   8   9
ENDBRANCH   1   8
TORSDOF 9
ENDMDL
MODEL 2
REMARK VINA RESULT:    -4.560      1.229      2.747
REMARK INTER + INTRA:          -8.104
REMARK INTER:                  -6.847
REMARK INTRA:                  -1.257
REMARK UNBOUND:                -1.145
REMARK SMILES CCCCCCCCCCC(=O)[O-]
REMARK SMILES IDX 7 1 8 2 9 3 10 4 11 5 12 6 13 7 6 8 5 9 4 10 3 11 2 12 1 13
REMARK H PARENT
REMARK Flexibility Score: inf
ROOT
ATOM      1  C   UNL     1      16.465  43.358   4.164  1.00  0.00     0.000 C 
ENDROOT
BRANCH   1   2
ATOM      2  C   UNL     1      16.501  43.184   5.689  1.00  0.00     0.000 C 
BRANCH   2   3
ATOM      3  C   UNL     1      17.681  43.948   6.301  1.00  0.00     0.006 C 
BRANCH   3   4
ATOM      4  C   UNL     1      17.275  44.630   7.610  1.00  0.00     0.053 C 
BRANCH   4   5
ATOM      5  C   UNL     1      16.989  43.610   8.666  1.00  0.00     0.041 C 
ATOM      6  O   UNL     1      17.854  42.745   8.963  1.00  0.00    -0.550 OA
ATOM      7  O   UNL     1      15.747  43.583   9.289  1.00  0.00    -0.550 OA
ENDBRANCH   4   5
ENDBRANCH   3   4
ENDBRANCH   2   3
ENDBRANCH   1   2
BRANCH   1   8
ATOM      8  C   UNL     1      15.063  43.710   3.640  1.00  0.00     0.000 C 
BRANCH   8   9
ATOM      9  C   UNL     1      14.804  45.226   3.608  1.00  0.00    -0.000 C 
BRANCH   9  10
ATOM     10  C   UNL     1      13.605  45.630   4.492  1.00  0.00    -0.000 C 
BRANCH  10  11
ATOM     11  C   UNL     1      14.007  46.398   5.766  1.00  0.00    -0.000 C 
BRANCH  11  12
ATOM     12  C   UNL     1      13.811  45.614   7.074  1.00  0.00    -0.003 C 
ATOM     13  C   UNL     1      13.076  44.290   6.868  1.00  0.00     0.004 C 
ENDBRANCH  11  12
ENDBRANCH  10  11
ENDBRANCH   9  10
ENDBRANCH   8   9
ENDBRANCH   1   8
TORSDOF 9
ENDMDL
MODEL 3
REMARK VINA RESULT:    -4.543      1.438      2.920
REMARK INTER + INTRA:          -8.078
REMARK INTER:                  -6.833
REMARK INTRA:                  -1.245
REMARK UNBOUND:                -1.145
REMARK SMILES CCCCCCCCCCC(=O)[O-]
REMARK SMILES IDX 7 1 8 2 9 3 10 4 11 5 12 6 13 7 6 8 5 9 4 10 3 11 2 12 1 13
REMARK H PARENT
REMARK Flexibility Score: inf
ROOT
ATOM      1  C   UNL     1      15.214  43.732   3.635  1.00  0.00     0.000 C 
ENDROOT
BRANCH   1   2
ATOM      2  C   UNL     1      16.636  43.373   4.093  1.00  0.00     0.000 C 
BRANCH   2   3
ATOM      3  C   UNL     1      16.660  43.022   5.585  1.00  0.00     0.006 C 
BRANCH   3   4
ATOM      4  C   UNL     1      17.544  43.997   6.366  1.00  0.00     0.053 C 
BRANCH   4   5
ATOM      5  C   UNL     1      17.286  43.878   7.835  1.00  0.00     0.041 C 
ATOM      6  O   UNL     1      17.133  44.912   8.538  1.00  0.00    -0.550 OA
ATOM      7  O   UNL     1      17.264  42.627   8.438  1.00  0.00    -0.550 OA
ENDBRANCH   4   5
ENDBRANCH   3   4
ENDBRANCH   2   3
ENDBRANCH   1   2
BRANCH   1   8
ATOM      8  C   UNL     1      14.966  45.249   3.606  1.00  0.00     0.000 C 
BRANCH   8   9
ATOM      9  C   UNL     1      13.506  45.618   3.919  1.00  0.00    -0.000 C 
BRANCH   9  10
ATOM     10  C   UNL     1      13.377  46.430   5.226  1.00  0.00    -0.000 C 
BRANCH  10  11
ATOM     11  C   UNL     1      14.391  46.020   6.311  1.00  0.00    -0.000 C 
BRANCH  11  12
ATOM     12  C   UNL     1      13.791  45.219   7.479  1.00  0.00    -0.003 C 
ATOM     13  C   UNL     1      13.378  43.804   7.078  1.00  0.00     0.004 C 
ENDBRANCH  11  12
ENDBRANCH  10  11
ENDBRANCH   9  10
ENDBRANCH   8   9
ENDBRANCH   1   8
TORSDOF 9
ENDMDL
MODEL 4
REMARK VINA RESULT:    -4.519      1.501      2.461
REMARK INTER + INTRA:          -8.041
REMARK INTER:                  -6.907
REMARK INTRA:                  -1.134
REMARK UNBOUND:                -1.145
REMARK SMILES CCCCCCCCCCC(=O)[O-]
REMARK SMILES IDX 7 1 8 2 9 3 10 4 11 5 12 6 13 7 6 8 5 9 4 10 3 11 2 12 1 13
REMARK H PARENT
REMARK Flexibility Score: inf
ROOT
ATOM      1  C   UNL     1      15.354  43.737   3.635  1.00  0.00     0.000 C 
ENDROOT
BRANCH   1   2
ATOM      2  C   UNL     1      16.733  43.384   4.211  1.00  0.00     0.000 C 
BRANCH   2   3
ATOM      3  C   UNL     1      16.629  43.005   5.693  1.00  0.00     0.006 C 
BRANCH   3   4
ATOM      4  C   UNL     1      17.548  43.879   6.550  1.00  0.00     0.053 C 
BRANCH   4   5
ATOM      5  C   UNL     1      17.110  43.855   7.980  1.00  0.00     0.041 C 
ATOM      6  O   UNL     1      17.377  42.864   8.709  1.00  0.00    -0.550 OA
ATOM      7  O   UNL     1      16.364  44.908   8.497  1.00  0.00    -0.550 OA
ENDBRANCH   4   5
ENDBRANCH   3   4
ENDBRANCH   2   3
ENDBRANCH   1   2
BRANCH   1   8
ATOM      8  C   UNL     1      15.084  45.251   3.626  1.00  0.00     0.000 C 
BRANCH   8   9
ATOM      9  C   UNL     1      13.793  45.629   4.370  1.00  0.00    -0.000 C 
BRANCH   9  10
ATOM     10  C   UNL     1      13.931  45.462   5.899  1.00  0.00    -0.000 C 
BRANCH  10  11
ATOM     11  C   UNL     1      13.093  44.304   6.473  1.00  0.00    -0.000 C 
BRANCH  11  12
ATOM     12  C   UNL     1      12.106  43.673   5.476  1.00  0.00    -0.003 C 
ATOM     13  C   UNL     1      12.452  42.224   5.136  1.00  0.00     0.004 C 
ENDBRANCH  11  12
ENDBRANCH  10  11
ENDBRANCH   9  10
ENDBRANCH   8   9
ENDBRANCH   1   8
TORSDOF 9
ENDMDL
MODEL 5
REMARK VINA RESULT:    -4.493      1.523      2.404
REMARK INTER + INTRA:          -8.002
REMARK INTER:                  -6.824
REMARK INTRA:                  -1.178
REMARK UNBOUND:                -1.145
REMARK SMILES CCCCCCCCCCC(=O)[O-]
REMARK SMILES IDX 7 1 8 2 9 3 10 4 11 5 12 6 13 7 6 8 5 9 4 10 3 11 2 12 1 13
REMARK H PARENT
REMARK Flexibility Score: inf
ROOT
ATOM      1  C   UNL     1      15.875  43.777   4.016  1.00  0.00     0.000 C 
ENDROOT
BRANCH   1   2
ATOM      2  C   UNL     1      16.576  43.673   5.378  1.00  0.00     0.000 C 
BRANCH   2   3
ATOM      3  C   UNL     1      15.887  42.637   6.273  1.00  0.00     0.006 C 
BRANCH   3   4
ATOM      4  C   UNL     1      16.171  42.912   7.752  1.00  0.00     0.053 C 
BRANCH   4   5
ATOM      5  C   UNL     1      15.707  44.283   8.129  1.00  0.00     0.041 C 
ATOM      6  O   UNL     1      14.484  44.576   8.075  1.00  0.00    -0.550 OA
ATOM      7  O   UNL     1      16.631  45.254   8.495  1.00  0.00    -0.550 OA
ENDBRANCH   4   5
ENDBRANCH   3   4
ENDBRANCH   2   3
ENDBRANCH   1   2
BRANCH   1   8
ATOM      8  C   UNL     1      15.301  45.179   3.749  1.00  0.00     0.000 C 
BRANCH   8   9
ATOM      9  C   UNL     1      14.121  45.524   4.673  1.00  0.00    -0.000 C 
BRANCH   9  10
ATOM     10  C   UNL     1      12.810  44.844   4.223  1.00  0.00    -0.000 C 
BRANCH  10  11
ATOM     11  C   UNL     1      12.384  43.666   5.120  1.00  0.00    -0.000 C 
BRANCH  11  12
ATOM     12  C   UNL     1      12.422  42.292   4.431  1.00  0.00    -0.003 C 
ATOM     13  C   UNL     1      12.698  42.387   2.931  1.00  0.00     0.004 C 
ENDBRANCH  11  12
ENDBRANCH  10  11
ENDBRANCH   9  10
ENDBRANCH   8   9
ENDBRANCH   1   8
TORSDOF 9
ENDMDL
MODEL 6
REMARK VINA RESULT:    -4.420      1.804      3.430
REMARK INTER + INTRA:          -7.890
REMARK INTER:                  -6.556
REMARK INTRA:                  -1.334
REMARK UNBOUND:                -1.145
REMARK SMILES CCCCCCCCCCC(=O)[O-]
REMARK SMILES IDX 7 1 8 2 9 3 10 4 11 5 12 6 13 7 6 8 5 9 4 10 3 11 2 12 1 13
REMARK H PARENT
REMARK Flexibility Score: inf
ROOT
ATOM      1  C   UNL     1      13.144  43.055   4.434  1.00  0.00     0.000 C 
ENDROOT
BRANCH   1   2
ATOM      2  C   UNL     1      13.410  42.652   5.892  1.00  0.00     0.000 C 
BRANCH   2   3
ATOM      3  C   UNL     1      14.899  42.774   6.233  1.00  0.00     0.006 C 
BRANCH   3   4
ATOM      4  C   UNL     1      15.103  43.528   7.549  1.00  0.00     0.053 C 
BRANCH   4   5
ATOM      5  C   UNL     1      16.183  44.552   7.406  1.00  0.00     0.041 C 
ATOM      6  O   UNL     1      16.684  44.792   6.276  1.00  0.00    -0.550 OA
ATOM      7  O   UNL     1      16.674  45.208   8.529  1.00  0.00    -0.550 OA
ENDBRANCH   4   5
ENDBRANCH   3   4
ENDBRANCH   2   3
ENDBRANCH   1   2
BRANCH   1   8
ATOM      8  C   UNL     1      14.357  43.729   3.773  1.00  0.00     0.000 C 
BRANCH   8   9
ATOM      9  C   UNL     1      14.246  45.263   3.749  1.00  0.00    -0.000 C 
BRANCH   9  10
ATOM     10  C   UNL     1      12.778  45.741   3.752  1.00  0.00    -0.000 C 
BRANCH  10  11
ATOM     11  C   UNL     1      12.436  46.680   4.924  1.00  0.00    -0.000 C 
BRANCH  11  12
ATOM     12  C   UNL     1      13.401  46.590   6.119  1.00  0.00    -0.003 C 
ATOM     13  C   UNL     1      12.682  46.334   7.443  1.00  0.00     0.004 C 
ENDBRANCH  11  12
ENDBRANCH  10  11
ENDBRANCH   9  10
ENDBRANCH   8   9
ENDBRANCH   1   8
TORSDOF 9
ENDMDL
MODEL 7
REMARK VINA RESULT:    -4.410      1.714      2.231
REMARK INTER + INTRA:          -7.875
REMARK INTER:                  -6.467
REMARK INTRA:                  -1.408
REMARK UNBOUND:                -1.145
REMARK SMILES CCCCCCCCCCC(=O)[O-]
REMARK SMILES IDX 7 1 8 2 9 3 10 4 11 5 12 6 13 7 6 8 5 9 4 10 3 11 2 12 1 13
REMARK H PARENT
REMARK Flexibility Score: inf
ROOT
ATOM      1  C   UNL     1      12.852  44.810   6.946  1.00  0.00     0.000 C 
ENDROOT
BRANCH   1   2
ATOM      2  C   UNL     1      13.562  43.462   7.144  1.00  0.00     0.000 C 
BRANCH   2   3
ATOM      3  C   UNL     1      15.010  43.666   7.602  1.00  0.00     0.006 C 
BRANCH   3   4
ATOM      4  C   UNL     1      15.979  42.846   6.746  1.00  0.00     0.053 C 
BRANCH   4   5
ATOM      5  C   UNL     1      17.058  43.721   6.192  1.00  0.00     0.041 C 
ATOM      6  O   UNL     1      17.596  43.443   5.088  1.00  0.00    -0.550 OA
ATOM      7  O   UNL     1      17.508  44.817   6.919  1.00  0.00    -0.550 OA
ENDBRANCH   4   5
ENDBRANCH   3   4
ENDBRANCH   2   3
ENDBRANCH   1   2
BRANCH   1   8
ATOM      8  C   UNL     1      13.808  45.923   6.487  1.00  0.00     0.000 C 
BRANCH   8   9
ATOM      9  C   UNL     1      13.299  46.668   5.242  1.00  0.00    -0.000 C 
BRANCH   9  10
ATOM     10  C   UNL     1      13.288  45.767   3.988  1.00  0.00    -0.000 C 
BRANCH  10  11
ATOM     11  C   UNL     1      14.651  45.122   3.677  1.00  0.00    -0.000 C 
BRANCH  11  12
ATOM     12  C   UNL     1      14.592  43.617   3.368  1.00  0.00    -0.003 C 
ATOM     13  C   UNL     1      13.179  43.044   3.479  1.00  0.00     0.004 C 
ENDBRANCH  11  12
ENDBRANCH  10  11
ENDBRANCH   9  10
ENDBRANCH   8   9
ENDBRANCH   1   8
TORSDOF 9
ENDMDL
MODEL 8
REMARK VINA RESULT:    -4.394      2.603      4.669
REMARK INTER + INTRA:          -7.850
REMARK INTER:                  -6.471
REMARK INTRA:                  -1.380
REMARK UNBOUND:                -1.145
REMARK SMILES CCCCCCCCCCC(=O)[O-]
REMARK SMILES IDX 7 1 8 2 9 3 10 4 11 5 12 6 13 7 6 8 5 9 4 10 3 11 2 12 1 13
REMARK H PARENT
REMARK Flexibility Score: inf
ROOT
ATOM      1  C   UNL     1      14.992  45.250   3.619  1.00  0.00     0.000 C 
ENDROOT
BRANCH   1   2
ATOM      2  C   UNL     1      14.071  45.902   4.661  1.00  0.00     0.000 C 
BRANCH   2   3
ATOM      3  C   UNL     1      12.747  45.138   4.779  1.00  0.00     0.006 C 
BRANCH   3   4
ATOM      4  C   UNL     1      12.416  44.835   6.242  1.00  0.00     0.053 C 
BRANCH   4   5
ATOM      5  C   UNL     1      12.300  46.103   7.027  1.00  0.00     0.041 C 
ATOM      6  O   UNL     1      12.974  46.262   8.079  1.00  0.00    -0.550 OA
ATOM      7  O   UNL     1      11.410  47.092   6.625  1.00  0.00    -0.550 OA
ENDBRANCH   4   5
ENDBRANCH   3   4
ENDBRANCH   2   3
ENDBRANCH   1   2
BRANCH   1   8
ATOM      8  C   UNL     1      15.197  43.747   3.867  1.00  0.00     0.000 C 
BRANCH   8   9
ATOM      9  C   UNL     1      16.675  43.375   4.073  1.00  0.00    -0.000 C 
BRANCH   9  10
ATOM     10  C   UNL     1      17.010  43.116   5.558  1.00  0.00    -0.000 C 
BRANCH  10  11
ATOM     11  C   UNL     1      15.767  42.948   6.451  1.00  0.00    -0.000 C 
BRANCH  11  12
ATOM     12  C   UNL     1      15.711  43.903   7.656  1.00  0.00    -0.003 C 
ATOM     13  C   UNL     1      16.376  45.250   7.377  1.00  0.00     0.004 C 
ENDBRANCH  11  12
ENDBRANCH  10  11
ENDBRANCH   9  10
ENDBRANCH   8   9
ENDBRANCH   1   8
TORSDOF 9
ENDMDL
MODEL 9
REMARK VINA RESULT:    -4.388      1.974      3.215
REMARK INTER + INTRA:          -7.841
REMARK INTER:                  -6.821
REMARK INTRA:                  -1.021
REMARK UNBOUND:                -1.145
REMARK SMILES CCCCCCCCCCC(=O)[O-]
REMARK SMILES IDX 7 1 8 2 9 3 10 4 11 5 12 6 13 7 6 8 5 9 4 10 3 11 2 12 1 13
REMARK H PARENT
REMARK Flexibility Score: inf
ROOT
ATOM      1  C   UNL     1      17.552  43.784   6.493  1.00  0.00     0.000 C 
ENDROOT
BRANCH   1   2
ATOM      2  C   UNL     1      16.744  45.012   6.936  1.00  0.00     0.000 C 
BRANCH   2   3
ATOM      3  C   UNL     1      16.409  44.940   8.431  1.00  0.00     0.006 C 
BRANCH   3   4
ATOM      4  C   UNL     1      15.349  43.871   8.706  1.00  0.00     0.053 C 
BRANCH   4   5
ATOM      5  C   UNL     1      14.055  44.234   8.049  1.00  0.00     0.041 C 
ATOM      6  O   UNL     1      13.588  43.515   7.127  1.00  0.00    -0.550 OA
ATOM      7  O   UNL     1      13.388  45.395   8.420  1.00  0.00    -0.550 OA
ENDBRANCH   4   5
ENDBRANCH   3   4
ENDBRANCH   2   3
ENDBRANCH   1   2
BRANCH   1   8
ATOM      8  C   UNL     1      16.756  42.853   5.565  1.00  0.00     0.000 C 
BRANCH   8   9
ATOM      9  C   UNL     1      16.695  43.367   4.117  1.00  0.00    -0.000 C 
BRANCH   9  10
ATOM     10  C   UNL     1      15.254  43.708   3.680  1.00  0.00    -0.000 C 
BRANCH  10  11
ATOM     11  C   UNL     1      14.950  45.218   3.679  1.00  0.00    -0.000 C 
BRANCH  11  12
ATOM     12  C   UNL     1      13.551  45.589   4.200  1.00  0.00    -0.003 C 
ATOM     13  C   UNL     1      13.580  46.735   5.211  1.00  0.00     0.004 C 
ENDBRANCH  11  12
ENDBRANCH  10  11
ENDBRANCH   9  10
ENDBRANCH   8   9
ENDBRANCH   1   8
TORSDOF 9
ENDMDL
