MODEL 1
REMARK VINA RESULT:    -3.227      0.000      0.000
REMARK INTER + INTRA:          -3.227
REMARK INTER:                  -3.227
REMARK INTRA:                   0.000
REMARK UNBOUND:                 0.000
REMARK SMILES O=c1ccc2ccccc2o1
REMARK SMILES IDX 7 1 8 2 9 3 10 4 5 5 6 6 4 7 3 8 2 9 1 10 11 11
REMARK H PARENT
REMARK Flexibility Score: inf
ROOT
ATOM      1  C   UNL     1       8.845   0.004  10.050  1.00  0.00     0.001 A 
ATOM      2  C   UNL     1       8.666   1.390  10.125  1.00  0.00     0.004 A 
ATOM      3  C   UNL     1       8.862   2.187   8.993  1.00  0.00     0.048 A 
ATOM      4  C   UNL     1       9.238   1.600   7.779  1.00  0.00     0.138 A 
ATOM      5  C   UNL     1       9.419   0.200   7.703  1.00  0.00     0.018 A 
ATOM      6  C   UNL     1       9.221  -0.593   8.842  1.00  0.00     0.012 A 
ATOM      7  C   UNL     1       9.795  -0.358   6.478  1.00  0.00     0.019 A 
ATOM      8  C   UNL     1       9.979   0.476   5.375  1.00  0.00     0.094 A 
ATOM      9  C   UNL     1       9.781   1.853   5.524  1.00  0.00     0.336 A 
ATOM     10  O   UNL     1       9.942   2.621   4.539  1.00  0.00    -0.246 OA
ATOM     11  O   UNL     1       9.423   2.359   6.701  1.00  0.00    -0.423 OA
ENDROOT
TORSDOF 0
ENDMDL
MODEL 2
REMARK VINA RESULT:    -3.197     20.197     20.903
REMARK INTER + INTRA:          -3.197
REMARK INTER:                  -3.197
REMARK INTRA:                   0.000
REMARK UNBOUND:                 0.000
REMARK SMILES O=c1ccc2ccccc2o1
REMARK SMILES IDX 7 1 8 2 9 3 10 4 5 5 6 6 4 7 3 8 2 9 1 10 11 11
REMARK H PARENT
REMARK Flexibility Score: inf
ROOT
ATOM      1  C   UNL     1       0.462  10.117  -9.374  1.00  0.00     0.001 A 
ATOM      2  C   UNL     1      -0.934  10.125  -9.284  1.00  0.00     0.004 A 
ATOM      3  C   UNL     1      -1.651   8.926  -9.356  1.00  0.00     0.048 A 
ATOM      4  C   UNL     1      -0.972   7.712  -9.516  1.00  0.00     0.138 A 
ATOM      5  C   UNL     1       0.438   7.704  -9.608  1.00  0.00     0.018 A 
ATOM      6  C   UNL     1       1.151   8.910  -9.535  1.00  0.00     0.012 A 
ATOM      7  C   UNL     1       1.089   6.477  -9.768  1.00  0.00     0.019 A 
ATOM      8  C   UNL     1       0.333   5.307  -9.834  1.00  0.00     0.094 A 
ATOM      9  C   UNL     1      -1.060   5.391  -9.737  1.00  0.00     0.336 A 
ATOM     10  O   UNL     1      -1.758   4.345  -9.794  1.00  0.00    -0.246 OA
ATOM     11  O   UNL     1      -1.655   6.571  -9.584  1.00  0.00    -0.423 OA
ENDROOT
TORSDOF 0
ENDMDL
MODEL 3
REMARK VINA RESULT:    -3.196     12.383     13.426
REMARK INTER + INTRA:          -3.196
REMARK INTER:                  -3.196
REMARK INTRA:                   0.000
REMARK UNBOUND:                 0.000
REMARK SMILES O=c1ccc2ccccc2o1
REMARK SMILES IDX 7 1 8 2 9 3 10 4 5 5 6 6 4 7 3 8 2 9 1 10 11 11
REMARK H PARENT
REMARK Flexibility Score: inf
ROOT
ATOM      1  C   UNL     1      -1.496 -10.002   8.300  1.00  0.00     0.001 A 
ATOM      2  C   UNL     1      -0.102 -10.125   8.324  1.00  0.00     0.004 A 
ATOM      3  C   UNL     1       0.698  -9.011   8.598  1.00  0.00     0.048 A 
ATOM      4  C   UNL     1       0.106  -7.768   8.850  1.00  0.00     0.138 A 
ATOM      5  C   UNL     1      -1.302  -7.643   8.825  1.00  0.00     0.018 A 
ATOM      6  C   UNL     1      -2.098  -8.764   8.550  1.00  0.00     0.012 A 
ATOM      7  C   UNL     1      -1.865  -6.390   9.080  1.00  0.00     0.019 A 
ATOM      8  C   UNL     1      -1.028  -5.307   9.349  1.00  0.00     0.094 A 
ATOM      9  C   UNL     1       0.357  -5.504   9.356  1.00  0.00     0.336 A 
ATOM     10  O   UNL     1       1.128  -4.538   9.597  1.00  0.00    -0.246 OA
ATOM     11  O   UNL     1       0.868  -6.708   9.111  1.00  0.00    -0.423 OA
ENDROOT
TORSDOF 0
ENDMDL
MODEL 4
REMARK VINA RESULT:    -3.177     21.371     21.914
REMARK INTER + INTRA:          -3.177
REMARK INTER:                  -3.177
REMARK INTRA:                   0.000
REMARK UNBOUND:                 0.000
REMARK SMILES O=c1ccc2ccccc2o1
REMARK SMILES IDX 7 1 8 2 9 3 10 4 5 5 6 6 4 7 3 8 2 9 1 10 11 11
REMARK H PARENT
REMARK Flexibility Score: inf
ROOT
ATOM      1  C   UNL     1     -10.019   9.196   2.157  1.00  0.00     0.001 A 
ATOM      2  C   UNL     1     -10.053   7.902   2.688  1.00  0.00     0.004 A 
ATOM      3  C   UNL     1     -10.082   6.792   1.838  1.00  0.00     0.048 A 
ATOM      4  C   UNL     1     -10.075   6.973   0.450  1.00  0.00     0.138 A 
ATOM      5  C   UNL     1     -10.042   8.280  -0.088  1.00  0.00     0.018 A 
ATOM      6  C   UNL     1     -10.013   9.388   0.771  1.00  0.00     0.012 A 
ATOM      7  C   UNL     1     -10.037   8.429  -1.477  1.00  0.00     0.019 A 
ATOM      8  C   UNL     1     -10.065   7.293  -2.287  1.00  0.00     0.094 A 
ATOM      9  C   UNL     1     -10.098   6.031  -1.685  1.00  0.00     0.336 A 
ATOM     10  O   UNL     1     -10.124   4.995  -2.400  1.00  0.00    -0.246 OA
ATOM     11  O   UNL     1     -10.102   5.916  -0.359  1.00  0.00    -0.423 OA
ENDROOT
TORSDOF 0
ENDMDL
MODEL 5
REMARK VINA RESULT:    -3.169     20.540     20.996
REMARK INTER + INTRA:          -3.169
REMARK INTER:                  -3.169
REMARK INTRA:                   0.000
REMARK UNBOUND:                 0.000
REMARK SMILES O=c1ccc2ccccc2o1
REMARK SMILES IDX 7 1 8 2 9 3 10 4 5 5 6 6 4 7 3 8 2 9 1 10 11 11
REMARK H PARENT
REMARK Flexibility Score: inf
ROOT
ATOM      1  C   UNL     1      -9.928  -8.250   1.947  1.00  0.00     0.001 A 
ATOM      2  C   UNL     1     -10.117  -8.212   0.561  1.00  0.00     0.004 A 
ATOM      3  C   UNL     1      -9.082  -8.590  -0.301  1.00  0.00     0.048 A 
ATOM      4  C   UNL     1      -7.854  -9.011   0.221  1.00  0.00     0.138 A 
ATOM      5  C   UNL     1      -7.663  -9.050   1.621  1.00  0.00     0.018 A 
ATOM      6  C   UNL     1      -8.704  -8.669   2.479  1.00  0.00     0.012 A 
ATOM      7  C   UNL     1      -6.425  -9.474   2.113  1.00  0.00     0.019 A 
ATOM      8  C   UNL     1      -5.423  -9.843   1.216  1.00  0.00     0.094 A 
ATOM      9  C   UNL     1      -5.683  -9.779  -0.157  1.00  0.00     0.336 A 
ATOM     10  O   UNL     1      -4.790 -10.109  -0.981  1.00  0.00    -0.246 OA
ATOM     11  O   UNL     1      -6.870  -9.372  -0.600  1.00  0.00    -0.423 OA
ENDROOT
TORSDOF 0
ENDMDL
MODEL 6
REMARK VINA RESULT:    -3.106     22.552     22.884
REMARK INTER + INTRA:          -3.106
REMARK INTER:                  -3.106
REMARK INTRA:                   0.000
REMARK UNBOUND:                 0.000
REMARK SMILES O=c1ccc2ccccc2o1
REMARK SMILES IDX 7 1 8 2 9 3 10 4 5 5 6 6 4 7 3 8 2 9 1 10 11 11
REMARK H PARENT
REMARK Flexibility Score: inf
ROOT
ATOM      1  C   UNL     1     -10.069  -7.479   1.679  1.00  0.00     0.001 A 
ATOM      2  C   UNL     1     -10.123  -6.165   1.201  1.00  0.00     0.004 A 
ATOM      3  C   UNL     1     -10.077  -5.913  -0.174  1.00  0.00     0.048 A 
ATOM      4  C   UNL     1      -9.977  -6.978  -1.078  1.00  0.00     0.138 A 
ATOM      5  C   UNL     1      -9.922  -8.305  -0.596  1.00  0.00     0.018 A 
ATOM      6  C   UNL     1      -9.969  -8.550   0.784  1.00  0.00     0.012 A 
ATOM      7  C   UNL     1      -9.822  -9.347  -1.522  1.00  0.00     0.019 A 
ATOM      8  C   UNL     1      -9.780  -9.049  -2.884  1.00  0.00     0.094 A 
ATOM      9  C   UNL     1      -9.839  -7.711  -3.289  1.00  0.00     0.336 A 
ATOM     10  O   UNL     1      -9.802  -7.424  -4.514  1.00  0.00    -0.246 OA
ATOM     11  O   UNL     1      -9.934  -6.738  -2.387  1.00  0.00    -0.423 OA
ENDROOT
TORSDOF 0
ENDMDL
MODEL 7
REMARK VINA RESULT:    -3.100     20.068     20.913
REMARK INTER + INTRA:          -3.100
REMARK INTER:                  -3.100
REMARK INTRA:                   0.000
REMARK UNBOUND:                 0.000
REMARK SMILES O=c1ccc2ccccc2o1
REMARK SMILES IDX 7 1 8 2 9 3 10 4 5 5 6 6 4 7 3 8 2 9 1 10 11 11
REMARK H PARENT
REMARK Flexibility Score: inf
ROOT
ATOM      1  C   UNL     1      -9.819   8.237  -0.214  1.00  0.00     0.001 A 
ATOM      2  C   UNL     1     -10.125   8.172  -1.577  1.00  0.00     0.004 A 
ATOM      3  C   UNL     1      -9.167   8.529  -2.532  1.00  0.00     0.048 A 
ATOM      4  C   UNL     1      -7.895   8.951  -2.125  1.00  0.00     0.138 A 
ATOM      5  C   UNL     1      -7.586   9.016  -0.747  1.00  0.00     0.018 A 
ATOM      6  C   UNL     1      -8.552   8.658   0.204  1.00  0.00     0.012 A 
ATOM      7  C   UNL     1      -6.309   9.442  -0.371  1.00  0.00     0.019 A 
ATOM      8  C   UNL     1      -5.385   9.787  -1.357  1.00  0.00     0.094 A 
ATOM      9  C   UNL     1      -5.762   9.697  -2.702  1.00  0.00     0.336 A 
ATOM     10  O   UNL     1      -4.940  10.005  -3.605  1.00  0.00    -0.246 OA
ATOM     11  O   UNL     1      -6.984   9.289  -3.034  1.00  0.00    -0.423 OA
ENDROOT
TORSDOF 0
ENDMDL
MODEL 8
REMARK VINA RESULT:    -3.058     20.583     21.541
REMARK INTER + INTRA:          -3.058
REMARK INTER:                  -3.058
REMARK INTRA:                   0.000
REMARK UNBOUND:                 0.000
REMARK SMILES O=c1ccc2ccccc2o1
REMARK SMILES IDX 7 1 8 2 9 3 10 4 5 5 6 6 4 7 3 8 2 9 1 10 11 11
REMARK H PARENT
REMARK Flexibility Score: inf
ROOT
ATOM      1  C   UNL     1       1.500   8.633  -9.369  1.00  0.00     0.001 A 
ATOM      2  C   UNL     1       0.891   9.854  -9.059  1.00  0.00     0.004 A 
ATOM      3  C   UNL     1      -0.503   9.968  -9.069  1.00  0.00     0.048 A 
ATOM      4  C   UNL     1      -1.294   8.859  -9.387  1.00  0.00     0.138 A 
ATOM      5  C   UNL     1      -0.680   7.625  -9.700  1.00  0.00     0.018 A 
ATOM      6  C   UNL     1       0.719   7.518  -9.689  1.00  0.00     0.012 A 
ATOM      7  C   UNL     1      -1.496   6.535 -10.014  1.00  0.00     0.019 A 
ATOM      8  C   UNL     1      -2.881   6.695 -10.010  1.00  0.00     0.094 A 
ATOM      9  C   UNL     1      -3.420   7.946  -9.691  1.00  0.00     0.336 A 
ATOM     10  O   UNL     1      -4.669   8.109  -9.682  1.00  0.00    -0.246 OA
ATOM     11  O   UNL     1      -2.621   8.968  -9.395  1.00  0.00    -0.423 OA
ENDROOT
TORSDOF 0
ENDMDL
MODEL 9
REMARK VINA RESULT:    -3.054     13.779     14.816
REMARK INTER + INTRA:          -3.054
REMARK INTER:                  -3.054
REMARK INTRA:                   0.000
REMARK UNBOUND:                 0.000
REMARK SMILES O=c1ccc2ccccc2o1
REMARK SMILES IDX 7 1 8 2 9 3 10 4 5 5 6 6 4 7 3 8 2 9 1 10 11 11
REMARK H PARENT
REMARK Flexibility Score: inf
ROOT
ATOM      1  C   UNL     1       1.076  -8.690   8.614  1.00  0.00     0.001 A 
ATOM      2  C   UNL     1       0.342  -9.824   8.251  1.00  0.00     0.004 A 
ATOM      3  C   UNL     1      -1.057  -9.791   8.258  1.00  0.00     0.048 A 
ATOM      4  C   UNL     1      -1.727  -8.619   8.628  1.00  0.00     0.138 A 
ATOM      5  C   UNL     1      -0.986  -7.473   8.995  1.00  0.00     0.018 A 
ATOM      6  C   UNL     1       0.415  -7.513   8.986  1.00  0.00     0.012 A 
ATOM      7  C   UNL     1      -1.684  -6.317   9.360  1.00  0.00     0.019 A 
ATOM      8  C   UNL     1      -3.078  -6.330   9.352  1.00  0.00     0.094 A 
ATOM      9  C   UNL     1      -3.745  -7.501   8.977  1.00  0.00     0.336 A 
ATOM     10  O   UNL     1      -5.004  -7.530   8.964  1.00  0.00    -0.246 OA
ATOM     11  O   UNL     1      -3.058  -8.587   8.633  1.00  0.00    -0.423 OA
ENDROOT
TORSDOF 0
ENDMDL
