MODEL 1
REMARK VINA RESULT:    -4.805      0.000      0.000
REMARK INTER + INTRA:          -6.094
REMARK INTER:                  -5.929
REMARK INTRA:                  -0.165
REMARK UNBOUND:                -0.165
REMARK SMILES CCCCC=CC(C)=O
REMARK SMILES IDX 4 1 3 2 2 3 1 4 5 5 6 6 7 7 9 8 8 9
REMARK H PARENT
REMARK Flexibility Score: inf
ROOT
ATOM      1  C   UNL     1     -26.603  23.087  14.368  1.00  0.00     0.027 C 
ENDROOT
BRANCH   1   2
ATOM      2  C   UNL     1     -27.452  22.733  15.598  1.00  0.00     0.004 C 
BRANCH   2   3
ATOM      3  C   UNL     1     -28.238  21.425  15.416  1.00  0.00    -0.003 C 
ATOM      4  C   UNL     1     -28.799  20.885  16.731  1.00  0.00     0.004 C 
ENDBRANCH   2   3
ENDBRANCH   1   2
BRANCH   1   5
ATOM      5  C   UNL     1     -27.442  23.717  13.293  1.00  0.00    -0.023 C 
ATOM      6  C   UNL     1     -27.180  23.520  11.996  1.00  0.00     0.042 C 
BRANCH   6   7
ATOM      7  C   UNL     1     -27.982  24.139  10.926  1.00  0.00     0.152 C 
ATOM      8  O   UNL     1     -27.961  23.675   9.753  1.00  0.00    -0.295 OA
ATOM      9  C   UNL     1     -28.827  25.333  11.230  1.00  0.00     0.093 C 
ENDBRANCH   6   7
ENDBRANCH   1   5
TORSDOF 4
ENDMDL
MODEL 2
REMARK VINA RESULT:    -4.789     15.343     16.251
REMARK INTER + INTRA:          -6.074
REMARK INTER:                  -5.910
REMARK INTRA:                  -0.164
REMARK UNBOUND:                -0.165
REMARK SMILES CCCCC=CC(C)=O
REMARK SMILES IDX 4 1 3 2 2 3 1 4 5 5 6 6 7 7 9 8 8 9
REMARK H PARENT
REMARK Flexibility Score: inf
ROOT
ATOM      1  C   UNL     1     -19.992  36.397  14.480  1.00  0.00     0.027 C 
ENDROOT
BRANCH   1   2
ATOM      2  C   UNL     1     -19.071  36.779  15.649  1.00  0.00     0.004 C 
BRANCH   2   3
ATOM      3  C   UNL     1     -18.432  38.165  15.466  1.00  0.00    -0.003 C 
ATOM      4  C   UNL     1     -17.859  38.728  16.766  1.00  0.00     0.004 C 
ENDBRANCH   2   3
ENDBRANCH   1   2
BRANCH   1   5
ATOM      5  C   UNL     1     -19.214  35.767  13.360  1.00  0.00    -0.023 C 
ATOM      6  C   UNL     1     -19.480  36.049  12.080  1.00  0.00     0.042 C 
BRANCH   6   7
ATOM      7  C   UNL     1     -18.738  35.432  10.966  1.00  0.00     0.152 C 
ATOM      8  O   UNL     1     -18.790  35.924   9.805  1.00  0.00    -0.295 OA
ATOM      9  C   UNL     1     -17.918  34.207  11.210  1.00  0.00     0.093 C 
ENDBRANCH   6   7
ENDBRANCH   1   5
TORSDOF 4
ENDMDL
MODEL 3
REMARK VINA RESULT:    -4.622     16.121     17.135
REMARK INTER + INTRA:          -5.868
REMARK INTER:                  -5.711
REMARK INTRA:                  -0.157
REMARK UNBOUND:                -0.165
REMARK SMILES CCCCC=CC(C)=O
REMARK SMILES IDX 4 1 3 2 2 3 1 4 5 5 6 6 7 7 9 8 8 9
REMARK H PARENT
REMARK Flexibility Score: inf
ROOT
ATOM      1  C   UNL     1     -20.149  36.272  13.910  1.00  0.00     0.027 C 
ENDROOT
BRANCH   1   2
ATOM      2  C   UNL     1     -19.189  36.099  12.724  1.00  0.00     0.004 C 
BRANCH   2   3
ATOM      3  C   UNL     1     -18.530  34.711  12.698  1.00  0.00    -0.003 C 
ATOM      4  C   UNL     1     -18.474  34.109  11.294  1.00  0.00     0.004 C 
ENDBRANCH   2   3
ENDBRANCH   1   2
BRANCH   1   5
ATOM      5  C   UNL     1     -19.428  36.794  15.120  1.00  0.00    -0.023 C 
ATOM      6  C   UNL     1     -18.594  37.836  15.041  1.00  0.00     0.042 C 
BRANCH   6   7
ATOM      7  C   UNL     1     -17.866  38.355  16.213  1.00  0.00     0.152 C 
ATOM      8  O   UNL     1     -18.191  38.008  17.381  1.00  0.00    -0.295 OA
ATOM      9  C   UNL     1     -16.731  39.307  16.017  1.00  0.00     0.093 C 
ENDBRANCH   6   7
ENDBRANCH   1   5
TORSDOF 4
ENDMDL
MODEL 4
REMARK VINA RESULT:    -4.621      2.850      4.947
REMARK INTER + INTRA:          -5.866
REMARK INTER:                  -5.590
REMARK INTRA:                  -0.276
REMARK UNBOUND:                -0.165
REMARK SMILES CCCCC=CC(C)=O
REMARK SMILES IDX 4 1 3 2 2 3 1 4 5 5 6 6 7 7 9 8 8 9
REMARK H PARENT
REMARK Flexibility Score: inf
ROOT
ATOM      1  C   UNL     1     -26.454  23.256  14.085  1.00  0.00     0.027 C 
ENDROOT
BRANCH   1   2
ATOM      2  C   UNL     1     -27.301  23.394  12.811  1.00  0.00     0.004 C 
BRANCH   2   3
ATOM      3  C   UNL     1     -27.985  24.766  12.705  1.00  0.00    -0.003 C 
ATOM      4  C   UNL     1     -29.480  24.707  13.017  1.00  0.00     0.004 C 
ENDBRANCH   2   3
ENDBRANCH   1   2
BRANCH   1   5
ATOM      5  C   UNL     1     -27.239  22.612  15.192  1.00  0.00    -0.023 C 
ATOM      6  C   UNL     1     -28.162  21.677  14.942  1.00  0.00     0.042 C 
BRANCH   6   7
ATOM      7  C   UNL     1     -28.953  21.043  16.012  1.00  0.00     0.152 C 
ATOM      8  O   UNL     1     -28.649  21.209  17.225  1.00  0.00    -0.295 OA
ATOM      9  C   UNL     1     -30.128  20.191  15.658  1.00  0.00     0.093 C 
ENDBRANCH   6   7
ENDBRANCH   1   5
TORSDOF 4
ENDMDL
MODEL 5
REMARK VINA RESULT:    -4.422      2.482      4.967
REMARK INTER + INTRA:          -5.621
REMARK INTER:                  -5.341
REMARK INTRA:                  -0.280
REMARK UNBOUND:                -0.165
REMARK SMILES CCCCC=CC(C)=O
REMARK SMILES IDX 4 1 3 2 2 3 1 4 5 5 6 6 7 7 9 8 8 9
REMARK H PARENT
REMARK Flexibility Score: inf
ROOT
ATOM      1  C   UNL     1     -29.595  24.765  13.064  1.00  0.00     0.027 C 
ENDROOT
BRANCH   1   2
ATOM      2  C   UNL     1     -28.116  24.949  12.694  1.00  0.00     0.004 C 
BRANCH   2   3
ATOM      3  C   UNL     1     -27.872  24.857  11.179  1.00  0.00    -0.003 C 
ATOM      4  C   UNL     1     -27.916  23.420  10.660  1.00  0.00     0.004 C 
ENDBRANCH   2   3
ENDBRANCH   1   2
BRANCH   1   5
ATOM      5  C   UNL     1     -29.793  23.548  13.921  1.00  0.00    -0.023 C 
ATOM      6  C   UNL     1     -28.755  22.867  14.418  1.00  0.00     0.042 C 
BRANCH   6   7
ATOM      7  C   UNL     1     -28.926  21.662  15.250  1.00  0.00     0.152 C 
ATOM      8  O   UNL     1     -29.564  20.664  14.817  1.00  0.00    -0.295 OA
ATOM      9  C   UNL     1     -28.341  21.622  16.625  1.00  0.00     0.093 C 
ENDBRANCH   6   7
ENDBRANCH   1   5
TORSDOF 4
ENDMDL
MODEL 6
REMARK VINA RESULT:    -4.419     16.407     17.400
REMARK INTER + INTRA:          -5.617
REMARK INTER:                  -5.379
REMARK INTRA:                  -0.238
REMARK UNBOUND:                -0.165
REMARK SMILES CCCCC=CC(C)=O
REMARK SMILES IDX 4 1 3 2 2 3 1 4 5 5 6 6 7 7 9 8 8 9
REMARK H PARENT
REMARK Flexibility Score: inf
ROOT
ATOM      1  C   UNL     1     -17.036  34.679  13.169  1.00  0.00     0.027 C 
ENDROOT
BRANCH   1   2
ATOM      2  C   UNL     1     -18.461  34.568  12.607  1.00  0.00     0.004 C 
BRANCH   2   3
ATOM      3  C   UNL     1     -18.483  34.477  11.072  1.00  0.00    -0.003 C 
ATOM      4  C   UNL     1     -18.872  35.797  10.408  1.00  0.00     0.004 C 
ENDBRANCH   2   3
ENDBRANCH   1   2
BRANCH   1   5
ATOM      5  C   UNL     1     -16.663  36.112  13.420  1.00  0.00    -0.023 C 
ATOM      6  C   UNL     1     -17.152  36.790  14.464  1.00  0.00     0.042 C 
BRANCH   6   7
ATOM      7  C   UNL     1     -16.809  38.200  14.721  1.00  0.00     0.152 C 
ATOM      8  O   UNL     1     -16.505  38.590  15.881  1.00  0.00    -0.295 OA
ATOM      9  C   UNL     1     -16.825  39.183  13.595  1.00  0.00     0.093 C 
ENDBRANCH   6   7
ENDBRANCH   1   5
TORSDOF 4
ENDMDL
MODEL 7
REMARK VINA RESULT:    -4.391      2.395      3.268
REMARK INTER + INTRA:          -5.583
REMARK INTER:                  -5.398
REMARK INTRA:                  -0.185
REMARK UNBOUND:                -0.165
REMARK SMILES CCCCC=CC(C)=O
REMARK SMILES IDX 4 1 3 2 2 3 1 4 5 5 6 6 7 7 9 8 8 9
REMARK H PARENT
REMARK Flexibility Score: inf
ROOT
ATOM      1  C   UNL     1     -29.563  20.947  15.703  1.00  0.00     0.027 C 
ENDROOT
BRANCH   1   2
ATOM      2  C   UNL     1     -28.256  21.552  16.237  1.00  0.00     0.004 C 
BRANCH   2   3
ATOM      3  C   UNL     1     -27.913  22.893  15.570  1.00  0.00    -0.003 C 
ATOM      4  C   UNL     1     -26.483  22.936  15.030  1.00  0.00     0.004 C 
ENDBRANCH   2   3
ENDBRANCH   1   2
BRANCH   1   5
ATOM      5  C   UNL     1     -30.034  21.671  14.474  1.00  0.00    -0.023 C 
ATOM      6  C   UNL     1     -29.897  21.140  13.255  1.00  0.00     0.042 C 
BRANCH   6   7
ATOM      7  C   UNL     1     -30.340  21.839  12.035  1.00  0.00     0.152 C 
ATOM      8  O   UNL     1     -29.555  21.998  11.061  1.00  0.00    -0.295 OA
ATOM      9  C   UNL     1     -31.734  22.370  11.951  1.00  0.00     0.093 C 
ENDBRANCH   6   7
ENDBRANCH   1   5
TORSDOF 4
ENDMDL
MODEL 8
REMARK VINA RESULT:    -4.324     16.580     17.642
REMARK INTER + INTRA:          -5.500
REMARK INTER:                  -5.287
REMARK INTRA:                  -0.212
REMARK UNBOUND:                -0.165
REMARK SMILES CCCCC=CC(C)=O
REMARK SMILES IDX 4 1 3 2 2 3 1 4 5 5 6 6 7 7 9 8 8 9
REMARK H PARENT
REMARK Flexibility Score: inf
ROOT
ATOM      1  C   UNL     1     -18.731  36.738  10.607  1.00  0.00     0.027 C 
ENDROOT
BRANCH   1   2
ATOM      2  C   UNL     1     -19.115  35.320  11.054  1.00  0.00     0.004 C 
BRANCH   2   3
ATOM      3  C   UNL     1     -17.893  34.400  11.207  1.00  0.00    -0.003 C 
ATOM      4  C   UNL     1     -17.757  33.829  12.619  1.00  0.00     0.004 C 
ENDBRANCH   2   3
ENDBRANCH   1   2
BRANCH   1   5
ATOM      5  C   UNL     1     -17.374  37.122  11.124  1.00  0.00    -0.023 C 
ATOM      6  C   UNL     1     -17.231  37.892  12.208  1.00  0.00     0.042 C 
BRANCH   6   7
ATOM      7  C   UNL     1     -15.910  38.291  12.725  1.00  0.00     0.152 C 
ATOM      8  O   UNL     1     -14.918  37.517  12.629  1.00  0.00    -0.295 OA
ATOM      9  C   UNL     1     -15.741  39.626  13.374  1.00  0.00     0.093 C 
ENDBRANCH   6   7
ENDBRANCH   1   5
TORSDOF 4
ENDMDL
MODEL 9
REMARK VINA RESULT:    -4.290      1.263      2.035
REMARK INTER + INTRA:          -5.458
REMARK INTER:                  -5.180
REMARK INTRA:                  -0.278
REMARK UNBOUND:                -0.165
REMARK SMILES CCCCC=CC(C)=O
REMARK SMILES IDX 4 1 3 2 2 3 1 4 5 5 6 6 7 7 9 8 8 9
REMARK H PARENT
REMARK Flexibility Score: inf
ROOT
ATOM      1  C   UNL     1     -29.896  22.251  14.160  1.00  0.00     0.027 C 
ENDROOT
BRANCH   1   2
ATOM      2  C   UNL     1     -28.617  21.632  14.742  1.00  0.00     0.004 C 
BRANCH   2   3
ATOM      3  C   UNL     1     -27.849  22.608  15.647  1.00  0.00    -0.003 C 
ATOM      4  C   UNL     1     -26.509  23.038  15.050  1.00  0.00     0.004 C 
ENDBRANCH   2   3
ENDBRANCH   1   2
BRANCH   1   5
ATOM      5  C   UNL     1     -29.574  23.269  13.103  1.00  0.00    -0.023 C 
ATOM      6  C   UNL     1     -28.804  22.967  12.053  1.00  0.00     0.042 C 
BRANCH   6   7
ATOM      7  C   UNL     1     -28.464  23.953  11.012  1.00  0.00     0.152 C 
ATOM      8  O   UNL     1     -27.977  23.586   9.908  1.00  0.00    -0.295 OA
ATOM      9  C   UNL     1     -28.696  25.408  11.266  1.00  0.00     0.093 C 
ENDBRANCH   6   7
ENDBRANCH   1   5
TORSDOF 4
ENDMDL
