MODEL 1
REMARK VINA RESULT:    -5.962      0.000      0.000
REMARK INTER + INTRA:         -10.518
REMARK INTER:                  -9.100
REMARK INTRA:                  -1.418
REMARK UNBOUND:                -1.418
REMARK SMILES OC[C@@H]1O[C@@H](O[C@@]2(CO)O[C@H](CO)[C@@H](O)[C@@H]2O)[C@H](O)[C@@H](O)[C@H]1O
REMARK SMILES IDX 6 1 5 2 3 3 22 4 4 5 20 6 18 7 2 8 1 9 23 11 21 13 19 15
REMARK SMILES IDX 7 17 16 18 10 19 14 20 11 21 8 22 9 23 17 25 15 27 12 29
REMARK SMILES IDX 13 30
REMARK H PARENT 1 10 23 12 21 14 19 16 9 24 17 26 15 28 13 31
REMARK Flexibility Score: inf
ROOT
ATOM      1  O   UNL     1       7.758   8.432  32.988  1.00  0.00    -0.313 OA
ENDROOT
BRANCH   1   2
ATOM      2  C   UNL     1       8.763   7.576  33.528  1.00  0.00     0.285 C 
ATOM      3  C   UNL     1       7.930   5.713  32.354  1.00  0.00     0.178 C 
ATOM      4  C   UNL     1       7.446   4.994  33.637  1.00  0.00     0.177 C 
ATOM      5  O   UNL     1       9.065   6.518  32.632  1.00  0.00    -0.341 OA
ATOM      6  C   UNL     1       7.176   6.007  34.774  1.00  0.00     0.179 C 
ATOM      7  C   UNL     1       8.323   7.031  34.902  1.00  0.00     0.202 C 
BRANCH   3   8
ATOM      8  C   UNL     1       8.330   4.701  31.270  1.00  0.00     0.191 C 
BRANCH   8   9
ATOM      9  O   UNL     1       8.705   3.483  31.851  1.00  0.00    -0.394 OA
ATOM     10  H   UNL     1       9.573   3.235  31.436  1.00  0.00     0.210 HD
ENDBRANCH   8   9
ENDBRANCH   3   8
BRANCH   4  11
ATOM     11  O   UNL     1       6.282   4.254  33.370  1.00  0.00    -0.387 OA
ATOM     12  H   UNL     1       6.139   4.290  32.387  1.00  0.00     0.211 HD
ENDBRANCH   4  11
BRANCH   6  13
ATOM     13  O   UNL     1       5.930   6.650  34.637  1.00  0.00    -0.387 OA
ATOM     14  H   UNL     1       5.319   6.055  34.136  1.00  0.00     0.211 HD
ENDBRANCH   6  13
BRANCH   7  15
ATOM     15  O   UNL     1       9.431   6.423  35.519  1.00  0.00    -0.385 OA
ATOM     16  H   UNL     1       9.218   6.347  36.485  1.00  0.00     0.211 HD
ENDBRANCH   7  15
ENDBRANCH   1   2
BRANCH   1  17
ATOM     17  C   UNL     1       7.919   9.816  33.292  1.00  0.00     0.224 C 
ATOM     18  C   UNL     1       7.802  10.695  32.019  1.00  0.00     0.208 C 
ATOM     19  O   UNL     1       9.236   9.972  33.794  1.00  0.00    -0.337 OA
ATOM     20  C   UNL     1       8.929  11.679  32.173  1.00  0.00     0.180 C 
ATOM     21  C   UNL     1       9.937  10.872  32.968  1.00  0.00     0.179 C 
BRANCH  17  22
ATOM     22  C   UNL     1       6.963  10.270  34.429  1.00  0.00     0.225 C 
BRANCH  22  23
ATOM     23  O   UNL     1       5.725   9.618  34.325  1.00  0.00    -0.391 OA
ATOM     24  H   UNL     1       5.040  10.321  34.189  1.00  0.00     0.210 HD
ENDBRANCH  22  23
ENDBRANCH  17  22
BRANCH  18  25
ATOM     25  O   UNL     1       6.566  11.359  31.928  1.00  0.00    -0.385 OA
ATOM     26  H   UNL     1       5.927  10.846  32.489  1.00  0.00     0.211 HD
ENDBRANCH  18  25
BRANCH  20  27
ATOM     27  O   UNL     1       9.461  12.056  30.929  1.00  0.00    -0.387 OA
ATOM     28  H   UNL     1       9.487  13.048  30.923  1.00  0.00     0.211 HD
ENDBRANCH  20  27
BRANCH  21  29
ATOM     29  C   UNL     1      10.841  11.770  33.822  1.00  0.00     0.191 C 
BRANCH  29  30
ATOM     30  O   UNL     1      11.691  12.524  33.003  1.00  0.00    -0.394 OA
ATOM     31  H   UNL     1      12.604  12.149  33.117  1.00  0.00     0.210 HD
ENDBRANCH  29  30
ENDBRANCH  21  29
ENDBRANCH   1  17
TORSDOF 13
ENDMDL
MODEL 2
REMARK VINA RESULT:    -5.916      9.343     11.206
REMARK INTER + INTRA:         -10.446
REMARK INTER:                  -9.025
REMARK INTRA:                  -1.421
REMARK UNBOUND:                -1.418
REMARK SMILES OC[C@@H]1O[C@@H](O[C@@]2(CO)O[C@H](CO)[C@@H](O)[C@@H]2O)[C@H](O)[C@@H](O)[C@H]1O
REMARK SMILES IDX 6 1 5 2 3 3 22 4 4 5 20 6 18 7 2 8 1 9 23 11 21 13 19 15
REMARK SMILES IDX 7 17 16 18 10 19 14 20 11 21 8 22 9 23 17 25 15 27 12 29
REMARK SMILES IDX 13 30
REMARK H PARENT 1 10 23 12 21 14 19 16 9 24 17 26 15 28 13 31
REMARK Flexibility Score: inf
ROOT
ATOM      1  O   UNL     1       8.995   2.454  23.595  1.00  0.00    -0.313 OA
ENDROOT
BRANCH   1   2
ATOM      2  C   UNL     1       9.780   1.647  24.471  1.00  0.00     0.285 C 
ATOM      3  C   UNL     1       8.743  -0.329  23.722  1.00  0.00     0.178 C 
ATOM      4  C   UNL     1       8.026  -0.584  25.070  1.00  0.00     0.177 C 
ATOM      5  O   UNL     1       9.972   0.349  23.932  1.00  0.00    -0.341 OA
ATOM      6  C   UNL     1       7.836   0.735  25.856  1.00  0.00     0.179 C 
ATOM      7  C   UNL     1       9.128   1.577  25.867  1.00  0.00     0.202 C 
BRANCH   3   8
ATOM      8  C   UNL     1       9.057  -1.650  23.004  1.00  0.00     0.191 C 
BRANCH   8   9
ATOM      9  O   UNL     1       9.168  -2.696  23.929  1.00  0.00    -0.394 OA
ATOM     10  H   UNL     1      10.127  -2.738  24.185  1.00  0.00     0.210 HD
ENDBRANCH   8   9
ENDBRANCH   3   8
BRANCH   4  11
ATOM     11  O   UNL     1       6.779  -1.192  24.850  1.00  0.00    -0.387 OA
ATOM     12  H   UNL     1       6.758  -2.012  25.411  1.00  0.00     0.211 HD
ENDBRANCH   4  11
BRANCH   6  13
ATOM     13  O   UNL     1       6.740   1.487  25.389  1.00  0.00    -0.387 OA
ATOM     14  H   UNL     1       5.908   1.097  25.755  1.00  0.00     0.211 HD
ENDBRANCH   6  13
BRANCH   7  15
ATOM     15  O   UNL     1      10.051   1.013  26.765  1.00  0.00    -0.385 OA
ATOM     16  H   UNL     1       9.980   0.027  26.671  1.00  0.00     0.211 HD
ENDBRANCH   7  15
ENDBRANCH   1   2
BRANCH   1  17
ATOM     17  C   UNL     1       9.631   3.648  23.145  1.00  0.00     0.224 C 
ATOM     18  C   UNL     1      11.138   3.665  23.517  1.00  0.00     0.208 C 
ATOM     19  O   UNL     1       9.013   4.722  23.832  1.00  0.00    -0.337 OA
ATOM     20  C   UNL     1      11.355   5.068  24.014  1.00  0.00     0.180 C 
ATOM     21  C   UNL     1       9.990   5.411  24.579  1.00  0.00     0.179 C 
BRANCH  17  22
ATOM     22  C   UNL     1       9.381   3.897  21.632  1.00  0.00     0.225 C 
BRANCH  22  23
ATOM     23  O   UNL     1       9.384   2.686  20.923  1.00  0.00    -0.391 OA
ATOM     24  H   UNL     1       8.538   2.220  21.148  1.00  0.00     0.210 HD
ENDBRANCH  22  23
ENDBRANCH  17  22
BRANCH  18  25
ATOM     25  O   UNL     1      11.973   3.386  22.421  1.00  0.00    -0.385 OA
ATOM     26  H   UNL     1      12.467   4.223  22.221  1.00  0.00     0.211 HD
ENDBRANCH  18  25
BRANCH  20  27
ATOM     27  O   UNL     1      12.337   5.115  25.017  1.00  0.00    -0.387 OA
ATOM     28  H   UNL     1      13.210   5.204  24.553  1.00  0.00     0.211 HD
ENDBRANCH  20  27
BRANCH  21  29
ATOM     29  C   UNL     1       9.717   6.919  24.533  1.00  0.00     0.191 C 
BRANCH  29  30
ATOM     30  O   UNL     1      10.850   7.606  24.078  1.00  0.00    -0.394 OA
ATOM     31  H   UNL     1      11.635   7.178  24.510  1.00  0.00     0.210 HD
ENDBRANCH  29  30
ENDBRANCH  21  29
ENDBRANCH   1  17
TORSDOF 13
ENDMDL
MODEL 3
REMARK VINA RESULT:    -5.760      9.339     12.840
REMARK INTER + INTRA:         -10.208
REMARK INTER:                  -9.241
REMARK INTRA:                  -0.967
REMARK UNBOUND:                -1.418
REMARK SMILES OC[C@@H]1O[C@@H](O[C@@]2(CO)O[C@H](CO)[C@@H](O)[C@@H]2O)[C@H](O)[C@@H](O)[C@H]1O
REMARK SMILES IDX 6 1 5 2 3 3 22 4 4 5 20 6 18 7 2 8 1 9 23 11 21 13 19 15
REMARK SMILES IDX 7 17 16 18 10 19 14 20 11 21 8 22 9 23 17 25 15 27 12 29
REMARK SMILES IDX 13 30
REMARK H PARENT 1 10 23 12 21 14 19 16 9 24 17 26 15 28 13 31
REMARK Flexibility Score: inf
ROOT
ATOM      1  O   UNL     1       9.633   2.433  24.069  1.00  0.00    -0.313 OA
ENDROOT
BRANCH   1   2
ATOM      2  C   UNL     1      10.888   3.105  23.981  1.00  0.00     0.285 C 
ATOM      3  C   UNL     1       9.846   5.200  23.720  1.00  0.00     0.178 C 
ATOM      4  C   UNL     1      10.311   5.362  22.252  1.00  0.00     0.177 C 
ATOM      5  O   UNL     1      10.786   4.437  24.459  1.00  0.00    -0.341 OA
ATOM      6  C   UNL     1      10.584   3.986  21.601  1.00  0.00     0.179 C 
ATOM      7  C   UNL     1      11.413   3.075  22.531  1.00  0.00     0.202 C 
BRANCH   3   8
ATOM      8  C   UNL     1       9.707   6.565  24.410  1.00  0.00     0.191 C 
BRANCH   8   9
ATOM      9  O   UNL     1      10.676   7.457  23.931  1.00  0.00    -0.394 OA
ATOM     10  H   UNL     1      11.263   6.929  23.329  1.00  0.00     0.210 HD
ENDBRANCH   8   9
ENDBRANCH   3   8
BRANCH   4  11
ATOM     11  O   UNL     1       9.343   6.058  21.509  1.00  0.00    -0.387 OA
ATOM     12  H   UNL     1       9.454   7.021  21.726  1.00  0.00     0.211 HD
ENDBRANCH   4  11
BRANCH   6  13
ATOM     13  O   UNL     1       9.403   3.345  21.179  1.00  0.00    -0.387 OA
ATOM     14  H   UNL     1       9.404   3.294  20.191  1.00  0.00     0.211 HD
ENDBRANCH   6  13
BRANCH   7  15
ATOM     15  O   UNL     1      12.754   3.497  22.531  1.00  0.00    -0.385 OA
ATOM     16  H   UNL     1      13.309   2.694  22.350  1.00  0.00     0.211 HD
ENDBRANCH   7  15
ENDBRANCH   1   2
BRANCH   1  17
ATOM     17  C   UNL     1       9.652   1.220  24.819  1.00  0.00     0.224 C 
ATOM     18  C   UNL     1      10.721   0.233  24.278  1.00  0.00     0.208 C 
ATOM     19  O   UNL     1       8.385   0.611  24.640  1.00  0.00    -0.337 OA
ATOM     20  C   UNL     1      10.003  -1.088  24.278  1.00  0.00     0.180 C 
ATOM     21  C   UNL     1       8.565  -0.659  24.057  1.00  0.00     0.179 C 
BRANCH  17  22
ATOM     22  C   UNL     1       9.794   1.488  26.343  1.00  0.00     0.225 C 
BRANCH  22  23
ATOM     23  O   UNL     1       8.741   0.890  27.051  1.00  0.00    -0.391 OA
ATOM     24  H   UNL     1       7.979   0.812  26.422  1.00  0.00     0.210 HD
ENDBRANCH  22  23
ENDBRANCH  17  22
BRANCH  18  25
ATOM     25  O   UNL     1      11.871   0.180  25.086  1.00  0.00    -0.385 OA
ATOM     26  H   UNL     1      12.493   0.872  24.739  1.00  0.00     0.211 HD
ENDBRANCH  18  25
BRANCH  20  27
ATOM     27  O   UNL     1      10.443  -1.917  23.234  1.00  0.00    -0.387 OA
ATOM     28  H   UNL     1      10.741  -1.314  22.503  1.00  0.00     0.211 HD
ENDBRANCH  20  27
BRANCH  21  29
ATOM     29  C   UNL     1       7.572  -1.659  24.663  1.00  0.00     0.191 C 
BRANCH  29  30
ATOM     30  O   UNL     1       6.954  -1.107  25.794  1.00  0.00    -0.394 OA
ATOM     31  H   UNL     1       6.241  -0.501  25.461  1.00  0.00     0.210 HD
ENDBRANCH  29  30
ENDBRANCH  21  29
ENDBRANCH   1  17
TORSDOF 13
ENDMDL
MODEL 4
REMARK VINA RESULT:    -5.734      1.613      6.151
REMARK INTER + INTRA:         -10.169
REMARK INTER:                  -9.154
REMARK INTRA:                  -1.015
REMARK UNBOUND:                -1.418
REMARK SMILES OC[C@@H]1O[C@@H](O[C@@]2(CO)O[C@H](CO)[C@@H](O)[C@@H]2O)[C@H](O)[C@@H](O)[C@H]1O
REMARK SMILES IDX 6 1 5 2 3 3 22 4 4 5 20 6 18 7 2 8 1 9 23 11 21 13 19 15
REMARK SMILES IDX 7 17 16 18 10 19 14 20 11 21 8 22 9 23 17 25 15 27 12 29
REMARK SMILES IDX 13 30
REMARK H PARENT 1 10 23 12 21 14 19 16 9 24 17 26 15 28 13 31
REMARK Flexibility Score: inf
ROOT
ATOM      1  O   UNL     1       8.322   8.444  32.296  1.00  0.00    -0.313 OA
ENDROOT
BRANCH   1   2
ATOM      2  C   UNL     1       9.067   9.479  32.934  1.00  0.00     0.285 C 
ATOM      3  C   UNL     1       7.280  11.000  32.748  1.00  0.00     0.178 C 
ATOM      4  C   UNL     1       8.017  11.896  31.723  1.00  0.00     0.177 C 
ATOM      5  O   UNL     1       8.208  10.375  33.621  1.00  0.00    -0.341 OA
ATOM      6  C   UNL     1       9.089  11.092  30.951  1.00  0.00     0.179 C 
ATOM      7  C   UNL     1       9.939  10.226  31.905  1.00  0.00     0.202 C 
BRANCH   3   8
ATOM      8  C   UNL     1       6.313  11.826  33.611  1.00  0.00     0.191 C 
BRANCH   8   9
ATOM      9  O   UNL     1       5.263  12.324  32.829  1.00  0.00    -0.394 OA
ATOM     10  H   UNL     1       4.433  12.165  33.350  1.00  0.00     0.210 HD
ENDBRANCH   8   9
ENDBRANCH   3   8
BRANCH   4  11
ATOM     11  O   UNL     1       7.098  12.456  30.820  1.00  0.00    -0.387 OA
ATOM     12  H   UNL     1       7.618  13.048  30.214  1.00  0.00     0.211 HD
ENDBRANCH   4  11
BRANCH   6  13
ATOM     13  O   UNL     1       8.537  10.317  29.913  1.00  0.00    -0.387 OA
ATOM     14  H   UNL     1       7.594  10.114  30.134  1.00  0.00     0.211 HD
ENDBRANCH   6  13
BRANCH   7  15
ATOM     15  O   UNL     1      10.850  11.043  32.597  1.00  0.00    -0.385 OA
ATOM     16  H   UNL     1      11.169  11.729  31.955  1.00  0.00     0.211 HD
ENDBRANCH   7  15
ENDBRANCH   1   2
BRANCH   1  17
ATOM     17  C   UNL     1       8.466   7.151  32.881  1.00  0.00     0.224 C 
ATOM     18  C   UNL     1       7.143   6.343  32.807  1.00  0.00     0.208 C 
ATOM     19  O   UNL     1       8.762   7.354  34.252  1.00  0.00    -0.337 OA
ATOM     20  C   UNL     1       7.042   5.719  34.172  1.00  0.00     0.180 C 
ATOM     21  C   UNL     1       7.763   6.739  35.032  1.00  0.00     0.179 C 
BRANCH  17  22
ATOM     22  C   UNL     1       9.676   6.381  32.283  1.00  0.00     0.225 C 
BRANCH  22  23
ATOM     23  O   UNL     1       9.776   5.101  32.848  1.00  0.00    -0.391 OA
ATOM     24  H   UNL     1       8.858   4.826  33.102  1.00  0.00     0.210 HD
ENDBRANCH  22  23
ENDBRANCH  17  22
BRANCH  18  25
ATOM     25  O   UNL     1       7.161   5.358  31.804  1.00  0.00    -0.385 OA
ATOM     26  H   UNL     1       7.399   5.819  30.958  1.00  0.00     0.211 HD
ENDBRANCH  18  25
BRANCH  20  27
ATOM     27  O   UNL     1       5.706   5.577  34.579  1.00  0.00    -0.387 OA
ATOM     28  H   UNL     1       5.232   6.397  34.282  1.00  0.00     0.211 HD
ENDBRANCH  20  27
BRANCH  21  29
ATOM     29  C   UNL     1       8.391   6.096  36.274  1.00  0.00     0.191 C 
BRANCH  29  30
ATOM     30  O   UNL     1       7.395   5.714  37.182  1.00  0.00    -0.394 OA
ATOM     31  H   UNL     1       6.756   5.143  36.680  1.00  0.00     0.210 HD
ENDBRANCH  29  30
ENDBRANCH  21  29
ENDBRANCH   1  17
TORSDOF 13
ENDMDL
MODEL 5
REMARK VINA RESULT:    -5.721      1.506      2.316
REMARK INTER + INTRA:         -10.149
REMARK INTER:                  -9.006
REMARK INTRA:                  -1.143
REMARK UNBOUND:                -1.418
REMARK SMILES OC[C@@H]1O[C@@H](O[C@@]2(CO)O[C@H](CO)[C@@H](O)[C@@H]2O)[C@H](O)[C@@H](O)[C@H]1O
REMARK SMILES IDX 6 1 5 2 3 3 22 4 4 5 20 6 18 7 2 8 1 9 23 11 21 13 19 15
REMARK SMILES IDX 7 17 16 18 10 19 14 20 11 21 8 22 9 23 17 25 15 27 12 29
REMARK SMILES IDX 13 30
REMARK H PARENT 1 10 23 12 21 14 19 16 9 24 17 26 15 28 13 31
REMARK Flexibility Score: inf
ROOT
ATOM      1  O   UNL     1       8.006   7.973  33.432  1.00  0.00    -0.313 OA
ENDROOT
BRANCH   1   2
ATOM      2  C   UNL     1       8.780   7.000  34.132  1.00  0.00     0.285 C 
ATOM      3  C   UNL     1       7.711   5.222  33.020  1.00  0.00     0.178 C 
ATOM      4  C   UNL     1       6.992   4.722  34.297  1.00  0.00     0.177 C 
ATOM      5  O   UNL     1       8.950   5.827  33.351  1.00  0.00    -0.341 OA
ATOM      6  C   UNL     1       6.823   5.867  35.323  1.00  0.00     0.179 C 
ATOM      7  C   UNL     1       8.129   6.672  35.491  1.00  0.00     0.202 C 
BRANCH   3   8
ATOM      8  C   UNL     1       8.003   4.059  32.059  1.00  0.00     0.191 C 
BRANCH   8   9
ATOM      9  O   UNL     1       6.833   3.664  31.398  1.00  0.00    -0.394 OA
ATOM     10  H   UNL     1       7.004   2.747  31.058  1.00  0.00     0.210 HD
ENDBRANCH   8   9
ENDBRANCH   3   8
BRANCH   4  11
ATOM     11  O   UNL     1       5.735   4.187  33.968  1.00  0.00    -0.387 OA
ATOM     12  H   UNL     1       5.783   3.909  33.016  1.00  0.00     0.211 HD
ENDBRANCH   4  11
BRANCH   6  13
ATOM     13  O   UNL     1       5.739   6.711  35.014  1.00  0.00    -0.387 OA
ATOM     14  H   UNL     1       5.662   7.401  35.720  1.00  0.00     0.211 HD
ENDBRANCH   6  13
BRANCH   7  15
ATOM     15  O   UNL     1       9.044   5.930  36.259  1.00  0.00    -0.385 OA
ATOM     16  H   UNL     1       9.796   5.688  35.657  1.00  0.00     0.211 HD
ENDBRANCH   7  15
ENDBRANCH   1   2
BRANCH   1  17
ATOM     17  C   UNL     1       8.726   9.133  33.022  1.00  0.00     0.224 C 
ATOM     18  C   UNL     1       7.805  10.381  32.961  1.00  0.00     0.208 C 
ATOM     19  O   UNL     1       9.187   8.883  31.706  1.00  0.00    -0.337 OA
ATOM     20  C   UNL     1       8.209  11.046  31.675  1.00  0.00     0.180 C 
ATOM     21  C   UNL     1       8.657   9.861  30.841  1.00  0.00     0.179 C 
BRANCH  17  22
ATOM     22  C   UNL     1       9.994   9.361  33.891  1.00  0.00     0.225 C 
BRANCH  22  23
ATOM     23  O   UNL     1      11.147   9.370  33.092  1.00  0.00    -0.391 OA
ATOM     24  H   UNL     1      11.027  10.093  32.423  1.00  0.00     0.210 HD
ENDBRANCH  22  23
ENDBRANCH  17  22
BRANCH  18  25
ATOM     25  O   UNL     1       7.990  11.248  34.054  1.00  0.00    -0.385 OA
ATOM     26  H   UNL     1       8.168  12.148  33.674  1.00  0.00     0.211 HD
ENDBRANCH  18  25
BRANCH  20  27
ATOM     27  O   UNL     1       7.125  11.702  31.069  1.00  0.00    -0.387 OA
ATOM     28  H   UNL     1       6.400  11.030  30.987  1.00  0.00     0.211 HD
ENDBRANCH  20  27
BRANCH  21  29
ATOM     29  C   UNL     1       9.706  10.262  29.797  1.00  0.00     0.191 C 
BRANCH  29  30
ATOM     30  O   UNL     1       9.260  11.363  29.055  1.00  0.00    -0.394 OA
ATOM     31  H   UNL     1       9.669  11.284  28.154  1.00  0.00     0.210 HD
ENDBRANCH  29  30
ENDBRANCH  21  29
ENDBRANCH   1  17
TORSDOF 13
ENDMDL
MODEL 6
REMARK VINA RESULT:    -5.685      9.467     11.886
REMARK INTER + INTRA:         -10.094
REMARK INTER:                  -8.684
REMARK INTRA:                  -1.411
REMARK UNBOUND:                -1.418
REMARK SMILES OC[C@@H]1O[C@@H](O[C@@]2(CO)O[C@H](CO)[C@@H](O)[C@@H]2O)[C@H](O)[C@@H](O)[C@H]1O
REMARK SMILES IDX 6 1 5 2 3 3 22 4 4 5 20 6 18 7 2 8 1 9 23 11 21 13 19 15
REMARK SMILES IDX 7 17 16 18 10 19 14 20 11 21 8 22 9 23 17 25 15 27 12 29
REMARK SMILES IDX 13 30
REMARK H PARENT 1 10 23 12 21 14 19 16 9 24 17 26 15 28 13 31
REMARK Flexibility Score: inf
ROOT
ATOM      1  O   UNL     1       9.233   2.438  23.495  1.00  0.00    -0.313 OA
ENDROOT
BRANCH   1   2
ATOM      2  C   UNL     1      10.201   1.395  23.590  1.00  0.00     0.285 C 
ATOM      3  C   UNL     1       8.921  -0.035  22.226  1.00  0.00     0.178 C 
ATOM      4  C   UNL     1       8.601  -1.016  23.380  1.00  0.00     0.177 C 
ATOM      5  O   UNL     1      10.184   0.578  22.429  1.00  0.00    -0.341 OA
ATOM      6  C   UNL     1       8.688  -0.307  24.752  1.00  0.00     0.179 C 
ATOM      7  C   UNL     1       9.963   0.555  24.862  1.00  0.00     0.202 C 
BRANCH   3   8
ATOM      8  C   UNL     1       8.971  -0.767  20.876  1.00  0.00     0.191 C 
BRANCH   8   9
ATOM      9  O   UNL     1       8.921   0.150  19.819  1.00  0.00    -0.394 OA
ATOM     10  H   UNL     1       8.932  -0.389  18.985  1.00  0.00     0.210 HD
ENDBRANCH   8   9
ENDBRANCH   3   8
BRANCH   4  11
ATOM     11  O   UNL     1       7.320  -1.567  23.209  1.00  0.00    -0.387 OA
ATOM     12  H   UNL     1       6.711  -1.071  23.817  1.00  0.00     0.211 HD
ENDBRANCH   4  11
BRANCH   6  13
ATOM     13  O   UNL     1       7.535   0.448  25.042  1.00  0.00    -0.387 OA
ATOM     14  H   UNL     1       6.793  -0.172  25.251  1.00  0.00     0.211 HD
ENDBRANCH   6  13
BRANCH   7  15
ATOM     15  O   UNL     1      11.079  -0.277  25.064  1.00  0.00    -0.385 OA
ATOM     16  H   UNL     1      11.308  -0.222  26.029  1.00  0.00     0.211 HD
ENDBRANCH   7  15
ENDBRANCH   1   2
BRANCH   1  17
ATOM     17  C   UNL     1       9.755   3.710  23.119  1.00  0.00     0.224 C 
ATOM     18  C   UNL     1      11.286   3.790  23.357  1.00  0.00     0.208 C 
ATOM     19  O   UNL     1       9.145   4.667  23.968  1.00  0.00    -0.337 OA
ATOM     20  C   UNL     1      11.470   5.147  23.978  1.00  0.00     0.180 C 
ATOM     21  C   UNL     1      10.147   5.341  24.694  1.00  0.00     0.179 C 
BRANCH  17  22
ATOM     22  C   UNL     1       9.350   4.093  21.669  1.00  0.00     0.225 C 
BRANCH  22  23
ATOM     23  O   UNL     1       9.394   2.969  20.829  1.00  0.00    -0.391 OA
ATOM     24  H   UNL     1       8.519   2.512  20.915  1.00  0.00     0.210 HD
ENDBRANCH  22  23
ENDBRANCH  17  22
BRANCH  18  25
ATOM     25  O   UNL     1      12.029   3.677  22.168  1.00  0.00    -0.385 OA
ATOM     26  H   UNL     1      11.403   3.876  21.424  1.00  0.00     0.211 HD
ENDBRANCH  18  25
BRANCH  20  27
ATOM     27  O   UNL     1      12.538   5.158  24.891  1.00  0.00    -0.387 OA
ATOM     28  H   UNL     1      13.343   5.428  24.378  1.00  0.00     0.211 HD
ENDBRANCH  20  27
BRANCH  21  29
ATOM     29  C   UNL     1       9.786   6.825  24.832  1.00  0.00     0.191 C 
BRANCH  29  30
ATOM     30  O   UNL     1      10.758   7.622  24.215  1.00  0.00    -0.394 OA
ATOM     31  H   UNL     1      10.291   8.153  23.518  1.00  0.00     0.210 HD
ENDBRANCH  29  30
ENDBRANCH  21  29
ENDBRANCH   1  17
TORSDOF 13
ENDMDL
MODEL 7
REMARK VINA RESULT:    -5.659      1.583      6.273
REMARK INTER + INTRA:         -10.055
REMARK INTER:                  -9.052
REMARK INTRA:                  -1.002
REMARK UNBOUND:                -1.418
REMARK SMILES OC[C@@H]1O[C@@H](O[C@@]2(CO)O[C@H](CO)[C@@H](O)[C@@H]2O)[C@H](O)[C@@H](O)[C@H]1O
REMARK SMILES IDX 6 1 5 2 3 3 22 4 4 5 20 6 18 7 2 8 1 9 23 11 21 13 19 15
REMARK SMILES IDX 7 17 16 18 10 19 14 20 11 21 8 22 9 23 17 25 15 27 12 29
REMARK SMILES IDX 13 30
REMARK H PARENT 1 10 23 12 21 14 19 16 9 24 17 26 15 28 13 31
REMARK Flexibility Score: inf
ROOT
ATOM      1  O   UNL     1       8.774   7.900  32.383  1.00  0.00    -0.313 OA
ENDROOT
BRANCH   1   2
ATOM      2  C   UNL     1       9.272   8.619  33.510  1.00  0.00     0.285 C 
ATOM      3  C   UNL     1       8.345  10.641  32.740  1.00  0.00     0.178 C 
ATOM      4  C   UNL     1       9.725  11.282  32.453  1.00  0.00     0.177 C 
ATOM      5  O   UNL     1       8.436   9.724  33.818  1.00  0.00    -0.341 OA
ATOM      6  C   UNL     1      10.800  10.198  32.204  1.00  0.00     0.179 C 
ATOM      7  C   UNL     1      10.723   9.075  33.260  1.00  0.00     0.202 C 
BRANCH   3   8
ATOM      8  C   UNL     1       7.309  11.709  33.123  1.00  0.00     0.191 C 
BRANCH   8   9
ATOM      9  O   UNL     1       6.611  12.144  31.989  1.00  0.00    -0.394 OA
ATOM     10  H   UNL     1       6.238  13.034  32.219  1.00  0.00     0.210 HD
ENDBRANCH   8   9
ENDBRANCH   3   8
BRANCH   4  11
ATOM     11  O   UNL     1       9.643  12.136  31.340  1.00  0.00    -0.387 OA
ATOM     12  H   UNL     1       9.812  13.056  31.673  1.00  0.00     0.211 HD
ENDBRANCH   4  11
BRANCH   6  13
ATOM     13  O   UNL     1      10.745   9.674  30.897  1.00  0.00    -0.387 OA
ATOM     14  H   UNL     1      11.643   9.342  30.650  1.00  0.00     0.211 HD
ENDBRANCH   6  13
BRANCH   7  15
ATOM     15  O   UNL     1      11.266   9.532  34.474  1.00  0.00    -0.385 OA
ATOM     16  H   UNL     1      11.122  10.513  34.503  1.00  0.00     0.211 HD
ENDBRANCH   7  15
ENDBRANCH   1   2
BRANCH   1  17
ATOM     17  C   UNL     1       7.995   6.749  32.700  1.00  0.00     0.224 C 
ATOM     18  C   UNL     1       8.838   5.680  33.446  1.00  0.00     0.208 C 
ATOM     19  O   UNL     1       7.588   6.181  31.466  1.00  0.00    -0.337 OA
ATOM     20  C   UNL     1       8.430   4.393  32.783  1.00  0.00     0.180 C 
ATOM     21  C   UNL     1       8.081   4.864  31.384  1.00  0.00     0.179 C 
BRANCH  17  22
ATOM     22  C   UNL     1       6.692   7.126  33.456  1.00  0.00     0.225 C 
BRANCH  22  23
ATOM     23  O   UNL     1       6.014   8.159  32.791  1.00  0.00    -0.391 OA
ATOM     24  H   UNL     1       6.700   8.686  32.306  1.00  0.00     0.210 HD
ENDBRANCH  22  23
ENDBRANCH  17  22
BRANCH  18  25
ATOM     25  O   UNL     1       8.568   5.641  34.825  1.00  0.00    -0.385 OA
ATOM     26  H   UNL     1       8.869   4.751  35.148  1.00  0.00     0.211 HD
ENDBRANCH  18  25
BRANCH  20  27
ATOM     27  O   UNL     1       9.487   3.470  32.750  1.00  0.00    -0.387 OA
ATOM     28  H   UNL     1      10.193   3.829  33.348  1.00  0.00     0.211 HD
ENDBRANCH  20  27
BRANCH  21  29
ATOM     29  C   UNL     1       7.039   3.956  30.720  1.00  0.00     0.191 C 
BRANCH  29  30
ATOM     30  O   UNL     1       7.619   2.735  30.352  1.00  0.00    -0.394 OA
ATOM     31  H   UNL     1       6.958   2.027  30.571  1.00  0.00     0.210 HD
ENDBRANCH  29  30
ENDBRANCH  21  29
ENDBRANCH   1  17
TORSDOF 13
ENDMDL
MODEL 8
REMARK VINA RESULT:    -5.612      1.758      6.243
REMARK INTER + INTRA:          -9.982
REMARK INTER:                  -8.807
REMARK INTRA:                  -1.175
REMARK UNBOUND:                -1.418
REMARK SMILES OC[C@@H]1O[C@@H](O[C@@]2(CO)O[C@H](CO)[C@@H](O)[C@@H]2O)[C@H](O)[C@@H](O)[C@H]1O
REMARK SMILES IDX 6 1 5 2 3 3 22 4 4 5 20 6 18 7 2 8 1 9 23 11 21 13 19 15
REMARK SMILES IDX 7 17 16 18 10 19 14 20 11 21 8 22 9 23 17 25 15 27 12 29
REMARK SMILES IDX 13 30
REMARK H PARENT 1 10 23 12 21 14 19 16 9 24 17 26 15 28 13 31
REMARK Flexibility Score: inf
ROOT
ATOM      1  O   UNL     1       9.656   8.294  34.077  1.00  0.00    -0.313 OA
ENDROOT
BRANCH   1   2
ATOM      2  C   UNL     1      10.364   8.883  32.988  1.00  0.00     0.285 C 
ATOM      3  C   UNL     1      11.380  10.473  34.395  1.00  0.00     0.178 C 
ATOM      4  C   UNL     1      10.605  11.663  33.779  1.00  0.00     0.177 C 
ATOM      5  O   UNL     1      11.586   9.457  33.427  1.00  0.00    -0.341 OA
ATOM      6  C   UNL     1       9.277  11.191  33.142  1.00  0.00     0.179 C 
ATOM      7  C   UNL     1       9.483   9.930  32.277  1.00  0.00     0.202 C 
BRANCH   3   8
ATOM      8  C   UNL     1      12.760  10.917  34.905  1.00  0.00     0.191 C 
BRANCH   8   9
ATOM      9  O   UNL     1      13.157  12.102  34.274  1.00  0.00    -0.394 OA
ATOM     10  H   UNL     1      12.477  12.784  34.515  1.00  0.00     0.210 HD
ENDBRANCH   8   9
ENDBRANCH   3   8
BRANCH   4  11
ATOM     11  O   UNL     1      10.345  12.634  34.760  1.00  0.00    -0.387 OA
ATOM     12  H   UNL     1      10.777  12.318  35.597  1.00  0.00     0.211 HD
ENDBRANCH   4  11
BRANCH   6  13
ATOM     13  O   UNL     1       8.261  10.994  34.098  1.00  0.00    -0.387 OA
ATOM     14  H   UNL     1       7.387  11.189  33.677  1.00  0.00     0.211 HD
ENDBRANCH   6  13
BRANCH   7  15
ATOM     15  O   UNL     1      10.100  10.285  31.064  1.00  0.00    -0.385 OA
ATOM     16  H   UNL     1       9.812  11.212  30.855  1.00  0.00     0.211 HD
ENDBRANCH   7  15
ENDBRANCH   1   2
BRANCH   1  17
ATOM     17  C   UNL     1       8.888   7.140  33.742  1.00  0.00     0.224 C 
ATOM     18  C   UNL     1       7.389   7.492  33.547  1.00  0.00     0.208 C 
ATOM     19  O   UNL     1       8.975   6.257  34.847  1.00  0.00    -0.337 OA
ATOM     20  C   UNL     1       6.677   6.380  34.266  1.00  0.00     0.180 C 
ATOM     21  C   UNL     1       7.680   6.016  35.344  1.00  0.00     0.179 C 
BRANCH  17  22
ATOM     22  C   UNL     1       9.491   6.380  32.528  1.00  0.00     0.225 C 
BRANCH  22  23
ATOM     23  O   UNL     1       9.745   5.040  32.860  1.00  0.00    -0.391 OA
ATOM     24  H   UNL     1       9.333   4.485  32.149  1.00  0.00     0.210 HD
ENDBRANCH  22  23
ENDBRANCH  17  22
BRANCH  18  25
ATOM     25  O   UNL     1       7.012   7.538  32.193  1.00  0.00    -0.385 OA
ATOM     26  H   UNL     1       6.021   7.475  32.173  1.00  0.00     0.211 HD
ENDBRANCH  18  25
BRANCH  20  27
ATOM     27  O   UNL     1       5.470   6.820  34.834  1.00  0.00    -0.387 OA
ATOM     28  H   UNL     1       4.750   6.561  34.202  1.00  0.00     0.211 HD
ENDBRANCH  20  27
BRANCH  21  29
ATOM     29  C   UNL     1       7.548   4.550  35.774  1.00  0.00     0.191 C 
BRANCH  29  30
ATOM     30  O   UNL     1       7.884   3.699  34.712  1.00  0.00    -0.394 OA
ATOM     31  H   UNL     1       8.483   3.001  35.086  1.00  0.00     0.210 HD
ENDBRANCH  29  30
ENDBRANCH  21  29
ENDBRANCH   1  17
TORSDOF 13
ENDMDL
MODEL 9
REMARK VINA RESULT:    -5.565      1.420      2.560
REMARK INTER + INTRA:          -9.910
REMARK INTER:                  -8.943
REMARK INTRA:                  -0.967
REMARK UNBOUND:                -1.418
REMARK SMILES OC[C@@H]1O[C@@H](O[C@@]2(CO)O[C@H](CO)[C@@H](O)[C@@H]2O)[C@H](O)[C@@H](O)[C@H]1O
REMARK SMILES IDX 6 1 5 2 3 3 22 4 4 5 20 6 18 7 2 8 1 9 23 11 21 13 19 15
REMARK SMILES IDX 7 17 16 18 10 19 14 20 11 21 8 22 9 23 17 25 15 27 12 29
REMARK SMILES IDX 13 30
REMARK H PARENT 1 10 23 12 21 14 19 16 9 24 17 26 15 28 13 31
REMARK Flexibility Score: inf
ROOT
ATOM      1  O   UNL     1       7.950   7.829  33.234  1.00  0.00    -0.313 OA
ENDROOT
BRANCH   1   2
ATOM      2  C   UNL     1       8.823   6.965  33.960  1.00  0.00     0.285 C 
ATOM      3  C   UNL     1       7.796   5.040  33.075  1.00  0.00     0.178 C 
ATOM      4  C   UNL     1       7.189   4.616  34.434  1.00  0.00     0.177 C 
ATOM      5  O   UNL     1       9.015   5.740  33.270  1.00  0.00    -0.341 OA
ATOM      6  C   UNL     1       7.015   5.835  35.370  1.00  0.00     0.179 C 
ATOM      7  C   UNL     1       8.278   6.721  35.382  1.00  0.00     0.202 C 
BRANCH   3   8
ATOM      8  C   UNL     1       8.098   3.816  32.198  1.00  0.00     0.191 C 
BRANCH   8   9
ATOM      9  O   UNL     1       6.978   3.477  31.428  1.00  0.00    -0.394 OA
ATOM     10  H   UNL     1       6.426   4.299  31.366  1.00  0.00     0.210 HD
ENDBRANCH   8   9
ENDBRANCH   3   8
BRANCH   4  11
ATOM     11  O   UNL     1       5.949   3.985  34.237  1.00  0.00    -0.387 OA
ATOM     12  H   UNL     1       5.783   3.981  33.257  1.00  0.00     0.211 HD
ENDBRANCH   4  11
BRANCH   6  13
ATOM     13  O   UNL     1       5.865   6.588  35.065  1.00  0.00    -0.387 OA
ATOM     14  H   UNL     1       5.298   6.066  34.444  1.00  0.00     0.211 HD
ENDBRANCH   6  13
BRANCH   7  15
ATOM     15  O   UNL     1       9.282   6.102  36.147  1.00  0.00    -0.385 OA
ATOM     16  H   UNL     1       9.761   5.476  35.543  1.00  0.00     0.211 HD
ENDBRANCH   7  15
ENDBRANCH   1   2
BRANCH   1  17
ATOM     17  C   UNL     1       8.600   8.865  32.503  1.00  0.00     0.224 C 
ATOM     18  C   UNL     1       9.747   9.509  33.327  1.00  0.00     0.208 C 
ATOM     19  O   UNL     1       7.629   9.872  32.272  1.00  0.00    -0.337 OA
ATOM     20  C   UNL     1       9.567  10.981  33.080  1.00  0.00     0.180 C 
ATOM     21  C   UNL     1       8.069  11.076  32.857  1.00  0.00     0.179 C 
BRANCH  17  22
ATOM     22  C   UNL     1       9.064   8.378  31.103  1.00  0.00     0.225 C 
BRANCH  22  23
ATOM     23  O   UNL     1       8.211   7.373  30.621  1.00  0.00    -0.391 OA
ATOM     24  H   UNL     1       8.790   6.638  30.294  1.00  0.00     0.210 HD
ENDBRANCH  22  23
ENDBRANCH  17  22
BRANCH  18  25
ATOM     25  O   UNL     1      11.021   9.083  32.911  1.00  0.00    -0.385 OA
ATOM     26  H   UNL     1      11.663   9.389  33.604  1.00  0.00     0.211 HD
ENDBRANCH  18  25
BRANCH  20  27
ATOM     27  O   UNL     1       9.954  11.744  34.193  1.00  0.00    -0.387 OA
ATOM     28  H   UNL     1       9.219  12.389  34.363  1.00  0.00     0.211 HD
ENDBRANCH  20  27
BRANCH  21  29
ATOM     29  C   UNL     1       7.701  12.260  31.955  1.00  0.00     0.191 C 
BRANCH  29  30
ATOM     30  O   UNL     1       7.181  11.803  30.738  1.00  0.00    -0.394 OA
ATOM     31  H   UNL     1       7.190  10.811  30.779  1.00  0.00     0.210 HD
ENDBRANCH  29  30
ENDBRANCH  21  29
ENDBRANCH   1  17
TORSDOF 13
ENDMDL
