MODEL 1
REMARK VINA RESULT:    -6.700      0.000      0.000
REMARK INTER + INTRA:         -10.173
REMARK INTER:                  -9.245
REMARK INTRA:                  -0.927
REMARK UNBOUND:                -0.927
REMARK SMILES C=C(CC[C@@H](C(=O)[O-])[C@H]1CC[C@@]2(C)C3=C(CC[C@@]12C)[C@@]1(C)CC[C@@H](O)C(C)(C)[C@H]1CC3)C(C)C
REMARK SMILES IDX 4 1 5 2 6 3 7 4 8 5 9 6 10 7 18 8 11 9 12 10 17 11 19 12
REMARK SMILES IDX 13 13 14 14 16 15 15 16 31 17 20 18 30 19 29 20 22 21 21 22
REMARK SMILES IDX 26 23 23 24 24 25 27 26 28 27 25 28 3 30 2 31 1 32 32 33
REMARK SMILES IDX 33 34 34 35
REMARK H PARENT 25 29
REMARK Flexibility Score: inf
ROOT
ATOM      1  C   UNL     1      13.561  23.352  14.246  1.00  0.00     0.014 C 
ENDROOT
BRANCH   1   2
ATOM      2  C   UNL     1      12.621  22.984  15.431  1.00  0.00     0.039 C 
BRANCH   2   3
ATOM      3  C   UNL     1      11.688  24.111  15.810  1.00  0.00     0.045 C 
ATOM      4  O   UNL     1      11.611  24.526  16.994  1.00  0.00    -0.550 OA
ATOM      5  O   UNL     1      10.871  24.682  14.844  1.00  0.00    -0.550 OA
ENDBRANCH   2   3
BRANCH   2   6
ATOM      6  C   UNL     1      11.948  21.566  15.269  1.00  0.00     0.004 C 
ATOM      7  C   UNL     1      11.429  21.317  13.847  1.00  0.00     0.006 C 
ATOM      8  C   UNL     1      12.646  20.224  15.704  1.00  0.00    -0.020 C 
ATOM      9  C   UNL     1      11.379  19.805  13.644  1.00  0.00     0.012 C 
ATOM     10  C   UNL     1      11.765  19.134  14.984  1.00  0.00    -0.006 C 
ATOM     11  C   UNL     1      14.093  20.114  15.177  1.00  0.00     0.012 C 
ATOM     12  C   UNL     1      12.661  20.067  17.250  1.00  0.00     0.012 C 
ATOM     13  C   UNL     1      10.462  18.834  15.796  1.00  0.00     0.017 C 
ATOM     14  C   UNL     1      12.480  17.795  14.691  1.00  0.00    -0.064 C 
ATOM     15  C   UNL     1      14.687  18.728  15.393  1.00  0.00     0.032 C 
ATOM     16  C   UNL     1      13.818  17.595  14.869  1.00  0.00    -0.064 C 
ATOM     17  C   UNL     1      11.649  16.676  14.108  1.00  0.00     0.032 C 
ATOM     18  C   UNL     1      14.425  16.157  14.781  1.00  0.00    -0.008 C 
ATOM     19  C   UNL     1      12.451  15.898  13.079  1.00  0.00     0.009 C 
ATOM     20  C   UNL     1      13.689  15.224  13.715  1.00  0.00     0.007 C 
ATOM     21  C   UNL     1      14.319  15.552  16.204  1.00  0.00     0.014 C 
ATOM     22  C   UNL     1      15.932  16.253  14.395  1.00  0.00     0.016 C 
ATOM     23  C   UNL     1      13.448  13.709  14.152  1.00  0.00    -0.006 C 
ATOM     24  C   UNL     1      14.816  14.100  16.324  1.00  0.00     0.033 C 
ATOM     25  C   UNL     1      14.617  13.229  15.064  1.00  0.00     0.120 C 
ATOM     26  C   UNL     1      12.091  13.461  14.871  1.00  0.00     0.014 C 
ATOM     27  C   UNL     1      13.452  12.811  12.881  1.00  0.00     0.014 C 
BRANCH  25  28
ATOM     28  O   UNL     1      14.422  11.891  15.459  1.00  0.00    -0.393 OA
ATOM     29  H   UNL     1      15.301  11.437  15.415  1.00  0.00     0.210 HD
ENDBRANCH  25  28
ENDBRANCH   2   6
ENDBRANCH   1   2
BRANCH   1  30
ATOM     30  C   UNL     1      14.874  24.001  14.734  1.00  0.00     0.031 C 
BRANCH  30  31
ATOM     31  C   UNL     1      14.950  25.468  14.356  1.00  0.00    -0.075 C 
ATOM     32  C   UNL     1      14.051  25.961  13.485  1.00  0.00     0.008 C 
BRANCH  31  33
ATOM     33  C   UNL     1      16.042  26.391  14.893  1.00  0.00     0.008 C 
ATOM     34  C   UNL     1      15.580  27.849  15.047  1.00  0.00     0.012 C 
ATOM     35  C   UNL     1      16.598  25.854  16.219  1.00  0.00     0.012 C 
ENDBRANCH  31  33
ENDBRANCH  30  31
ENDBRANCH   1  30
TORSDOF 7
ENDMDL
MODEL 2
REMARK VINA RESULT:    -6.456      4.791      7.337
REMARK INTER + INTRA:          -9.836
REMARK INTER:                  -8.340
REMARK INTRA:                  -1.496
REMARK UNBOUND:                -0.927
REMARK SMILES C=C(CC[C@@H](C(=O)[O-])[C@H]1CC[C@@]2(C)C3=C(CC[C@@]12C)[C@@]1(C)CC[C@@H](O)C(C)(C)[C@H]1CC3)C(C)C
REMARK SMILES IDX 4 1 5 2 6 3 7 4 8 5 9 6 10 7 18 8 11 9 12 10 17 11 19 12
REMARK SMILES IDX 13 13 14 14 16 15 15 16 31 17 20 18 30 19 29 20 22 21 21 22
REMARK SMILES IDX 26 23 23 24 24 25 27 26 28 27 25 28 3 30 2 31 1 32 32 33
REMARK SMILES IDX 33 34 34 35
REMARK H PARENT 25 29
REMARK Flexibility Score: inf
ROOT
ATOM      1  C   UNL     1       4.757  19.348  13.863  1.00  0.00     0.014 C 
ENDROOT
BRANCH   1   2
ATOM      2  C   UNL     1       5.073  18.104  14.744  1.00  0.00     0.039 C 
BRANCH   2   3
ATOM      3  C   UNL     1       3.897  17.162  14.872  1.00  0.00     0.045 C 
ATOM      4  O   UNL     1       2.718  17.594  14.924  1.00  0.00    -0.550 OA
ATOM      5  O   UNL     1       4.118  15.795  14.970  1.00  0.00    -0.550 OA
ENDBRANCH   2   3
BRANCH   2   6
ATOM      6  C   UNL     1       6.453  17.428  14.388  1.00  0.00     0.004 C 
ATOM      7  C   UNL     1       6.876  17.679  12.935  1.00  0.00     0.006 C 
ATOM      8  C   UNL     1       7.758  17.624  15.247  1.00  0.00    -0.020 C 
ATOM      9  C   UNL     1       8.396  17.540  12.878  1.00  0.00     0.012 C 
ATOM     10  C   UNL     1       8.883  17.098  14.278  1.00  0.00    -0.006 C 
ATOM     11  C   UNL     1       8.037  19.109  15.566  1.00  0.00     0.012 C 
ATOM     12  C   UNL     1       7.685  16.828  16.580  1.00  0.00     0.012 C 
ATOM     13  C   UNL     1       8.977  15.537  14.314  1.00  0.00     0.017 C 
ATOM     14  C   UNL     1      10.295  17.679  14.528  1.00  0.00    -0.064 C 
ATOM     15  C   UNL     1       9.411  19.321  16.189  1.00  0.00     0.032 C 
ATOM     16  C   UNL     1      10.551  18.700  15.396  1.00  0.00    -0.064 C 
ATOM     17  C   UNL     1      11.433  17.122  13.704  1.00  0.00     0.032 C 
ATOM     18  C   UNL     1      12.022  19.072  15.774  1.00  0.00    -0.008 C 
ATOM     19  C   UNL     1      12.404  18.227  13.324  1.00  0.00     0.009 C 
ATOM     20  C   UNL     1      13.053  18.867  14.572  1.00  0.00     0.007 C 
ATOM     21  C   UNL     1      12.402  18.178  16.980  1.00  0.00     0.014 C 
ATOM     22  C   UNL     1      12.081  20.563  16.224  1.00  0.00     0.016 C 
ATOM     23  C   UNL     1      14.468  18.241  14.958  1.00  0.00    -0.006 C 
ATOM     24  C   UNL     1      13.849  18.348  17.478  1.00  0.00     0.033 C 
ATOM     25  C   UNL     1      14.882  18.706  16.387  1.00  0.00     0.120 C 
ATOM     26  C   UNL     1      14.521  16.688  14.882  1.00  0.00     0.014 C 
ATOM     27  C   UNL     1      15.543  18.773  13.966  1.00  0.00     0.014 C 
BRANCH  25  28
ATOM     28  O   UNL     1      16.132  18.164  16.745  1.00  0.00    -0.393 OA
ATOM     29  H   UNL     1      16.583  17.879  15.910  1.00  0.00     0.210 HD
ENDBRANCH  25  28
ENDBRANCH   2   6
ENDBRANCH   1   2
BRANCH   1  30
ATOM     30  C   UNL     1       4.804  20.658  14.678  1.00  0.00     0.031 C 
BRANCH  30  31
ATOM     31  C   UNL     1       5.435  21.789  13.887  1.00  0.00    -0.075 C 
ATOM     32  C   UNL     1       6.658  21.607  13.357  1.00  0.00     0.008 C 
BRANCH  31  33
ATOM     33  C   UNL     1       4.748  23.142  13.714  1.00  0.00     0.008 C 
ATOM     34  C   UNL     1       3.359  23.036  13.063  1.00  0.00     0.012 C 
ATOM     35  C   UNL     1       4.663  23.879  15.057  1.00  0.00     0.012 C 
ENDBRANCH  31  33
ENDBRANCH  30  31
ENDBRANCH   1  30
TORSDOF 7
ENDMDL
MODEL 3
REMARK VINA RESULT:    -6.096      6.544     10.356
REMARK INTER + INTRA:          -9.340
REMARK INTER:                  -8.803
REMARK INTRA:                  -0.537
REMARK UNBOUND:                -0.927
REMARK SMILES C=C(CC[C@@H](C(=O)[O-])[C@H]1CC[C@@]2(C)C3=C(CC[C@@]12C)[C@@]1(C)CC[C@@H](O)C(C)(C)[C@H]1CC3)C(C)C
REMARK SMILES IDX 4 1 5 2 6 3 7 4 8 5 9 6 10 7 18 8 11 9 12 10 17 11 19 12
REMARK SMILES IDX 13 13 14 14 16 15 15 16 31 17 20 18 30 19 29 20 22 21 21 22
REMARK SMILES IDX 26 23 23 24 24 25 27 26 28 27 25 28 3 30 2 31 1 32 32 33
REMARK SMILES IDX 33 34 34 35
REMARK H PARENT 25 29
REMARK Flexibility Score: inf
ROOT
ATOM      1  C   UNL     1       6.116  27.238  16.073  1.00  0.00     0.014 C 
ENDROOT
BRANCH   1   2
ATOM      2  C   UNL     1       6.254  28.291  14.935  1.00  0.00     0.039 C 
BRANCH   2   3
ATOM      3  C   UNL     1       5.359  29.493  15.137  1.00  0.00     0.045 C 
ATOM      4  O   UNL     1       4.717  29.997  14.181  1.00  0.00    -0.550 OA
ATOM      5  O   UNL     1       5.265  30.077  16.393  1.00  0.00    -0.550 OA
ENDBRANCH   2   3
BRANCH   2   6
ATOM      6  C   UNL     1       7.754  28.612  14.567  1.00  0.00     0.004 C 
ATOM      7  C   UNL     1       8.415  29.569  15.567  1.00  0.00     0.006 C 
ATOM      8  C   UNL     1       8.829  27.500  14.275  1.00  0.00    -0.020 C 
ATOM      9  C   UNL     1       9.922  29.330  15.490  1.00  0.00     0.012 C 
ATOM     10  C   UNL     1      10.181  28.303  14.363  1.00  0.00    -0.006 C 
ATOM     11  C   UNL     1       8.842  26.393  15.352  1.00  0.00     0.012 C 
ATOM     12  C   UNL     1       8.603  26.844  12.883  1.00  0.00     0.012 C 
ATOM     13  C   UNL     1      10.471  29.071  13.032  1.00  0.00     0.017 C 
ATOM     14  C   UNL     1      11.427  27.461  14.724  1.00  0.00    -0.064 C 
ATOM     15  C   UNL     1      10.027  25.449  15.201  1.00  0.00     0.032 C 
ATOM     16  C   UNL     1      11.371  26.154  15.115  1.00  0.00    -0.064 C 
ATOM     17  C   UNL     1      12.767  28.158  14.708  1.00  0.00     0.032 C 
ATOM     18  C   UNL     1      12.678  25.304  15.231  1.00  0.00    -0.008 C 
ATOM     19  C   UNL     1      13.639  27.661  15.848  1.00  0.00     0.009 C 
ATOM     20  C   UNL     1      13.942  26.151  15.715  1.00  0.00     0.007 C 
ATOM     21  C   UNL     1      12.930  24.696  13.828  1.00  0.00     0.014 C 
ATOM     22  C   UNL     1      12.451  24.139  16.242  1.00  0.00     0.016 C 
ATOM     23  C   UNL     1      15.325  25.831  14.987  1.00  0.00    -0.006 C 
ATOM     24  C   UNL     1      14.217  23.860  13.711  1.00  0.00     0.033 C 
ATOM     25  C   UNL     1      15.386  24.321  14.608  1.00  0.00     0.120 C 
ATOM     26  C   UNL     1      15.596  26.696  13.723  1.00  0.00     0.014 C 
ATOM     27  C   UNL     1      16.492  26.109  15.978  1.00  0.00     0.014 C 
BRANCH  25  28
ATOM     28  O   UNL     1      16.603  24.018  13.965  1.00  0.00    -0.393 OA
ATOM     29  H   UNL     1      16.901  24.835  13.492  1.00  0.00     0.210 HD
ENDBRANCH  25  28
ENDBRANCH   2   6
ENDBRANCH   1   2
BRANCH   1  30
ATOM     30  C   UNL     1       4.688  26.657  16.150  1.00  0.00     0.031 C 
BRANCH  30  31
ATOM     31  C   UNL     1       4.601  25.289  15.501  1.00  0.00    -0.075 C 
ATOM     32  C   UNL     1       5.467  24.981  14.519  1.00  0.00     0.008 C 
BRANCH  31  33
ATOM     33  C   UNL     1       3.535  24.269  15.893  1.00  0.00     0.008 C 
ATOM     34  C   UNL     1       4.054  22.822  15.900  1.00  0.00     0.012 C 
ATOM     35  C   UNL     1       2.916  24.630  17.250  1.00  0.00     0.012 C 
ENDBRANCH  31  33
ENDBRANCH  30  31
ENDBRANCH   1  30
TORSDOF 7
ENDMDL
MODEL 4
REMARK VINA RESULT:    -5.495      1.973      9.001
REMARK INTER + INTRA:          -8.510
REMARK INTER:                  -7.212
REMARK INTRA:                  -1.298
REMARK UNBOUND:                -0.927
REMARK SMILES C=C(CC[C@@H](C(=O)[O-])[C@H]1CC[C@@]2(C)C3=C(CC[C@@]12C)[C@@]1(C)CC[C@@H](O)C(C)(C)[C@H]1CC3)C(C)C
REMARK SMILES IDX 4 1 5 2 6 3 7 4 8 5 9 6 10 7 18 8 11 9 12 10 17 11 19 12
REMARK SMILES IDX 13 13 14 14 16 15 15 16 31 17 20 18 30 19 29 20 22 21 21 22
REMARK SMILES IDX 26 23 23 24 24 25 27 26 28 27 25 28 3 30 2 31 1 32 32 33
REMARK SMILES IDX 33 34 34 35
REMARK H PARENT 25 29
REMARK Flexibility Score: inf
ROOT
ATOM      1  C   UNL     1      11.064  16.925  13.292  1.00  0.00     0.014 C 
ENDROOT
BRANCH   1   2
ATOM      2  C   UNL     1      12.097  16.537  14.391  1.00  0.00     0.039 C 
BRANCH   2   3
ATOM      3  C   UNL     1      12.861  15.276  14.057  1.00  0.00     0.045 C 
ATOM      4  O   UNL     1      12.867  14.804  12.892  1.00  0.00    -0.550 OA
ATOM      5  O   UNL     1      13.545  14.600  15.059  1.00  0.00    -0.550 OA
ENDBRANCH   2   3
BRANCH   2   6
ATOM      6  C   UNL     1      12.972  17.757  14.876  1.00  0.00     0.004 C 
ATOM      7  C   UNL     1      14.195  17.999  13.982  1.00  0.00     0.006 C 
ATOM      8  C   UNL     1      12.377  19.183  15.171  1.00  0.00    -0.020 C 
ATOM      9  C   UNL     1      14.587  19.465  14.144  1.00  0.00     0.012 C 
ATOM     10  C   UNL     1      13.667  20.086  15.221  1.00  0.00    -0.006 C 
ATOM     11  C   UNL     1      11.465  19.690  14.032  1.00  0.00     0.012 C 
ATOM     12  C   UNL     1      11.574  19.199  16.502  1.00  0.00     0.012 C 
ATOM     13  C   UNL     1      14.374  19.986  16.613  1.00  0.00     0.017 C 
ATOM     14  C   UNL     1      13.441  21.580  14.893  1.00  0.00    -0.064 C 
ATOM     15  C   UNL     1      11.079  21.154  14.203  1.00  0.00     0.032 C 
ATOM     16  C   UNL     1      12.263  22.083  14.421  1.00  0.00    -0.064 C 
ATOM     17  C   UNL     1      14.622  22.511  15.040  1.00  0.00     0.032 C 
ATOM     18  C   UNL     1      12.035  23.627  14.340  1.00  0.00    -0.008 C 
ATOM     19  C   UNL     1      14.621  23.551  13.932  1.00  0.00     0.009 C 
ATOM     20  C   UNL     1      13.361  24.445  13.993  1.00  0.00     0.007 C 
ATOM     21  C   UNL     1      11.470  24.058  15.717  1.00  0.00     0.014 C 
ATOM     22  C   UNL     1      10.966  23.937  13.248  1.00  0.00     0.016 C 
ATOM     23  C   UNL     1      13.576  25.810  14.790  1.00  0.00    -0.006 C 
ATOM     24  C   UNL     1      11.226  25.570  15.869  1.00  0.00     0.033 C 
ATOM     25  C   UNL     1      12.198  26.476  15.081  1.00  0.00     0.120 C 
ATOM     26  C   UNL     1      14.369  25.655  16.120  1.00  0.00     0.014 C 
ATOM     27  C   UNL     1      14.389  26.793  13.898  1.00  0.00     0.014 C 
BRANCH  25  28
ATOM     28  O   UNL     1      12.367  27.685  15.783  1.00  0.00    -0.393 OA
ATOM     29  H   UNL     1      12.522  28.399  15.114  1.00  0.00     0.210 HD
ENDBRANCH  25  28
ENDBRANCH   2   6
ENDBRANCH   1   2
BRANCH   1  30
ATOM     30  C   UNL     1       9.684  16.281  13.547  1.00  0.00     0.031 C 
BRANCH  30  31
ATOM     31  C   UNL     1       8.651  17.311  13.962  1.00  0.00    -0.075 C 
ATOM     32  C   UNL     1       7.849  17.841  13.021  1.00  0.00     0.008 C 
BRANCH  31  33
ATOM     33  C   UNL     1       8.526  17.802  15.403  1.00  0.00     0.008 C 
ATOM     34  C   UNL     1       8.060  19.263  15.505  1.00  0.00     0.012 C 
ATOM     35  C   UNL     1       7.601  16.879  16.208  1.00  0.00     0.012 C 
ENDBRANCH  31  33
ENDBRANCH  30  31
ENDBRANCH   1  30
TORSDOF 7
ENDMDL
MODEL 5
REMARK VINA RESULT:    -5.494      4.517     10.491
REMARK INTER + INTRA:          -8.508
REMARK INTER:                  -6.897
REMARK INTRA:                  -1.611
REMARK UNBOUND:                -0.927
REMARK SMILES C=C(CC[C@@H](C(=O)[O-])[C@H]1CC[C@@]2(C)C3=C(CC[C@@]12C)[C@@]1(C)CC[C@@H](O)C(C)(C)[C@H]1CC3)C(C)C
REMARK SMILES IDX 4 1 5 2 6 3 7 4 8 5 9 6 10 7 18 8 11 9 12 10 17 11 19 12
REMARK SMILES IDX 13 13 14 14 16 15 15 16 31 17 20 18 30 19 29 20 22 21 21 22
REMARK SMILES IDX 26 23 23 24 24 25 27 26 28 27 25 28 3 30 2 31 1 32 32 33
REMARK SMILES IDX 33 34 34 35
REMARK H PARENT 25 29
REMARK Flexibility Score: inf
ROOT
ATOM      1  C   UNL     1      14.210  23.486  12.878  1.00  0.00     0.014 C 
ENDROOT
BRANCH   1   2
ATOM      2  C   UNL     1      14.775  24.352  14.042  1.00  0.00     0.039 C 
BRANCH   2   3
ATOM      3  C   UNL     1      16.280  24.490  13.992  1.00  0.00     0.045 C 
ATOM      4  O   UNL     1      16.910  24.384  12.909  1.00  0.00    -0.550 OA
ATOM      5  O   UNL     1      16.991  24.705  15.164  1.00  0.00    -0.550 OA
ENDBRANCH   2   3
BRANCH   2   6
ATOM      6  C   UNL     1      13.974  25.693  14.261  1.00  0.00     0.004 C 
ATOM      7  C   UNL     1      13.845  26.521  12.975  1.00  0.00     0.006 C 
ATOM      8  C   UNL     1      12.557  25.751  14.943  1.00  0.00    -0.020 C 
ATOM      9  C   UNL     1      12.611  27.406  13.132  1.00  0.00     0.012 C 
ATOM     10  C   UNL     1      12.054  27.194  14.560  1.00  0.00    -0.006 C 
ATOM     11  C   UNL     1      11.575  24.714  14.354  1.00  0.00     0.012 C 
ATOM     12  C   UNL     1      12.657  25.532  16.479  1.00  0.00     0.012 C 
ATOM     13  C   UNL     1      12.663  28.276  15.510  1.00  0.00     0.017 C 
ATOM     14  C   UNL     1      10.518  27.373  14.534  1.00  0.00    -0.064 C 
ATOM     15  C   UNL     1      10.148  24.923  14.842  1.00  0.00     0.032 C 
ATOM     16  C   UNL     1       9.633  26.342  14.657  1.00  0.00    -0.064 C 
ATOM     17  C   UNL     1       9.984  28.764  14.287  1.00  0.00     0.032 C 
ATOM     18  C   UNL     1       8.108  26.624  14.862  1.00  0.00    -0.008 C 
ATOM     19  C   UNL     1       8.744  28.710  13.411  1.00  0.00     0.009 C 
ATOM     20  C   UNL     1       7.599  27.928  14.096  1.00  0.00     0.007 C 
ATOM     21  C   UNL     1       7.893  26.767  16.390  1.00  0.00     0.014 C 
ATOM     22  C   UNL     1       7.283  25.402  14.357  1.00  0.00     0.016 C 
ATOM     23  C   UNL     1       6.568  28.853  14.887  1.00  0.00    -0.006 C 
ATOM     24  C   UNL     1       6.451  27.108  16.807  1.00  0.00     0.033 C 
ATOM     25  C   UNL     1       5.661  27.973  15.800  1.00  0.00     0.120 C 
ATOM     26  C   UNL     1       7.236  29.970  15.739  1.00  0.00     0.014 C 
ATOM     27  C   UNL     1       5.641  29.567  13.861  1.00  0.00     0.014 C 
BRANCH  25  28
ATOM     28  O   UNL     1       4.742  28.773  16.507  1.00  0.00    -0.393 OA
ATOM     29  H   UNL     1       3.895  28.264  16.574  1.00  0.00     0.210 HD
ENDBRANCH  25  28
ENDBRANCH   2   6
ENDBRANCH   1   2
BRANCH   1  30
ATOM     30  C   UNL     1      14.331  21.976  13.174  1.00  0.00     0.031 C 
BRANCH  30  31
ATOM     31  C   UNL     1      13.226  21.493  14.094  1.00  0.00    -0.075 C 
ATOM     32  C   UNL     1      12.047  21.130  13.557  1.00  0.00     0.008 C 
BRANCH  31  33
ATOM     33  C   UNL     1      13.392  21.451  15.611  1.00  0.00     0.008 C 
ATOM     34  C   UNL     1      12.097  21.781  16.371  1.00  0.00     0.012 C 
ATOM     35  C   UNL     1      13.950  20.092  16.055  1.00  0.00     0.012 C 
ENDBRANCH  31  33
ENDBRANCH  30  31
ENDBRANCH   1  30
TORSDOF 7
ENDMDL
MODEL 6
REMARK VINA RESULT:    -5.414      3.252      9.619
REMARK INTER + INTRA:          -8.398
REMARK INTER:                  -7.582
REMARK INTRA:                  -0.816
REMARK UNBOUND:                -0.927
REMARK SMILES C=C(CC[C@@H](C(=O)[O-])[C@H]1CC[C@@]2(C)C3=C(CC[C@@]12C)[C@@]1(C)CC[C@@H](O)C(C)(C)[C@H]1CC3)C(C)C
REMARK SMILES IDX 4 1 5 2 6 3 7 4 8 5 9 6 10 7 18 8 11 9 12 10 17 11 19 12
REMARK SMILES IDX 13 13 14 14 16 15 15 16 31 17 20 18 30 19 29 20 22 21 21 22
REMARK SMILES IDX 26 23 23 24 24 25 27 26 28 27 25 28 3 30 2 31 1 32 32 33
REMARK SMILES IDX 33 34 34 35
REMARK H PARENT 25 29
REMARK Flexibility Score: inf
ROOT
ATOM      1  C   UNL     1      10.670  17.411  14.101  1.00  0.00     0.014 C 
ENDROOT
BRANCH   1   2
ATOM      2  C   UNL     1      10.503  18.858  14.649  1.00  0.00     0.039 C 
BRANCH   2   3
ATOM      3  C   UNL     1       9.526  18.940  15.799  1.00  0.00     0.045 C 
ATOM      4  O   UNL     1       8.432  19.549  15.685  1.00  0.00    -0.550 OA
ATOM      5  O   UNL     1       9.849  18.363  17.019  1.00  0.00    -0.550 OA
ENDBRANCH   2   3
BRANCH   2   6
ATOM      6  C   UNL     1      11.878  19.600  14.868  1.00  0.00     0.004 C 
ATOM      7  C   UNL     1      12.858  19.382  13.707  1.00  0.00     0.006 C 
ATOM      8  C   UNL     1      11.987  21.128  15.230  1.00  0.00    -0.020 C 
ATOM      9  C   UNL     1      13.830  20.560  13.712  1.00  0.00     0.012 C 
ATOM     10  C   UNL     1      13.505  21.437  14.945  1.00  0.00    -0.006 C 
ATOM     11  C   UNL     1      11.122  22.016  14.311  1.00  0.00     0.012 C 
ATOM     12  C   UNL     1      11.583  21.390  16.708  1.00  0.00     0.012 C 
ATOM     13  C   UNL     1      14.409  20.988  16.140  1.00  0.00     0.017 C 
ATOM     14  C   UNL     1      13.828  22.912  14.613  1.00  0.00    -0.064 C 
ATOM     15  C   UNL     1      11.404  23.501  14.503  1.00  0.00     0.032 C 
ATOM     16  C   UNL     1      12.876  23.868  14.404  1.00  0.00    -0.064 C 
ATOM     17  C   UNL     1      15.283  23.286  14.445  1.00  0.00     0.032 C 
ATOM     18  C   UNL     1      13.273  25.377  14.311  1.00  0.00    -0.008 C 
ATOM     19  C   UNL     1      15.446  24.298  13.324  1.00  0.00     0.009 C 
ATOM     20  C   UNL     1      14.699  25.615  13.635  1.00  0.00     0.007 C 
ATOM     21  C   UNL     1      13.257  25.922  15.761  1.00  0.00     0.014 C 
ATOM     22  C   UNL     1      12.200  26.146  13.481  1.00  0.00     0.016 C 
ATOM     23  C   UNL     1      15.617  26.736  14.302  1.00  0.00    -0.006 C 
ATOM     24  C   UNL     1      13.680  27.395  15.901  1.00  0.00     0.033 C 
ATOM     25  C   UNL     1      14.726  27.880  14.872  1.00  0.00     0.120 C 
ATOM     26  C   UNL     1      16.561  26.206  15.419  1.00  0.00     0.014 C 
ATOM     27  C   UNL     1      16.529  27.360  13.206  1.00  0.00     0.014 C 
BRANCH  25  28
ATOM     28  O   UNL     1      15.519  28.882  15.465  1.00  0.00    -0.393 OA
ATOM     29  H   UNL     1      16.466  28.603  15.376  1.00  0.00     0.210 HD
ENDBRANCH  25  28
ENDBRANCH   2   6
ENDBRANCH   1   2
BRANCH   1  30
ATOM     30  C   UNL     1       9.489  16.998  13.196  1.00  0.00     0.031 C 
BRANCH  30  31
ATOM     31  C   UNL     1       8.726  15.820  13.771  1.00  0.00    -0.075 C 
ATOM     32  C   UNL     1       9.316  14.612  13.790  1.00  0.00     0.008 C 
BRANCH  31  33
ATOM     33  C   UNL     1       7.293  15.952  14.284  1.00  0.00     0.008 C 
ATOM     34  C   UNL     1       6.430  14.714  13.994  1.00  0.00     0.012 C 
ATOM     35  C   UNL     1       7.286  16.282  15.783  1.00  0.00     0.012 C 
ENDBRANCH  31  33
ENDBRANCH  30  31
ENDBRANCH   1  30
TORSDOF 7
ENDMDL
MODEL 7
REMARK VINA RESULT:    -5.399      1.915      2.938
REMARK INTER + INTRA:          -8.377
REMARK INTER:                  -7.698
REMARK INTRA:                  -0.679
REMARK UNBOUND:                -0.927
REMARK SMILES C=C(CC[C@@H](C(=O)[O-])[C@H]1CC[C@@]2(C)C3=C(CC[C@@]12C)[C@@]1(C)CC[C@@H](O)C(C)(C)[C@H]1CC3)C(C)C
REMARK SMILES IDX 4 1 5 2 6 3 7 4 8 5 9 6 10 7 18 8 11 9 12 10 17 11 19 12
REMARK SMILES IDX 13 13 14 14 16 15 15 16 31 17 20 18 30 19 29 20 22 21 21 22
REMARK SMILES IDX 26 23 23 24 24 25 27 26 28 27 25 28 3 30 2 31 1 32 32 33
REMARK SMILES IDX 33 34 34 35
REMARK H PARENT 25 29
REMARK Flexibility Score: inf
ROOT
ATOM      1  C   UNL     1      11.173  24.299  13.715  1.00  0.00     0.014 C 
ENDROOT
BRANCH   1   2
ATOM      2  C   UNL     1      11.951  23.385  14.707  1.00  0.00     0.039 C 
BRANCH   2   3
ATOM      3  C   UNL     1      12.211  24.053  16.038  1.00  0.00     0.045 C 
ATOM      4  O   UNL     1      11.393  23.958  16.987  1.00  0.00    -0.550 OA
ATOM      5  O   UNL     1      13.357  24.816  16.212  1.00  0.00    -0.550 OA
ENDBRANCH   2   3
BRANCH   2   6
ATOM      6  C   UNL     1      11.375  21.918  14.780  1.00  0.00     0.004 C 
ATOM      7  C   UNL     1      10.645  21.506  13.496  1.00  0.00     0.006 C 
ATOM      8  C   UNL     1      12.241  20.670  15.192  1.00  0.00    -0.020 C 
ATOM      9  C   UNL     1      10.681  19.981  13.427  1.00  0.00     0.012 C 
ATOM     10  C   UNL     1      11.340  19.464  14.728  1.00  0.00    -0.006 C 
ATOM     11  C   UNL     1      13.582  20.604  14.429  1.00  0.00     0.012 C 
ATOM     12  C   UNL     1      12.530  20.658  16.719  1.00  0.00     0.012 C 
ATOM     13  C   UNL     1      10.221  19.157  15.777  1.00  0.00     0.017 C 
ATOM     14  C   UNL     1      12.098  18.152  14.422  1.00  0.00    -0.064 C 
ATOM     15  C   UNL     1      14.312  19.285  14.648  1.00  0.00     0.032 C 
ATOM     16  C   UNL     1      13.459  18.056  14.378  1.00  0.00    -0.064 C 
ATOM     17  C   UNL     1      11.272  16.932  14.086  1.00  0.00     0.032 C 
ATOM     18  C   UNL     1      14.155  16.658  14.301  1.00  0.00    -0.008 C 
ATOM     19  C   UNL     1      11.948  16.115  12.998  1.00  0.00     0.009 C 
ATOM     20  C   UNL     1      13.325  15.585  13.459  1.00  0.00     0.007 C 
ATOM     21  C   UNL     1      14.339  16.181  15.763  1.00  0.00     0.014 C 
ATOM     22  C   UNL     1      15.562  16.813  13.649  1.00  0.00     0.016 C 
ATOM     23  C   UNL     1      13.282  14.104  14.051  1.00  0.00    -0.006 C 
ATOM     24  C   UNL     1      14.963  14.782  15.911  1.00  0.00     0.033 C 
ATOM     25  C   UNL     1      14.622  13.787  14.780  1.00  0.00     0.120 C 
ATOM     26  C   UNL     1      12.090  13.837  15.015  1.00  0.00     0.014 C 
ATOM     27  C   UNL     1      13.141  13.094  12.875  1.00  0.00     0.014 C 
BRANCH  25  28
ATOM     28  O   UNL     1      14.604  12.481  15.309  1.00  0.00    -0.393 OA
ATOM     29  H   UNL     1      15.108  12.498  16.161  1.00  0.00     0.210 HD
ENDBRANCH  25  28
ENDBRANCH   2   6
ENDBRANCH   1   2
BRANCH   1  30
ATOM     30  C   UNL     1      10.679  25.595  14.393  1.00  0.00     0.031 C 
BRANCH  30  31
ATOM     31  C   UNL     1       9.209  25.848  14.118  1.00  0.00    -0.075 C 
ATOM     32  C   UNL     1       8.504  24.916  13.451  1.00  0.00     0.008 C 
BRANCH  31  33
ATOM     33  C   UNL     1       8.516  27.145  14.529  1.00  0.00     0.008 C 
ATOM     34  C   UNL     1       7.622  26.986  15.770  1.00  0.00     0.012 C 
ATOM     35  C   UNL     1       9.546  28.263  14.741  1.00  0.00     0.012 C 
ENDBRANCH  31  33
ENDBRANCH  30  31
ENDBRANCH   1  30
TORSDOF 7
ENDMDL
MODEL 8
REMARK VINA RESULT:    -5.246      2.273      9.076
REMARK INTER + INTRA:          -8.166
REMARK INTER:                  -7.098
REMARK INTRA:                  -1.068
REMARK UNBOUND:                -0.927
REMARK SMILES C=C(CC[C@@H](C(=O)[O-])[C@H]1CC[C@@]2(C)C3=C(CC[C@@]12C)[C@@]1(C)CC[C@@H](O)C(C)(C)[C@H]1CC3)C(C)C
REMARK SMILES IDX 4 1 5 2 6 3 7 4 8 5 9 6 10 7 18 8 11 9 12 10 17 11 19 12
REMARK SMILES IDX 13 13 14 14 16 15 15 16 31 17 20 18 30 19 29 20 22 21 21 22
REMARK SMILES IDX 26 23 23 24 24 25 27 26 28 27 25 28 3 30 2 31 1 32 32 33
REMARK SMILES IDX 33 34 34 35
REMARK H PARENT 25 29
REMARK Flexibility Score: inf
ROOT
ATOM      1  C   UNL     1      11.429  16.573  13.485  1.00  0.00     0.014 C 
ENDROOT
BRANCH   1   2
ATOM      2  C   UNL     1      10.996  18.066  13.571  1.00  0.00     0.039 C 
BRANCH   2   3
ATOM      3  C   UNL     1       9.608  18.241  14.145  1.00  0.00     0.045 C 
ATOM      4  O   UNL     1       8.727  18.899  13.535  1.00  0.00    -0.550 OA
ATOM      5  O   UNL     1       9.302  17.697  15.385  1.00  0.00    -0.550 OA
ENDBRANCH   2   3
BRANCH   2   6
ATOM      6  C   UNL     1      12.110  19.000  14.183  1.00  0.00     0.004 C 
ATOM      7  C   UNL     1      13.411  18.976  13.370  1.00  0.00     0.006 C 
ATOM      8  C   UNL     1      11.867  20.512  14.546  1.00  0.00    -0.020 C 
ATOM      9  C   UNL     1      14.142  20.287  13.653  1.00  0.00     0.012 C 
ATOM     10  C   UNL     1      13.333  21.058  14.723  1.00  0.00    -0.006 C 
ATOM     11  C   UNL     1      11.186  21.292  13.400  1.00  0.00     0.012 C 
ATOM     12  C   UNL     1      11.007  20.655  15.833  1.00  0.00     0.012 C 
ATOM     13  C   UNL     1      13.901  20.709  16.138  1.00  0.00     0.017 C 
ATOM     14  C   UNL     1      13.505  22.577  14.488  1.00  0.00    -0.064 C 
ATOM     15  C   UNL     1      11.162  22.793  13.653  1.00  0.00     0.032 C 
ATOM     16  C   UNL     1      12.522  23.384  13.994  1.00  0.00    -0.064 C 
ATOM     17  C   UNL     1      14.867  23.174  14.758  1.00  0.00     0.032 C 
ATOM     18  C   UNL     1      12.687  24.938  14.008  1.00  0.00    -0.008 C 
ATOM     19  C   UNL     1      15.195  24.239  13.726  1.00  0.00     0.009 C 
ATOM     20  C   UNL     1      14.194  25.416  13.786  1.00  0.00     0.007 C 
ATOM     21  C   UNL     1      12.156  25.420  15.382  1.00  0.00     0.014 C 
ATOM     22  C   UNL     1      11.802  25.565  12.888  1.00  0.00     0.016 C 
ATOM     23  C   UNL     1      14.686  26.638  14.685  1.00  0.00    -0.006 C 
ATOM     24  C   UNL     1      12.283  26.935  15.625  1.00  0.00     0.033 C 
ATOM     25  C   UNL     1      13.498  27.611  14.952  1.00  0.00     0.120 C 
ATOM     26  C   UNL     1      15.326  26.217  16.039  1.00  0.00     0.014 C 
ATOM     27  C   UNL     1      15.772  27.433  13.905  1.00  0.00     0.014 C 
BRANCH  25  28
ATOM     28  O   UNL     1      13.913  28.699  15.744  1.00  0.00    -0.393 OA
ATOM     29  H   UNL     1      13.323  29.465  15.531  1.00  0.00     0.210 HD
ENDBRANCH  25  28
ENDBRANCH   2   6
ENDBRANCH   1   2
BRANCH   1  30
ATOM     30  C   UNL     1      12.257  16.142  14.714  1.00  0.00     0.031 C 
BRANCH  30  31
ATOM     31  C   UNL     1      13.606  15.576  14.312  1.00  0.00    -0.075 C 
ATOM     32  C   UNL     1      13.710  14.914  13.146  1.00  0.00     0.008 C 
BRANCH  31  33
ATOM     33  C   UNL     1      14.837  15.693  15.208  1.00  0.00     0.008 C 
ATOM     34  C   UNL     1      14.730  16.830  16.238  1.00  0.00     0.012 C 
ATOM     35  C   UNL     1      15.126  14.355  15.903  1.00  0.00     0.012 C 
ENDBRANCH  31  33
ENDBRANCH  30  31
ENDBRANCH   1  30
TORSDOF 7
ENDMDL
