MODEL 1
REMARK VINA RESULT:    -7.007      0.000      0.000
REMARK INTER + INTRA:          -8.549
REMARK INTER:                  -8.236
REMARK INTRA:                  -0.313
REMARK UNBOUND:                -0.313
REMARK SMILES O=c1c(O)c(-c2ccc(O)c(O)c2)oc2cc(O)ccc12
REMARK SMILES IDX 5 1 3 2 2 3 1 4 21 5 15 6 14 7 16 8 17 9 19 10 20 11 6 12
REMARK SMILES IDX 7 13 8 14 9 15 13 16 11 17 10 18 12 20 4 22 18 24
REMARK H PARENT 10 19 12 21 4 23 18 25
REMARK Flexibility Score: inf
ROOT
ATOM      1  C   UNL     1     -21.197 -50.482  38.114  1.00  0.00     0.180 A 
ATOM      2  C   UNL     1     -20.025 -50.276  37.358  1.00  0.00     0.208 A 
ATOM      3  C   UNL     1     -18.785 -50.282  38.017  1.00  0.00     0.235 A 
ATOM      4  O   UNL     1     -17.721 -50.110  37.361  1.00  0.00    -0.285 OA
ATOM      5  C   UNL     1     -18.744 -50.473  39.407  1.00  0.00     0.069 A 
ATOM      6  C   UNL     1     -19.965 -50.648  40.095  1.00  0.00     0.142 A 
ATOM      7  O   UNL     1     -21.116 -50.644  39.433  1.00  0.00    -0.452 OA
ATOM      8  C   UNL     1     -19.965 -50.831  41.483  1.00  0.00     0.094 A 
ATOM      9  C   UNL     1     -18.758 -50.842  42.194  1.00  0.00     0.119 A 
ATOM     10  C   UNL     1     -17.548 -50.670  41.514  1.00  0.00     0.047 A 
ATOM     11  C   UNL     1     -17.536 -50.486  40.128  1.00  0.00     0.020 A 
ENDROOT
BRANCH   1  12
ATOM     12  C   UNL     1     -22.540 -50.508  37.490  1.00  0.00     0.025 A 
ATOM     13  C   UNL     1     -23.358 -49.370  37.567  1.00  0.00     0.016 A 
ATOM     14  C   UNL     1     -24.637 -49.378  37.003  1.00  0.00     0.051 A 
ATOM     15  C   UNL     1     -25.122 -50.525  36.369  1.00  0.00     0.157 A 
ATOM     16  C   UNL     1     -23.038 -51.667  36.870  1.00  0.00     0.062 A 
ATOM     17  C   UNL     1     -24.321 -51.678  36.305  1.00  0.00     0.158 A 
BRANCH  15  18
ATOM     18  O   UNL     1     -26.402 -50.504  35.814  1.00  0.00    -0.504 OA
ATOM     19  H   UNL     1     -26.648 -49.882  35.052  1.00  0.00     0.293 HD
ENDBRANCH  15  18
BRANCH  17  20
ATOM     20  O   UNL     1     -24.805 -52.830  35.686  1.00  0.00    -0.504 OA
ATOM     21  H   UNL     1     -24.217 -53.398  35.088  1.00  0.00     0.293 HD
ENDBRANCH  17  20
ENDBRANCH   1  12
BRANCH   2  22
ATOM     22  O   UNL     1     -20.100 -50.039  35.983  1.00  0.00    -0.502 OA
ATOM     23  H   UNL     1     -19.277 -49.874  35.416  1.00  0.00     0.293 HD
ENDBRANCH   2  22
BRANCH   9  24
ATOM     24  O   UNL     1     -18.750 -51.024  43.575  1.00  0.00    -0.508 OA
ATOM     25  H   UNL     1     -19.598 -50.943  44.125  1.00  0.00     0.293 HD
ENDBRANCH   9  24
TORSDOF 5
ENDMDL
MODEL 2
REMARK VINA RESULT:    -6.764      2.230      7.237
REMARK INTER + INTRA:          -8.263
REMARK INTER:                  -8.001
REMARK INTRA:                  -0.262
REMARK UNBOUND:                -0.313
REMARK SMILES O=c1c(O)c(-c2ccc(O)c(O)c2)oc2cc(O)ccc12
REMARK SMILES IDX 5 1 3 2 2 3 1 4 21 5 15 6 14 7 16 8 17 9 19 10 20 11 6 12
REMARK SMILES IDX 7 13 8 14 9 15 13 16 11 17 10 18 12 20 4 22 18 24
REMARK H PARENT 10 19 12 21 4 23 18 25
REMARK Flexibility Score: inf
ROOT
ATOM      1  C   UNL     1     -20.081 -51.143  40.471  1.00  0.00     0.180 A 
ATOM      2  C   UNL     1     -20.773 -52.156  41.169  1.00  0.00     0.208 A 
ATOM      3  C   UNL     1     -21.988 -52.626  40.647  1.00  0.00     0.235 A 
ATOM      4  O   UNL     1     -22.620 -53.539  41.247  1.00  0.00    -0.285 OA
ATOM      5  C   UNL     1     -22.493 -52.068  39.463  1.00  0.00     0.069 A 
ATOM      6  C   UNL     1     -21.753 -51.040  38.838  1.00  0.00     0.142 A 
ATOM      7  O   UNL     1     -20.602 -50.629  39.359  1.00  0.00    -0.452 OA
ATOM      8  C   UNL     1     -22.229 -50.451  37.661  1.00  0.00     0.094 A 
ATOM      9  C   UNL     1     -23.439 -50.878  37.098  1.00  0.00     0.119 A 
ATOM     10  C   UNL     1     -24.173 -51.897  37.714  1.00  0.00     0.047 A 
ATOM     11  C   UNL     1     -23.707 -52.491  38.891  1.00  0.00     0.020 A 
ENDROOT
BRANCH   1  12
ATOM     12  C   UNL     1     -18.785 -50.607  40.946  1.00  0.00     0.025 A 
ATOM     13  C   UNL     1     -18.727 -49.306  41.469  1.00  0.00     0.016 A 
ATOM     14  C   UNL     1     -17.511 -48.772  41.903  1.00  0.00     0.051 A 
ATOM     15  C   UNL     1     -16.335 -49.522  41.810  1.00  0.00     0.157 A 
ATOM     16  C   UNL     1     -17.598 -51.352  40.833  1.00  0.00     0.062 A 
ATOM     17  C   UNL     1     -16.377 -50.818  41.268  1.00  0.00     0.158 A 
BRANCH  15  18
ATOM     18  O   UNL     1     -15.136 -48.963  42.253  1.00  0.00    -0.504 OA
ATOM     19  H   UNL     1     -14.994 -47.961  42.298  1.00  0.00     0.293 HD
ENDBRANCH  15  18
BRANCH  17  20
ATOM     20  O   UNL     1     -15.205 -51.566  41.157  1.00  0.00    -0.504 OA
ATOM     21  H   UNL     1     -14.753 -51.715  40.263  1.00  0.00     0.293 HD
ENDBRANCH  17  20
ENDBRANCH   1  12
BRANCH   2  22
ATOM     22  O   UNL     1     -20.270 -52.658  42.371  1.00  0.00    -0.502 OA
ATOM     23  H   UNL     1     -20.328 -52.142  43.241  1.00  0.00     0.293 HD
ENDBRANCH   2  22
BRANCH   9  24
ATOM     24  O   UNL     1     -23.920 -50.297  35.926  1.00  0.00    -0.508 OA
ATOM     25  H   UNL     1     -23.580 -49.399  35.602  1.00  0.00     0.293 HD
ENDBRANCH   9  24
TORSDOF 5
ENDMDL
MODEL 3
REMARK VINA RESULT:    -6.763      0.708      1.533
REMARK INTER + INTRA:          -8.262
REMARK INTER:                  -7.976
REMARK INTRA:                  -0.286
REMARK UNBOUND:                -0.313
REMARK SMILES O=c1c(O)c(-c2ccc(O)c(O)c2)oc2cc(O)ccc12
REMARK SMILES IDX 5 1 3 2 2 3 1 4 21 5 15 6 14 7 16 8 17 9 19 10 20 11 6 12
REMARK SMILES IDX 7 13 8 14 9 15 13 16 11 17 10 18 12 20 4 22 18 24
REMARK H PARENT 10 19 12 21 4 23 18 25
REMARK Flexibility Score: inf
ROOT
ATOM      1  C   UNL     1     -21.514 -50.545  38.282  1.00  0.00     0.180 A 
ATOM      2  C   UNL     1     -20.370 -50.351  37.481  1.00  0.00     0.208 A 
ATOM      3  C   UNL     1     -19.106 -50.362  38.092  1.00  0.00     0.235 A 
ATOM      4  O   UNL     1     -18.067 -50.201  37.395  1.00  0.00    -0.285 OA
ATOM      5  C   UNL     1     -19.013 -50.544  39.480  1.00  0.00     0.069 A 
ATOM      6  C   UNL     1     -20.207 -50.708  40.216  1.00  0.00     0.142 A 
ATOM      7  O   UNL     1     -21.383 -50.700  39.598  1.00  0.00    -0.452 OA
ATOM      8  C   UNL     1     -20.156 -50.882  41.604  1.00  0.00     0.094 A 
ATOM      9  C   UNL     1     -18.923 -50.896  42.269  1.00  0.00     0.119 A 
ATOM     10  C   UNL     1     -17.738 -50.737  41.542  1.00  0.00     0.047 A 
ATOM     11  C   UNL     1     -17.778 -50.561  40.155  1.00  0.00     0.020 A 
ENDROOT
BRANCH   1  12
ATOM     12  C   UNL     1     -22.880 -50.566  37.710  1.00  0.00     0.025 A 
ATOM     13  C   UNL     1     -23.339 -51.723  37.061  1.00  0.00     0.016 A 
ATOM     14  C   UNL     1     -24.616 -51.757  36.496  1.00  0.00     0.051 A 
ATOM     15  C   UNL     1     -25.447 -50.635  36.557  1.00  0.00     0.157 A 
ATOM     16  C   UNL     1     -23.708 -49.430  37.751  1.00  0.00     0.062 A 
ATOM     17  C   UNL     1     -24.990 -49.463  37.183  1.00  0.00     0.158 A 
BRANCH  15  18
ATOM     18  O   UNL     1     -26.718 -50.699  35.985  1.00  0.00    -0.504 OA
ATOM     19  H   UNL     1     -27.558 -50.507  36.518  1.00  0.00     0.293 HD
ENDBRANCH  15  18
BRANCH  17  20
ATOM     20  O   UNL     1     -25.808 -48.335  37.234  1.00  0.00    -0.504 OA
ATOM     21  H   UNL     1     -25.850 -47.675  36.467  1.00  0.00     0.293 HD
ENDBRANCH  17  20
ENDBRANCH   1  12
BRANCH   2  22
ATOM     22  O   UNL     1     -20.496 -50.123  36.108  1.00  0.00    -0.502 OA
ATOM     23  H   UNL     1     -21.212 -49.519  35.723  1.00  0.00     0.293 HD
ENDBRANCH   2  22
BRANCH   9  24
ATOM     24  O   UNL     1     -18.863 -51.070  43.649  1.00  0.00    -0.508 OA
ATOM     25  H   UNL     1     -19.516 -51.673  44.136  1.00  0.00     0.293 HD
ENDBRANCH   9  24
TORSDOF 5
ENDMDL
MODEL 4
REMARK VINA RESULT:    -6.464      3.056      6.810
REMARK INTER + INTRA:          -7.911
REMARK INTER:                  -7.746
REMARK INTRA:                  -0.165
REMARK UNBOUND:                -0.313
REMARK SMILES O=c1c(O)c(-c2ccc(O)c(O)c2)oc2cc(O)ccc12
REMARK SMILES IDX 5 1 3 2 2 3 1 4 21 5 15 6 14 7 16 8 17 9 19 10 20 11 6 12
REMARK SMILES IDX 7 13 8 14 9 15 13 16 11 17 10 18 12 20 4 22 18 24
REMARK H PARENT 10 19 12 21 4 23 18 25
REMARK Flexibility Score: inf
ROOT
ATOM      1  C   UNL     1     -20.060 -51.250  40.648  1.00  0.00     0.180 A 
ATOM      2  C   UNL     1     -20.772 -50.761  39.534  1.00  0.00     0.208 A 
ATOM      3  C   UNL     1     -22.012 -51.340  39.217  1.00  0.00     0.235 A 
ATOM      4  O   UNL     1     -22.673 -50.913  38.232  1.00  0.00    -0.285 OA
ATOM      5  C   UNL     1     -22.500 -52.397  40.001  1.00  0.00     0.069 A 
ATOM      6  C   UNL     1     -21.715 -52.845  41.086  1.00  0.00     0.142 A 
ATOM      7  O   UNL     1     -20.551 -52.264  41.357  1.00  0.00    -0.452 OA
ATOM      8  C   UNL     1     -22.163 -53.903  41.884  1.00  0.00     0.094 A 
ATOM      9  C   UNL     1     -23.391 -54.521  41.612  1.00  0.00     0.119 A 
ATOM     10  C   UNL     1     -24.171 -54.078  40.539  1.00  0.00     0.047 A 
ATOM     11  C   UNL     1     -23.732 -53.022  39.735  1.00  0.00     0.020 A 
ENDROOT
BRANCH   1  12
ATOM     12  C   UNL     1     -18.755 -50.681  41.057  1.00  0.00     0.025 A 
ATOM     13  C   UNL     1     -18.691 -49.351  41.501  1.00  0.00     0.016 A 
ATOM     14  C   UNL     1     -17.468 -48.787  41.873  1.00  0.00     0.051 A 
ATOM     15  C   UNL     1     -16.290 -49.536  41.792  1.00  0.00     0.157 A 
ATOM     16  C   UNL     1     -17.567 -51.426  40.957  1.00  0.00     0.062 A 
ATOM     17  C   UNL     1     -16.338 -50.862  41.328  1.00  0.00     0.158 A 
BRANCH  15  18
ATOM     18  O   UNL     1     -15.084 -48.947  42.172  1.00  0.00    -0.504 OA
ATOM     19  H   UNL     1     -14.278 -48.930  41.558  1.00  0.00     0.293 HD
ENDBRANCH  15  18
BRANCH  17  20
ATOM     20  O   UNL     1     -15.166 -51.609  41.231  1.00  0.00    -0.504 OA
ATOM     21  H   UNL     1     -14.959 -52.169  40.412  1.00  0.00     0.293 HD
ENDBRANCH  17  20
ENDBRANCH   1  12
BRANCH   2  22
ATOM     22  O   UNL     1     -20.239 -49.741  38.743  1.00  0.00    -0.502 OA
ATOM     23  H   UNL     1     -20.809 -48.996  38.361  1.00  0.00     0.293 HD
ENDBRANCH   2  22
BRANCH   9  24
ATOM     24  O   UNL     1     -23.844 -55.575  42.402  1.00  0.00    -0.508 OA
ATOM     25  H   UNL     1     -24.822 -55.844  42.417  1.00  0.00     0.293 HD
ENDBRANCH   9  24
TORSDOF 5
ENDMDL
MODEL 5
REMARK VINA RESULT:    -6.455      2.812      4.469
REMARK INTER + INTRA:          -7.900
REMARK INTER:                  -7.612
REMARK INTRA:                  -0.289
REMARK UNBOUND:                -0.313
REMARK SMILES O=c1c(O)c(-c2ccc(O)c(O)c2)oc2cc(O)ccc12
REMARK SMILES IDX 5 1 3 2 2 3 1 4 21 5 15 6 14 7 16 8 17 9 19 10 20 11 6 12
REMARK SMILES IDX 7 13 8 14 9 15 13 16 11 17 10 18 12 20 4 22 18 24
REMARK H PARENT 10 19 12 21 4 23 18 25
REMARK Flexibility Score: inf
ROOT
ATOM      1  C   UNL     1     -18.437 -51.306  40.559  1.00  0.00     0.180 A 
ATOM      2  C   UNL     1     -17.289 -50.587  40.950  1.00  0.00     0.208 A 
ATOM      3  C   UNL     1     -16.333 -51.225  41.756  1.00  0.00     0.235 A 
ATOM      4  O   UNL     1     -15.292 -50.607  42.111  1.00  0.00    -0.285 OA
ATOM      5  C   UNL     1     -16.551 -52.549  42.168  1.00  0.00     0.069 A 
ATOM      6  C   UNL     1     -17.738 -53.192  41.753  1.00  0.00     0.142 A 
ATOM      7  O   UNL     1     -18.614 -52.556  40.983  1.00  0.00    -0.452 OA
ATOM      8  C   UNL     1     -17.997 -54.509  42.152  1.00  0.00     0.094 A 
ATOM      9  C   UNL     1     -17.080 -55.195  42.960  1.00  0.00     0.119 A 
ATOM     10  C   UNL     1     -15.903 -54.561  43.370  1.00  0.00     0.047 A 
ATOM     11  C   UNL     1     -15.636 -53.245  42.979  1.00  0.00     0.020 A 
ENDROOT
BRANCH   1  12
ATOM     12  C   UNL     1     -19.481 -50.709  39.696  1.00  0.00     0.025 A 
ATOM     13  C   UNL     1     -20.702 -50.311  40.263  1.00  0.00     0.016 A 
ATOM     14  C   UNL     1     -21.709 -49.764  39.464  1.00  0.00     0.051 A 
ATOM     15  C   UNL     1     -21.519 -49.621  38.087  1.00  0.00     0.157 A 
ATOM     16  C   UNL     1     -19.301 -50.584  38.307  1.00  0.00     0.062 A 
ATOM     17  C   UNL     1     -20.311 -50.037  37.503  1.00  0.00     0.158 A 
BRANCH  15  18
ATOM     18  O   UNL     1     -22.543 -49.070  37.314  1.00  0.00    -0.504 OA
ATOM     19  H   UNL     1     -23.475 -49.465  37.297  1.00  0.00     0.293 HD
ENDBRANCH  15  18
BRANCH  17  20
ATOM     20  O   UNL     1     -20.121 -49.910  36.127  1.00  0.00    -0.504 OA
ATOM     21  H   UNL     1     -20.081 -50.721  35.520  1.00  0.00     0.293 HD
ENDBRANCH  17  20
ENDBRANCH   1  12
BRANCH   2  22
ATOM     22  O   UNL     1     -17.122 -49.254  40.567  1.00  0.00    -0.502 OA
ATOM     23  H   UNL     1     -17.280 -48.483  41.203  1.00  0.00     0.293 HD
ENDBRANCH   2  22
BRANCH   9  24
ATOM     24  O   UNL     1     -17.329 -56.505  43.360  1.00  0.00    -0.508 OA
ATOM     25  H   UNL     1     -18.018 -57.081  42.889  1.00  0.00     0.293 HD
ENDBRANCH   9  24
TORSDOF 5
ENDMDL
MODEL 6
REMARK VINA RESULT:    -6.402      2.163      6.608
REMARK INTER + INTRA:          -7.838
REMARK INTER:                  -7.735
REMARK INTRA:                  -0.104
REMARK UNBOUND:                -0.313
REMARK SMILES O=c1c(O)c(-c2ccc(O)c(O)c2)oc2cc(O)ccc12
REMARK SMILES IDX 5 1 3 2 2 3 1 4 21 5 15 6 14 7 16 8 17 9 19 10 20 11 6 12
REMARK SMILES IDX 7 13 8 14 9 15 13 16 11 17 10 18 12 20 4 22 18 24
REMARK H PARENT 10 19 12 21 4 23 18 25
REMARK Flexibility Score: inf
ROOT
ATOM      1  C   UNL     1     -21.517 -50.607  38.905  1.00  0.00     0.180 A 
ATOM      2  C   UNL     1     -22.072 -49.759  37.924  1.00  0.00     0.208 A 
ATOM      3  C   UNL     1     -23.384 -50.001  37.485  1.00  0.00     0.235 A 
ATOM      4  O   UNL     1     -23.906 -49.251  36.616  1.00  0.00    -0.285 OA
ATOM      5  C   UNL     1     -24.100 -51.086  38.015  1.00  0.00     0.069 A 
ATOM      6  C   UNL     1     -23.465 -51.902  38.976  1.00  0.00     0.142 A 
ATOM      7  O   UNL     1     -22.225 -51.634  39.371  1.00  0.00    -0.452 OA
ATOM      8  C   UNL     1     -24.142 -53.000  39.520  1.00  0.00     0.094 A 
ATOM      9  C   UNL     1     -25.452 -53.292  39.115  1.00  0.00     0.119 A 
ATOM     10  C   UNL     1     -26.084 -52.483  38.165  1.00  0.00     0.047 A 
ATOM     11  C   UNL     1     -25.415 -51.385  37.615  1.00  0.00     0.020 A 
ENDROOT
BRANCH   1  12
ATOM     12  C   UNL     1     -20.149 -50.407  39.433  1.00  0.00     0.025 A 
ATOM     13  C   UNL     1     -19.052 -50.502  38.561  1.00  0.00     0.016 A 
ATOM     14  C   UNL     1     -17.750 -50.337  39.041  1.00  0.00     0.051 A 
ATOM     15  C   UNL     1     -17.523 -50.091  40.398  1.00  0.00     0.157 A 
ATOM     16  C   UNL     1     -19.916 -50.181  40.801  1.00  0.00     0.062 A 
ATOM     17  C   UNL     1     -18.610 -50.017  41.285  1.00  0.00     0.158 A 
BRANCH  15  18
ATOM     18  O   UNL     1     -16.212 -49.929  40.848  1.00  0.00    -0.504 OA
ATOM     19  H   UNL     1     -15.627 -50.719  41.096  1.00  0.00     0.293 HD
ENDBRANCH  15  18
BRANCH  17  20
ATOM     20  O   UNL     1     -18.389 -49.786  42.642  1.00  0.00    -0.504 OA
ATOM     21  H   UNL     1     -19.043 -50.105  43.348  1.00  0.00     0.293 HD
ENDBRANCH  17  20
ENDBRANCH   1  12
BRANCH   2  22
ATOM     22  O   UNL     1     -21.319 -48.717  37.379  1.00  0.00    -0.502 OA
ATOM     23  H   UNL     1     -21.741 -47.858  37.048  1.00  0.00     0.293 HD
ENDBRANCH   2  22
BRANCH   9  24
ATOM     24  O   UNL     1     -26.133 -54.381  39.653  1.00  0.00    -0.508 OA
ATOM     25  H   UNL     1     -25.639 -55.174  40.045  1.00  0.00     0.293 HD
ENDBRANCH   9  24
TORSDOF 5
ENDMDL
MODEL 7
REMARK VINA RESULT:    -6.264      1.678      2.916
REMARK INTER + INTRA:          -7.676
REMARK INTER:                  -7.473
REMARK INTRA:                  -0.203
REMARK UNBOUND:                -0.313
REMARK SMILES O=c1c(O)c(-c2ccc(O)c(O)c2)oc2cc(O)ccc12
REMARK SMILES IDX 5 1 3 2 2 3 1 4 21 5 15 6 14 7 16 8 17 9 19 10 20 11 6 12
REMARK SMILES IDX 7 13 8 14 9 15 13 16 11 17 10 18 12 20 4 22 18 24
REMARK H PARENT 10 19 12 21 4 23 18 25
REMARK Flexibility Score: inf
ROOT
ATOM      1  C   UNL     1     -21.311 -51.316  39.518  1.00  0.00     0.180 A 
ATOM      2  C   UNL     1     -21.617 -52.131  40.628  1.00  0.00     0.208 A 
ATOM      3  C   UNL     1     -20.624 -52.358  41.594  1.00  0.00     0.235 A 
ATOM      4  O   UNL     1     -20.877 -53.074  42.602  1.00  0.00    -0.285 OA
ATOM      5  C   UNL     1     -19.353 -51.790  41.424  1.00  0.00     0.069 A 
ATOM      6  C   UNL     1     -19.118 -51.006  40.273  1.00  0.00     0.142 A 
ATOM      7  O   UNL     1     -20.087 -50.808  39.386  1.00  0.00    -0.452 OA
ATOM      8  C   UNL     1     -17.860 -50.431  40.062  1.00  0.00     0.094 A 
ATOM      9  C   UNL     1     -16.829 -50.628  40.991  1.00  0.00     0.119 A 
ATOM     10  C   UNL     1     -17.060 -51.402  42.133  1.00  0.00     0.047 A 
ATOM     11  C   UNL     1     -18.313 -51.982  42.352  1.00  0.00     0.020 A 
ENDROOT
BRANCH   1  12
ATOM     12  C   UNL     1     -22.308 -51.014  38.466  1.00  0.00     0.025 A 
ATOM     13  C   UNL     1     -22.854 -49.723  38.383  1.00  0.00     0.016 A 
ATOM     14  C   UNL     1     -23.812 -49.422  37.412  1.00  0.00     0.051 A 
ATOM     15  C   UNL     1     -24.250 -50.406  36.521  1.00  0.00     0.157 A 
ATOM     16  C   UNL     1     -22.766 -52.008  37.583  1.00  0.00     0.062 A 
ATOM     17  C   UNL     1     -23.728 -51.708  36.609  1.00  0.00     0.158 A 
BRANCH  15  18
ATOM     18  O   UNL     1     -25.206 -50.074  35.560  1.00  0.00    -0.504 OA
ATOM     19  H   UNL     1     -25.976 -50.693  35.332  1.00  0.00     0.293 HD
ENDBRANCH  15  18
BRANCH  17  20
ATOM     20  O   UNL     1     -24.172 -52.697  35.733  1.00  0.00    -0.504 OA
ATOM     21  H   UNL     1     -23.526 -53.334  35.280  1.00  0.00     0.293 HD
ENDBRANCH  17  20
ENDBRANCH   1  12
BRANCH   2  22
ATOM     22  O   UNL     1     -22.877 -52.723  40.746  1.00  0.00    -0.502 OA
ATOM     23  H   UNL     1     -23.536 -52.456  41.467  1.00  0.00     0.293 HD
ENDBRANCH   2  22
BRANCH   9  24
ATOM     24  O   UNL     1     -15.574 -50.058  40.789  1.00  0.00    -0.508 OA
ATOM     25  H   UNL     1     -15.396 -49.081  40.993  1.00  0.00     0.293 HD
ENDBRANCH   9  24
TORSDOF 5
ENDMDL
MODEL 8
REMARK VINA RESULT:    -6.228      3.108      7.629
REMARK INTER + INTRA:          -7.634
REMARK INTER:                  -7.412
REMARK INTRA:                  -0.222
REMARK UNBOUND:                -0.313
REMARK SMILES O=c1c(O)c(-c2ccc(O)c(O)c2)oc2cc(O)ccc12
REMARK SMILES IDX 5 1 3 2 2 3 1 4 21 5 15 6 14 7 16 8 17 9 19 10 20 11 6 12
REMARK SMILES IDX 7 13 8 14 9 15 13 16 11 17 10 18 12 20 4 22 18 24
REMARK H PARENT 10 19 12 21 4 23 18 25
REMARK Flexibility Score: inf
ROOT
ATOM      1  C   UNL     1     -19.812 -52.148  41.713  1.00  0.00     0.180 A 
ATOM      2  C   UNL     1     -20.215 -53.000  42.763  1.00  0.00     0.208 A 
ATOM      3  C   UNL     1     -21.452 -53.656  42.665  1.00  0.00     0.235 A 
ATOM      4  O   UNL     1     -21.829 -54.431  43.586  1.00  0.00    -0.285 OA
ATOM      5  C   UNL     1     -22.264 -53.434  41.542  1.00  0.00     0.069 A 
ATOM      6  C   UNL     1     -21.800 -52.547  40.545  1.00  0.00     0.142 A 
ATOM      7  O   UNL     1     -20.619 -51.953  40.671  1.00  0.00    -0.452 OA
ATOM      8  C   UNL     1     -22.585 -52.292  39.415  1.00  0.00     0.094 A 
ATOM      9  C   UNL     1     -23.832 -52.915  39.267  1.00  0.00     0.119 A 
ATOM     10  C   UNL     1     -24.292 -53.795  40.251  1.00  0.00     0.047 A 
ATOM     11  C   UNL     1     -23.516 -54.056  41.385  1.00  0.00     0.020 A 
ENDROOT
BRANCH   1  12
ATOM     12  C   UNL     1     -18.514 -51.436  41.733  1.00  0.00     0.025 A 
ATOM     13  C   UNL     1     -18.498 -50.035  41.815  1.00  0.00     0.016 A 
ATOM     14  C   UNL     1     -17.285 -49.340  41.814  1.00  0.00     0.051 A 
ATOM     15  C   UNL     1     -16.074 -50.032  41.718  1.00  0.00     0.157 A 
ATOM     16  C   UNL     1     -17.296 -52.128  41.614  1.00  0.00     0.062 A 
ATOM     17  C   UNL     1     -16.079 -51.433  41.613  1.00  0.00     0.158 A 
BRANCH  15  18
ATOM     18  O   UNL     1     -14.879 -49.312  41.721  1.00  0.00    -0.504 OA
ATOM     19  H   UNL     1     -14.544 -48.830  42.547  1.00  0.00     0.293 HD
ENDBRANCH  15  18
BRANCH  17  20
ATOM     20  O   UNL     1     -14.875 -52.128  41.501  1.00  0.00    -0.504 OA
ATOM     21  H   UNL     1     -14.732 -53.019  41.962  1.00  0.00     0.293 HD
ENDBRANCH  17  20
ENDBRANCH   1  12
BRANCH   2  22
ATOM     22  O   UNL     1     -19.408 -53.164  43.892  1.00  0.00    -0.502 OA
ATOM     23  H   UNL     1     -19.173 -52.393  44.506  1.00  0.00     0.293 HD
ENDBRANCH   2  22
BRANCH   9  24
ATOM     24  O   UNL     1     -24.619 -52.667  38.144  1.00  0.00    -0.508 OA
ATOM     25  H   UNL     1     -25.334 -53.320  37.844  1.00  0.00     0.293 HD
ENDBRANCH   9  24
TORSDOF 5
ENDMDL
MODEL 9
REMARK VINA RESULT:    -6.095      1.819      7.059
REMARK INTER + INTRA:          -7.477
REMARK INTER:                  -7.278
REMARK INTRA:                  -0.199
REMARK UNBOUND:                -0.313
REMARK SMILES O=c1c(O)c(-c2ccc(O)c(O)c2)oc2cc(O)ccc12
REMARK SMILES IDX 5 1 3 2 2 3 1 4 21 5 15 6 14 7 16 8 17 9 19 10 20 11 6 12
REMARK SMILES IDX 7 13 8 14 9 15 13 16 11 17 10 18 12 20 4 22 18 24
REMARK H PARENT 10 19 12 21 4 23 18 25
REMARK Flexibility Score: inf
ROOT
ATOM      1  C   UNL     1     -21.632 -51.014  39.189  1.00  0.00     0.180 A 
ATOM      2  C   UNL     1     -22.243 -52.253  39.468  1.00  0.00     0.208 A 
ATOM      3  C   UNL     1     -23.529 -52.502  38.962  1.00  0.00     0.235 A 
ATOM      4  O   UNL     1     -24.092 -53.608  39.189  1.00  0.00    -0.285 OA
ATOM      5  C   UNL     1     -24.179 -51.511  38.212  1.00  0.00     0.069 A 
ATOM      6  C   UNL     1     -23.509 -50.286  37.997  1.00  0.00     0.142 A 
ATOM      7  O   UNL     1     -22.289 -50.093  38.485  1.00  0.00    -0.452 OA
ATOM      8  C   UNL     1     -24.129 -49.269  37.262  1.00  0.00     0.094 A 
ATOM      9  C   UNL     1     -25.414 -49.460  36.736  1.00  0.00     0.119 A 
ATOM     10  C   UNL     1     -26.079 -50.673  36.946  1.00  0.00     0.047 A 
ATOM     11  C   UNL     1     -25.469 -51.696  37.680  1.00  0.00     0.020 A 
ENDROOT
BRANCH   1  12
ATOM     12  C   UNL     1     -20.272 -50.682  39.671  1.00  0.00     0.025 A 
ATOM     13  C   UNL     1     -19.211 -50.617  38.754  1.00  0.00     0.016 A 
ATOM     14  C   UNL     1     -17.916 -50.326  39.190  1.00  0.00     0.051 A 
ATOM     15  C   UNL     1     -17.658 -50.111  40.547  1.00  0.00     0.157 A 
ATOM     16  C   UNL     1     -20.006 -50.487  41.038  1.00  0.00     0.062 A 
ATOM     17  C   UNL     1     -18.707 -50.196  41.478  1.00  0.00     0.158 A 
BRANCH  15  18
ATOM     18  O   UNL     1     -16.354 -49.821  40.952  1.00  0.00    -0.504 OA
ATOM     19  H   UNL     1     -16.067 -48.884  41.209  1.00  0.00     0.293 HD
ENDBRANCH  15  18
BRANCH  17  20
ATOM     20  O   UNL     1     -18.453 -49.998  42.834  1.00  0.00    -0.504 OA
ATOM     21  H   UNL     1     -17.732 -49.361  43.152  1.00  0.00     0.293 HD
ENDBRANCH  17  20
ENDBRANCH   1  12
BRANCH   2  22
ATOM     22  O   UNL     1     -21.592 -53.203  40.259  1.00  0.00    -0.502 OA
ATOM     23  H   UNL     1     -21.220 -52.981  41.175  1.00  0.00     0.293 HD
ENDBRANCH   2  22
BRANCH   9  24
ATOM     24  O   UNL     1     -26.037 -48.453  36.003  1.00  0.00    -0.508 OA
ATOM     25  H   UNL     1     -27.044 -48.427  35.889  1.00  0.00     0.293 HD
ENDBRANCH   9  24
TORSDOF 5
ENDMDL
