MODEL 1
REMARK VINA RESULT:    -2.752      0.000      0.000
REMARK INTER + INTRA:          -3.084
REMARK INTER:                  -3.074
REMARK INTRA:                  -0.010
REMARK UNBOUND:                -0.010
REMARK SMILES CCCC(=O)[O-]
REMARK SMILES IDX 3 1 4 2 5 3 6 4 2 5 1 6
REMARK H PARENT
REMARK Flexibility Score: inf
ROOT
ATOM      1  C   UNL     1      98.977 -68.127  -0.852  1.00  0.00     0.052 C 
ENDROOT
BRANCH   1   2
ATOM      2  C   UNL     1      99.111 -69.047   0.322  1.00  0.00     0.041 C 
ATOM      3  O   UNL     1      98.566 -70.181   0.304  1.00  0.00    -0.550 OA
ATOM      4  O   UNL     1      99.809 -68.637   1.452  1.00  0.00    -0.550 OA
ENDBRANCH   1   2
BRANCH   1   5
ATOM      5  C   UNL     1      98.460 -68.862  -2.095  1.00  0.00     0.003 C 
ATOM      6  C   UNL     1      98.495 -67.986  -3.347  1.00  0.00     0.004 C 
ENDBRANCH   1   5
TORSDOF 2
ENDMDL
MODEL 2
REMARK VINA RESULT:    -2.726      2.283      4.086
REMARK INTER + INTRA:          -3.055
REMARK INTER:                  -3.039
REMARK INTRA:                  -0.015
REMARK UNBOUND:                -0.010
REMARK SMILES CCCC(=O)[O-]
REMARK SMILES IDX 3 1 4 2 5 3 6 4 2 5 1 6
REMARK H PARENT
REMARK Flexibility Score: inf
ROOT
ATOM      1  C   UNL     1      99.411 -68.106   1.802  1.00  0.00     0.052 C 
ENDROOT
BRANCH   1   2
ATOM      2  C   UNL     1      99.124 -68.776   0.493  1.00  0.00     0.041 C 
ATOM      3  O   UNL     1      99.258 -68.141  -0.586  1.00  0.00    -0.550 OA
ATOM      4  O   UNL     1      98.675 -70.091   0.466  1.00  0.00    -0.550 OA
ENDBRANCH   1   2
BRANCH   1   5
ATOM      5  C   UNL     1      98.337 -68.424   2.851  1.00  0.00     0.003 C 
ATOM      6  C   UNL     1      98.911 -68.504   4.265  1.00  0.00     0.004 C 
ENDBRANCH   1   5
TORSDOF 2
ENDMDL
MODEL 3
REMARK VINA RESULT:    -2.716      4.580      5.921
REMARK INTER + INTRA:          -3.043
REMARK INTER:                  -3.021
REMARK INTRA:                  -0.022
REMARK UNBOUND:                -0.010
REMARK SMILES CCCC(=O)[O-]
REMARK SMILES IDX 3 1 4 2 5 3 6 4 2 5 1 6
REMARK H PARENT
REMARK Flexibility Score: inf
ROOT
ATOM      1  C   UNL     1      99.588 -68.178   4.654  1.00  0.00     0.052 C 
ENDROOT
BRANCH   1   2
ATOM      2  C   UNL     1      98.463 -68.333   3.677  1.00  0.00     0.041 C 
ATOM      3  O   UNL     1      98.612 -69.040   2.646  1.00  0.00    -0.550 OA
ATOM      4  O   UNL     1      97.261 -67.668   3.886  1.00  0.00    -0.550 OA
ENDBRANCH   1   2
BRANCH   1   5
ATOM      5  C   UNL     1      99.878 -69.487   5.400  1.00  0.00     0.003 C 
ATOM      6  C   UNL     1     101.370 -69.817   5.438  1.00  0.00     0.004 C 
ENDBRANCH   1   5
TORSDOF 2
ENDMDL
MODEL 4
REMARK VINA RESULT:    -2.699      2.863      4.225
REMARK INTER + INTRA:          -3.025
REMARK INTER:                  -2.954
REMARK INTRA:                  -0.071
REMARK UNBOUND:                -0.010
REMARK SMILES CCCC(=O)[O-]
REMARK SMILES IDX 3 1 4 2 5 3 6 4 2 5 1 6
REMARK H PARENT
REMARK Flexibility Score: inf
ROOT
ATOM      1  C   UNL     1      98.757 -67.322   2.217  1.00  0.00     0.052 C 
ENDROOT
BRANCH   1   2
ATOM      2  C   UNL     1      99.620 -68.276   1.450  1.00  0.00     0.041 C 
ATOM      3  O   UNL     1      99.102 -69.246   0.838  1.00  0.00    -0.550 OA
ATOM      4  O   UNL     1     101.000 -68.113   1.439  1.00  0.00    -0.550 OA
ENDBRANCH   1   2
BRANCH   1   5
ATOM      5  C   UNL     1      98.070 -68.006   3.406  1.00  0.00     0.003 C 
ATOM      6  C   UNL     1      99.073 -68.609   4.390  1.00  0.00     0.004 C 
ENDBRANCH   1   5
TORSDOF 2
ENDMDL
MODEL 5
REMARK VINA RESULT:    -2.653      5.344      6.019
REMARK INTER + INTRA:          -2.973
REMARK INTER:                  -2.958
REMARK INTRA:                  -0.015
REMARK UNBOUND:                -0.010
REMARK SMILES CCCC(=O)[O-]
REMARK SMILES IDX 3 1 4 2 5 3 6 4 2 5 1 6
REMARK H PARENT
REMARK Flexibility Score: inf
ROOT
ATOM      1  C   UNL     1      99.864 -68.058   4.947  1.00  0.00     0.052 C 
ENDROOT
BRANCH   1   2
ATOM      2  C   UNL     1     100.332 -69.212   5.779  1.00  0.00     0.041 C 
ATOM      3  O   UNL     1     100.360 -70.374   5.293  1.00  0.00    -0.550 OA
ATOM      4  O   UNL     1     100.706 -69.011   7.102  1.00  0.00    -0.550 OA
ENDBRANCH   1   2
BRANCH   1   5
ATOM      5  C   UNL     1      98.828 -68.492   3.903  1.00  0.00     0.003 C 
ATOM      6  C   UNL     1      97.556 -67.645   3.957  1.00  0.00     0.004 C 
ENDBRANCH   1   5
TORSDOF 2
ENDMDL
MODEL 6
REMARK VINA RESULT:    -2.643     11.089     11.689
REMARK INTER + INTRA:          -2.962
REMARK INTER:                  -2.954
REMARK INTRA:                  -0.008
REMARK UNBOUND:                -0.010
REMARK SMILES CCCC(=O)[O-]
REMARK SMILES IDX 3 1 4 2 5 3 6 4 2 5 1 6
REMARK H PARENT
REMARK Flexibility Score: inf
ROOT
ATOM      1  C   UNL     1      99.989 -67.404  11.144  1.00  0.00     0.052 C 
ENDROOT
BRANCH   1   2
ATOM      2  C   UNL     1     100.611 -68.656  10.606  1.00  0.00     0.041 C 
ATOM      3  O   UNL     1     100.634 -68.870   9.366  1.00  0.00    -0.550 OA
ATOM      4  O   UNL     1     101.134 -69.604  11.477  1.00  0.00    -0.550 OA
ENDBRANCH   1   2
BRANCH   1   5
ATOM      5  C   UNL     1     100.222 -66.208  10.212  1.00  0.00     0.003 C 
ATOM      6  C   UNL     1      99.827 -64.881  10.860  1.00  0.00     0.004 C 
ENDBRANCH   1   5
TORSDOF 2
ENDMDL
MODEL 7
REMARK VINA RESULT:    -2.573     20.948     21.677
REMARK INTER + INTRA:          -2.885
REMARK INTER:                  -2.867
REMARK INTRA:                  -0.018
REMARK UNBOUND:                -0.010
REMARK SMILES CCCC(=O)[O-]
REMARK SMILES IDX 3 1 4 2 5 3 6 4 2 5 1 6
REMARK H PARENT
REMARK Flexibility Score: inf
ROOT
ATOM      1  C   UNL     1      84.427 -85.125  -3.436  1.00  0.00     0.052 C 
ENDROOT
BRANCH   1   2
ATOM      2  C   UNL     1      83.429 -84.409  -2.579  1.00  0.00     0.041 C 
ATOM      3  O   UNL     1      83.340 -83.154  -2.624  1.00  0.00    -0.550 OA
ATOM      4  O   UNL     1      82.619 -85.125  -1.706  1.00  0.00    -0.550 OA
ENDBRANCH   1   2
BRANCH   1   5
ATOM      5  C   UNL     1      85.124 -84.173  -4.415  1.00  0.00     0.003 C 
ATOM      6  C   UNL     1      86.584 -84.555  -4.660  1.00  0.00     0.004 C 
ENDBRANCH   1   5
TORSDOF 2
ENDMDL
MODEL 8
REMARK VINA RESULT:    -2.371      5.525      7.242
REMARK INTER + INTRA:          -2.659
REMARK INTER:                  -2.641
REMARK INTRA:                  -0.018
REMARK UNBOUND:                -0.010
REMARK SMILES CCCC(=O)[O-]
REMARK SMILES IDX 3 1 4 2 5 3 6 4 2 5 1 6
REMARK H PARENT
REMARK Flexibility Score: inf
ROOT
ATOM      1  C   UNL     1     100.385 -69.239   5.726  1.00  0.00     0.052 C 
ENDROOT
BRANCH   1   2
ATOM      2  C   UNL     1      99.533 -68.578   4.686  1.00  0.00     0.041 C 
ATOM      3  O   UNL     1      99.020 -69.260   3.760  1.00  0.00    -0.550 OA
ATOM      4  O   UNL     1      99.334 -67.203   4.718  1.00  0.00    -0.550 OA
ENDBRANCH   1   2
BRANCH   1   5
ATOM      5  C   UNL     1     100.993 -68.218   6.696  1.00  0.00     0.003 C 
ATOM      6  C   UNL     1     100.958 -68.700   8.146  1.00  0.00     0.004 C 
ENDBRANCH   1   5
TORSDOF 2
ENDMDL
MODEL 9
REMARK VINA RESULT:    -2.361      3.791      4.788
REMARK INTER + INTRA:          -2.647
REMARK INTER:                  -2.638
REMARK INTRA:                  -0.009
REMARK UNBOUND:                -0.010
REMARK SMILES CCCC(=O)[O-]
REMARK SMILES IDX 3 1 4 2 5 3 6 4 2 5 1 6
REMARK H PARENT
REMARK Flexibility Score: inf
ROOT
ATOM      1  C   UNL     1      98.511 -66.946   2.915  1.00  0.00     0.052 C 
ENDROOT
BRANCH   1   2
ATOM      2  C   UNL     1      99.079 -68.320   2.739  1.00  0.00     0.041 C 
ATOM      3  O   UNL     1      98.978 -69.171   3.662  1.00  0.00    -0.550 OA
ATOM      4  O   UNL     1      99.751 -68.652   1.569  1.00  0.00    -0.550 OA
ENDBRANCH   1   2
BRANCH   1   5
ATOM      5  C   UNL     1      97.220 -66.965   3.743  1.00  0.00     0.003 C 
ATOM      6  C   UNL     1      96.697 -65.559   4.039  1.00  0.00     0.004 C 
ENDBRANCH   1   5
TORSDOF 2
ENDMDL
