MODEL 1
REMARK VINA RESULT:    -5.864      0.000      0.000
REMARK INTER + INTRA:          -6.305
REMARK INTER:                  -6.207
REMARK INTRA:                  -0.098
REMARK UNBOUND:                -0.098
REMARK SMILES C=C(C)[C@H]1CC=C(C)C(=O)C1
REMARK SMILES IDX 8 1 7 2 6 3 5 4 4 5 11 6 9 7 10 8 2 9 1 10 3 11
REMARK H PARENT
REMARK Flexibility Score: inf
ROOT
ATOM      1  C   UNL     1      30.696  17.815  26.752  1.00  0.00     0.048 C 
ATOM      2  C   UNL     1      29.353  18.248  27.270  1.00  0.00    -0.012 C 
ATOM      3  C   UNL     1      28.460  18.802  26.432  1.00  0.00    -0.019 C 
ATOM      4  C   UNL     1      27.108  19.270  26.901  1.00  0.00     0.036 C 
ATOM      5  C   UNL     1      26.586  18.389  28.053  1.00  0.00     0.025 C 
ATOM      6  C   UNL     1      27.616  18.341  29.197  1.00  0.00     0.089 C 
ATOM      7  C   UNL     1      28.970  17.950  28.673  1.00  0.00     0.158 C 
ATOM      8  O   UNL     1      29.794  17.398  29.451  1.00  0.00    -0.295 OA
ENDROOT
BRANCH   5   9
ATOM      9  C   UNL     1      25.227  18.867  28.548  1.00  0.00    -0.077 C 
ATOM     10  C   UNL     1      24.950  18.861  29.861  1.00  0.00     0.008 C 
ATOM     11  C   UNL     1      24.168  19.354  27.590  1.00  0.00     0.039 C 
ENDBRANCH   5   9
TORSDOF 1
ENDMDL
MODEL 2
REMARK VINA RESULT:    -5.790      1.832      2.619
REMARK INTER + INTRA:          -6.227
REMARK INTER:                  -6.139
REMARK INTRA:                  -0.088
REMARK UNBOUND:                -0.098
REMARK SMILES C=C(C)[C@H]1CC=C(C)C(=O)C1
REMARK SMILES IDX 8 1 7 2 6 3 5 4 4 5 11 6 9 7 10 8 2 9 1 10 3 11
REMARK H PARENT
REMARK Flexibility Score: inf
ROOT
ATOM      1  C   UNL     1      31.434  17.977  25.869  1.00  0.00     0.048 C 
ATOM      2  C   UNL     1      30.228  18.169  26.745  1.00  0.00    -0.012 C 
ATOM      3  C   UNL     1      30.210  17.647  27.983  1.00  0.00    -0.019 C 
ATOM      4  C   UNL     1      29.021  17.793  28.896  1.00  0.00     0.036 C 
ATOM      5  C   UNL     1      28.301  19.133  28.655  1.00  0.00     0.025 C 
ATOM      6  C   UNL     1      27.918  19.274  27.171  1.00  0.00     0.089 C 
ATOM      7  C   UNL     1      29.114  19.039  26.290  1.00  0.00     0.158 C 
ATOM      8  O   UNL     1      29.145  19.561  25.143  1.00  0.00    -0.295 OA
ENDROOT
BRANCH   5   9
ATOM      9  C   UNL     1      27.084  19.283  29.560  1.00  0.00    -0.077 C 
ATOM     10  C   UNL     1      27.192  19.932  30.730  1.00  0.00     0.008 C 
ATOM     11  C   UNL     1      25.742  18.714  29.172  1.00  0.00     0.039 C 
ENDBRANCH   5   9
TORSDOF 1
ENDMDL
MODEL 3
REMARK VINA RESULT:    -5.752     10.587     12.673
REMARK INTER + INTRA:          -6.187
REMARK INTER:                  -6.090
REMARK INTRA:                  -0.097
REMARK UNBOUND:                -0.098
REMARK SMILES C=C(C)[C@H]1CC=C(C)C(=O)C1
REMARK SMILES IDX 8 1 7 2 6 3 5 4 4 5 11 6 9 7 10 8 2 9 1 10 3 11
REMARK H PARENT
REMARK Flexibility Score: inf
ROOT
ATOM      1  C   UNL     1      33.261  21.109  20.922  1.00  0.00     0.048 C 
ATOM      2  C   UNL     1      33.197  20.840  19.444  1.00  0.00    -0.012 C 
ATOM      3  C   UNL     1      32.333  19.929  18.966  1.00  0.00    -0.019 C 
ATOM      4  C   UNL     1      32.240  19.608  17.498  1.00  0.00     0.036 C 
ATOM      5  C   UNL     1      32.547  20.850  16.639  1.00  0.00     0.025 C 
ATOM      6  C   UNL     1      33.916  21.440  17.023  1.00  0.00     0.089 C 
ATOM      7  C   UNL     1      33.997  21.668  18.507  1.00  0.00     0.158 C 
ATOM      8  O   UNL     1      34.782  22.549  18.951  1.00  0.00    -0.295 OA
ENDROOT
BRANCH   5   9
ATOM      9  C   UNL     1      32.475  20.530  15.152  1.00  0.00    -0.077 C 
ATOM     10  C   UNL     1      33.503  19.913  14.547  1.00  0.00     0.008 C 
ATOM     11  C   UNL     1      31.265  20.892  14.327  1.00  0.00     0.039 C 
ENDBRANCH   5   9
TORSDOF 1
ENDMDL
MODEL 4
REMARK VINA RESULT:    -5.694      1.518      4.277
REMARK INTER + INTRA:          -6.125
REMARK INTER:                  -6.037
REMARK INTRA:                  -0.088
REMARK UNBOUND:                -0.098
REMARK SMILES C=C(C)[C@H]1CC=C(C)C(=O)C1
REMARK SMILES IDX 8 1 7 2 6 3 5 4 4 5 11 6 9 7 10 8 2 9 1 10 3 11
REMARK H PARENT
REMARK Flexibility Score: inf
ROOT
ATOM      1  C   UNL     1      24.615  18.888  30.078  1.00  0.00     0.048 C 
ATOM      2  C   UNL     1      25.792  18.786  29.149  1.00  0.00    -0.012 C 
ATOM      3  C   UNL     1      25.622  18.309  27.905  1.00  0.00    -0.019 C 
ATOM      4  C   UNL     1      26.769  18.167  26.939  1.00  0.00     0.036 C 
ATOM      5  C   UNL     1      27.821  19.270  27.165  1.00  0.00     0.025 C 
ATOM      6  C   UNL     1      28.290  19.270  28.631  1.00  0.00     0.089 C 
ATOM      7  C   UNL     1      27.111  19.328  29.563  1.00  0.00     0.158 C 
ATOM      8  O   UNL     1      27.263  19.810  30.718  1.00  0.00    -0.295 OA
ENDROOT
BRANCH   5   9
ATOM      9  C   UNL     1      28.996  19.124  26.206  1.00  0.00    -0.077 C 
ATOM     10  C   UNL     1      28.927  19.651  24.973  1.00  0.00     0.008 C 
ATOM     11  C   UNL     1      30.254  18.395  26.609  1.00  0.00     0.039 C 
ENDBRANCH   5   9
TORSDOF 1
ENDMDL
MODEL 5
REMARK VINA RESULT:    -5.676      8.623     10.936
REMARK INTER + INTRA:          -6.106
REMARK INTER:                  -6.011
REMARK INTRA:                  -0.095
REMARK UNBOUND:                -0.098
REMARK SMILES C=C(C)[C@H]1CC=C(C)C(=O)C1
REMARK SMILES IDX 8 1 7 2 6 3 5 4 4 5 11 6 9 7 10 8 2 9 1 10 3 11
REMARK H PARENT
REMARK Flexibility Score: inf
ROOT
ATOM      1  C   UNL     1      30.888  19.710  22.342  1.00  0.00     0.048 C 
ATOM      2  C   UNL     1      31.620  19.983  21.058  1.00  0.00    -0.012 C 
ATOM      3  C   UNL     1      31.085  19.596  19.888  1.00  0.00    -0.019 C 
ATOM      4  C   UNL     1      31.783  19.827  18.574  1.00  0.00     0.036 C 
ATOM      5  C   UNL     1      32.611  21.126  18.608  1.00  0.00     0.025 C 
ATOM      6  C   UNL     1      33.592  21.103  19.794  1.00  0.00     0.089 C 
ATOM      7  C   UNL     1      32.868  20.788  21.074  1.00  0.00     0.158 C 
ATOM      8  O   UNL     1      33.353  21.183  22.168  1.00  0.00    -0.295 OA
ENDROOT
BRANCH   5   9
ATOM      9  C   UNL     1      33.337  21.360  17.290  1.00  0.00    -0.077 C 
ATOM     10  C   UNL     1      32.715  21.114  16.126  1.00  0.00     0.008 C 
ATOM     11  C   UNL     1      34.758  21.867  17.254  1.00  0.00     0.039 C 
ENDBRANCH   5   9
TORSDOF 1
ENDMDL
MODEL 6
REMARK VINA RESULT:    -5.667      8.958     11.280
REMARK INTER + INTRA:          -6.096
REMARK INTER:                  -6.001
REMARK INTRA:                  -0.096
REMARK UNBOUND:                -0.098
REMARK SMILES C=C(C)[C@H]1CC=C(C)C(=O)C1
REMARK SMILES IDX 8 1 7 2 6 3 5 4 4 5 11 6 9 7 10 8 2 9 1 10 3 11
REMARK H PARENT
REMARK Flexibility Score: inf
ROOT
ATOM      1  C   UNL     1      32.291  19.972  22.527  1.00  0.00     0.048 C 
ATOM      2  C   UNL     1      32.516  20.458  21.123  1.00  0.00    -0.012 C 
ATOM      3  C   UNL     1      33.614  21.176  20.831  1.00  0.00    -0.019 C 
ATOM      4  C   UNL     1      33.879  21.704  19.446  1.00  0.00     0.036 C 
ATOM      5  C   UNL     1      33.320  20.749  18.373  1.00  0.00     0.025 C 
ATOM      6  C   UNL     1      31.824  20.486  18.621  1.00  0.00     0.089 C 
ATOM      7  C   UNL     1      31.592  20.040  20.038  1.00  0.00     0.158 C 
ATOM      8  O   UNL     1      30.581  19.337  20.304  1.00  0.00    -0.295 OA
ENDROOT
BRANCH   5   9
ATOM      9  C   UNL     1      33.566  21.284  16.968  1.00  0.00    -0.077 C 
ATOM     10  C   UNL     1      34.725  21.895  16.675  1.00  0.00     0.008 C 
ATOM     11  C   UNL     1      32.529  21.143  15.881  1.00  0.00     0.039 C 
ENDBRANCH   5   9
TORSDOF 1
ENDMDL
MODEL 7
REMARK VINA RESULT:    -5.643     10.063     12.365
REMARK INTER + INTRA:          -6.071
REMARK INTER:                  -5.982
REMARK INTRA:                  -0.089
REMARK UNBOUND:                -0.098
REMARK SMILES C=C(C)[C@H]1CC=C(C)C(=O)C1
REMARK SMILES IDX 8 1 7 2 6 3 5 4 4 5 11 6 9 7 10 8 2 9 1 10 3 11
REMARK H PARENT
REMARK Flexibility Score: inf
ROOT
ATOM      1  C   UNL     1      33.265  21.212  21.410  1.00  0.00     0.048 C 
ATOM      2  C   UNL     1      33.268  21.112  19.911  1.00  0.00    -0.012 C 
ATOM      3  C   UNL     1      34.336  21.536  19.214  1.00  0.00    -0.019 C 
ATOM      4  C   UNL     1      34.384  21.476  17.710  1.00  0.00     0.036 C 
ATOM      5  C   UNL     1      33.595  20.264  17.179  1.00  0.00     0.025 C 
ATOM      6  C   UNL     1      32.153  20.289  17.716  1.00  0.00     0.089 C 
ATOM      7  C   UNL     1      32.148  20.432  19.212  1.00  0.00     0.158 C 
ATOM      8  O   UNL     1      31.161  20.001  19.868  1.00  0.00    -0.295 OA
ENDROOT
BRANCH   5   9
ATOM      9  C   UNL     1      33.621  20.205  15.656  1.00  0.00    -0.077 C 
ATOM     10  C   UNL     1      34.680  19.678  15.022  1.00  0.00     0.008 C 
ATOM     11  C   UNL     1      32.473  20.730  14.830  1.00  0.00     0.039 C 
ENDBRANCH   5   9
TORSDOF 1
ENDMDL
MODEL 8
REMARK VINA RESULT:    -5.602     10.089     11.893
REMARK INTER + INTRA:          -6.028
REMARK INTER:                  -5.930
REMARK INTRA:                  -0.098
REMARK UNBOUND:                -0.098
REMARK SMILES C=C(C)[C@H]1CC=C(C)C(=O)C1
REMARK SMILES IDX 8 1 7 2 6 3 5 4 4 5 11 6 9 7 10 8 2 9 1 10 3 11
REMARK H PARENT
REMARK Flexibility Score: inf
ROOT
ATOM      1  C   UNL     1      33.266  19.999  14.288  1.00  0.00     0.048 C 
ATOM      2  C   UNL     1      33.093  20.025  15.780  1.00  0.00    -0.012 C 
ATOM      3  C   UNL     1      33.335  21.157  16.463  1.00  0.00    -0.019 C 
ATOM      4  C   UNL     1      33.196  21.234  17.960  1.00  0.00     0.036 C 
ATOM      5  C   UNL     1      32.075  20.303  18.459  1.00  0.00     0.025 C 
ATOM      6  C   UNL     1      32.318  18.864  17.969  1.00  0.00     0.089 C 
ATOM      7  C   UNL     1      32.535  18.841  16.481  1.00  0.00     0.158 C 
ATOM      8  O   UNL     1      32.272  17.790  15.838  1.00  0.00    -0.295 OA
ENDROOT
BRANCH   5   9
ATOM      9  C   UNL     1      31.938  20.358  19.976  1.00  0.00    -0.077 C 
ATOM     10  C   UNL     1      32.974  20.757  20.730  1.00  0.00     0.008 C 
ATOM     11  C   UNL     1      30.652  19.972  20.664  1.00  0.00     0.039 C 
ENDBRANCH   5   9
TORSDOF 1
ENDMDL
MODEL 9
REMARK VINA RESULT:    -5.568      8.976     10.852
REMARK INTER + INTRA:          -5.992
REMARK INTER:                  -5.894
REMARK INTRA:                  -0.098
REMARK UNBOUND:                -0.098
REMARK SMILES C=C(C)[C@H]1CC=C(C)C(=O)C1
REMARK SMILES IDX 8 1 7 2 6 3 5 4 4 5 11 6 9 7 10 8 2 9 1 10 3 11
REMARK H PARENT
REMARK Flexibility Score: inf
ROOT
ATOM      1  C   UNL     1      34.733  21.767  16.536  1.00  0.00     0.048 C 
ATOM      2  C   UNL     1      34.083  21.194  17.764  1.00  0.00    -0.012 C 
ATOM      3  C   UNL     1      34.248  21.799  18.952  1.00  0.00    -0.019 C 
ATOM      4  C   UNL     1      33.635  21.258  20.217  1.00  0.00     0.036 C 
ATOM      5  C   UNL     1      32.290  20.565  19.927  1.00  0.00     0.025 C 
ATOM      6  C   UNL     1      32.471  19.476  18.854  1.00  0.00     0.089 C 
ATOM      7  C   UNL     1      33.160  20.037  17.641  1.00  0.00     0.158 C 
ATOM      8  O   UNL     1      32.976  19.490  16.521  1.00  0.00    -0.295 OA
ENDROOT
BRANCH   5   9
ATOM      9  C   UNL     1      31.671  19.996  21.198  1.00  0.00    -0.077 C 
ATOM     10  C   UNL     1      32.457  19.474  22.153  1.00  0.00     0.008 C 
ATOM     11  C   UNL     1      30.179  20.005  21.417  1.00  0.00     0.039 C 
ENDBRANCH   5   9
TORSDOF 1
ENDMDL
