MODEL 1
REMARK VINA RESULT:    -3.176      0.000      0.000
REMARK INTER + INTRA:          -3.529
REMARK INTER:                  -3.362
REMARK INTRA:                  -0.167
REMARK UNBOUND:                -0.167
REMARK SMILES CC(C)[C@@H]1CC[C@@H](C)CC1=O
REMARK SMILES IDX 8 1 7 2 6 3 5 4 4 5 10 6 11 7 9 8 2 9 1 10 3 11
REMARK H PARENT
REMARK Flexibility Score: inf
ROOT
ATOM      1  C   UNL     1     130.992 136.099 145.136  1.00  0.00     0.008 C 
ATOM      2  C   UNL     1     132.304 136.888 145.184  1.00  0.00    -0.007 C 
ATOM      3  C   UNL     1     132.457 137.604 146.542  1.00  0.00     0.004 C 
ATOM      4  C   UNL     1     133.763 138.419 146.610  1.00  0.00     0.012 C 
ATOM      5  C   UNL     1     133.849 139.461 145.468  1.00  0.00     0.058 C 
ATOM      6  C   UNL     1     133.615 138.724 144.160  1.00  0.00     0.136 C 
ATOM      7  O   UNL     1     134.444 138.722 143.261  1.00  0.00    -0.299 OA
ATOM      8  C   UNL     1     132.369 137.898 144.026  1.00  0.00     0.079 C 
ENDROOT
BRANCH   5   9
ATOM      9  C   UNL     1     135.183 140.279 145.476  1.00  0.00    -0.007 C 
ATOM     10  C   UNL     1     134.900 141.793 145.483  1.00  0.00     0.008 C 
ATOM     11  C   UNL     1     136.079 139.945 146.682  1.00  0.00     0.008 C 
ENDBRANCH   5   9
TORSDOF 1
ENDMDL
MODEL 2
REMARK VINA RESULT:    -3.174      9.658     10.941
REMARK INTER + INTRA:          -3.527
REMARK INTER:                  -3.360
REMARK INTRA:                  -0.167
REMARK UNBOUND:                -0.167
REMARK SMILES CC(C)[C@@H]1CC[C@@H](C)CC1=O
REMARK SMILES IDX 8 1 7 2 6 3 5 4 4 5 10 6 11 7 9 8 2 9 1 10 3 11
REMARK H PARENT
REMARK Flexibility Score: inf
ROOT
ATOM      1  C   UNL     1     145.471 131.000 145.147  1.00  0.00     0.008 C 
ATOM      2  C   UNL     1     144.686 132.315 145.194  1.00  0.00    -0.007 C 
ATOM      3  C   UNL     1     143.983 132.478 146.558  1.00  0.00     0.004 C 
ATOM      4  C   UNL     1     143.172 133.786 146.626  1.00  0.00     0.012 C 
ATOM      5  C   UNL     1     142.119 133.867 145.493  1.00  0.00     0.058 C 
ATOM      6  C   UNL     1     142.842 133.623 144.180  1.00  0.00     0.136 C 
ATOM      7  O   UNL     1     142.837 134.446 143.276  1.00  0.00    -0.299 OA
ATOM      8  C   UNL     1     143.663 132.374 144.046  1.00  0.00     0.079 C 
ENDROOT
BRANCH   5   9
ATOM      9  C   UNL     1     141.304 135.204 145.502  1.00  0.00    -0.007 C 
ATOM     10  C   UNL     1     139.789 134.924 145.494  1.00  0.00     0.008 C 
ATOM     11  C   UNL     1     141.630 136.092 146.715  1.00  0.00     0.008 C 
ENDBRANCH   5   9
TORSDOF 1
ENDMDL
MODEL 3
REMARK VINA RESULT:    -3.173      9.603     10.929
REMARK INTER + INTRA:          -3.526
REMARK INTER:                  -3.358
REMARK INTRA:                  -0.168
REMARK UNBOUND:                -0.167
REMARK SMILES CC(C)[C@@H]1CC[C@@H](C)CC1=O
REMARK SMILES IDX 8 1 7 2 6 3 5 4 4 5 10 6 11 7 9 8 2 9 1 10 3 11
REMARK H PARENT
REMARK Flexibility Score: inf
ROOT
ATOM      1  C   UNL     1     136.100 150.597 145.154  1.00  0.00     0.008 C 
ATOM      2  C   UNL     1     136.877 149.277 145.207  1.00  0.00    -0.007 C 
ATOM      3  C   UNL     1     137.602 149.128 146.560  1.00  0.00     0.004 C 
ATOM      4  C   UNL     1     138.404 147.814 146.632  1.00  0.00     0.012 C 
ATOM      5  C   UNL     1     139.437 147.709 145.483  1.00  0.00     0.058 C 
ATOM      6  C   UNL     1     138.693 147.941 144.178  1.00  0.00     0.136 C 
ATOM      7  O   UNL     1     138.676 147.105 143.286  1.00  0.00    -0.299 OA
ATOM      8  C   UNL     1     137.879 149.194 144.041  1.00  0.00     0.079 C 
ENDROOT
BRANCH   5   9
ATOM      9  C   UNL     1     140.242 146.367 145.496  1.00  0.00    -0.007 C 
ATOM     10  C   UNL     1     141.758 146.636 145.536  1.00  0.00     0.008 C 
ATOM     11  C   UNL     1     139.875 145.464 146.686  1.00  0.00     0.008 C 
ENDBRANCH   5   9
TORSDOF 1
ENDMDL
MODEL 4
REMARK VINA RESULT:    -3.170     12.720     15.539
REMARK INTER + INTRA:          -3.523
REMARK INTER:                  -3.355
REMARK INTRA:                  -0.167
REMARK UNBOUND:                -0.167
REMARK SMILES CC(C)[C@@H]1CC[C@@H](C)CC1=O
REMARK SMILES IDX 8 1 7 2 6 3 5 4 4 5 10 6 11 7 9 8 2 9 1 10 3 11
REMARK H PARENT
REMARK Flexibility Score: inf
ROOT
ATOM      1  C   UNL     1     150.633 145.500 145.103  1.00  0.00     0.008 C 
ATOM      2  C   UNL     1     149.323 144.708 145.165  1.00  0.00    -0.007 C 
ATOM      3  C   UNL     1     149.178 144.004 146.530  1.00  0.00     0.004 C 
ATOM      4  C   UNL     1     147.875 143.187 146.613  1.00  0.00     0.012 C 
ATOM      5  C   UNL     1     147.785 142.133 145.481  1.00  0.00     0.058 C 
ATOM      6  C   UNL     1     148.011 142.858 144.165  1.00  0.00     0.136 C 
ATOM      7  O   UNL     1     147.177 142.851 143.271  1.00  0.00    -0.299 OA
ATOM      8  C   UNL     1     149.255 143.686 144.017  1.00  0.00     0.079 C 
ENDROOT
BRANCH   5   9
ATOM      9  C   UNL     1     146.453 141.313 145.504  1.00  0.00    -0.007 C 
ATOM     10  C   UNL     1     146.740 139.799 145.524  1.00  0.00     0.008 C 
ATOM     11  C   UNL     1     145.563 141.656 146.712  1.00  0.00     0.008 C 
ENDBRANCH   5   9
TORSDOF 1
ENDMDL
MODEL 5
REMARK VINA RESULT:    -3.080      5.919      8.405
REMARK INTER + INTRA:          -3.427
REMARK INTER:                  -3.268
REMARK INTRA:                  -0.159
REMARK UNBOUND:                -0.167
REMARK SMILES CC(C)[C@@H]1CC[C@@H](C)CC1=O
REMARK SMILES IDX 8 1 7 2 6 3 5 4 4 5 10 6 11 7 9 8 2 9 1 10 3 11
REMARK H PARENT
REMARK Flexibility Score: inf
ROOT
ATOM      1  C   UNL     1     134.641 143.799 145.906  1.00  0.00     0.008 C 
ATOM      2  C   UNL     1     135.905 144.609 145.602  1.00  0.00    -0.007 C 
ATOM      3  C   UNL     1     135.872 145.963 146.340  1.00  0.00     0.004 C 
ATOM      4  C   UNL     1     137.127 146.805 146.038  1.00  0.00     0.012 C 
ATOM      5  C   UNL     1     137.299 147.054 144.519  1.00  0.00     0.058 C 
ATOM      6  C   UNL     1     137.246 145.702 143.827  1.00  0.00     0.136 C 
ATOM      7  O   UNL     1     138.172 145.288 143.143  1.00  0.00    -0.299 OA
ATOM      8  C   UNL     1     136.059 144.821 144.085  1.00  0.00     0.079 C 
ENDROOT
BRANCH   5   9
ATOM      9  C   UNL     1     138.589 147.868 144.168  1.00  0.00    -0.007 C 
ATOM     10  C   UNL     1     138.285 149.377 144.108  1.00  0.00     0.008 C 
ATOM     11  C   UNL     1     139.730 147.640 145.175  1.00  0.00     0.008 C 
ENDBRANCH   5   9
TORSDOF 1
ENDMDL
MODEL 6
REMARK VINA RESULT:    -3.074     13.091     14.174
REMARK INTER + INTRA:          -3.421
REMARK INTER:                  -3.252
REMARK INTRA:                  -0.169
REMARK UNBOUND:                -0.167
REMARK SMILES CC(C)[C@@H]1CC[C@@H](C)CC1=O
REMARK SMILES IDX 8 1 7 2 6 3 5 4 4 5 10 6 11 7 9 8 2 9 1 10 3 11
REMARK H PARENT
REMARK Flexibility Score: inf
ROOT
ATOM      1  C   UNL     1     143.706 146.945 145.715  1.00  0.00     0.008 C 
ATOM      2  C   UNL     1     144.538 145.681 145.483  1.00  0.00    -0.007 C 
ATOM      3  C   UNL     1     145.859 145.747 146.278  1.00  0.00     0.004 C 
ATOM      4  C   UNL     1     146.723 144.492 146.049  1.00  0.00     0.012 C 
ATOM      5  C   UNL     1     147.039 144.279 144.548  1.00  0.00     0.058 C 
ATOM      6  C   UNL     1     145.718 144.299 143.797  1.00  0.00     0.136 C 
ATOM      7  O   UNL     1     145.341 143.350 143.124  1.00  0.00    -0.299 OA
ATOM      8  C   UNL     1     144.817 145.485 143.983  1.00  0.00     0.079 C 
ENDROOT
BRANCH   5   9
ATOM      9  C   UNL     1     147.878 142.987 144.270  1.00  0.00    -0.007 C 
ATOM     10  C   UNL     1     149.381 143.314 144.197  1.00  0.00     0.008 C 
ATOM     11  C   UNL     1     147.667 141.899 145.338  1.00  0.00     0.008 C 
ENDBRANCH   5   9
TORSDOF 1
ENDMDL
MODEL 7
REMARK VINA RESULT:    -3.060      9.067     10.586
REMARK INTER + INTRA:          -3.406
REMARK INTER:                  -3.262
REMARK INTRA:                  -0.144
REMARK UNBOUND:                -0.167
REMARK SMILES CC(C)[C@@H]1CC[C@@H](C)CC1=O
REMARK SMILES IDX 8 1 7 2 6 3 5 4 4 5 10 6 11 7 9 8 2 9 1 10 3 11
REMARK H PARENT
REMARK Flexibility Score: inf
ROOT
ATOM      1  C   UNL     1     133.955 150.303 145.068  1.00  0.00     0.008 C 
ATOM      2  C   UNL     1     135.110 149.512 144.446  1.00  0.00    -0.007 C 
ATOM      3  C   UNL     1     134.892 147.997 144.631  1.00  0.00     0.004 C 
ATOM      4  C   UNL     1     136.049 147.178 144.027  1.00  0.00     0.012 C 
ATOM      5  C   UNL     1     137.415 147.578 144.639  1.00  0.00     0.058 C 
ATOM      6  C   UNL     1     137.551 149.085 144.505  1.00  0.00     0.136 C 
ATOM      7  O   UNL     1     138.476 149.600 143.893  1.00  0.00    -0.299 OA
ATOM      8  C   UNL     1     136.453 149.947 145.058  1.00  0.00     0.079 C 
ENDROOT
BRANCH   5   9
ATOM      9  C   UNL     1     138.622 146.799 144.018  1.00  0.00    -0.007 C 
ATOM     10  C   UNL     1     139.715 146.547 145.074  1.00  0.00     0.008 C 
ATOM     11  C   UNL     1     138.210 145.447 143.410  1.00  0.00     0.008 C 
ENDBRANCH   5   9
TORSDOF 1
ENDMDL
MODEL 8
REMARK VINA RESULT:    -3.034      9.973     12.047
REMARK INTER + INTRA:          -3.378
REMARK INTER:                  -3.214
REMARK INTRA:                  -0.164
REMARK UNBOUND:                -0.167
REMARK SMILES CC(C)[C@@H]1CC[C@@H](C)CC1=O
REMARK SMILES IDX 8 1 7 2 6 3 5 4 4 5 10 6 11 7 9 8 2 9 1 10 3 11
REMARK H PARENT
REMARK Flexibility Score: inf
ROOT
ATOM      1  C   UNL     1     146.837 137.818 146.229  1.00  0.00     0.008 C 
ATOM      2  C   UNL     1     145.599 137.011 145.824  1.00  0.00    -0.007 C 
ATOM      3  C   UNL     1     145.568 135.657 146.563  1.00  0.00     0.004 C 
ATOM      4  C   UNL     1     144.340 134.819 146.161  1.00  0.00     0.012 C 
ATOM      5  C   UNL     1     144.292 134.569 144.633  1.00  0.00     0.058 C 
ATOM      6  C   UNL     1     144.404 135.921 143.947  1.00  0.00     0.136 C 
ATOM      7  O   UNL     1     143.539 136.336 143.190  1.00  0.00    -0.299 OA
ATOM      8  C   UNL     1     145.569 136.799 144.300  1.00  0.00     0.079 C 
ENDROOT
BRANCH   5   9
ATOM      9  C   UNL     1     143.033 133.758 144.178  1.00  0.00    -0.007 C 
ATOM     10  C   UNL     1     143.345 132.251 144.113  1.00  0.00     0.008 C 
ATOM     11  C   UNL     1     141.823 133.966 145.107  1.00  0.00     0.008 C 
ENDBRANCH   5   9
TORSDOF 1
ENDMDL
MODEL 9
REMARK VINA RESULT:    -2.987     10.718     11.997
REMARK INTER + INTRA:          -3.329
REMARK INTER:                  -3.156
REMARK INTRA:                  -0.173
REMARK UNBOUND:                -0.167
REMARK SMILES CC(C)[C@@H]1CC[C@@H](C)CC1=O
REMARK SMILES IDX 8 1 7 2 6 3 5 4 4 5 10 6 11 7 9 8 2 9 1 10 3 11
REMARK H PARENT
REMARK Flexibility Score: inf
ROOT
ATOM      1  C   UNL     1     140.746 134.296 145.152  1.00  0.00     0.008 C 
ATOM      2  C   UNL     1     142.150 134.186 144.550  1.00  0.00    -0.007 C 
ATOM      3  C   UNL     1     142.836 132.882 145.007  1.00  0.00     0.004 C 
ATOM      4  C   UNL     1     144.258 132.754 144.427  1.00  0.00     0.012 C 
ATOM      5  C   UNL     1     145.146 133.963 144.815  1.00  0.00     0.058 C 
ATOM      6  C   UNL     1     144.397 135.224 144.418  1.00  0.00     0.136 C 
ATOM      7  O   UNL     1     144.867 136.037 143.634  1.00  0.00    -0.299 OA
ATOM      8  C   UNL     1     143.000 135.410 144.935  1.00  0.00     0.079 C 
ENDROOT
BRANCH   5   9
ATOM      9  C   UNL     1     146.586 133.892 144.206  1.00  0.00    -0.007 C 
ATOM     10  C   UNL     1     147.641 133.703 145.313  1.00  0.00     0.008 C 
ATOM     11  C   UNL     1     146.744 132.755 143.181  1.00  0.00     0.008 C 
ENDBRANCH   5   9
TORSDOF 1
ENDMDL
