MODEL 1
REMARK VINA RESULT:    -4.796      0.000      0.000
REMARK INTER + INTRA:          -5.532
REMARK INTER:                  -5.497
REMARK INTRA:                  -0.035
REMARK UNBOUND:                -0.035
REMARK SMILES COc1cc(C(=O)[O-])ccc1O
REMARK SMILES IDX 5 1 9 2 4 3 10 4 3 5 11 6 6 7 7 8 8 9 2 10 1 11 12 12
REMARK H PARENT 12 13
REMARK Flexibility Score: inf
ROOT
ATOM      1  C   UNL     1      -3.059  -7.750  -3.058  1.00  0.00     0.001 A 
ATOM      2  C   UNL     1      -2.513  -8.627  -4.009  1.00  0.00     0.014 A 
ATOM      3  C   UNL     1      -2.773  -7.955  -1.696  1.00  0.00     0.060 A 
ATOM      4  C   UNL     1      -1.697  -9.685  -3.608  1.00  0.00     0.051 A 
ATOM      5  C   UNL     1      -1.949  -9.023  -1.285  1.00  0.00     0.161 A 
ATOM      6  C   UNL     1      -1.413  -9.889  -2.256  1.00  0.00     0.157 A 
ENDROOT
BRANCH   1   7
ATOM      7  C   UNL     1      -3.923  -6.628  -3.488  1.00  0.00     0.072 C 
ATOM      8  O   UNL     1      -3.639  -5.442  -3.174  1.00  0.00    -0.545 OA
ATOM      9  O   UNL     1      -5.063  -6.868  -4.247  1.00  0.00    -0.545 OA
ENDBRANCH   1   7
BRANCH   5  10
ATOM     10  O   UNL     1      -1.647  -9.252   0.067  1.00  0.00    -0.493 OA
ATOM     11  C   UNL     1      -2.296 -10.217   0.889  1.00  0.00     0.278 C 
ENDBRANCH   5  10
BRANCH   6  12
ATOM     12  O   UNL     1      -0.594 -10.959  -1.893  1.00  0.00    -0.504 OA
ATOM     13  H   UNL     1       0.284 -10.826  -1.406  1.00  0.00     0.293 HD
ENDBRANCH   6  12
TORSDOF 3
ENDMDL
MODEL 2
REMARK VINA RESULT:    -4.787      2.060      5.009
REMARK INTER + INTRA:          -5.521
REMARK INTER:                  -5.445
REMARK INTRA:                  -0.077
REMARK UNBOUND:                -0.035
REMARK SMILES COc1cc(C(=O)[O-])ccc1O
REMARK SMILES IDX 5 1 9 2 4 3 10 4 3 5 11 6 6 7 7 8 8 9 2 10 1 11 12 12
REMARK H PARENT 12 13
REMARK Flexibility Score: inf
ROOT
ATOM      1  C   UNL     1      -3.443  -8.134  -2.982  1.00  0.00     0.001 A 
ATOM      2  C   UNL     1      -4.183  -9.324  -3.076  1.00  0.00     0.014 A 
ATOM      3  C   UNL     1      -3.947  -6.967  -3.583  1.00  0.00     0.060 A 
ATOM      4  C   UNL     1      -5.402  -9.346  -3.756  1.00  0.00     0.051 A 
ATOM      5  C   UNL     1      -5.178  -6.983  -4.272  1.00  0.00     0.161 A 
ATOM      6  C   UNL     1      -5.902  -8.187  -4.353  1.00  0.00     0.157 A 
ENDROOT
BRANCH   1   7
ATOM      7  C   UNL     1      -2.152  -8.115  -2.260  1.00  0.00     0.072 C 
ATOM      8  O   UNL     1      -1.063  -8.197  -2.889  1.00  0.00    -0.545 OA
ATOM      9  O   UNL     1      -2.122  -8.006  -0.874  1.00  0.00    -0.545 OA
ENDBRANCH   1   7
BRANCH   5  10
ATOM     10  O   UNL     1      -5.705  -5.834  -4.881  1.00  0.00    -0.493 OA
ATOM     11  C   UNL     1      -5.568  -4.511  -4.370  1.00  0.00     0.278 C 
ENDBRANCH   5  10
BRANCH   6  12
ATOM     12  O   UNL     1      -7.124  -8.248  -5.025  1.00  0.00    -0.504 OA
ATOM     13  H   UNL     1      -7.973  -8.566  -4.574  1.00  0.00     0.293 HD
ENDBRANCH   6  12
TORSDOF 3
ENDMDL
MODEL 3
REMARK VINA RESULT:    -4.717      1.622      4.468
REMARK INTER + INTRA:          -5.441
REMARK INTER:                  -5.417
REMARK INTRA:                  -0.024
REMARK UNBOUND:                -0.035
REMARK SMILES COc1cc(C(=O)[O-])ccc1O
REMARK SMILES IDX 5 1 9 2 4 3 10 4 3 5 11 6 6 7 7 8 8 9 2 10 1 11 12 12
REMARK H PARENT 12 13
REMARK Flexibility Score: inf
ROOT
ATOM      1  C   UNL     1      -1.557  -9.762  -0.658  1.00  0.00     0.001 A 
ATOM      2  C   UNL     1      -1.254 -10.759  -1.598  1.00  0.00     0.014 A 
ATOM      3  C   UNL     1      -2.023  -8.514  -1.110  1.00  0.00     0.060 A 
ATOM      4  C   UNL     1      -1.415 -10.515  -2.963  1.00  0.00     0.051 A 
ATOM      5  C   UNL     1      -2.186  -8.261  -2.488  1.00  0.00     0.161 A 
ATOM      6  C   UNL     1      -1.876  -9.276  -3.413  1.00  0.00     0.157 A 
ENDROOT
BRANCH   1   7
ATOM      7  C   UNL     1      -1.386 -10.025   0.789  1.00  0.00     0.072 C 
ATOM      8  O   UNL     1      -2.275  -9.681   1.613  1.00  0.00    -0.545 OA
ATOM      9  O   UNL     1      -0.241 -10.658   1.259  1.00  0.00    -0.545 OA
ENDBRANCH   1   7
BRANCH   5  10
ATOM     10  O   UNL     1      -2.648  -7.026  -2.969  1.00  0.00    -0.493 OA
ATOM     11  C   UNL     1      -3.982  -6.773  -3.399  1.00  0.00     0.278 C 
ENDBRANCH   5  10
BRANCH   6  12
ATOM     12  O   UNL     1      -2.023  -9.069  -4.785  1.00  0.00    -0.504 OA
ATOM     13  H   UNL     1      -2.855  -9.353  -5.289  1.00  0.00     0.293 HD
ENDBRANCH   6  12
TORSDOF 3
ENDMDL
MODEL 4
REMARK VINA RESULT:    -4.680     10.312     10.882
REMARK INTER + INTRA:          -5.399
REMARK INTER:                  -5.322
REMARK INTRA:                  -0.077
REMARK UNBOUND:                -0.035
REMARK SMILES COc1cc(C(=O)[O-])ccc1O
REMARK SMILES IDX 5 1 9 2 4 3 10 4 3 5 11 6 6 7 7 8 8 9 2 10 1 11 12 12
REMARK H PARENT 12 13
REMARK Flexibility Score: inf
ROOT
ATOM      1  C   UNL     1       7.176  -4.910  -1.182  1.00  0.00     0.001 A 
ATOM      2  C   UNL     1       6.642  -6.201  -1.320  1.00  0.00     0.014 A 
ATOM      3  C   UNL     1       7.666  -4.504   0.073  1.00  0.00     0.060 A 
ATOM      4  C   UNL     1       6.600  -7.070  -0.228  1.00  0.00     0.051 A 
ATOM      5  C   UNL     1       7.626  -5.377   1.179  1.00  0.00     0.161 A 
ATOM      6  C   UNL     1       7.087  -6.666   1.018  1.00  0.00     0.157 A 
ENDROOT
BRANCH   1   7
ATOM      7  C   UNL     1       7.219  -3.993  -2.343  1.00  0.00     0.072 C 
ATOM      8  O   UNL     1       6.869  -2.789  -2.223  1.00  0.00    -0.545 OA
ATOM      9  O   UNL     1       7.647  -4.449  -3.584  1.00  0.00    -0.545 OA
ENDBRANCH   1   7
BRANCH   5  10
ATOM     10  O   UNL     1       8.108  -4.999   2.443  1.00  0.00    -0.493 OA
ATOM     11  C   UNL     1       8.913  -3.851   2.692  1.00  0.00     0.278 C 
ENDBRANCH   5  10
BRANCH   6  12
ATOM     12  O   UNL     1       7.027  -7.562   2.086  1.00  0.00    -0.504 OA
ATOM     13  H   UNL     1       7.717  -7.564   2.828  1.00  0.00     0.293 HD
ENDBRANCH   6  12
TORSDOF 3
ENDMDL
MODEL 5
REMARK VINA RESULT:    -4.433      9.807     11.176
REMARK INTER + INTRA:          -5.116
REMARK INTER:                  -5.048
REMARK INTRA:                  -0.068
REMARK UNBOUND:                -0.035
REMARK SMILES COc1cc(C(=O)[O-])ccc1O
REMARK SMILES IDX 5 1 9 2 4 3 10 4 3 5 11 6 6 7 7 8 8 9 2 10 1 11 12 12
REMARK H PARENT 12 13
REMARK Flexibility Score: inf
ROOT
ATOM      1  C   UNL     1       7.180  -5.986   0.479  1.00  0.00     0.001 A 
ATOM      2  C   UNL     1       7.988  -4.843   0.583  1.00  0.00     0.014 A 
ATOM      3  C   UNL     1       6.481  -6.222  -0.719  1.00  0.00     0.060 A 
ATOM      4  C   UNL     1       8.096  -3.954  -0.488  1.00  0.00     0.051 A 
ATOM      5  C   UNL     1       6.586  -5.328  -1.804  1.00  0.00     0.161 A 
ATOM      6  C   UNL     1       7.401  -4.188  -1.677  1.00  0.00     0.157 A 
ENDROOT
BRANCH   1   7
ATOM      7  C   UNL     1       7.069  -6.926   1.616  1.00  0.00     0.072 C 
ATOM      8  O   UNL     1       7.508  -8.103   1.522  1.00  0.00    -0.545 OA
ATOM      9  O   UNL     1       6.478  -6.523   2.808  1.00  0.00    -0.545 OA
ENDBRANCH   1   7
BRANCH   5  10
ATOM     10  O   UNL     1       5.900  -5.537  -3.010  1.00  0.00    -0.493 OA
ATOM     11  C   UNL     1       6.447  -6.198  -4.148  1.00  0.00     0.278 C 
ENDBRANCH   5  10
BRANCH   6  12
ATOM     12  O   UNL     1       7.534  -3.277  -2.725  1.00  0.00    -0.504 OA
ATOM     13  H   UNL     1       6.844  -3.197  -3.462  1.00  0.00     0.293 HD
ENDBRANCH   6  12
TORSDOF 3
ENDMDL
MODEL 6
REMARK VINA RESULT:    -4.405      9.779     10.372
REMARK INTER + INTRA:          -5.084
REMARK INTER:                  -4.986
REMARK INTRA:                  -0.099
REMARK UNBOUND:                -0.035
REMARK SMILES COc1cc(C(=O)[O-])ccc1O
REMARK SMILES IDX 5 1 9 2 4 3 10 4 3 5 11 6 6 7 7 8 8 9 2 10 1 11 12 12
REMARK H PARENT 12 13
REMARK Flexibility Score: inf
ROOT
ATOM      1  C   UNL     1       6.954  -5.736  -3.094  1.00  0.00     0.001 A 
ATOM      2  C   UNL     1       7.272  -4.382  -2.902  1.00  0.00     0.014 A 
ATOM      3  C   UNL     1       6.738  -6.554  -1.970  1.00  0.00     0.060 A 
ATOM      4  C   UNL     1       7.370  -3.856  -1.613  1.00  0.00     0.051 A 
ATOM      5  C   UNL     1       6.836  -6.028  -0.666  1.00  0.00     0.161 A 
ATOM      6  C   UNL     1       7.155  -4.668  -0.497  1.00  0.00     0.157 A 
ENDROOT
BRANCH   1   7
ATOM      7  C   UNL     1       6.850  -6.290  -4.463  1.00  0.00     0.072 C 
ATOM      8  O   UNL     1       6.761  -7.533  -4.647  1.00  0.00    -0.545 OA
ATOM      9  O   UNL     1       6.848  -5.444  -5.566  1.00  0.00    -0.545 OA
ENDBRANCH   1   7
BRANCH   5  10
ATOM     10  O   UNL     1       6.626  -6.820   0.474  1.00  0.00    -0.493 OA
ATOM     11  C   UNL     1       7.469  -7.893   0.880  1.00  0.00     0.278 C 
ENDBRANCH   5  10
BRANCH   6  12
ATOM     12  O   UNL     1       7.263  -4.106   0.776  1.00  0.00    -0.504 OA
ATOM     13  H   UNL     1       6.610  -4.322   1.519  1.00  0.00     0.293 HD
ENDBRANCH   6  12
TORSDOF 3
ENDMDL
MODEL 7
REMARK VINA RESULT:    -4.357      9.729     10.868
REMARK INTER + INTRA:          -5.029
REMARK INTER:                  -4.938
REMARK INTRA:                  -0.091
REMARK UNBOUND:                -0.035
REMARK SMILES COc1cc(C(=O)[O-])ccc1O
REMARK SMILES IDX 5 1 9 2 4 3 10 4 3 5 11 6 6 7 7 8 8 9 2 10 1 11 12 12
REMARK H PARENT 12 13
REMARK Flexibility Score: inf
ROOT
ATOM      1  C   UNL     1       7.034  -6.914   0.973  1.00  0.00     0.001 A 
ATOM      2  C   UNL     1       7.169  -8.071   0.189  1.00  0.00     0.014 A 
ATOM      3  C   UNL     1       6.766  -5.687   0.339  1.00  0.00     0.060 A 
ATOM      4  C   UNL     1       7.039  -8.003  -1.199  1.00  0.00     0.051 A 
ATOM      5  C   UNL     1       6.634  -5.613  -1.062  1.00  0.00     0.161 A 
ATOM      6  C   UNL     1       6.774  -6.785  -1.828  1.00  0.00     0.157 A 
ENDROOT
BRANCH   1   7
ATOM      7  C   UNL     1       7.172  -6.991   2.444  1.00  0.00     0.072 C 
ATOM      8  O   UNL     1       6.427  -6.307   3.195  1.00  0.00    -0.545 OA
ATOM      9  O   UNL     1       8.127  -7.821   3.019  1.00  0.00    -0.545 OA
ENDBRANCH   1   7
BRANCH   5  10
ATOM     10  O   UNL     1       6.368  -4.402  -1.722  1.00  0.00    -0.493 OA
ATOM     11  C   UNL     1       7.364  -3.490  -2.174  1.00  0.00     0.278 C 
ENDBRANCH   5  10
BRANCH   6  12
ATOM     12  O   UNL     1       6.651  -6.756  -3.218  1.00  0.00    -0.504 OA
ATOM     13  H   UNL     1       6.884  -5.936  -3.765  1.00  0.00     0.293 HD
ENDBRANCH   6  12
TORSDOF 3
ENDMDL
MODEL 8
REMARK VINA RESULT:    -4.348      1.053      2.679
REMARK INTER + INTRA:          -5.018
REMARK INTER:                  -4.943
REMARK INTRA:                  -0.075
REMARK UNBOUND:                -0.035
REMARK SMILES COc1cc(C(=O)[O-])ccc1O
REMARK SMILES IDX 5 1 9 2 4 3 10 4 3 5 11 6 6 7 7 8 8 9 2 10 1 11 12 12
REMARK H PARENT 12 13
REMARK Flexibility Score: inf
ROOT
ATOM      1  C   UNL     1      -3.104  -8.092  -2.594  1.00  0.00     0.001 A 
ATOM      2  C   UNL     1      -3.343  -8.197  -1.214  1.00  0.00     0.014 A 
ATOM      3  C   UNL     1      -2.146  -8.934  -3.187  1.00  0.00     0.060 A 
ATOM      4  C   UNL     1      -2.639  -9.124  -0.444  1.00  0.00     0.051 A 
ATOM      5  C   UNL     1      -1.431  -9.871  -2.413  1.00  0.00     0.161 A 
ATOM      6  C   UNL     1      -1.687  -9.958  -1.032  1.00  0.00     0.157 A 
ENDROOT
BRANCH   1   7
ATOM      7  C   UNL     1      -3.853  -7.109  -3.407  1.00  0.00     0.072 C 
ATOM      8  O   UNL     1      -4.707  -7.491  -4.251  1.00  0.00    -0.545 OA
ATOM      9  O   UNL     1      -3.625  -5.747  -3.251  1.00  0.00    -0.545 OA
ENDBRANCH   1   7
BRANCH   5  10
ATOM     10  O   UNL     1      -0.469 -10.723  -2.978  1.00  0.00    -0.493 OA
ATOM     11  C   UNL     1      -0.445 -11.125  -4.344  1.00  0.00     0.278 C 
ENDBRANCH   5  10
BRANCH   6  12
ATOM     12  O   UNL     1      -1.003 -10.872  -0.230  1.00  0.00    -0.504 OA
ATOM     13  H   UNL     1      -0.291 -10.585   0.431  1.00  0.00     0.293 HD
ENDBRANCH   6  12
TORSDOF 3
ENDMDL
MODEL 9
REMARK VINA RESULT:    -4.324      2.251      2.965
REMARK INTER + INTRA:          -4.991
REMARK INTER:                  -4.899
REMARK INTRA:                  -0.092
REMARK UNBOUND:                -0.035
REMARK SMILES COc1cc(C(=O)[O-])ccc1O
REMARK SMILES IDX 5 1 9 2 4 3 10 4 3 5 11 6 6 7 7 8 8 9 2 10 1 11 12 12
REMARK H PARENT 12 13
REMARK Flexibility Score: inf
ROOT
ATOM      1  C   UNL     1      -5.117  -8.461  -3.860  1.00  0.00     0.001 A 
ATOM      2  C   UNL     1      -4.209  -7.398  -3.987  1.00  0.00     0.014 A 
ATOM      3  C   UNL     1      -5.036  -9.299  -2.733  1.00  0.00     0.060 A 
ATOM      4  C   UNL     1      -3.241  -7.175  -3.007  1.00  0.00     0.051 A 
ATOM      5  C   UNL     1      -4.059  -9.079  -1.740  1.00  0.00     0.161 A 
ATOM      6  C   UNL     1      -3.160  -8.007  -1.888  1.00  0.00     0.157 A 
ENDROOT
BRANCH   1   7
ATOM      7  C   UNL     1      -6.143  -8.693  -4.902  1.00  0.00     0.072 C 
ATOM      8  O   UNL     1      -6.496  -7.763  -5.674  1.00  0.00    -0.545 OA
ATOM      9  O   UNL     1      -6.731  -9.945  -5.043  1.00  0.00    -0.545 OA
ENDBRANCH   1   7
BRANCH   5  10
ATOM     10  O   UNL     1      -3.955  -9.898  -0.605  1.00  0.00    -0.493 OA
ATOM     11  C   UNL     1      -3.166 -11.082  -0.531  1.00  0.00     0.278 C 
ENDBRANCH   5  10
BRANCH   6  12
ATOM     12  O   UNL     1      -2.178  -7.753  -0.929  1.00  0.00    -0.504 OA
ATOM     13  H   UNL     1      -1.289  -8.239  -0.923  1.00  0.00     0.293 HD
ENDBRANCH   6  12
TORSDOF 3
ENDMDL
