MODEL 1
REMARK VINA RESULT:    -3.422      0.000      0.000
REMARK INTER + INTRA:          -5.345
REMARK INTER:                  -5.223
REMARK INTRA:                  -0.123
REMARK UNBOUND:                -0.123
REMARK SMILES CC1=CCC[C@H](C)C(=O)C[C@H](C(C)C)C(=O)C1
REMARK SMILES IDX 8 1 9 2 6 3 7 4 5 5 4 6 3 7 2 8 1 9 10 11 11 12 15 13 16 14
REMARK SMILES IDX 17 15 12 17 13 18 14 19
REMARK H PARENT
REMARK Flexibility Score: 70.00
ROOT
ATOM      1  C   UNL     1     141.436 134.607 122.273  1.00  0.00     0.136 C 
ATOM      2  O   UNL     1     142.029 135.206 121.387  1.00  0.00    -0.299 OA
ENDROOT
BRANCH   1   3
ATOM      3  C   UNL     1     139.918 134.608 122.264  1.00  0.00     0.053 C 
ATOM      4  C   UNL     1     139.369 133.318 122.886  1.00  0.00     0.016 C 
BRANCH   3   5
ATOM      5  C   UNL     1     139.348 135.851 122.973  1.00  0.00     0.015 C 
BRANCH   5   6
ATOM      6  C   UNL     1     139.211 135.636 124.492  1.00  0.00     0.028 C 
BRANCH   6   7
ATOM      7  C   UNL     1     139.988 136.680 125.251  1.00  0.00    -0.028 C 
ATOM      8  C   UNL     1     141.138 136.443 125.925  1.00  0.00    -0.070 CG0
ATOM      9  C   UNL     1     141.760 137.585 126.688  1.00  0.00     0.039 C 
ATOM     10  G   UNL     1     141.828 135.087 125.932  1.00  0.00     0.000 G0
ENDBRANCH   6   7
ENDBRANCH   5   6
ENDBRANCH   3   5
ENDBRANCH   1   3
BRANCH   1  11
ATOM     11  C   UNL     1     142.245 133.870 123.318  1.00  0.00     0.087 C 
BRANCH  11  12
ATOM     12  C   UNL     1     143.427 134.723 123.856  1.00  0.00     0.066 C 
BRANCH  12  13
ATOM     13  C   UNL     1     143.211 135.109 125.312  1.00  0.00     0.140 C 
ATOM     14  O   UNL     1     144.152 135.515 125.979  1.00  0.00    -0.299 OA
BRANCH  13  15
ATOM     15  C   UNL     1     141.835 135.077 125.932  1.00  0.00     0.106 CG0
ATOM     16  G   UNL     1     141.164 136.443 125.915  1.00  0.00     0.000 G0
ENDBRANCH  13  15
ENDBRANCH  12  13
BRANCH  12  17
ATOM     17  C   UNL     1     144.821 134.042 123.671  1.00  0.00    -0.006 C 
ATOM     18  C   UNL     1     145.309 134.138 122.214  1.00  0.00     0.008 C 
ATOM     19  C   UNL     1     144.873 132.579 124.145  1.00  0.00     0.008 C 
ENDBRANCH  12  17
ENDBRANCH  11  12
ENDBRANCH   1  11
TORSDOF 1
ENDMDL
MODEL 2
REMARK VINA RESULT:    -3.404      1.761      3.883
REMARK INTER + INTRA:          -5.318
REMARK INTER:                  -4.985
REMARK INTRA:                  -0.333
REMARK UNBOUND:                -0.123
REMARK SMILES CC1=CCC[C@H](C)C(=O)C[C@H](C(C)C)C(=O)C1
REMARK SMILES IDX 8 1 9 2 6 3 7 4 5 5 4 6 3 7 2 8 1 9 10 11 11 12 15 13 16 14
REMARK SMILES IDX 17 15 12 17 13 18 14 19
REMARK H PARENT
REMARK Flexibility Score: 70.00
ROOT
ATOM      1  C   UNL     1     142.472 135.752 121.812  1.00  0.00     0.136 C 
ATOM      2  O   UNL     1     142.661 136.199 120.690  1.00  0.00    -0.299 OA
ENDROOT
BRANCH   1   3
ATOM      3  C   UNL     1     143.524 134.843 122.421  1.00  0.00     0.053 C 
ATOM      4  C   UNL     1     143.945 133.754 121.427  1.00  0.00     0.016 C 
BRANCH   3   5
ATOM      5  C   UNL     1     144.744 135.641 122.918  1.00  0.00     0.015 C 
BRANCH   5   6
ATOM      6  C   UNL     1     144.855 135.627 124.454  1.00  0.00     0.028 C 
BRANCH   6   7
ATOM      7  C   UNL     1     144.146 136.813 125.052  1.00  0.00    -0.028 C 
ATOM      8  C   UNL     1     142.904 136.775 125.589  1.00  0.00    -0.070 CG0
ATOM      9  C   UNL     1     142.310 138.067 126.091  1.00  0.00     0.039 C 
ATOM     10  G   UNL     1     142.097 135.492 125.718  1.00  0.00     0.000 G0
ENDBRANCH   6   7
ENDBRANCH   5   6
ENDBRANCH   3   5
ENDBRANCH   1   3
BRANCH   1  11
ATOM     11  C   UNL     1     141.213 136.149 122.549  1.00  0.00     0.087 C 
BRANCH  11  12
ATOM     12  C   UNL     1     140.728 135.042 123.525  1.00  0.00     0.066 C 
BRANCH  12  13
ATOM     13  C   UNL     1     140.791 135.515 124.971  1.00  0.00     0.140 C 
ATOM     14  O   UNL     1     139.766 135.857 125.544  1.00  0.00    -0.299 OA
BRANCH  13  15
ATOM     15  C   UNL     1     142.088 135.493 125.743  1.00  0.00     0.106 CG0
ATOM     16  G   UNL     1     142.880 136.781 125.574  1.00  0.00     0.000 G0
ENDBRANCH  13  15
ENDBRANCH  12  13
BRANCH  12  17
ATOM     17  C   UNL     1     139.303 134.496 123.190  1.00  0.00    -0.006 C 
ATOM     18  C   UNL     1     139.332 132.988 122.886  1.00  0.00     0.008 C 
ATOM     19  C   UNL     1     138.596 135.248 122.046  1.00  0.00     0.008 C 
ENDBRANCH  12  17
ENDBRANCH  11  12
ENDBRANCH   1  11
TORSDOF 1
ENDMDL
MODEL 3
REMARK VINA RESULT:    -3.390     14.662     16.396
REMARK INTER + INTRA:          -5.296
REMARK INTER:                  -4.871
REMARK INTRA:                  -0.425
REMARK UNBOUND:                -0.123
REMARK SMILES CC1=CCC[C@H](C)C(=O)C[C@H](C(C)C)C(=O)C1
REMARK SMILES IDX 8 1 9 2 6 3 7 4 5 5 4 6 3 7 2 8 1 9 10 11 11 12 15 13 16 14
REMARK SMILES IDX 17 15 12 17 13 18 14 19
REMARK H PARENT
REMARK Flexibility Score: 70.00
ROOT
ATOM      1  C   UNL     1     127.028 140.067 115.593  1.00  0.00     0.136 C 
ATOM      2  O   UNL     1     126.011 140.351 116.209  1.00  0.00    -0.299 OA
ENDROOT
BRANCH   1   3
ATOM      3  C   UNL     1     127.353 140.838 114.326  1.00  0.00     0.053 C 
ATOM      4  C   UNL     1     126.238 140.673 113.287  1.00  0.00     0.016 C 
BRANCH   3   5
ATOM      5  C   UNL     1     127.620 142.325 114.621  1.00  0.00     0.015 C 
BRANCH   5   6
ATOM      6  C   UNL     1     129.119 142.612 114.825  1.00  0.00     0.028 C 
BRANCH   6   7
ATOM      7  C   UNL     1     129.419 142.880 116.277  1.00  0.00    -0.028 C 
ATOM      8  C   UNL     1     130.245 142.130 117.043  1.00  0.00    -0.070 CG0
ATOM      9  C   UNL     1     130.390 142.496 118.498  1.00  0.00     0.039 C 
ATOM     10  G   UNL     1     131.037 140.951 116.495  1.00  0.00     0.000 G0
ENDBRANCH   6   7
ENDBRANCH   5   6
ENDBRANCH   3   5
ENDBRANCH   1   3
BRANCH   1  11
ATOM     11  C   UNL     1     127.927 138.980 116.140  1.00  0.00     0.087 C 
BRANCH  11  12
ATOM     12  C   UNL     1     129.381 139.096 115.605  1.00  0.00     0.066 C 
BRANCH  12  13
ATOM     13  C   UNL     1     130.323 139.626 116.676  1.00  0.00     0.140 C 
ATOM     14  O   UNL     1     130.550 138.954 117.672  1.00  0.00    -0.299 OA
BRANCH  13  15
ATOM     15  C   UNL     1     131.050 140.936 116.495  1.00  0.00     0.106 CG0
ATOM     16  G   UNL     1     130.253 142.116 117.031  1.00  0.00     0.000 G0
ENDBRANCH  13  15
ENDBRANCH  12  13
BRANCH  12  17
ATOM     17  C   UNL     1     129.931 137.762 115.003  1.00  0.00    -0.006 C 
ATOM     18  C   UNL     1     131.295 137.968 114.323  1.00  0.00     0.008 C 
ATOM     19  C   UNL     1     128.961 137.065 114.032  1.00  0.00     0.008 C 
ENDBRANCH  12  17
ENDBRANCH  11  12
ENDBRANCH   1  11
TORSDOF 1
ENDMDL
MODEL 4
REMARK VINA RESULT:    -3.375      2.535      4.061
REMARK INTER + INTRA:          -5.273
REMARK INTER:                  -4.929
REMARK INTRA:                  -0.343
REMARK UNBOUND:                -0.123
REMARK SMILES CC1=CCC[C@H](C)C(=O)C[C@H](C(C)C)C(=O)C1
REMARK SMILES IDX 8 1 9 2 6 3 7 4 5 5 4 6 3 7 2 8 1 9 10 11 11 12 15 13 16 14
REMARK SMILES IDX 17 15 12 17 13 18 14 19
REMARK H PARENT
REMARK Flexibility Score: 70.00
ROOT
ATOM      1  C   UNL     1     143.297 135.743 121.605  1.00  0.00     0.136 C 
ATOM      2  O   UNL     1     144.341 135.741 120.968  1.00  0.00    -0.299 OA
ENDROOT
BRANCH   1   3
ATOM      3  C   UNL     1     142.715 137.074 122.048  1.00  0.00     0.053 C 
ATOM      4  C   UNL     1     143.790 137.945 122.708  1.00  0.00     0.016 C 
BRANCH   3   5
ATOM      5  C   UNL     1     142.043 137.816 120.878  1.00  0.00     0.015 C 
BRANCH   5   6
ATOM      6  C   UNL     1     140.709 137.162 120.471  1.00  0.00     0.028 C 
BRANCH   6   7
ATOM      7  C   UNL     1     139.710 137.242 121.595  1.00  0.00    -0.028 C 
ATOM      8  C   UNL     1     139.096 136.173 122.155  1.00  0.00    -0.070 CG0
ATOM      9  C   UNL     1     138.072 136.429 123.231  1.00  0.00     0.039 C 
ATOM     10  G   UNL     1     139.404 134.738 121.754  1.00  0.00     0.000 G0
ENDBRANCH   6   7
ENDBRANCH   5   6
ENDBRANCH   3   5
ENDBRANCH   1   3
BRANCH   1  11
ATOM     11  C   UNL     1     142.621 134.422 121.894  1.00  0.00     0.087 C 
BRANCH  11  12
ATOM     12  C   UNL     1     141.649 134.510 123.103  1.00  0.00     0.066 C 
BRANCH  12  13
ATOM     13  C   UNL     1     140.267 133.986 122.739  1.00  0.00     0.140 C 
ATOM     14  O   UNL     1     139.824 132.997 123.306  1.00  0.00    -0.299 OA
BRANCH  13  15
ATOM     15  C   UNL     1     139.394 134.713 121.746  1.00  0.00     0.106 CG0
ATOM     16  G   UNL     1     139.107 136.145 122.172  1.00  0.00     0.000 G0
ENDBRANCH  13  15
ENDBRANCH  12  13
BRANCH  12  17
ATOM     17  C   UNL     1     142.185 133.798 124.386  1.00  0.00    -0.006 C 
ATOM     18  C   UNL     1     142.114 134.719 125.616  1.00  0.00     0.008 C 
ATOM     19  C   UNL     1     143.607 133.227 124.240  1.00  0.00     0.008 C 
ENDBRANCH  12  17
ENDBRANCH  11  12
ENDBRANCH   1  11
TORSDOF 1
ENDMDL
MODEL 5
REMARK VINA RESULT:    -3.352      2.667      3.232
REMARK INTER + INTRA:          -5.239
REMARK INTER:                  -4.857
REMARK INTRA:                  -0.381
REMARK UNBOUND:                -0.123
REMARK SMILES CC1=CCC[C@H](C)C(=O)C[C@H](C(C)C)C(=O)C1
REMARK SMILES IDX 8 1 9 2 6 3 7 4 5 5 4 6 3 7 2 8 1 9 10 11 11 12 15 13 16 14
REMARK SMILES IDX 17 15 12 17 13 18 14 19
REMARK H PARENT
REMARK Flexibility Score: 70.00
ROOT
ATOM      1  C   UNL     1     140.464 135.138 124.042  1.00  0.00     0.136 C 
ATOM      2  O   UNL     1     139.670 135.811 124.684  1.00  0.00    -0.299 OA
ENDROOT
BRANCH   1   3
ATOM      3  C   UNL     1     139.960 134.373 122.831  1.00  0.00     0.053 C 
ATOM      4  C   UNL     1     139.031 133.231 123.257  1.00  0.00     0.016 C 
BRANCH   3   5
ATOM      5  C   UNL     1     139.265 135.305 121.821  1.00  0.00     0.015 C 
BRANCH   5   6
ATOM      6  C   UNL     1     140.269 135.957 120.852  1.00  0.00     0.028 C 
BRANCH   6   7
ATOM      7  C   UNL     1     140.435 137.422 121.161  1.00  0.00    -0.028 C 
ATOM      8  C   UNL     1     141.604 138.004 121.518  1.00  0.00    -0.070 CG0
ATOM      9  C   UNL     1     141.589 139.474 121.856  1.00  0.00     0.039 C 
ATOM     10  G   UNL     1     142.921 137.246 121.579  1.00  0.00     0.000 G0
ENDBRANCH   6   7
ENDBRANCH   5   6
ENDBRANCH   3   5
ENDBRANCH   1   3
BRANCH   1  11
ATOM     11  C   UNL     1     141.914 135.125 124.468  1.00  0.00     0.087 C 
BRANCH  11  12
ATOM     12  C   UNL     1     142.884 135.226 123.258  1.00  0.00     0.066 C 
BRANCH  12  13
ATOM     13  C   UNL     1     143.221 136.676 122.941  1.00  0.00     0.140 C 
ATOM     14  O   UNL     1     143.789 137.365 123.777  1.00  0.00    -0.299 OA
BRANCH  13  15
ATOM     15  C   UNL     1     142.942 137.262 121.578  1.00  0.00     0.106 CG0
ATOM     16  G   UNL     1     141.615 138.003 121.531  1.00  0.00     0.000 G0
ENDBRANCH  13  15
ENDBRANCH  12  13
BRANCH  12  17
ATOM     17  C   UNL     1     144.190 134.386 123.435  1.00  0.00    -0.006 C 
ATOM     18  C   UNL     1     144.748 133.916 122.080  1.00  0.00     0.008 C 
ATOM     19  C   UNL     1     144.039 133.185 124.386  1.00  0.00     0.008 C 
ENDBRANCH  12  17
ENDBRANCH  11  12
ENDBRANCH   1  11
TORSDOF 1
ENDMDL
MODEL 6
REMARK VINA RESULT:    -3.266     14.764     16.992
REMARK INTER + INTRA:          -5.107
REMARK INTER:                  -5.104
REMARK INTRA:                  -0.003
REMARK UNBOUND:                -0.123
REMARK SMILES CC1=CCC[C@H](C)C(=O)C[C@H](C(C)C)C(=O)C1
REMARK SMILES IDX 8 1 9 2 6 3 7 4 5 5 4 6 3 7 2 8 1 9 10 11 11 12 15 13 16 14
REMARK SMILES IDX 17 15 12 17 13 18 14 19
REMARK H PARENT
REMARK Flexibility Score: 70.00
ROOT
ATOM      1  C   UNL     1     130.902 142.402 116.326  1.00  0.00     0.136 C 
ATOM      2  O   UNL     1     132.066 142.269 116.674  1.00  0.00    -0.299 OA
ENDROOT
BRANCH   1   3
ATOM      3  C   UNL     1     130.049 143.450 117.018  1.00  0.00     0.053 C 
ATOM      4  C   UNL     1     130.803 144.073 118.198  1.00  0.00     0.016 C 
BRANCH   3   5
ATOM      5  C   UNL     1     129.570 144.532 116.033  1.00  0.00     0.015 C 
BRANCH   5   6
ATOM      6  C   UNL     1     128.070 144.396 115.711  1.00  0.00     0.028 C 
BRANCH   6   7
ATOM      7  C   UNL     1     127.403 143.443 116.668  1.00  0.00    -0.028 C 
ATOM      8  C   UNL     1     127.036 142.176 116.361  1.00  0.00    -0.070 CG0
ATOM      9  C   UNL     1     126.320 141.371 117.416  1.00  0.00     0.039 C 
ATOM     10  G   UNL     1     127.328 141.535 115.013  1.00  0.00     0.000 G0
ENDBRANCH   6   7
ENDBRANCH   5   6
ENDBRANCH   3   5
ENDBRANCH   1   3
BRANCH   1  11
ATOM     11  C   UNL     1     130.376 141.535 115.204  1.00  0.00     0.087 C 
BRANCH  11  12
ATOM     12  C   UNL     1     129.575 140.312 115.730  1.00  0.00     0.066 C 
BRANCH  12  13
ATOM     13  C   UNL     1     128.174 140.274 115.137  1.00  0.00     0.140 C 
ATOM     14  O   UNL     1     127.679 139.202 114.815  1.00  0.00    -0.299 OA
BRANCH  13  15
ATOM     15  C   UNL     1     127.345 141.529 115.011  1.00  0.00     0.106 CG0
ATOM     16  G   UNL     1     127.049 142.161 116.363  1.00  0.00     0.000 G0
ENDBRANCH  13  15
ENDBRANCH  12  13
BRANCH  12  17
ATOM     17  C   UNL     1     130.302 138.948 115.506  1.00  0.00    -0.006 C 
ATOM     18  C   UNL     1     130.466 138.170 116.824  1.00  0.00     0.008 C 
ATOM     19  C   UNL     1     131.664 139.071 114.798  1.00  0.00     0.008 C 
ENDBRANCH  12  17
ENDBRANCH  11  12
ENDBRANCH   1  11
TORSDOF 1
ENDMDL
MODEL 7
REMARK VINA RESULT:    -3.212      2.558      4.556
REMARK INTER + INTRA:          -5.024
REMARK INTER:                  -4.620
REMARK INTRA:                  -0.404
REMARK UNBOUND:                -0.123
REMARK SMILES CC1=CCC[C@H](C)C(=O)C[C@H](C(C)C)C(=O)C1
REMARK SMILES IDX 8 1 9 2 6 3 7 4 5 5 4 6 3 7 2 8 1 9 10 11 11 12 15 13 16 14
REMARK SMILES IDX 17 15 12 17 13 18 14 19
REMARK H PARENT
REMARK Flexibility Score: 70.00
ROOT
ATOM      1  C   UNL     1     143.305 134.415 122.092  1.00  0.00     0.136 C 
ATOM      2  O   UNL     1     144.118 134.050 121.254  1.00  0.00    -0.299 OA
ENDROOT
BRANCH   1   3
ATOM      3  C   UNL     1     143.762 134.577 123.530  1.00  0.00     0.053 C 
ATOM      4  C   UNL     1     144.403 133.284 124.047  1.00  0.00     0.016 C 
BRANCH   3   5
ATOM      5  C   UNL     1     144.720 135.772 123.690  1.00  0.00     0.015 C 
BRANCH   5   6
ATOM      6  C   UNL     1     144.016 136.997 124.303  1.00  0.00     0.028 C 
BRANCH   6   7
ATOM      7  C   UNL     1     143.937 138.123 123.306  1.00  0.00    -0.028 C 
ATOM      8  C   UNL     1     142.787 138.596 122.771  1.00  0.00    -0.070 CG0
ATOM      9  C   UNL     1     142.884 139.689 121.736  1.00  0.00     0.039 C 
ATOM     10  G   UNL     1     141.413 138.085 123.179  1.00  0.00     0.000 G0
ENDBRANCH   6   7
ENDBRANCH   5   6
ENDBRANCH   3   5
ENDBRANCH   1   3
BRANCH   1  11
ATOM     11  C   UNL     1     141.891 134.715 121.647  1.00  0.00     0.087 C 
BRANCH  11  12
ATOM     12  C   UNL     1     141.092 135.506 122.720  1.00  0.00     0.066 C 
BRANCH  12  13
ATOM     13  C   UNL     1     140.900 136.958 122.306  1.00  0.00     0.140 C 
ATOM     14  O   UNL     1     140.275 137.222 121.289  1.00  0.00    -0.299 OA
BRANCH  13  15
ATOM     15  C   UNL     1     141.399 138.088 123.173  1.00  0.00     0.106 CG0
ATOM     16  G   UNL     1     142.773 138.580 122.744  1.00  0.00     0.000 G0
ENDBRANCH  13  15
ENDBRANCH  12  13
BRANCH  12  17
ATOM     17  C   UNL     1     139.719 134.853 123.080  1.00  0.00    -0.006 C 
ATOM     18  C   UNL     1     139.136 135.440 124.378  1.00  0.00     0.008 C 
ATOM     19  C   UNL     1     139.759 133.316 123.172  1.00  0.00     0.008 C 
ENDBRANCH  12  17
ENDBRANCH  11  12
ENDBRANCH   1  11
TORSDOF 1
ENDMDL
MODEL 8
REMARK VINA RESULT:    -3.204     13.648     16.294
REMARK INTER + INTRA:          -5.013
REMARK INTER:                  -4.900
REMARK INTRA:                  -0.113
REMARK UNBOUND:                -0.123
REMARK SMILES CC1=CCC[C@H](C)C(=O)C[C@H](C(C)C)C(=O)C1
REMARK SMILES IDX 8 1 9 2 6 3 7 4 5 5 4 6 3 7 2 8 1 9 10 11 11 12 15 13 16 14
REMARK SMILES IDX 17 15 12 17 13 18 14 19
REMARK H PARENT
REMARK Flexibility Score: 70.00
ROOT
ATOM      1  C   UNL     1     128.097 141.745 115.129  1.00  0.00     0.136 C 
ATOM      2  O   UNL     1     127.299 141.660 114.207  1.00  0.00    -0.299 OA
ENDROOT
BRANCH   1   3
ATOM      3  C   UNL     1     128.786 143.075 115.377  1.00  0.00     0.053 C 
ATOM      4  C   UNL     1     127.778 144.133 115.840  1.00  0.00     0.016 C 
BRANCH   3   5
ATOM      5  C   UNL     1     129.943 142.934 116.384  1.00  0.00     0.015 C 
BRANCH   5   6
ATOM      6  C   UNL     1     131.265 142.550 115.694  1.00  0.00     0.028 C 
BRANCH   6   7
ATOM      7  C   UNL     1     132.100 141.672 116.589  1.00  0.00    -0.028 C 
ATOM      8  C   UNL     1     132.209 140.329 116.462  1.00  0.00    -0.070 CG0
ATOM      9  C   UNL     1     133.037 139.586 117.480  1.00  0.00     0.039 C 
ATOM     10  G   UNL     1     131.548 139.548 115.336  1.00  0.00     0.000 G0
ENDBRANCH   6   7
ENDBRANCH   5   6
ENDBRANCH   3   5
ENDBRANCH   1   3
BRANCH   1  11
ATOM     11  C   UNL     1     128.336 140.529 115.995  1.00  0.00     0.087 C 
BRANCH  11  12
ATOM     12  C   UNL     1     128.921 139.338 115.188  1.00  0.00     0.066 C 
BRANCH  12  13
ATOM     13  C   UNL     1     130.255 138.883 115.763  1.00  0.00     0.140 C 
ATOM     14  O   UNL     1     130.293 137.934 116.534  1.00  0.00    -0.299 OA
BRANCH  13  15
ATOM     15  C   UNL     1     131.550 139.531 115.337  1.00  0.00     0.106 CG0
ATOM     16  G   UNL     1     132.190 140.331 116.462  1.00  0.00     0.000 G0
ENDBRANCH  13  15
ENDBRANCH  12  13
BRANCH  12  17
ATOM     17  C   UNL     1     127.939 138.129 115.061  1.00  0.00    -0.006 C 
ATOM     18  C   UNL     1     127.378 138.003 113.634  1.00  0.00     0.008 C 
ATOM     19  C   UNL     1     126.784 138.150 116.079  1.00  0.00     0.008 C 
ENDBRANCH  12  17
ENDBRANCH  11  12
ENDBRANCH   1  11
TORSDOF 1
ENDMDL
MODEL 9
REMARK VINA RESULT:    -3.148      2.565      4.726
REMARK INTER + INTRA:          -4.926
REMARK INTER:                  -4.658
REMARK INTRA:                  -0.269
REMARK UNBOUND:                -0.123
REMARK SMILES CC1=CCC[C@H](C)C(=O)C[C@H](C(C)C)C(=O)C1
REMARK SMILES IDX 8 1 9 2 6 3 7 4 5 5 4 6 3 7 2 8 1 9 10 11 11 12 15 13 16 14
REMARK SMILES IDX 17 15 12 17 13 18 14 19
REMARK H PARENT
REMARK Flexibility Score: 70.00
ROOT
ATOM      1  C   UNL     1     140.505 135.600 125.031  1.00  0.00     0.136 C 
ATOM      2  O   UNL     1     139.365 135.983 125.256  1.00  0.00    -0.299 OA
ENDROOT
BRANCH   1   3
ATOM      3  C   UNL     1     141.586 135.887 126.057  1.00  0.00     0.053 C 
ATOM      4  C   UNL     1     142.775 134.937 125.875  1.00  0.00     0.016 C 
BRANCH   3   5
ATOM      5  C   UNL     1     142.039 137.358 126.006  1.00  0.00     0.015 C 
BRANCH   5   6
ATOM      6  C   UNL     1     143.229 137.563 125.050  1.00  0.00     0.028 C 
BRANCH   6   7
ATOM      7  C   UNL     1     142.838 138.442 123.891  1.00  0.00    -0.028 C 
ATOM      8  C   UNL     1     142.644 138.004 122.625  1.00  0.00    -0.070 CG0
ATOM      9  C   UNL     1     142.317 139.024 121.565  1.00  0.00     0.039 C 
ATOM     10  G   UNL     1     142.729 136.535 122.236  1.00  0.00     0.000 G0
ENDBRANCH   6   7
ENDBRANCH   5   6
ENDBRANCH   3   5
ENDBRANCH   1   3
BRANCH   1  11
ATOM     11  C   UNL     1     140.774 134.835 123.755  1.00  0.00     0.087 C 
BRANCH  11  12
ATOM     12  C   UNL     1     140.286 135.601 122.495  1.00  0.00     0.066 C 
BRANCH  12  13
ATOM     13  C   UNL     1     141.456 136.019 121.615  1.00  0.00     0.140 C 
ATOM     14  O   UNL     1     141.339 135.998 120.398  1.00  0.00    -0.299 OA
BRANCH  13  15
ATOM     15  C   UNL     1     142.738 136.540 122.218  1.00  0.00     0.106 CG0
ATOM     16  G   UNL     1     142.632 138.003 122.621  1.00  0.00     0.000 G0
ENDBRANCH  13  15
ENDBRANCH  12  13
BRANCH  12  17
ATOM     17  C   UNL     1     139.227 134.814 121.658  1.00  0.00    -0.006 C 
ATOM     18  C   UNL     1     137.893 135.576 121.574  1.00  0.00     0.008 C 
ATOM     19  C   UNL     1     138.979 133.377 122.153  1.00  0.00     0.008 C 
ENDBRANCH  12  17
ENDBRANCH  11  12
ENDBRANCH   1  11
TORSDOF 1
ENDMDL
