MODEL 1
REMARK VINA RESULT:    -2.918      0.000      0.000
REMARK INTER + INTRA:          -3.446
REMARK INTER:                  -3.430
REMARK INTRA:                  -0.015
REMARK UNBOUND:                -0.015
REMARK SMILES CCCCC(=O)[O-]
REMARK SMILES IDX 4 1 5 2 6 3 7 4 3 5 2 6 1 7
REMARK H PARENT
REMARK Flexibility Score: inf
ROOT
ATOM      1  C   UNL     1     -45.014 -48.517  37.265  1.00  0.00     0.053 C 
ENDROOT
BRANCH   1   2
ATOM      2  C   UNL     1     -46.468 -48.857  37.169  1.00  0.00     0.041 C 
ATOM      3  O   UNL     1     -47.319 -47.952  36.964  1.00  0.00    -0.550 OA
ATOM      4  O   UNL     1     -46.890 -50.168  37.354  1.00  0.00    -0.550 OA
ENDBRANCH   1   2
BRANCH   1   5
ATOM      5  C   UNL     1     -44.265 -49.020  36.024  1.00  0.00     0.006 C 
BRANCH   5   6
ATOM      6  C   UNL     1     -42.952 -48.261  35.781  1.00  0.00    -0.003 C 
ATOM      7  C   UNL     1     -42.573 -48.193  34.301  1.00  0.00     0.004 C 
ENDBRANCH   5   6
ENDBRANCH   1   5
TORSDOF 3
ENDMDL
MODEL 2
REMARK VINA RESULT:    -2.885      1.243      1.654
REMARK INTER + INTRA:          -3.406
REMARK INTER:                  -3.371
REMARK INTRA:                  -0.035
REMARK UNBOUND:                -0.015
REMARK SMILES CCCCC(=O)[O-]
REMARK SMILES IDX 4 1 5 2 6 3 7 4 3 5 2 6 1 7
REMARK H PARENT
REMARK Flexibility Score: inf
ROOT
ATOM      1  C   UNL     1     -43.595 -48.500  36.157  1.00  0.00     0.053 C 
ENDROOT
BRANCH   1   2
ATOM      2  C   UNL     1     -44.934 -48.675  36.800  1.00  0.00     0.041 C 
ATOM      3  O   UNL     1     -45.422 -47.756  37.509  1.00  0.00    -0.550 OA
ATOM      4  O   UNL     1     -45.625 -49.872  36.656  1.00  0.00    -0.550 OA
ENDBRANCH   1   2
BRANCH   1   5
ATOM      5  C   UNL     1     -43.471 -49.405  34.925  1.00  0.00     0.006 C 
BRANCH   5   6
ATOM      6  C   UNL     1     -42.702 -48.736  33.776  1.00  0.00    -0.003 C 
ATOM      7  C   UNL     1     -41.735 -47.655  34.261  1.00  0.00     0.004 C 
ENDBRANCH   5   6
ENDBRANCH   1   5
TORSDOF 3
ENDMDL
MODEL 3
REMARK VINA RESULT:    -2.843      2.220      3.158
REMARK INTER + INTRA:          -3.357
REMARK INTER:                  -3.246
REMARK INTRA:                  -0.111
REMARK UNBOUND:                -0.015
REMARK SMILES CCCCC(=O)[O-]
REMARK SMILES IDX 4 1 5 2 6 3 7 4 3 5 2 6 1 7
REMARK H PARENT
REMARK Flexibility Score: inf
ROOT
ATOM      1  C   UNL     1     -43.107 -49.248  34.444  1.00  0.00     0.053 C 
ENDROOT
BRANCH   1   2
ATOM      2  C   UNL     1     -43.887 -49.284  35.721  1.00  0.00     0.041 C 
ATOM      3  O   UNL     1     -44.539 -50.314  36.036  1.00  0.00    -0.550 OA
ATOM      4  O   UNL     1     -43.934 -48.163  36.540  1.00  0.00    -0.550 OA
ENDBRANCH   1   2
BRANCH   1   5
ATOM      5  C   UNL     1     -42.423 -47.886  34.274  1.00  0.00     0.006 C 
BRANCH   5   6
ATOM      6  C   UNL     1     -40.896 -47.972  34.410  1.00  0.00    -0.003 C 
ATOM      7  C   UNL     1     -40.418 -47.788  35.850  1.00  0.00     0.004 C 
ENDBRANCH   5   6
ENDBRANCH   1   5
TORSDOF 3
ENDMDL
MODEL 4
REMARK VINA RESULT:    -2.747      3.050      4.341
REMARK INTER + INTRA:          -3.244
REMARK INTER:                  -3.219
REMARK INTRA:                  -0.025
REMARK UNBOUND:                -0.015
REMARK SMILES CCCCC(=O)[O-]
REMARK SMILES IDX 4 1 5 2 6 3 7 4 3 5 2 6 1 7
REMARK H PARENT
REMARK Flexibility Score: inf
ROOT
ATOM      1  C   UNL     1     -43.181 -48.316  36.094  1.00  0.00     0.053 C 
ENDROOT
BRANCH   1   2
ATOM      2  C   UNL     1     -42.772 -48.347  34.655  1.00  0.00     0.041 C 
ATOM      3  O   UNL     1     -43.213 -49.245  33.890  1.00  0.00    -0.550 OA
ATOM      4  O   UNL     1     -41.865 -47.414  34.168  1.00  0.00    -0.550 OA
ENDBRANCH   1   2
BRANCH   1   5
ATOM      5  C   UNL     1     -44.501 -49.071  36.290  1.00  0.00     0.006 C 
BRANCH   5   6
ATOM      6  C   UNL     1     -45.466 -48.336  37.234  1.00  0.00    -0.003 C 
ATOM      7  C   UNL     1     -46.889 -48.892  37.176  1.00  0.00     0.004 C 
ENDBRANCH   5   6
ENDBRANCH   1   5
TORSDOF 3
ENDMDL
MODEL 5
REMARK VINA RESULT:    -2.700      2.537      4.236
REMARK INTER + INTRA:          -3.189
REMARK INTER:                  -3.154
REMARK INTRA:                  -0.035
REMARK UNBOUND:                -0.015
REMARK SMILES CCCCC(=O)[O-]
REMARK SMILES IDX 4 1 5 2 6 3 7 4 3 5 2 6 1 7
REMARK H PARENT
REMARK Flexibility Score: inf
ROOT
ATOM      1  C   UNL     1     -45.732 -50.061  36.995  1.00  0.00     0.053 C 
ENDROOT
BRANCH   1   2
ATOM      2  C   UNL     1     -46.102 -48.623  37.173  1.00  0.00     0.041 C 
ATOM      3  O   UNL     1     -45.229 -47.780  37.510  1.00  0.00    -0.550 OA
ATOM      4  O   UNL     1     -47.422 -48.218  37.014  1.00  0.00    -0.550 OA
ENDBRANCH   1   2
BRANCH   1   5
ATOM      5  C   UNL     1     -46.598 -50.951  37.896  1.00  0.00     0.006 C 
BRANCH   5   6
ATOM      6  C   UNL     1     -47.171 -52.166  37.150  1.00  0.00    -0.003 C 
ATOM      7  C   UNL     1     -47.661 -53.263  38.094  1.00  0.00     0.004 C 
ENDBRANCH   5   6
ENDBRANCH   1   5
TORSDOF 3
ENDMDL
MODEL 6
REMARK VINA RESULT:    -2.678      1.506      1.961
REMARK INTER + INTRA:          -3.163
REMARK INTER:                  -3.080
REMARK INTRA:                  -0.083
REMARK UNBOUND:                -0.015
REMARK SMILES CCCCC(=O)[O-]
REMARK SMILES IDX 4 1 5 2 6 3 7 4 3 5 2 6 1 7
REMARK H PARENT
REMARK Flexibility Score: inf
ROOT
ATOM      1  C   UNL     1     -46.724 -48.945  37.188  1.00  0.00     0.053 C 
ENDROOT
BRANCH   1   2
ATOM      2  C   UNL     1     -46.659 -50.285  37.851  1.00  0.00     0.041 C 
ATOM      3  O   UNL     1     -46.233 -50.389  39.031  1.00  0.00    -0.550 OA
ATOM      4  O   UNL     1     -47.024 -51.427  37.149  1.00  0.00    -0.550 OA
ENDBRANCH   1   2
BRANCH   1   5
ATOM      5  C   UNL     1     -45.329 -48.311  37.129  1.00  0.00     0.006 C 
BRANCH   5   6
ATOM      6  C   UNL     1     -44.367 -49.084  36.215  1.00  0.00    -0.003 C 
ATOM      7  C   UNL     1     -43.174 -48.241  35.763  1.00  0.00     0.004 C 
ENDBRANCH   5   6
ENDBRANCH   1   5
TORSDOF 3
ENDMDL
MODEL 7
REMARK VINA RESULT:    -2.625      6.577      7.815
REMARK INTER + INTRA:          -3.101
REMARK INTER:                  -3.070
REMARK INTRA:                  -0.031
REMARK UNBOUND:                -0.015
REMARK SMILES CCCCC(=O)[O-]
REMARK SMILES IDX 4 1 5 2 6 3 7 4 3 5 2 6 1 7
REMARK H PARENT
REMARK Flexibility Score: inf
ROOT
ATOM      1  C   UNL     1     -47.241 -54.753  39.550  1.00  0.00     0.053 C 
ENDROOT
BRANCH   1   2
ATOM      2  C   UNL     1     -47.751 -53.411  39.129  1.00  0.00     0.041 C 
ATOM      3  O   UNL     1     -48.048 -52.546  39.995  1.00  0.00    -0.550 OA
ATOM      4  O   UNL     1     -47.945 -53.130  37.782  1.00  0.00    -0.550 OA
ENDBRANCH   1   2
BRANCH   1   5
ATOM      5  C   UNL     1     -47.312 -55.742  38.380  1.00  0.00     0.006 C 
BRANCH   5   6
ATOM      6  C   UNL     1     -48.066 -57.030  38.742  1.00  0.00    -0.003 C 
ATOM      7  C   UNL     1     -47.557 -58.250  37.973  1.00  0.00     0.004 C 
ENDBRANCH   5   6
ENDBRANCH   1   5
TORSDOF 3
ENDMDL
MODEL 8
REMARK VINA RESULT:    -2.590      4.474      5.730
REMARK INTER + INTRA:          -3.059
REMARK INTER:                  -3.007
REMARK INTRA:                  -0.053
REMARK UNBOUND:                -0.015
REMARK SMILES CCCCC(=O)[O-]
REMARK SMILES IDX 4 1 5 2 6 3 7 4 3 5 2 6 1 7
REMARK H PARENT
REMARK Flexibility Score: inf
ROOT
ATOM      1  C   UNL     1     -47.135 -52.419  39.753  1.00  0.00     0.053 C 
ENDROOT
BRANCH   1   2
ATOM      2  C   UNL     1     -48.211 -52.308  40.786  1.00  0.00     0.041 C 
ATOM      3  O   UNL     1     -49.039 -53.243  40.943  1.00  0.00    -0.550 OA
ATOM      4  O   UNL     1     -48.330 -51.150  41.546  1.00  0.00    -0.550 OA
ENDBRANCH   1   2
BRANCH   1   5
ATOM      5  C   UNL     1     -47.658 -53.159  38.515  1.00  0.00     0.006 C 
BRANCH   5   6
ATOM      6  C   UNL     1     -47.236 -52.484  37.202  1.00  0.00    -0.003 C 
ATOM      7  C   UNL     1     -46.792 -51.034  37.397  1.00  0.00     0.004 C 
ENDBRANCH   5   6
ENDBRANCH   1   5
TORSDOF 3
ENDMDL
MODEL 9
REMARK VINA RESULT:    -2.556      4.252      6.298
REMARK INTER + INTRA:          -3.020
REMARK INTER:                  -2.909
REMARK INTRA:                  -0.111
REMARK UNBOUND:                -0.015
REMARK SMILES CCCCC(=O)[O-]
REMARK SMILES IDX 4 1 5 2 6 3 7 4 3 5 2 6 1 7
REMARK H PARENT
REMARK Flexibility Score: inf
ROOT
ATOM      1  C   UNL     1     -47.682 -52.855  38.388  1.00  0.00     0.053 C 
ENDROOT
BRANCH   1   2
ATOM      2  C   UNL     1     -46.779 -51.684  38.164  1.00  0.00     0.041 C 
ATOM      3  O   UNL     1     -45.809 -51.474  38.939  1.00  0.00    -0.550 OA
ATOM      4  O   UNL     1     -47.035 -50.796  37.127  1.00  0.00    -0.550 OA
ENDBRANCH   1   2
BRANCH   1   5
ATOM      5  C   UNL     1     -47.629 -53.298  39.856  1.00  0.00     0.006 C 
BRANCH   5   6
ATOM      6  C   UNL     1     -48.804 -52.751  40.680  1.00  0.00    -0.003 C 
ATOM      7  C   UNL     1     -48.386 -51.639  41.642  1.00  0.00     0.004 C 
ENDBRANCH   5   6
ENDBRANCH   1   5
TORSDOF 3
ENDMDL
