MODEL 1
REMARK VINA RESULT:    -6.042      0.000      0.000
REMARK INTER + INTRA:          -7.737
REMARK INTER:                  -7.455
REMARK INTRA:                  -0.282
REMARK UNBOUND:                -0.282
REMARK SMILES O=c1c(O)c(-c2cc(O)c(O)c(O)c2)oc2cc(O)cc(O)c12
REMARK SMILES IDX 5 1 3 2 2 3 1 4 23 5 21 6 20 7 18 8 17 9 16 10 15 11 6 12
REMARK SMILES IDX 7 13 8 14 14 15 10 16 12 17 9 18 11 20 13 22 4 24 22 26
REMARK SMILES IDX 19 28
REMARK H PARENT 9 19 11 21 13 23 4 25 22 27 19 29
REMARK Flexibility Score: inf
ROOT
ATOM      1  C   UNL     1       7.532  -4.741  24.433  1.00  0.00     0.180 A 
ATOM      2  C   UNL     1       7.818  -5.002  25.786  1.00  0.00     0.208 A 
ATOM      3  C   UNL     1       7.922  -6.335  26.213  1.00  0.00     0.238 A 
ATOM      4  O   UNL     1       8.188  -6.581  27.422  1.00  0.00    -0.285 OA
ATOM      5  C   UNL     1       7.720  -7.381  25.289  1.00  0.00     0.111 A 
ATOM      6  C   UNL     1       7.803  -8.750  25.639  1.00  0.00     0.134 A 
ATOM      7  C   UNL     1       7.581  -9.732  24.662  1.00  0.00     0.093 A 
ATOM      8  C   UNL     1       7.276  -9.373  23.347  1.00  0.00     0.123 A 
ATOM      9  C   UNL     1       7.193  -8.022  22.995  1.00  0.00     0.094 A 
ATOM     10  C   UNL     1       7.414  -7.028  23.953  1.00  0.00     0.146 A 
ATOM     11  O   UNL     1       7.333  -5.753  23.592  1.00  0.00    -0.452 OA
ENDROOT
BRANCH   1  12
ATOM     12  C   UNL     1       7.425  -3.363  23.902  1.00  0.00     0.029 A 
ATOM     13  C   UNL     1       6.179  -2.881  23.479  1.00  0.00     0.062 A 
ATOM     14  C   UNL     1       6.044  -1.591  22.954  1.00  0.00     0.162 A 
ATOM     15  C   UNL     1       8.557  -2.544  23.760  1.00  0.00     0.062 A 
ATOM     16  C   UNL     1       7.186  -0.763  22.835  1.00  0.00     0.200 A 
ATOM     17  C   UNL     1       8.437  -1.252  23.236  1.00  0.00     0.162 A 
BRANCH  14  18
ATOM     18  O   UNL     1       4.768  -1.177  22.565  1.00  0.00    -0.504 OA
ATOM     19  H   UNL     1       4.375  -1.339  21.649  1.00  0.00     0.293 HD
ENDBRANCH  14  18
BRANCH  16  20
ATOM     20  O   UNL     1       7.122   0.536  22.324  1.00  0.00    -0.502 OA
ATOM     21  H   UNL     1       6.596   0.796  21.503  1.00  0.00     0.293 HD
ENDBRANCH  16  20
BRANCH  17  22
ATOM     22  O   UNL     1       9.566  -0.443  23.105  1.00  0.00    -0.504 OA
ATOM     23  H   UNL     1      10.319  -0.682  22.471  1.00  0.00     0.293 HD
ENDBRANCH  17  22
ENDBRANCH   1  12
BRANCH   2  24
ATOM     24  O   UNL     1       7.964  -3.949  26.694  1.00  0.00    -0.502 OA
ATOM     25  H   UNL     1       8.741  -3.893  27.340  1.00  0.00     0.293 HD
ENDBRANCH   2  24
BRANCH   6  26
ATOM     26  O   UNL     1       8.105  -9.141  26.943  1.00  0.00    -0.507 OA
ATOM     27  H   UNL     1       8.100  -8.482  27.712  1.00  0.00     0.293 HD
ENDBRANCH   6  26
BRANCH   8  28
ATOM     28  O   UNL     1       7.058 -10.368  22.396  1.00  0.00    -0.508 OA
ATOM     29  H   UNL     1       6.386 -10.247  21.647  1.00  0.00     0.293 HD
ENDBRANCH   8  28
TORSDOF 7
ENDMDL
MODEL 2
REMARK VINA RESULT:    -5.984     13.931     15.476
REMARK INTER + INTRA:          -7.665
REMARK INTER:                  -7.306
REMARK INTRA:                  -0.359
REMARK UNBOUND:                -0.282
REMARK SMILES O=c1c(O)c(-c2cc(O)c(O)c(O)c2)oc2cc(O)cc(O)c12
REMARK SMILES IDX 5 1 3 2 2 3 1 4 23 5 21 6 20 7 18 8 17 9 16 10 15 11 6 12
REMARK SMILES IDX 7 13 8 14 14 15 10 16 12 17 9 18 11 20 13 22 4 24 22 26
REMARK SMILES IDX 19 28
REMARK H PARENT 9 19 11 21 13 23 4 25 22 27 19 29
REMARK Flexibility Score: inf
ROOT
ATOM      1  C   UNL     1      -5.935 -10.085  27.019  1.00  0.00     0.180 A 
ATOM      2  C   UNL     1      -7.277 -10.413  27.286  1.00  0.00     0.208 A 
ATOM      3  C   UNL     1      -7.796 -10.159  28.566  1.00  0.00     0.238 A 
ATOM      4  O   UNL     1      -9.000 -10.438  28.815  1.00  0.00    -0.285 OA
ATOM      5  C   UNL     1      -6.961  -9.603  29.558  1.00  0.00     0.111 A 
ATOM      6  C   UNL     1      -7.405  -9.319  30.872  1.00  0.00     0.134 A 
ATOM      7  C   UNL     1      -6.511  -8.773  31.805  1.00  0.00     0.093 A 
ATOM      8  C   UNL     1      -5.186  -8.507  31.451  1.00  0.00     0.123 A 
ATOM      9  C   UNL     1      -4.743  -8.783  30.154  1.00  0.00     0.094 A 
ATOM     10  C   UNL     1      -5.619  -9.326  29.209  1.00  0.00     0.146 A 
ATOM     11  O   UNL     1      -5.173  -9.575  27.983  1.00  0.00    -0.452 OA
ENDROOT
BRANCH   1  12
ATOM     12  C   UNL     1      -5.321 -10.305  25.689  1.00  0.00     0.029 A 
ATOM     13  C   UNL     1      -5.412  -9.304  24.712  1.00  0.00     0.062 A 
ATOM     14  C   UNL     1      -4.861  -9.487  23.438  1.00  0.00     0.162 A 
ATOM     15  C   UNL     1      -4.698 -11.521  25.365  1.00  0.00     0.062 A 
ATOM     16  C   UNL     1      -4.214 -10.706  23.126  1.00  0.00     0.200 A 
ATOM     17  C   UNL     1      -4.143 -11.717  24.095  1.00  0.00     0.162 A 
BRANCH  14  18
ATOM     18  O   UNL     1      -4.981  -8.440  22.522  1.00  0.00    -0.504 OA
ATOM     19  H   UNL     1      -4.918  -8.554  21.520  1.00  0.00     0.293 HD
ENDBRANCH  14  18
BRANCH  16  20
ATOM     20  O   UNL     1      -3.638 -10.952  21.877  1.00  0.00    -0.502 OA
ATOM     21  H   UNL     1      -2.686 -10.717  21.636  1.00  0.00     0.293 HD
ENDBRANCH  16  20
BRANCH  17  22
ATOM     22  O   UNL     1      -3.519 -12.925  23.782  1.00  0.00    -0.504 OA
ATOM     23  H   UNL     1      -2.520 -12.980  23.624  1.00  0.00     0.293 HD
ENDBRANCH  17  22
ENDBRANCH   1  12
BRANCH   2  24
ATOM     24  O   UNL     1      -8.069 -11.010  26.302  1.00  0.00    -0.502 OA
ATOM     25  H   UNL     1      -7.710 -11.245  25.385  1.00  0.00     0.293 HD
ENDBRANCH   2  24
BRANCH   6  26
ATOM     26  O   UNL     1      -8.721  -9.574  31.257  1.00  0.00    -0.507 OA
ATOM     27  H   UNL     1      -9.467  -8.913  31.078  1.00  0.00     0.293 HD
ENDBRANCH   6  26
BRANCH   8  28
ATOM     28  O   UNL     1      -4.317  -7.965  32.397  1.00  0.00    -0.508 OA
ATOM     29  H   UNL     1      -4.616  -7.784  33.348  1.00  0.00     0.293 HD
ENDBRANCH   8  28
TORSDOF 7
ENDMDL
MODEL 3
REMARK VINA RESULT:    -5.914     13.903     15.447
REMARK INTER + INTRA:          -7.579
REMARK INTER:                  -7.215
REMARK INTRA:                  -0.364
REMARK UNBOUND:                -0.282
REMARK SMILES O=c1c(O)c(-c2cc(O)c(O)c(O)c2)oc2cc(O)cc(O)c12
REMARK SMILES IDX 5 1 3 2 2 3 1 4 23 5 21 6 20 7 18 8 17 9 16 10 15 11 6 12
REMARK SMILES IDX 7 13 8 14 14 15 10 16 12 17 9 18 11 20 13 22 4 24 22 26
REMARK SMILES IDX 19 28
REMARK H PARENT 9 19 11 21 13 23 4 25 22 27 19 29
REMARK Flexibility Score: inf
ROOT
ATOM      1  C   UNL     1      -5.943 -10.052  26.988  1.00  0.00     0.180 A 
ATOM      2  C   UNL     1      -7.274 -10.424  27.257  1.00  0.00     0.208 A 
ATOM      3  C   UNL     1      -7.793 -10.207  28.543  1.00  0.00     0.238 A 
ATOM      4  O   UNL     1      -8.987 -10.526  28.793  1.00  0.00    -0.285 OA
ATOM      5  C   UNL     1      -6.970  -9.642  29.540  1.00  0.00     0.111 A 
ATOM      6  C   UNL     1      -7.414  -9.394  30.861  1.00  0.00     0.134 A 
ATOM      7  C   UNL     1      -6.532  -8.837  31.798  1.00  0.00     0.093 A 
ATOM      8  C   UNL     1      -5.217  -8.526  31.442  1.00  0.00     0.123 A 
ATOM      9  C   UNL     1      -4.773  -8.768  30.139  1.00  0.00     0.094 A 
ATOM     10  C   UNL     1      -5.638  -9.320  29.189  1.00  0.00     0.146 A 
ATOM     11  O   UNL     1      -5.192  -9.536  27.958  1.00  0.00    -0.452 OA
ENDROOT
BRANCH   1  12
ATOM     12  C   UNL     1      -5.330 -10.232  25.652  1.00  0.00     0.029 A 
ATOM     13  C   UNL     1      -4.657 -11.425  25.357  1.00  0.00     0.062 A 
ATOM     14  C   UNL     1      -4.048 -11.622  24.112  1.00  0.00     0.162 A 
ATOM     15  C   UNL     1      -5.359  -9.209  24.691  1.00  0.00     0.062 A 
ATOM     16  C   UNL     1      -4.101 -10.595  23.139  1.00  0.00     0.200 A 
ATOM     17  C   UNL     1      -4.754  -9.391  23.442  1.00  0.00     0.162 A 
BRANCH  14  18
ATOM     18  O   UNL     1      -3.406 -12.841  23.886  1.00  0.00    -0.504 OA
ATOM     19  H   UNL     1      -3.038 -13.431  24.619  1.00  0.00     0.293 HD
ENDBRANCH  14  18
BRANCH  16  20
ATOM     20  O   UNL     1      -3.520 -10.726  21.875  1.00  0.00    -0.502 OA
ATOM     21  H   UNL     1      -3.578 -11.560  21.310  1.00  0.00     0.293 HD
ENDBRANCH  16  20
BRANCH  17  22
ATOM     22  O   UNL     1      -4.794  -8.372  22.490  1.00  0.00    -0.504 OA
ATOM     23  H   UNL     1      -4.738  -8.571  21.498  1.00  0.00     0.293 HD
ENDBRANCH  17  22
ENDBRANCH   1  12
BRANCH   2  24
ATOM     24  O   UNL     1      -8.053 -11.028  26.266  1.00  0.00    -0.502 OA
ATOM     25  H   UNL     1      -7.658 -11.635  25.559  1.00  0.00     0.293 HD
ENDBRANCH   2  24
BRANCH   6  26
ATOM     26  O   UNL     1      -8.720  -9.695  31.249  1.00  0.00    -0.507 OA
ATOM     27  H   UNL     1      -8.956 -10.576  31.688  1.00  0.00     0.293 HD
ENDBRANCH   6  26
BRANCH   8  28
ATOM     28  O   UNL     1      -4.360  -7.974  32.393  1.00  0.00    -0.508 OA
ATOM     29  H   UNL     1      -4.139  -8.462  33.253  1.00  0.00     0.293 HD
ENDBRANCH   8  28
TORSDOF 7
ENDMDL
MODEL 4
REMARK VINA RESULT:    -5.839      1.537      7.138
REMARK INTER + INTRA:          -7.487
REMARK INTER:                  -7.385
REMARK INTRA:                  -0.102
REMARK UNBOUND:                -0.282
REMARK SMILES O=c1c(O)c(-c2cc(O)c(O)c(O)c2)oc2cc(O)cc(O)c12
REMARK SMILES IDX 5 1 3 2 2 3 1 4 23 5 21 6 20 7 18 8 17 9 16 10 15 11 6 12
REMARK SMILES IDX 7 13 8 14 14 15 10 16 12 17 9 18 11 20 13 22 4 24 22 26
REMARK SMILES IDX 19 28
REMARK H PARENT 9 19 11 21 13 23 4 25 22 27 19 29
REMARK Flexibility Score: inf
ROOT
ATOM      1  C   UNL     1       7.526  -6.792  24.058  1.00  0.00     0.180 A 
ATOM      2  C   UNL     1       8.641  -6.119  24.591  1.00  0.00     0.208 A 
ATOM      3  C   UNL     1       8.690  -4.718  24.509  1.00  0.00     0.238 A 
ATOM      4  O   UNL     1       9.679  -4.102  24.994  1.00  0.00    -0.285 OA
ATOM      5  C   UNL     1       7.639  -4.020  23.880  1.00  0.00     0.111 A 
ATOM      6  C   UNL     1       7.614  -2.609  23.753  1.00  0.00     0.134 A 
ATOM      7  C   UNL     1       6.535  -1.989  23.106  1.00  0.00     0.093 A 
ATOM      8  C   UNL     1       5.485  -2.748  22.584  1.00  0.00     0.123 A 
ATOM      9  C   UNL     1       5.504  -4.141  22.708  1.00  0.00     0.094 A 
ATOM     10  C   UNL     1       6.569  -4.778  23.351  1.00  0.00     0.146 A 
ATOM     11  O   UNL     1       6.560  -6.101  23.458  1.00  0.00    -0.452 OA
ENDROOT
BRANCH   1  12
ATOM     12  C   UNL     1       7.392  -8.266  24.122  1.00  0.00     0.029 A 
ATOM     13  C   UNL     1       7.442  -8.910  25.366  1.00  0.00     0.062 A 
ATOM     14  C   UNL     1       7.339 -10.302  25.463  1.00  0.00     0.162 A 
ATOM     15  C   UNL     1       7.273  -9.040  22.957  1.00  0.00     0.062 A 
ATOM     16  C   UNL     1       7.196 -11.075  24.286  1.00  0.00     0.200 A 
ATOM     17  C   UNL     1       7.170 -10.434  23.039  1.00  0.00     0.162 A 
BRANCH  14  18
ATOM     18  O   UNL     1       7.385 -10.872  26.737  1.00  0.00    -0.504 OA
ATOM     19  H   UNL     1       7.450 -11.864  26.912  1.00  0.00     0.293 HD
ENDBRANCH  14  18
BRANCH  16  20
ATOM     20  O   UNL     1       7.083 -12.468  24.310  1.00  0.00    -0.502 OA
ATOM     21  H   UNL     1       7.637 -13.070  24.900  1.00  0.00     0.293 HD
ENDBRANCH  16  20
BRANCH  17  22
ATOM     22  O   UNL     1       7.045 -11.196  21.877  1.00  0.00    -0.504 OA
ATOM     23  H   UNL     1       7.315 -12.172  21.851  1.00  0.00     0.293 HD
ENDBRANCH  17  22
ENDBRANCH   1  12
BRANCH   2  24
ATOM     24  O   UNL     1       9.693  -6.837  25.165  1.00  0.00    -0.502 OA
ATOM     25  H   UNL     1      10.592  -6.417  25.366  1.00  0.00     0.293 HD
ENDBRANCH   2  24
BRANCH   6  26
ATOM     26  O   UNL     1       8.648  -1.824  24.262  1.00  0.00    -0.507 OA
ATOM     27  H   UNL     1       9.569  -1.816  23.841  1.00  0.00     0.293 HD
ENDBRANCH   6  26
BRANCH   8  28
ATOM     28  O   UNL     1       4.426  -2.107  21.944  1.00  0.00    -0.508 OA
ATOM     29  H   UNL     1       4.062  -2.440  21.059  1.00  0.00     0.293 HD
ENDBRANCH   8  28
TORSDOF 7
ENDMDL
MODEL 5
REMARK VINA RESULT:    -5.821      1.423      7.008
REMARK INTER + INTRA:          -7.464
REMARK INTER:                  -7.328
REMARK INTRA:                  -0.136
REMARK UNBOUND:                -0.282
REMARK SMILES O=c1c(O)c(-c2cc(O)c(O)c(O)c2)oc2cc(O)cc(O)c12
REMARK SMILES IDX 5 1 3 2 2 3 1 4 23 5 21 6 20 7 18 8 17 9 16 10 15 11 6 12
REMARK SMILES IDX 7 13 8 14 14 15 10 16 12 17 9 18 11 20 13 22 4 24 22 26
REMARK SMILES IDX 19 28
REMARK H PARENT 9 19 11 21 13 23 4 25 22 27 19 29
REMARK Flexibility Score: inf
ROOT
ATOM      1  C   UNL     1       7.845  -6.482  24.291  1.00  0.00     0.180 A 
ATOM      2  C   UNL     1       8.943  -5.838  24.892  1.00  0.00     0.208 A 
ATOM      3  C   UNL     1       9.020  -4.437  24.838  1.00  0.00     0.238 A 
ATOM      4  O   UNL     1       9.994  -3.848  25.383  1.00  0.00    -0.285 OA
ATOM      5  C   UNL     1       8.014  -3.709  24.171  1.00  0.00     0.111 A 
ATOM      6  C   UNL     1       8.019  -2.296  24.069  1.00  0.00     0.134 A 
ATOM      7  C   UNL     1       6.985  -1.646  23.381  1.00  0.00     0.093 A 
ATOM      8  C   UNL     1       5.950  -2.376  22.793  1.00  0.00     0.123 A 
ATOM      9  C   UNL     1       5.939  -3.771  22.891  1.00  0.00     0.094 A 
ATOM     10  C   UNL     1       6.959  -4.439  23.575  1.00  0.00     0.146 A 
ATOM     11  O   UNL     1       6.922  -5.763  23.657  1.00  0.00    -0.452 OA
ENDROOT
BRANCH   1  12
ATOM     12  C   UNL     1       7.683  -7.954  24.321  1.00  0.00     0.029 A 
ATOM     13  C   UNL     1       7.503  -8.653  23.120  1.00  0.00     0.062 A 
ATOM     14  C   UNL     1       7.326 -10.042  23.112  1.00  0.00     0.162 A 
ATOM     15  C   UNL     1       7.649  -8.661  25.534  1.00  0.00     0.062 A 
ATOM     16  C   UNL     1       7.316 -10.751  24.337  1.00  0.00     0.200 A 
ATOM     17  C   UNL     1       7.472 -10.049  25.541  1.00  0.00     0.162 A 
BRANCH  14  18
ATOM     18  O   UNL     1       7.165 -10.670  21.876  1.00  0.00    -0.504 OA
ATOM     19  H   UNL     1       6.361 -10.545  21.277  1.00  0.00     0.293 HD
ENDBRANCH  14  18
BRANCH  16  20
ATOM     20  O   UNL     1       7.150 -12.136  24.402  1.00  0.00    -0.502 OA
ATOM     21  H   UNL     1       7.118 -12.741  23.594  1.00  0.00     0.293 HD
ENDBRANCH  16  20
BRANCH  17  22
ATOM     22  O   UNL     1       7.447 -10.745  26.750  1.00  0.00    -0.504 OA
ATOM     23  H   UNL     1       6.635 -11.279  27.037  1.00  0.00     0.293 HD
ENDBRANCH  17  22
ENDBRANCH   1  12
BRANCH   2  24
ATOM     24  O   UNL     1       9.953  -6.585  25.503  1.00  0.00    -0.502 OA
ATOM     25  H   UNL     1       9.785  -7.163  26.317  1.00  0.00     0.293 HD
ENDBRANCH   2  24
BRANCH   6  26
ATOM     26  O   UNL     1       9.039  -1.538  24.644  1.00  0.00    -0.507 OA
ATOM     27  H   UNL     1       9.755  -1.961  25.223  1.00  0.00     0.293 HD
ENDBRANCH   6  26
BRANCH   8  28
ATOM     28  O   UNL     1       4.935  -1.705  22.114  1.00  0.00    -0.508 OA
ATOM     29  H   UNL     1       4.583  -2.037  21.223  1.00  0.00     0.293 HD
ENDBRANCH   8  28
TORSDOF 7
ENDMDL
MODEL 6
REMARK VINA RESULT:    -5.769     11.559     13.438
REMARK INTER + INTRA:          -7.400
REMARK INTER:                  -7.079
REMARK INTRA:                  -0.321
REMARK UNBOUND:                -0.282
REMARK SMILES O=c1c(O)c(-c2cc(O)c(O)c(O)c2)oc2cc(O)cc(O)c12
REMARK SMILES IDX 5 1 3 2 2 3 1 4 23 5 21 6 20 7 18 8 17 9 16 10 15 11 6 12
REMARK SMILES IDX 7 13 8 14 14 15 10 16 12 17 9 18 11 20 13 22 4 24 22 26
REMARK SMILES IDX 19 28
REMARK H PARENT 9 19 11 21 13 23 4 25 22 27 19 29
REMARK Flexibility Score: inf
ROOT
ATOM      1  C   UNL     1      -3.792 -10.695  26.260  1.00  0.00     0.180 A 
ATOM      2  C   UNL     1      -4.748 -11.601  25.764  1.00  0.00     0.208 A 
ATOM      3  C   UNL     1      -4.462 -12.314  24.589  1.00  0.00     0.238 A 
ATOM      4  O   UNL     1      -5.306 -13.138  24.141  1.00  0.00    -0.285 OA
ATOM      5  C   UNL     1      -3.238 -12.095  23.922  1.00  0.00     0.111 A 
ATOM      6  C   UNL     1      -2.874 -12.771  22.732  1.00  0.00     0.134 A 
ATOM      7  C   UNL     1      -1.642 -12.492  22.124  1.00  0.00     0.093 A 
ATOM      8  C   UNL     1      -0.770 -11.552  22.679  1.00  0.00     0.123 A 
ATOM      9  C   UNL     1      -1.123 -10.884  23.855  1.00  0.00     0.094 A 
ATOM     10  C   UNL     1      -2.346 -11.149  24.478  1.00  0.00     0.146 A 
ATOM     11  O   UNL     1      -2.655 -10.503  25.596  1.00  0.00    -0.452 OA
ENDROOT
BRANCH   1  12
ATOM     12  C   UNL     1      -4.013  -9.919  27.502  1.00  0.00     0.029 A 
ATOM     13  C   UNL     1      -3.850 -10.546  28.745  1.00  0.00     0.062 A 
ATOM     14  C   UNL     1      -4.070  -9.850  29.939  1.00  0.00     0.162 A 
ATOM     15  C   UNL     1      -4.439  -8.582  27.463  1.00  0.00     0.062 A 
ATOM     16  C   UNL     1      -4.477  -8.495  29.892  1.00  0.00     0.200 A 
ATOM     17  C   UNL     1      -4.663  -7.874  28.649  1.00  0.00     0.162 A 
BRANCH  14  18
ATOM     18  O   UNL     1      -3.876 -10.538  31.139  1.00  0.00    -0.504 OA
ATOM     19  H   UNL     1      -3.341 -10.179  31.917  1.00  0.00     0.293 HD
ENDBRANCH  14  18
BRANCH  16  20
ATOM     20  O   UNL     1      -4.708  -7.739  31.045  1.00  0.00    -0.502 OA
ATOM     21  H   UNL     1      -4.003  -7.187  31.511  1.00  0.00     0.293 HD
ENDBRANCH  16  20
BRANCH  17  22
ATOM     22  O   UNL     1      -5.079  -6.543  28.602  1.00  0.00    -0.504 OA
ATOM     23  H   UNL     1      -5.815  -6.239  27.976  1.00  0.00     0.293 HD
ENDBRANCH  17  22
ENDBRANCH   1  12
BRANCH   2  24
ATOM     24  O   UNL     1      -5.974 -11.763  26.416  1.00  0.00    -0.502 OA
ATOM     25  H   UNL     1      -6.715 -11.075  26.357  1.00  0.00     0.293 HD
ENDBRANCH   2  24
BRANCH   6  26
ATOM     26  O   UNL     1      -3.724 -13.713  22.152  1.00  0.00    -0.507 OA
ATOM     27  H   UNL     1      -4.337 -14.294  22.711  1.00  0.00     0.293 HD
ENDBRANCH   6  26
BRANCH   8  28
ATOM     28  O   UNL     1       0.449 -11.292  22.054  1.00  0.00    -0.508 OA
ATOM     29  H   UNL     1       1.328 -11.380  22.550  1.00  0.00     0.293 HD
ENDBRANCH   8  28
TORSDOF 7
ENDMDL
MODEL 7
REMARK VINA RESULT:    -5.690     11.361     13.367
REMARK INTER + INTRA:          -7.302
REMARK INTER:                  -6.943
REMARK INTRA:                  -0.359
REMARK UNBOUND:                -0.282
REMARK SMILES O=c1c(O)c(-c2cc(O)c(O)c(O)c2)oc2cc(O)cc(O)c12
REMARK SMILES IDX 5 1 3 2 2 3 1 4 23 5 21 6 20 7 18 8 17 9 16 10 15 11 6 12
REMARK SMILES IDX 7 13 8 14 14 15 10 16 12 17 9 18 11 20 13 22 4 24 22 26
REMARK SMILES IDX 19 28
REMARK H PARENT 9 19 11 21 13 23 4 25 22 27 19 29
REMARK Flexibility Score: inf
ROOT
ATOM      1  C   UNL     1      -3.619  -8.401  27.190  1.00  0.00     0.180 A 
ATOM      2  C   UNL     1      -4.635  -8.009  28.082  1.00  0.00     0.208 A 
ATOM      3  C   UNL     1      -4.448  -6.852  28.856  1.00  0.00     0.238 A 
ATOM      4  O   UNL     1      -5.356  -6.485  29.651  1.00  0.00    -0.285 OA
ATOM      5  C   UNL     1      -3.247  -6.123  28.740  1.00  0.00     0.111 A 
ATOM      6  C   UNL     1      -2.979  -4.950  29.487  1.00  0.00     0.134 A 
ATOM      7  C   UNL     1      -1.756  -4.285  29.321  1.00  0.00     0.093 A 
ATOM      8  C   UNL     1      -0.796  -4.769  28.428  1.00  0.00     0.123 A 
ATOM      9  C   UNL     1      -1.056  -5.926  27.688  1.00  0.00     0.094 A 
ATOM     10  C   UNL     1      -2.270  -6.603  27.836  1.00  0.00     0.146 A 
ATOM     11  O   UNL     1      -2.492  -7.697  27.119  1.00  0.00    -0.452 OA
ENDROOT
BRANCH   1  12
ATOM     12  C   UNL     1      -3.749  -9.598  26.326  1.00  0.00     0.029 A 
ATOM     13  C   UNL     1      -4.370  -9.482  25.076  1.00  0.00     0.062 A 
ATOM     14  C   UNL     1      -4.528 -10.595  24.242  1.00  0.00     0.162 A 
ATOM     15  C   UNL     1      -3.313 -10.861  26.758  1.00  0.00     0.062 A 
ATOM     16  C   UNL     1      -4.066 -11.862  24.674  1.00  0.00     0.200 A 
ATOM     17  C   UNL     1      -3.465 -11.983  25.935  1.00  0.00     0.162 A 
BRANCH  14  18
ATOM     18  O   UNL     1      -5.147 -10.400  23.005  1.00  0.00    -0.504 OA
ATOM     19  H   UNL     1      -4.833  -9.733  22.315  1.00  0.00     0.293 HD
ENDBRANCH  14  18
BRANCH  16  20
ATOM     20  O   UNL     1      -4.187 -13.013  23.891  1.00  0.00    -0.502 OA
ATOM     21  H   UNL     1      -3.487 -13.738  23.840  1.00  0.00     0.293 HD
ENDBRANCH  16  20
BRANCH  17  22
ATOM     22  O   UNL     1      -3.023 -13.233  26.368  1.00  0.00    -0.504 OA
ATOM     23  H   UNL     1      -3.320 -13.623  27.255  1.00  0.00     0.293 HD
ENDBRANCH  17  22
ENDBRANCH   1  12
BRANCH   2  24
ATOM     24  O   UNL     1      -5.795  -8.777  28.215  1.00  0.00    -0.502 OA
ATOM     25  H   UNL     1      -6.007  -9.299  29.055  1.00  0.00     0.293 HD
ENDBRANCH   2  24
BRANCH   6  26
ATOM     26  O   UNL     1      -3.916  -4.442  30.387  1.00  0.00    -0.507 OA
ATOM     27  H   UNL     1      -3.812  -3.524  30.803  1.00  0.00     0.293 HD
ENDBRANCH   6  26
BRANCH   8  28
ATOM     28  O   UNL     1       0.412  -4.090  28.283  1.00  0.00    -0.508 OA
ATOM     29  H   UNL     1       1.231  -4.344  28.823  1.00  0.00     0.293 HD
ENDBRANCH   8  28
TORSDOF 7
ENDMDL
MODEL 8
REMARK VINA RESULT:    -5.615     12.561     13.899
REMARK INTER + INTRA:          -7.210
REMARK INTER:                  -6.850
REMARK INTRA:                  -0.360
REMARK UNBOUND:                -0.282
REMARK SMILES O=c1c(O)c(-c2cc(O)c(O)c(O)c2)oc2cc(O)cc(O)c12
REMARK SMILES IDX 5 1 3 2 2 3 1 4 23 5 21 6 20 7 18 8 17 9 16 10 15 11 6 12
REMARK SMILES IDX 7 13 8 14 14 15 10 16 12 17 9 18 11 20 13 22 4 24 22 26
REMARK SMILES IDX 19 28
REMARK H PARENT 9 19 11 21 13 23 4 25 22 27 19 29
REMARK Flexibility Score: inf
ROOT
ATOM      1  C   UNL     1      -3.824  -9.940  28.291  1.00  0.00     0.180 A 
ATOM      2  C   UNL     1      -2.963 -11.020  28.560  1.00  0.00     0.208 A 
ATOM      3  C   UNL     1      -2.310 -11.074  29.801  1.00  0.00     0.238 A 
ATOM      4  O   UNL     1      -1.544 -12.043  30.058  1.00  0.00    -0.285 OA
ATOM      5  C   UNL     1      -2.512 -10.042  30.740  1.00  0.00     0.111 A 
ATOM      6  C   UNL     1      -1.889 -10.019  32.012  1.00  0.00     0.134 A 
ATOM      7  C   UNL     1      -2.135  -8.952  32.887  1.00  0.00     0.093 A 
ATOM      8  C   UNL     1      -2.988  -7.909  32.518  1.00  0.00     0.123 A 
ATOM      9  C   UNL     1      -3.607  -7.926  31.264  1.00  0.00     0.094 A 
ATOM     10  C   UNL     1      -3.376  -8.982  30.377  1.00  0.00     0.146 A 
ATOM     11  O   UNL     1      -3.979  -8.976  29.195  1.00  0.00    -0.452 OA
ENDROOT
BRANCH   1  12
ATOM     12  C   UNL     1      -4.564  -9.822  27.013  1.00  0.00     0.029 A 
ATOM     13  C   UNL     1      -5.823 -10.424  26.885  1.00  0.00     0.062 A 
ATOM     14  C   UNL     1      -6.540 -10.350  25.686  1.00  0.00     0.162 A 
ATOM     15  C   UNL     1      -4.005  -9.168  25.903  1.00  0.00     0.062 A 
ATOM     16  C   UNL     1      -5.981  -9.669  24.579  1.00  0.00     0.200 A 
ATOM     17  C   UNL     1      -4.710  -9.087  24.697  1.00  0.00     0.162 A 
BRANCH  14  18
ATOM     18  O   UNL     1      -7.794 -10.964  25.638  1.00  0.00    -0.504 OA
ATOM     19  H   UNL     1      -8.163 -11.435  24.825  1.00  0.00     0.293 HD
ENDBRANCH  14  18
BRANCH  16  20
ATOM     20  O   UNL     1      -6.644  -9.553  23.354  1.00  0.00    -0.502 OA
ATOM     21  H   UNL     1      -6.179  -9.413  22.470  1.00  0.00     0.293 HD
ENDBRANCH  16  20
BRANCH  17  22
ATOM     22  O   UNL     1      -4.152  -8.428  23.602  1.00  0.00    -0.504 OA
ATOM     23  H   UNL     1      -3.825  -7.471  23.669  1.00  0.00     0.293 HD
ENDBRANCH  17  22
ENDBRANCH   1  12
BRANCH   2  24
ATOM     24  O   UNL     1      -2.740 -12.005  27.593  1.00  0.00    -0.502 OA
ATOM     25  H   UNL     1      -3.301 -12.845  27.535  1.00  0.00     0.293 HD
ENDBRANCH   2  24
BRANCH   6  26
ATOM     26  O   UNL     1      -1.031 -11.045  32.410  1.00  0.00    -0.507 OA
ATOM     27  H   UNL     1      -1.264 -12.020  32.266  1.00  0.00     0.293 HD
ENDBRANCH   6  26
BRANCH   8  28
ATOM     28  O   UNL     1      -3.215  -6.859  33.406  1.00  0.00    -0.508 OA
ATOM     29  H   UNL     1      -2.605  -6.694  34.198  1.00  0.00     0.293 HD
ENDBRANCH   8  28
TORSDOF 7
ENDMDL
