MODEL 1
REMARK VINA RESULT:    -3.873      0.000      0.000
REMARK INTER + INTRA:          -6.118
REMARK INTER:                  -5.910
REMARK INTRA:                  -0.207
REMARK UNBOUND:                -0.207
REMARK SMILES CC1=CCC[C@H](C)C(=O)C[C@@H](C(C)C)C(=O)C1
REMARK SMILES IDX 8 1 9 2 6 3 7 4 5 5 4 6 3 7 2 8 1 9 10 11 11 12 15 13 16 14
REMARK SMILES IDX 17 15 12 17 13 18 14 19
REMARK H PARENT
REMARK Flexibility Score: 70.00
ROOT
ATOM      1  C   UNL     1      12.869 -17.755 -20.138  1.00  0.00     0.136 C 
ATOM      2  O   UNL     1      12.035 -17.793 -19.249  1.00  0.00    -0.299 OA
ENDROOT
BRANCH   1   3
ATOM      3  C   UNL     1      14.222 -18.402 -19.885  1.00  0.00     0.053 C 
ATOM      4  C   UNL     1      15.032 -17.605 -18.853  1.00  0.00     0.016 C 
BRANCH   3   5
ATOM      5  C   UNL     1      14.082 -19.878 -19.462  1.00  0.00     0.015 C 
BRANCH   5   6
ATOM      6  C   UNL     1      13.757 -20.776 -20.669  1.00  0.00     0.028 C 
BRANCH   6   7
ATOM      7  C   UNL     1      14.829 -20.788 -21.729  1.00  0.00    -0.028 C 
ATOM      8  C   UNL     1      14.711 -20.328 -23.001  1.00  0.00    -0.070 CG0
ATOM      9  C   UNL     1      15.970 -20.294 -23.836  1.00  0.00     0.039 C 
ATOM     10  G   UNL     1      13.394 -19.955 -23.675  1.00  0.00     0.000 G0
ENDBRANCH   6   7
ENDBRANCH   5   6
ENDBRANCH   3   5
ENDBRANCH   1   3
BRANCH   1  11
ATOM     11  C   UNL     1      12.513 -17.122 -21.470  1.00  0.00     0.087 C 
BRANCH  11  12
ATOM     12  C   UNL     1      11.959 -18.083 -22.564  1.00  0.00     0.066 C 
BRANCH  12  13
ATOM     13  C   UNL     1      13.001 -18.501 -23.594  1.00  0.00     0.140 C 
ATOM     14  O   UNL     1      13.421 -17.697 -24.413  1.00  0.00    -0.299 OA
BRANCH  13  15
ATOM     15  C   UNL     1      13.402 -19.953 -23.693  1.00  0.00     0.106 CG0
ATOM     16  G   UNL     1      14.704 -20.335 -22.994  1.00  0.00     0.000 G0
ENDBRANCH  13  15
ENDBRANCH  12  13
BRANCH  12  17
ATOM     17  C   UNL     1      10.590 -17.676 -23.207  1.00  0.00    -0.006 C 
ATOM     18  C   UNL     1      10.324 -18.438 -24.516  1.00  0.00     0.008 C 
ATOM     19  C   UNL     1       9.381 -17.817 -22.271  1.00  0.00     0.008 C 
ENDBRANCH  12  17
ENDBRANCH  11  12
ENDBRANCH   1  11
TORSDOF 1
ENDMDL
MODEL 2
REMARK VINA RESULT:    -3.806      1.805      4.035
REMARK INTER + INTRA:          -6.015
REMARK INTER:                  -6.115
REMARK INTRA:                   0.099
REMARK UNBOUND:                -0.207
REMARK SMILES CC1=CCC[C@H](C)C(=O)C[C@@H](C(C)C)C(=O)C1
REMARK SMILES IDX 8 1 9 2 6 3 7 4 5 5 4 6 3 7 2 8 1 9 10 11 11 12 15 13 16 14
REMARK SMILES IDX 17 15 12 17 13 18 14 19
REMARK H PARENT
REMARK Flexibility Score: 70.00
ROOT
ATOM      1  C   UNL     1      15.351 -19.468 -19.906  1.00  0.00     0.136 C 
ATOM      2  O   UNL     1      16.314 -18.756 -20.141  1.00  0.00    -0.299 OA
ENDROOT
BRANCH   1   3
ATOM      3  C   UNL     1      14.353 -19.006 -18.855  1.00  0.00     0.053 C 
ATOM      4  C   UNL     1      15.056 -18.676 -17.532  1.00  0.00     0.016 C 
BRANCH   3   5
ATOM      5  C   UNL     1      13.510 -17.814 -19.350  1.00  0.00     0.015 C 
BRANCH   5   6
ATOM      6  C   UNL     1      12.361 -18.283 -20.261  1.00  0.00     0.028 C 
BRANCH   6   7
ATOM      7  C   UNL     1      12.297 -17.564 -21.584  1.00  0.00    -0.028 C 
ATOM      8  C   UNL     1      12.579 -18.091 -22.803  1.00  0.00    -0.070 CG0
ATOM      9  C   UNL     1      12.287 -17.226 -24.007  1.00  0.00     0.039 C 
ATOM     10  G   UNL     1      13.268 -19.433 -23.035  1.00  0.00     0.000 G0
ENDBRANCH   6   7
ENDBRANCH   5   6
ENDBRANCH   3   5
ENDBRANCH   1   3
BRANCH   1  11
ATOM     11  C   UNL     1      15.156 -20.745 -20.700  1.00  0.00     0.087 C 
BRANCH  11  12
ATOM     12  C   UNL     1      15.429 -20.653 -22.232  1.00  0.00     0.066 C 
BRANCH  12  13
ATOM     13  C   UNL     1      14.761 -19.458 -22.900  1.00  0.00     0.140 C 
ATOM     14  O   UNL     1      15.415 -18.470 -23.199  1.00  0.00    -0.299 OA
BRANCH  13  15
ATOM     15  C   UNL     1      13.259 -19.440 -23.055  1.00  0.00     0.106 CG0
ATOM     16  G   UNL     1      12.577 -18.103 -22.781  1.00  0.00     0.000 G0
ENDBRANCH  13  15
ENDBRANCH  12  13
BRANCH  12  17
ATOM     17  C   UNL     1      15.259 -21.983 -23.041  1.00  0.00    -0.006 C 
ATOM     18  C   UNL     1      15.555 -21.784 -24.538  1.00  0.00     0.008 C 
ATOM     19  C   UNL     1      16.080 -23.164 -22.504  1.00  0.00     0.008 C 
ENDBRANCH  12  17
ENDBRANCH  11  12
ENDBRANCH   1  11
TORSDOF 1
ENDMDL
MODEL 3
REMARK VINA RESULT:    -3.761      2.442      4.380
REMARK INTER + INTRA:          -5.947
REMARK INTER:                  -5.981
REMARK INTRA:                   0.034
REMARK UNBOUND:                -0.207
REMARK SMILES CC1=CCC[C@H](C)C(=O)C[C@@H](C(C)C)C(=O)C1
REMARK SMILES IDX 8 1 9 2 6 3 7 4 5 5 4 6 3 7 2 8 1 9 10 11 11 12 15 13 16 14
REMARK SMILES IDX 17 15 12 17 13 18 14 19
REMARK H PARENT
REMARK Flexibility Score: 70.00
ROOT
ATOM      1  C   UNL     1       9.359 -17.878 -23.206  1.00  0.00     0.136 C 
ATOM      2  O   UNL     1       9.218 -18.674 -24.120  1.00  0.00    -0.299 OA
ENDROOT
BRANCH   1   3
ATOM      3  C   UNL     1       8.711 -18.194 -21.867  1.00  0.00     0.053 C 
ATOM      4  C   UNL     1       7.340 -18.855 -22.060  1.00  0.00     0.016 C 
BRANCH   3   5
ATOM      5  C   UNL     1       9.625 -19.059 -20.977  1.00  0.00     0.015 C 
BRANCH   5   6
ATOM      6  C   UNL     1      10.430 -18.191 -19.994  1.00  0.00     0.028 C 
BRANCH   6   7
ATOM      7  C   UNL     1      11.879 -18.587 -19.871  1.00  0.00    -0.028 C 
ATOM      8  C   UNL     1      12.930 -18.009 -20.506  1.00  0.00    -0.070 CG0
ATOM      9  C   UNL     1      14.311 -18.469 -20.103  1.00  0.00     0.039 C 
ATOM     10  G   UNL     1      12.814 -17.021 -21.664  1.00  0.00     0.000 G0
ENDBRANCH   6   7
ENDBRANCH   5   6
ENDBRANCH   3   5
ENDBRANCH   1   3
BRANCH   1  11
ATOM     11  C   UNL     1      10.216 -16.644 -23.418  1.00  0.00     0.087 C 
BRANCH  11  12
ATOM     12  C   UNL     1      11.642 -16.885 -23.998  1.00  0.00     0.066 C 
BRANCH  12  13
ATOM     13  C   UNL     1      12.577 -17.609 -23.037  1.00  0.00     0.140 C 
ATOM     14  O   UNL     1      13.024 -18.711 -23.319  1.00  0.00    -0.299 OA
BRANCH  13  15
ATOM     15  C   UNL     1      12.829 -17.025 -21.668  1.00  0.00     0.106 CG0
ATOM     16  G   UNL     1      12.921 -18.028 -20.522  1.00  0.00     0.000 G0
ENDBRANCH  13  15
ENDBRANCH  12  13
BRANCH  12  17
ATOM     17  C   UNL     1      12.314 -15.657 -24.700  1.00  0.00    -0.006 C 
ATOM     18  C   UNL     1      13.843 -15.811 -24.781  1.00  0.00     0.008 C 
ATOM     19  C   UNL     1      11.752 -15.334 -26.092  1.00  0.00     0.008 C 
ENDBRANCH  12  17
ENDBRANCH  11  12
ENDBRANCH   1  11
TORSDOF 1
ENDMDL
MODEL 4
REMARK VINA RESULT:    -3.739      2.342      4.918
REMARK INTER + INTRA:          -5.914
REMARK INTER:                  -5.344
REMARK INTRA:                  -0.570
REMARK UNBOUND:                -0.207
REMARK SMILES CC1=CCC[C@H](C)C(=O)C[C@@H](C(C)C)C(=O)C1
REMARK SMILES IDX 8 1 9 2 6 3 7 4 5 5 4 6 3 7 2 8 1 9 10 11 11 12 15 13 16 14
REMARK SMILES IDX 17 15 12 17 13 18 14 19
REMARK H PARENT
REMARK Flexibility Score: 70.00
ROOT
ATOM      1  C   UNL     1      11.700 -15.927 -24.613  1.00  0.00     0.136 C 
ATOM      2  O   UNL     1      11.896 -15.293 -25.637  1.00  0.00    -0.299 OA
ENDROOT
BRANCH   1   3
ATOM      3  C   UNL     1      10.399 -16.706 -24.485  1.00  0.00     0.053 C 
ATOM      4  C   UNL     1      10.554 -18.133 -25.027  1.00  0.00     0.016 C 
BRANCH   3   5
ATOM      5  C   UNL     1       9.876 -16.715 -23.035  1.00  0.00     0.015 C 
BRANCH   5   6
ATOM      6  C   UNL     1       9.972 -18.121 -22.416  1.00  0.00     0.028 C 
BRANCH   6   7
ATOM      7  C   UNL     1      10.638 -18.151 -21.064  1.00  0.00    -0.028 C 
ATOM      8  C   UNL     1      11.958 -18.355 -20.819  1.00  0.00    -0.070 CG0
ATOM      9  C   UNL     1      12.424 -18.179 -19.393  1.00  0.00     0.039 C 
ATOM     10  G   UNL     1      12.969 -18.854 -21.847  1.00  0.00     0.000 G0
ENDBRANCH   6   7
ENDBRANCH   5   6
ENDBRANCH   3   5
ENDBRANCH   1   3
BRANCH   1  11
ATOM     11  C   UNL     1      12.772 -15.964 -23.541  1.00  0.00     0.087 C 
BRANCH  11  12
ATOM     12  C   UNL     1      13.804 -17.128 -23.637  1.00  0.00     0.066 C 
BRANCH  12  13
ATOM     13  C   UNL     1      14.011 -17.869 -22.322  1.00  0.00     0.140 C 
ATOM     14  O   UNL     1      15.063 -17.763 -21.709  1.00  0.00    -0.299 OA
BRANCH  13  15
ATOM     15  C   UNL     1      12.967 -18.855 -21.856  1.00  0.00     0.106 CG0
ATOM     16  G   UNL     1      11.978 -18.337 -20.816  1.00  0.00     0.000 G0
ENDBRANCH  13  15
ENDBRANCH  12  13
BRANCH  12  17
ATOM     17  C   UNL     1      15.146 -16.797 -24.373  1.00  0.00    -0.006 C 
ATOM     18  C   UNL     1      15.065 -17.111 -25.877  1.00  0.00     0.008 C 
ATOM     19  C   UNL     1      15.644 -15.358 -24.171  1.00  0.00     0.008 C 
ENDBRANCH  12  17
ENDBRANCH  11  12
ENDBRANCH   1  11
TORSDOF 1
ENDMDL
MODEL 5
REMARK VINA RESULT:    -3.728      1.753      2.155
REMARK INTER + INTRA:          -5.897
REMARK INTER:                  -5.567
REMARK INTRA:                  -0.330
REMARK UNBOUND:                -0.207
REMARK SMILES CC1=CCC[C@H](C)C(=O)C[C@@H](C(C)C)C(=O)C1
REMARK SMILES IDX 8 1 9 2 6 3 7 4 5 5 4 6 3 7 2 8 1 9 10 11 11 12 15 13 16 14
REMARK SMILES IDX 17 15 12 17 13 18 14 19
REMARK H PARENT
REMARK Flexibility Score: 70.00
ROOT
ATOM      1  C   UNL     1      15.577 -17.952 -20.684  1.00  0.00     0.136 C 
ATOM      2  O   UNL     1      16.752 -18.258 -20.798  1.00  0.00    -0.299 OA
ENDROOT
BRANCH   1   3
ATOM      3  C   UNL     1      14.861 -18.309 -19.391  1.00  0.00     0.053 C 
ATOM      4  C   UNL     1      13.473 -17.658 -19.329  1.00  0.00     0.016 C 
BRANCH   3   5
ATOM      5  C   UNL     1      14.769 -19.835 -19.189  1.00  0.00     0.015 C 
BRANCH   5   6
ATOM      6  C   UNL     1      14.091 -20.516 -20.391  1.00  0.00     0.028 C 
BRANCH   6   7
ATOM      7  C   UNL     1      15.030 -21.331 -21.243  1.00  0.00    -0.028 C 
ATOM      8  C   UNL     1      15.210 -21.213 -22.584  1.00  0.00    -0.070 CG0
ATOM      9  C   UNL     1      16.325 -22.026 -23.198  1.00  0.00     0.039 C 
ATOM     10  G   UNL     1      14.306 -20.416 -23.519  1.00  0.00     0.000 G0
ENDBRANCH   6   7
ENDBRANCH   5   6
ENDBRANCH   3   5
ENDBRANCH   1   3
BRANCH   1  11
ATOM     11  C   UNL     1      14.894 -17.182 -21.799  1.00  0.00     0.087 C 
BRANCH  11  12
ATOM     12  C   UNL     1      13.886 -17.986 -22.675  1.00  0.00     0.066 C 
BRANCH  12  13
ATOM     13  C   UNL     1      14.555 -18.944 -23.652  1.00  0.00     0.140 C 
ATOM     14  O   UNL     1      15.201 -18.515 -24.597  1.00  0.00    -0.299 OA
BRANCH  13  15
ATOM     15  C   UNL     1      14.292 -20.426 -23.533  1.00  0.00     0.106 CG0
ATOM     16  G   UNL     1      15.214 -21.193 -22.590  1.00  0.00     0.000 G0
ENDBRANCH  13  15
ENDBRANCH  12  13
BRANCH  12  17
ATOM     17  C   UNL     1      12.728 -17.156 -23.325  1.00  0.00    -0.006 C 
ATOM     18  C   UNL     1      11.346 -17.619 -22.831  1.00  0.00     0.008 C 
ATOM     19  C   UNL     1      12.857 -15.636 -23.149  1.00  0.00     0.008 C 
ENDBRANCH  12  17
ENDBRANCH  11  12
ENDBRANCH   1  11
TORSDOF 1
ENDMDL
MODEL 6
REMARK VINA RESULT:    -3.672      1.839      4.316
REMARK INTER + INTRA:          -5.811
REMARK INTER:                  -5.362
REMARK INTRA:                  -0.449
REMARK UNBOUND:                -0.207
REMARK SMILES CC1=CCC[C@H](C)C(=O)C[C@@H](C(C)C)C(=O)C1
REMARK SMILES IDX 8 1 9 2 6 3 7 4 5 5 4 6 3 7 2 8 1 9 10 11 11 12 15 13 16 14
REMARK SMILES IDX 17 15 12 17 13 18 14 19
REMARK H PARENT
REMARK Flexibility Score: 70.00
ROOT
ATOM      1  C   UNL     1      12.320 -18.216 -20.241  1.00  0.00     0.136 C 
ATOM      2  O   UNL     1      11.940 -17.449 -19.372  1.00  0.00    -0.299 OA
ENDROOT
BRANCH   1   3
ATOM      3  C   UNL     1      11.728 -18.075 -21.635  1.00  0.00     0.053 C 
ATOM      4  C   UNL     1      10.205 -18.262 -21.610  1.00  0.00     0.016 C 
BRANCH   3   5
ATOM      5  C   UNL     1      12.113 -16.733 -22.289  1.00  0.00     0.015 C 
BRANCH   5   6
ATOM      6  C   UNL     1      13.546 -16.776 -22.848  1.00  0.00     0.028 C 
BRANCH   6   7
ATOM      7  C   UNL     1      13.795 -17.908 -23.811  1.00  0.00    -0.028 C 
ATOM      8  C   UNL     1      14.706 -18.904 -23.668  1.00  0.00    -0.070 CG0
ATOM      9  C   UNL     1      14.664 -20.022 -24.683  1.00  0.00     0.039 C 
ATOM     10  G   UNL     1      15.828 -18.918 -22.634  1.00  0.00     0.000 G0
ENDBRANCH   6   7
ENDBRANCH   5   6
ENDBRANCH   3   5
ENDBRANCH   1   3
BRANCH   1  11
ATOM     11  C   UNL     1      13.399 -19.232 -19.921  1.00  0.00     0.087 C 
BRANCH  11  12
ATOM     12  C   UNL     1      14.867 -18.794 -20.207  1.00  0.00     0.066 C 
BRANCH  12  13
ATOM     13  C   UNL     1      15.537 -19.593 -21.317  1.00  0.00     0.140 C 
ATOM     14  O   UNL     1      15.936 -20.730 -21.109  1.00  0.00    -0.299 OA
BRANCH  13  15
ATOM     15  C   UNL     1      15.841 -18.920 -22.634  1.00  0.00     0.106 CG0
ATOM     16  G   UNL     1      14.704 -18.900 -23.651  1.00  0.00     0.000 G0
ENDBRANCH  13  15
ENDBRANCH  12  13
BRANCH  12  17
ATOM     17  C   UNL     1      15.783 -18.600 -18.951  1.00  0.00    -0.006 C 
ATOM     18  C   UNL     1      16.815 -17.479 -19.164  1.00  0.00     0.008 C 
ATOM     19  C   UNL     1      15.022 -18.360 -17.640  1.00  0.00     0.008 C 
ENDBRANCH  12  17
ENDBRANCH  11  12
ENDBRANCH   1  11
TORSDOF 1
ENDMDL
MODEL 7
REMARK VINA RESULT:    -3.639      2.500      4.917
REMARK INTER + INTRA:          -5.761
REMARK INTER:                  -5.626
REMARK INTRA:                  -0.136
REMARK UNBOUND:                -0.207
REMARK SMILES CC1=CCC[C@H](C)C(=O)C[C@@H](C(C)C)C(=O)C1
REMARK SMILES IDX 8 1 9 2 6 3 7 4 5 5 4 6 3 7 2 8 1 9 10 11 11 12 15 13 16 14
REMARK SMILES IDX 17 15 12 17 13 18 14 19
REMARK H PARENT
REMARK Flexibility Score: 70.00
ROOT
ATOM      1  C   UNL     1      11.471 -18.046 -22.005  1.00  0.00     0.136 C 
ATOM      2  O   UNL     1      11.245 -17.880 -20.818  1.00  0.00    -0.299 OA
ENDROOT
BRANCH   1   3
ATOM      3  C   UNL     1      10.349 -17.781 -22.997  1.00  0.00     0.053 C 
ATOM      4  C   UNL     1       8.976 -17.949 -22.334  1.00  0.00     0.016 C 
BRANCH   3   5
ATOM      5  C   UNL     1      10.483 -16.395 -23.658  1.00  0.00     0.015 C 
BRANCH   5   6
ATOM      6  C   UNL     1      11.479 -16.430 -24.830  1.00  0.00     0.028 C 
BRANCH   6   7
ATOM      7  C   UNL     1      12.522 -15.342 -24.780  1.00  0.00    -0.028 C 
ATOM      8  C   UNL     1      13.857 -15.513 -24.605  1.00  0.00    -0.070 CG0
ATOM      9  C   UNL     1      14.729 -14.288 -24.752  1.00  0.00     0.039 C 
ATOM     10  G   UNL     1      14.520 -16.814 -24.162  1.00  0.00     0.000 G0
ENDBRANCH   6   7
ENDBRANCH   5   6
ENDBRANCH   3   5
ENDBRANCH   1   3
BRANCH   1  11
ATOM     11  C   UNL     1      12.864 -18.449 -22.450  1.00  0.00     0.087 C 
BRANCH  11  12
ATOM     12  C   UNL     1      14.051 -17.721 -21.749  1.00  0.00     0.066 C 
BRANCH  12  13
ATOM     13  C   UNL     1      14.921 -16.913 -22.704  1.00  0.00     0.140 C 
ATOM     14  O   UNL     1      15.853 -16.246 -22.279  1.00  0.00    -0.299 OA
BRANCH  13  15
ATOM     15  C   UNL     1      14.533 -16.821 -24.160  1.00  0.00     0.106 CG0
ATOM     16  G   UNL     1      13.871 -15.516 -24.592  1.00  0.00     0.000 G0
ENDBRANCH  13  15
ENDBRANCH  12  13
BRANCH  12  17
ATOM     17  C   UNL     1      14.883 -18.580 -20.738  1.00  0.00    -0.006 C 
ATOM     18  C   UNL     1      14.887 -17.960 -19.330  1.00  0.00     0.008 C 
ATOM     19  C   UNL     1      14.457 -20.053 -20.654  1.00  0.00     0.008 C 
ENDBRANCH  12  17
ENDBRANCH  11  12
ENDBRANCH   1  11
TORSDOF 1
ENDMDL
MODEL 8
REMARK VINA RESULT:    -3.603      1.910      4.412
REMARK INTER + INTRA:          -5.707
REMARK INTER:                  -5.786
REMARK INTRA:                   0.080
REMARK UNBOUND:                -0.207
REMARK SMILES CC1=CCC[C@H](C)C(=O)C[C@@H](C(C)C)C(=O)C1
REMARK SMILES IDX 8 1 9 2 6 3 7 4 5 5 4 6 3 7 2 8 1 9 10 11 11 12 15 13 16 14
REMARK SMILES IDX 17 15 12 17 13 18 14 19
REMARK H PARENT
REMARK Flexibility Score: 70.00
ROOT
ATOM      1  C   UNL     1      12.820 -17.837 -21.611  1.00  0.00     0.136 C 
ATOM      2  O   UNL     1      11.931 -18.671 -21.669  1.00  0.00    -0.299 OA
ENDROOT
BRANCH   1   3
ATOM      3  C   UNL     1      13.229 -17.128 -22.893  1.00  0.00     0.053 C 
ATOM      4  C   UNL     1      14.383 -16.150 -22.639  1.00  0.00     0.016 C 
BRANCH   3   5
ATOM      5  C   UNL     1      13.582 -18.127 -24.012  1.00  0.00     0.015 C 
BRANCH   5   6
ATOM      6  C   UNL     1      15.029 -18.632 -23.874  1.00  0.00     0.028 C 
BRANCH   6   7
ATOM      7  C   UNL     1      15.141 -20.121 -23.669  1.00  0.00    -0.028 C 
ATOM      8  C   UNL     1      15.445 -20.755 -22.507  1.00  0.00    -0.070 CG0
ATOM      9  C   UNL     1      15.339 -22.262 -22.501  1.00  0.00     0.039 C 
ATOM     10  G   UNL     1      15.988 -20.070 -21.256  1.00  0.00     0.000 G0
ENDBRANCH   6   7
ENDBRANCH   5   6
ENDBRANCH   3   5
ENDBRANCH   1   3
BRANCH   1  11
ATOM     11  C   UNL     1      13.438 -17.498 -20.268  1.00  0.00     0.087 C 
BRANCH  11  12
ATOM     12  C   UNL     1      14.860 -18.076 -19.997  1.00  0.00     0.066 C 
BRANCH  12  13
ATOM     13  C   UNL     1      14.969 -19.574 -20.255  1.00  0.00     0.140 C 
ATOM     14  O   UNL     1      14.325 -20.367 -19.584  1.00  0.00    -0.299 OA
BRANCH  13  15
ATOM     15  C   UNL     1      15.990 -20.082 -21.245  1.00  0.00     0.106 CG0
ATOM     16  G   UNL     1      15.430 -20.755 -22.495  1.00  0.00     0.000 G0
ENDBRANCH  13  15
ENDBRANCH  12  13
BRANCH  12  17
ATOM     17  C   UNL     1      15.538 -17.634 -18.656  1.00  0.00    -0.006 C 
ATOM     18  C   UNL     1      15.140 -18.550 -17.486  1.00  0.00     0.008 C 
ATOM     19  C   UNL     1      17.067 -17.516 -18.725  1.00  0.00     0.008 C 
ENDBRANCH  12  17
ENDBRANCH  11  12
ENDBRANCH   1  11
TORSDOF 1
ENDMDL
MODEL 9
REMARK VINA RESULT:    -3.556      2.272      4.215
REMARK INTER + INTRA:          -5.634
REMARK INTER:                  -5.211
REMARK INTRA:                  -0.422
REMARK UNBOUND:                -0.207
REMARK SMILES CC1=CCC[C@H](C)C(=O)C[C@@H](C(C)C)C(=O)C1
REMARK SMILES IDX 8 1 9 2 6 3 7 4 5 5 4 6 3 7 2 8 1 9 10 11 11 12 15 13 16 14
REMARK SMILES IDX 17 15 12 17 13 18 14 19
REMARK H PARENT
REMARK Flexibility Score: 70.00
ROOT
ATOM      1  C   UNL     1      16.346 -19.601 -20.981  1.00  0.00     0.136 C 
ATOM      2  O   UNL     1      17.534 -19.807 -21.166  1.00  0.00    -0.299 OA
ENDROOT
BRANCH   1   3
ATOM      3  C   UNL     1      15.917 -19.009 -19.647  1.00  0.00     0.053 C 
ATOM      4  C   UNL     1      16.262 -17.516 -19.570  1.00  0.00     0.016 C 
BRANCH   3   5
ATOM      5  C   UNL     1      14.420 -19.249 -19.368  1.00  0.00     0.015 C 
BRANCH   5   6
ATOM      6  C   UNL     1      13.651 -17.919 -19.267  1.00  0.00     0.028 C 
BRANCH   6   7
ATOM      7  C   UNL     1      12.204 -18.016 -19.677  1.00  0.00    -0.028 C 
ATOM      8  C   UNL     1      11.719 -17.958 -20.943  1.00  0.00    -0.070 CG0
ATOM      9  C   UNL     1      10.246 -18.243 -21.126  1.00  0.00     0.039 C 
ATOM     10  G   UNL     1      12.520 -17.520 -22.166  1.00  0.00     0.000 G0
ENDBRANCH   6   7
ENDBRANCH   5   6
ENDBRANCH   3   5
ENDBRANCH   1   3
BRANCH   1  11
ATOM     11  C   UNL     1      15.356 -19.886 -22.094  1.00  0.00     0.087 C 
BRANCH  11  12
ATOM     12  C   UNL     1      14.792 -18.644 -22.850  1.00  0.00     0.066 C 
BRANCH  12  13
ATOM     13  C   UNL     1      13.270 -18.605 -22.909  1.00  0.00     0.140 C 
ATOM     14  O   UNL     1      12.658 -19.370 -23.640  1.00  0.00    -0.299 OA
BRANCH  13  15
ATOM     15  C   UNL     1      12.529 -17.516 -22.173  1.00  0.00     0.106 CG0
ATOM     16  G   UNL     1      11.735 -17.960 -20.947  1.00  0.00     0.000 G0
ENDBRANCH  13  15
ENDBRANCH  12  13
BRANCH  12  17
ATOM     17  C   UNL     1      15.469 -18.311 -24.223  1.00  0.00    -0.006 C 
ATOM     18  C   UNL     1      16.049 -16.886 -24.242  1.00  0.00     0.008 C 
ATOM     19  C   UNL     1      16.545 -19.314 -24.662  1.00  0.00     0.008 C 
ENDBRANCH  12  17
ENDBRANCH  11  12
ENDBRANCH   1  11
TORSDOF 1
ENDMDL
