MODEL 1
REMARK VINA RESULT:    -7.285      0.000      0.000
REMARK INTER + INTRA:          -8.256
REMARK INTER:                  -8.562
REMARK INTRA:                   0.306
REMARK UNBOUND:                 0.306
REMARK SMILES O=c1c(O)c(-c2ccc(O)c(O)c2)oc2cc(O)ccc12
REMARK SMILES IDX 5 1 3 2 2 3 1 4 21 5 15 6 14 7 16 8 17 9 19 10 20 11 6 12
REMARK SMILES IDX 7 13 8 14 9 15 13 16 11 17 10 18 12 20 4 22 18 24
REMARK H PARENT 10 19 12 21 4 23 18 25
REMARK Flexibility Score: inf
ROOT
ATOM      1  C   UNL     1      30.982  20.621  12.576  1.00  0.00     0.180 A 
ATOM      2  C   UNL     1      30.912  19.254  12.233  1.00  0.00     0.208 A 
ATOM      3  C   UNL     1      29.838  18.810  11.445  1.00  0.00     0.235 A 
ATOM      4  O   UNL     1      29.758  17.595  11.116  1.00  0.00    -0.285 OA
ATOM      5  C   UNL     1      28.856  19.726  11.037  1.00  0.00     0.069 A 
ATOM      6  C   UNL     1      28.987  21.072  11.441  1.00  0.00     0.142 A 
ATOM      7  O   UNL     1      30.023  21.454  12.179  1.00  0.00    -0.452 OA
ATOM      8  C   UNL     1      28.024  22.013  11.062  1.00  0.00     0.094 A 
ATOM      9  C   UNL     1      26.930  21.628  10.280  1.00  0.00     0.119 A 
ATOM     10  C   UNL     1      26.797  20.293   9.875  1.00  0.00     0.047 A 
ATOM     11  C   UNL     1      27.753  19.344  10.250  1.00  0.00     0.020 A 
ENDROOT
BRANCH   1  12
ATOM     12  C   UNL     1      32.092  21.170  13.388  1.00  0.00     0.025 A 
ATOM     13  C   UNL     1      31.890  22.240  14.276  1.00  0.00     0.016 A 
ATOM     14  C   UNL     1      32.947  22.726  15.049  1.00  0.00     0.051 A 
ATOM     15  C   UNL     1      34.216  22.145  14.959  1.00  0.00     0.157 A 
ATOM     16  C   UNL     1      33.362  20.575  13.315  1.00  0.00     0.062 A 
ATOM     17  C   UNL     1      34.425  21.062  14.090  1.00  0.00     0.158 A 
BRANCH  15  18
ATOM     18  O   UNL     1      35.252  22.652  15.742  1.00  0.00    -0.504 OA
ATOM     19  H   UNL     1      35.246  22.581  16.753  1.00  0.00     0.293 HD
ENDBRANCH  15  18
BRANCH  17  20
ATOM     20  O   UNL     1      35.684  20.472  13.999  1.00  0.00    -0.504 OA
ATOM     21  H   UNL     1      35.831  19.493  14.219  1.00  0.00     0.293 HD
ENDBRANCH  17  20
ENDBRANCH   1  12
BRANCH   2  22
ATOM     22  O   UNL     1      31.877  18.357  12.696  1.00  0.00    -0.502 OA
ATOM     23  H   UNL     1      32.628  18.642  13.314  1.00  0.00     0.293 HD
ENDBRANCH   2  22
BRANCH   9  24
ATOM     24  O   UNL     1      25.980  22.578   9.912  1.00  0.00    -0.508 OA
ATOM     25  H   UNL     1      26.220  23.368   9.325  1.00  0.00     0.293 HD
ENDBRANCH   9  24
TORSDOF 5
ENDMDL
MODEL 2
REMARK VINA RESULT:    -6.366     18.782     20.564
REMARK INTER + INTRA:          -7.176
REMARK INTER:                  -6.859
REMARK INTRA:                  -0.317
REMARK UNBOUND:                 0.306
REMARK SMILES O=c1c(O)c(-c2ccc(O)c(O)c2)oc2cc(O)ccc12
REMARK SMILES IDX 5 1 3 2 2 3 1 4 21 5 15 6 14 7 16 8 17 9 19 10 20 11 6 12
REMARK SMILES IDX 7 13 8 14 9 15 13 16 11 17 10 18 12 20 4 22 18 24
REMARK H PARENT 10 19 12 21 4 23 18 25
REMARK Flexibility Score: inf
ROOT
ATOM      1  C   UNL     1      42.724  10.746  25.098  1.00  0.00     0.180 A 
ATOM      2  C   UNL     1      43.178   9.616  25.811  1.00  0.00     0.208 A 
ATOM      3  C   UNL     1      44.008   8.693  25.156  1.00  0.00     0.235 A 
ATOM      4  O   UNL     1      44.435   7.680  25.775  1.00  0.00    -0.285 OA
ATOM      5  C   UNL     1      44.349   8.904  23.811  1.00  0.00     0.069 A 
ATOM      6  C   UNL     1      43.835  10.048  23.162  1.00  0.00     0.142 A 
ATOM      7  O   UNL     1      43.059  10.901  23.819  1.00  0.00    -0.452 OA
ATOM      8  C   UNL     1      44.144  10.287  21.818  1.00  0.00     0.094 A 
ATOM      9  C   UNL     1      44.964   9.400  21.113  1.00  0.00     0.119 A 
ATOM     10  C   UNL     1      45.478   8.265  21.755  1.00  0.00     0.047 A 
ATOM     11  C   UNL     1      45.173   8.015  23.096  1.00  0.00     0.020 A 
ENDROOT
BRANCH   1  12
ATOM     12  C   UNL     1      41.861  11.774  25.723  1.00  0.00     0.025 A 
ATOM     13  C   UNL     1      40.460  11.650  25.730  1.00  0.00     0.016 A 
ATOM     14  C   UNL     1      39.668  12.621  26.346  1.00  0.00     0.051 A 
ATOM     15  C   UNL     1      40.259  13.720  26.977  1.00  0.00     0.157 A 
ATOM     16  C   UNL     1      42.451  12.868  26.375  1.00  0.00     0.062 A 
ATOM     17  C   UNL     1      41.657  13.844  26.995  1.00  0.00     0.158 A 
BRANCH  15  18
ATOM     18  O   UNL     1      39.441  14.674  27.583  1.00  0.00    -0.504 OA
ATOM     19  H   UNL     1      38.485  14.471  27.851  1.00  0.00     0.293 HD
ENDBRANCH  15  18
BRANCH  17  20
ATOM     20  O   UNL     1      42.254  14.934  27.628  1.00  0.00    -0.504 OA
ATOM     21  H   UNL     1      41.781  15.446  28.364  1.00  0.00     0.293 HD
ENDBRANCH  17  20
ENDBRANCH   1  12
BRANCH   2  22
ATOM     22  O   UNL     1      42.781   9.407  27.133  1.00  0.00    -0.502 OA
ATOM     23  H   UNL     1      42.620   8.480  27.510  1.00  0.00     0.293 HD
ENDBRANCH   2  22
BRANCH   9  24
ATOM     24  O   UNL     1      45.262   9.654  19.776  1.00  0.00    -0.508 OA
ATOM     25  H   UNL     1      46.211   9.603  19.426  1.00  0.00     0.293 HD
ENDBRANCH   9  24
TORSDOF 5
ENDMDL
MODEL 3
REMARK VINA RESULT:    -6.241     16.430     20.180
REMARK INTER + INTRA:          -7.029
REMARK INTER:                  -6.885
REMARK INTRA:                  -0.144
REMARK UNBOUND:                 0.306
REMARK SMILES O=c1c(O)c(-c2ccc(O)c(O)c2)oc2cc(O)ccc12
REMARK SMILES IDX 5 1 3 2 2 3 1 4 21 5 15 6 14 7 16 8 17 9 19 10 20 11 6 12
REMARK SMILES IDX 7 13 8 14 9 15 13 16 11 17 10 18 12 20 4 22 18 24
REMARK H PARENT 10 19 12 21 4 23 18 25
REMARK Flexibility Score: inf
ROOT
ATOM      1  C   UNL     1      43.796  11.829  23.282  1.00  0.00     0.180 A 
ATOM      2  C   UNL     1      44.753  11.161  22.489  1.00  0.00     0.208 A 
ATOM      3  C   UNL     1      45.275   9.940  22.946  1.00  0.00     0.235 A 
ATOM      4  O   UNL     1      46.124   9.319  22.251  1.00  0.00    -0.285 OA
ATOM      5  C   UNL     1      44.851   9.427  24.181  1.00  0.00     0.069 A 
ATOM      6  C   UNL     1      43.906  10.167  24.925  1.00  0.00     0.142 A 
ATOM      7  O   UNL     1      43.430  11.314  24.454  1.00  0.00    -0.452 OA
ATOM      8  C   UNL     1      43.466   9.694  26.166  1.00  0.00     0.094 A 
ATOM      9  C   UNL     1      43.954   8.485  26.674  1.00  0.00     0.119 A 
ATOM     10  C   UNL     1      44.890   7.746  25.938  1.00  0.00     0.047 A 
ATOM     11  C   UNL     1      45.338   8.212  24.698  1.00  0.00     0.020 A 
ENDROOT
BRANCH   1  12
ATOM     12  C   UNL     1      43.184  13.110  22.861  1.00  0.00     0.025 A 
ATOM     13  C   UNL     1      41.803  13.221  22.626  1.00  0.00     0.016 A 
ATOM     14  C   UNL     1      41.246  14.446  22.253  1.00  0.00     0.051 A 
ATOM     15  C   UNL     1      42.053  15.580  22.123  1.00  0.00     0.157 A 
ATOM     16  C   UNL     1      43.989  14.256  22.750  1.00  0.00     0.062 A 
ATOM     17  C   UNL     1      43.431  15.487  22.375  1.00  0.00     0.158 A 
BRANCH  15  18
ATOM     18  O   UNL     1      41.468  16.789  21.748  1.00  0.00    -0.504 OA
ATOM     19  H   UNL     1      40.702  17.201  22.268  1.00  0.00     0.293 HD
ENDBRANCH  15  18
BRANCH  17  20
ATOM     20  O   UNL     1      44.241  16.615  22.254  1.00  0.00    -0.504 OA
ATOM     21  H   UNL     1      45.250  16.540  22.190  1.00  0.00     0.293 HD
ENDBRANCH  17  20
ENDBRANCH   1  12
BRANCH   2  22
ATOM     22  O   UNL     1      45.193  11.721  21.289  1.00  0.00    -0.502 OA
ATOM     23  H   UNL     1      45.966  12.376  21.248  1.00  0.00     0.293 HD
ENDBRANCH   2  22
BRANCH   9  24
ATOM     24  O   UNL     1      43.504   8.028  27.910  1.00  0.00    -0.508 OA
ATOM     25  H   UNL     1      42.809   7.295  27.984  1.00  0.00     0.293 HD
ENDBRANCH   9  24
TORSDOF 5
ENDMDL
MODEL 4
REMARK VINA RESULT:    -6.169     16.527     19.275
REMARK INTER + INTRA:          -6.944
REMARK INTER:                  -6.663
REMARK INTRA:                  -0.281
REMARK UNBOUND:                 0.306
REMARK SMILES O=c1c(O)c(-c2ccc(O)c(O)c2)oc2cc(O)ccc12
REMARK SMILES IDX 5 1 3 2 2 3 1 4 21 5 15 6 14 7 16 8 17 9 19 10 20 11 6 12
REMARK SMILES IDX 7 13 8 14 9 15 13 16 11 17 10 18 12 20 4 22 18 24
REMARK H PARENT 10 19 12 21 4 23 18 25
REMARK Flexibility Score: inf
ROOT
ATOM      1  C   UNL     1      36.375  12.985  28.747  1.00  0.00     0.180 A 
ATOM      2  C   UNL     1      37.498  13.448  29.466  1.00  0.00     0.208 A 
ATOM      3  C   UNL     1      37.770  14.826  29.481  1.00  0.00     0.235 A 
ATOM      4  O   UNL     1      38.761  15.265  30.125  1.00  0.00    -0.285 OA
ATOM      5  C   UNL     1      36.936  15.701  28.768  1.00  0.00     0.069 A 
ATOM      6  C   UNL     1      35.846  15.156  28.055  1.00  0.00     0.142 A 
ATOM      7  O   UNL     1      35.618  13.848  28.073  1.00  0.00    -0.452 OA
ATOM      8  C   UNL     1      34.998  15.996  27.324  1.00  0.00     0.094 A 
ATOM      9  C   UNL     1      35.222  17.377  27.300  1.00  0.00     0.119 A 
ATOM     10  C   UNL     1      36.302  17.921  28.008  1.00  0.00     0.047 A 
ATOM     11  C   UNL     1      37.156  17.091  28.739  1.00  0.00     0.020 A 
ENDROOT
BRANCH   1  12
ATOM     12  C   UNL     1      36.011  11.551  28.698  1.00  0.00     0.025 A 
ATOM     13  C   UNL     1      34.957  11.035  29.472  1.00  0.00     0.016 A 
ATOM     14  C   UNL     1      34.616   9.683  29.391  1.00  0.00     0.051 A 
ATOM     15  C   UNL     1      35.310   8.829  28.529  1.00  0.00     0.157 A 
ATOM     16  C   UNL     1      36.692  10.695  27.818  1.00  0.00     0.062 A 
ATOM     17  C   UNL     1      36.351   9.336  27.736  1.00  0.00     0.158 A 
BRANCH  15  18
ATOM     18  O   UNL     1      34.948   7.484  28.471  1.00  0.00    -0.504 OA
ATOM     19  H   UNL     1      35.006   6.875  29.279  1.00  0.00     0.293 HD
ENDBRANCH  15  18
BRANCH  17  20
ATOM     20  O   UNL     1      37.044   8.493  26.868  1.00  0.00    -0.504 OA
ATOM     21  H   UNL     1      36.746   7.537  26.705  1.00  0.00     0.293 HD
ENDBRANCH  17  20
ENDBRANCH   1  12
BRANCH   2  22
ATOM     22  O   UNL     1      38.338  12.547  30.124  1.00  0.00    -0.502 OA
ATOM     23  H   UNL     1      38.798  11.784  29.640  1.00  0.00     0.293 HD
ENDBRANCH   2  22
BRANCH   9  24
ATOM     24  O   UNL     1      34.368  18.198  26.568  1.00  0.00    -0.508 OA
ATOM     25  H   UNL     1      34.063  19.096  26.922  1.00  0.00     0.293 HD
ENDBRANCH   9  24
TORSDOF 5
ENDMDL
MODEL 5
REMARK VINA RESULT:    -6.108     16.093     18.270
REMARK INTER + INTRA:          -6.873
REMARK INTER:                  -6.613
REMARK INTRA:                  -0.260
REMARK UNBOUND:                 0.306
REMARK SMILES O=c1c(O)c(-c2ccc(O)c(O)c2)oc2cc(O)ccc12
REMARK SMILES IDX 5 1 3 2 2 3 1 4 21 5 15 6 14 7 16 8 17 9 19 10 20 11 6 12
REMARK SMILES IDX 7 13 8 14 9 15 13 16 11 17 10 18 12 20 4 22 18 24
REMARK H PARENT 10 19 12 21 4 23 18 25
REMARK Flexibility Score: inf
ROOT
ATOM      1  C   UNL     1      41.648  14.512  24.445  1.00  0.00     0.180 A 
ATOM      2  C   UNL     1      41.170  15.379  25.450  1.00  0.00     0.208 A 
ATOM      3  C   UNL     1      40.443  14.836  26.522  1.00  0.00     0.235 A 
ATOM      4  O   UNL     1      40.013  15.589  27.437  1.00  0.00    -0.285 OA
ATOM      5  C   UNL     1      40.194  13.456  26.558  1.00  0.00     0.069 A 
ATOM      6  C   UNL     1      40.689  12.658  25.502  1.00  0.00     0.142 A 
ATOM      7  O   UNL     1      41.379  13.210  24.511  1.00  0.00    -0.452 OA
ATOM      8  C   UNL     1      40.453  11.279  25.497  1.00  0.00     0.094 A 
ATOM      9  C   UNL     1      39.732  10.683  26.537  1.00  0.00     0.119 A 
ATOM     10  C   UNL     1      39.242  11.470  27.588  1.00  0.00     0.047 A 
ATOM     11  C   UNL     1      39.470  12.849  27.601  1.00  0.00     0.020 A 
ENDROOT
BRANCH   1  12
ATOM     12  C   UNL     1      42.438  15.005  23.294  1.00  0.00     0.025 A 
ATOM     13  C   UNL     1      41.829  15.689  22.227  1.00  0.00     0.016 A 
ATOM     14  C   UNL     1      42.598  16.166  21.163  1.00  0.00     0.051 A 
ATOM     15  C   UNL     1      43.984  15.979  21.152  1.00  0.00     0.157 A 
ATOM     16  C   UNL     1      43.832  14.838  23.290  1.00  0.00     0.062 A 
ATOM     17  C   UNL     1      44.606  15.315  22.222  1.00  0.00     0.158 A 
BRANCH  15  18
ATOM     18  O   UNL     1      44.725  16.465  20.075  1.00  0.00    -0.504 OA
ATOM     19  H   UNL     1      45.685  16.184  19.912  1.00  0.00     0.293 HD
ENDBRANCH  15  18
BRANCH  17  20
ATOM     20  O   UNL     1      45.987  15.132  22.222  1.00  0.00    -0.504 OA
ATOM     21  H   UNL     1      46.418  14.332  22.672  1.00  0.00     0.293 HD
ENDBRANCH  17  20
ENDBRANCH   1  12
BRANCH   2  22
ATOM     22  O   UNL     1      41.389  16.756  25.361  1.00  0.00    -0.502 OA
ATOM     23  H   UNL     1      41.577  17.328  26.176  1.00  0.00     0.293 HD
ENDBRANCH   2  22
BRANCH   9  24
ATOM     24  O   UNL     1      39.507   9.308  26.517  1.00  0.00    -0.508 OA
ATOM     25  H   UNL     1      40.267   8.648  26.405  1.00  0.00     0.293 HD
ENDBRANCH   9  24
TORSDOF 5
ENDMDL
MODEL 6
REMARK VINA RESULT:    -6.060     18.530     19.299
REMARK INTER + INTRA:          -6.816
REMARK INTER:                  -6.889
REMARK INTRA:                   0.073
REMARK UNBOUND:                 0.306
REMARK SMILES O=c1c(O)c(-c2ccc(O)c(O)c2)oc2cc(O)ccc12
REMARK SMILES IDX 5 1 3 2 2 3 1 4 21 5 15 6 14 7 16 8 17 9 19 10 20 11 6 12
REMARK SMILES IDX 7 13 8 14 9 15 13 16 11 17 10 18 12 20 4 22 18 24
REMARK H PARENT 10 19 12 21 4 23 18 25
REMARK Flexibility Score: inf
ROOT
ATOM      1  C   UNL     1      37.350  12.504  28.320  1.00  0.00     0.180 A 
ATOM      2  C   UNL     1      36.276  12.547  29.234  1.00  0.00     0.208 A 
ATOM      3  C   UNL     1      35.325  11.514  29.207  1.00  0.00     0.235 A 
ATOM      4  O   UNL     1      34.361  11.524  30.021  1.00  0.00    -0.285 OA
ATOM      5  C   UNL     1      35.454  10.481  28.266  1.00  0.00     0.069 A 
ATOM      6  C   UNL     1      36.545  10.523  27.371  1.00  0.00     0.142 A 
ATOM      7  O   UNL     1      37.428  11.513  27.434  1.00  0.00    -0.452 OA
ATOM      8  C   UNL     1      36.702   9.517  26.411  1.00  0.00     0.094 A 
ATOM      9  C   UNL     1      35.784   8.464  26.336  1.00  0.00     0.119 A 
ATOM     10  C   UNL     1      34.700   8.418  27.224  1.00  0.00     0.047 A 
ATOM     11  C   UNL     1      34.533   9.420  28.185  1.00  0.00     0.020 A 
ENDROOT
BRANCH   1  12
ATOM     12  C   UNL     1      38.403  13.545  28.297  1.00  0.00     0.025 A 
ATOM     13  C   UNL     1      39.766  13.207  28.232  1.00  0.00     0.016 A 
ATOM     14  C   UNL     1      40.740  14.207  28.187  1.00  0.00     0.051 A 
ATOM     15  C   UNL     1      40.371  15.555  28.192  1.00  0.00     0.157 A 
ATOM     16  C   UNL     1      38.035  14.899  28.280  1.00  0.00     0.062 A 
ATOM     17  C   UNL     1      39.012  15.905  28.235  1.00  0.00     0.158 A 
BRANCH  15  18
ATOM     18  O   UNL     1      41.367  16.531  28.147  1.00  0.00    -0.504 OA
ATOM     19  H   UNL     1      42.347  16.296  28.043  1.00  0.00     0.293 HD
ENDBRANCH  15  18
BRANCH  17  20
ATOM     20  O   UNL     1      38.636  17.247  28.233  1.00  0.00    -0.504 OA
ATOM     21  H   UNL     1      39.199  17.958  28.685  1.00  0.00     0.293 HD
ENDBRANCH  17  20
ENDBRANCH   1  12
BRANCH   2  22
ATOM     22  O   UNL     1      36.147  13.614  30.125  1.00  0.00    -0.502 OA
ATOM     23  H   UNL     1      36.888  13.879  30.763  1.00  0.00     0.293 HD
ENDBRANCH   2  22
BRANCH   9  24
ATOM     24  O   UNL     1      35.955   7.470  25.375  1.00  0.00    -0.508 OA
ATOM     25  H   UNL     1      35.170   7.087  24.862  1.00  0.00     0.293 HD
ENDBRANCH   9  24
TORSDOF 5
ENDMDL
MODEL 7
REMARK VINA RESULT:    -6.021     17.532     20.989
REMARK INTER + INTRA:          -6.771
REMARK INTER:                  -6.736
REMARK INTRA:                  -0.035
REMARK UNBOUND:                 0.306
REMARK SMILES O=c1c(O)c(-c2ccc(O)c(O)c2)oc2cc(O)ccc12
REMARK SMILES IDX 5 1 3 2 2 3 1 4 21 5 15 6 14 7 16 8 17 9 19 10 20 11 6 12
REMARK SMILES IDX 7 13 8 14 9 15 13 16 11 17 10 18 12 20 4 22 18 24
REMARK H PARENT 10 19 12 21 4 23 18 25
REMARK Flexibility Score: inf
ROOT
ATOM      1  C   UNL     1      45.282  11.631  22.955  1.00  0.00     0.180 A 
ATOM      2  C   UNL     1      45.348  10.485  22.134  1.00  0.00     0.208 A 
ATOM      3  C   UNL     1      45.414   9.221  22.742  1.00  0.00     0.235 A 
ATOM      4  O   UNL     1      45.463   8.182  22.030  1.00  0.00    -0.285 OA
ATOM      5  C   UNL     1      45.433   9.129  24.142  1.00  0.00     0.069 A 
ATOM      6  C   UNL     1      45.387  10.324  24.893  1.00  0.00     0.142 A 
ATOM      7  O   UNL     1      45.317  11.500  24.279  1.00  0.00    -0.452 OA
ATOM      8  C   UNL     1      45.415  10.274  26.291  1.00  0.00     0.094 A 
ATOM      9  C   UNL     1      45.484   9.042  26.952  1.00  0.00     0.119 A 
ATOM     10  C   UNL     1      45.528   7.854  26.210  1.00  0.00     0.047 A 
ATOM     11  C   UNL     1      45.503   7.893  24.813  1.00  0.00     0.020 A 
ENDROOT
BRANCH   1  12
ATOM     12  C   UNL     1      45.192  12.997  22.391  1.00  0.00     0.025 A 
ATOM     13  C   UNL     1      46.125  13.465  21.450  1.00  0.00     0.016 A 
ATOM     14  C   UNL     1      46.005  14.749  20.914  1.00  0.00     0.051 A 
ATOM     15  C   UNL     1      44.948  15.579  21.297  1.00  0.00     0.157 A 
ATOM     16  C   UNL     1      44.119  13.826  22.757  1.00  0.00     0.062 A 
ATOM     17  C   UNL     1      43.997  15.116  22.220  1.00  0.00     0.158 A 
BRANCH  15  18
ATOM     18  O   UNL     1      44.855  16.857  20.745  1.00  0.00    -0.504 OA
ATOM     19  H   UNL     1      44.281  17.582  21.159  1.00  0.00     0.293 HD
ENDBRANCH  15  18
BRANCH  17  20
ATOM     20  O   UNL     1      42.936  15.935  22.601  1.00  0.00    -0.504 OA
ATOM     21  H   UNL     1      43.081  16.899  22.880  1.00  0.00     0.293 HD
ENDBRANCH  17  20
ENDBRANCH   1  12
BRANCH   2  22
ATOM     22  O   UNL     1      45.377  10.612  20.744  1.00  0.00    -0.502 OA
ATOM     23  H   UNL     1      44.665  11.119  20.231  1.00  0.00     0.293 HD
ENDBRANCH   2  22
BRANCH   9  24
ATOM     24  O   UNL     1      45.510   9.011  28.344  1.00  0.00    -0.508 OA
ATOM     25  H   UNL     1      46.379   9.083  28.859  1.00  0.00     0.293 HD
ENDBRANCH   9  24
TORSDOF 5
ENDMDL
MODEL 8
REMARK VINA RESULT:    -5.982     17.885     19.310
REMARK INTER + INTRA:          -6.725
REMARK INTER:                  -6.818
REMARK INTRA:                   0.094
REMARK UNBOUND:                 0.306
REMARK SMILES O=c1c(O)c(-c2ccc(O)c(O)c2)oc2cc(O)ccc12
REMARK SMILES IDX 5 1 3 2 2 3 1 4 21 5 15 6 14 7 16 8 17 9 19 10 20 11 6 12
REMARK SMILES IDX 7 13 8 14 9 15 13 16 11 17 10 18 12 20 4 22 18 24
REMARK H PARENT 10 19 12 21 4 23 18 25
REMARK Flexibility Score: inf
ROOT
ATOM      1  C   UNL     1      43.069  12.461  23.708  1.00  0.00     0.180 A 
ATOM      2  C   UNL     1      43.818  11.511  22.981  1.00  0.00     0.208 A 
ATOM      3  C   UNL     1      44.797  11.967  22.083  1.00  0.00     0.235 A 
ATOM      4  O   UNL     1      45.486  11.138  21.429  1.00  0.00    -0.285 OA
ATOM      5  C   UNL     1      44.992  13.346  21.916  1.00  0.00     0.069 A 
ATOM      6  C   UNL     1      44.186  14.232  22.665  1.00  0.00     0.142 A 
ATOM      7  O   UNL     1      43.276  13.760  23.510  1.00  0.00    -0.452 OA
ATOM      8  C   UNL     1      44.343  15.614  22.519  1.00  0.00     0.094 A 
ATOM      9  C   UNL     1      45.301  16.127  21.636  1.00  0.00     0.119 A 
ATOM     10  C   UNL     1      46.104  15.251  20.894  1.00  0.00     0.047 A 
ATOM     11  C   UNL     1      45.953  13.868  21.030  1.00  0.00     0.020 A 
ENDROOT
BRANCH   1  12
ATOM     12  C   UNL     1      42.032  12.060  24.686  1.00  0.00     0.025 A 
ATOM     13  C   UNL     1      40.753  12.643  24.678  1.00  0.00     0.016 A 
ATOM     14  C   UNL     1      39.784  12.232  25.596  1.00  0.00     0.051 A 
ATOM     15  C   UNL     1      40.070  11.226  26.525  1.00  0.00     0.157 A 
ATOM     16  C   UNL     1      42.309  11.036  25.606  1.00  0.00     0.062 A 
ATOM     17  C   UNL     1      41.337  10.622  26.528  1.00  0.00     0.158 A 
BRANCH  15  18
ATOM     18  O   UNL     1      39.082  10.837  27.429  1.00  0.00    -0.504 OA
ATOM     19  H   UNL     1      39.175  10.990  28.427  1.00  0.00     0.293 HD
ENDBRANCH  15  18
BRANCH  17  20
ATOM     20  O   UNL     1      41.628   9.613  27.446  1.00  0.00    -0.504 OA
ATOM     21  H   UNL     1      41.870   8.676  27.147  1.00  0.00     0.293 HD
ENDBRANCH  17  20
ENDBRANCH   1  12
BRANCH   2  22
ATOM     22  O   UNL     1      43.566  10.146  23.131  1.00  0.00    -0.502 OA
ATOM     23  H   UNL     1      42.848   9.666  22.600  1.00  0.00     0.293 HD
ENDBRANCH   2  22
BRANCH   9  24
ATOM     24  O   UNL     1      45.444  17.506  21.504  1.00  0.00    -0.508 OA
ATOM     25  H   UNL     1      46.197  18.006  21.960  1.00  0.00     0.293 HD
ENDBRANCH   9  24
TORSDOF 5
ENDMDL
MODEL 9
REMARK VINA RESULT:    -5.931     17.556     18.975
REMARK INTER + INTRA:          -6.664
REMARK INTER:                  -6.755
REMARK INTRA:                   0.090
REMARK UNBOUND:                 0.306
REMARK SMILES O=c1c(O)c(-c2ccc(O)c(O)c2)oc2cc(O)ccc12
REMARK SMILES IDX 5 1 3 2 2 3 1 4 21 5 15 6 14 7 16 8 17 9 19 10 20 11 6 12
REMARK SMILES IDX 7 13 8 14 9 15 13 16 11 17 10 18 12 20 4 22 18 24
REMARK H PARENT 10 19 12 21 4 23 18 25
REMARK Flexibility Score: inf
ROOT
ATOM      1  C   UNL     1      38.852  11.628  26.749  1.00  0.00     0.180 A 
ATOM      2  C   UNL     1      38.304  10.367  27.069  1.00  0.00     0.208 A 
ATOM      3  C   UNL     1      37.134  10.315  27.842  1.00  0.00     0.235 A 
ATOM      4  O   UNL     1      36.620   9.201  28.133  1.00  0.00    -0.285 OA
ATOM      5  C   UNL     1      36.551  11.509  28.293  1.00  0.00     0.069 A 
ATOM      6  C   UNL     1      37.173  12.730  27.949  1.00  0.00     0.142 A 
ATOM      7  O   UNL     1      38.275  12.736  27.208  1.00  0.00    -0.452 OA
ATOM      8  C   UNL     1      36.627  13.941  28.388  1.00  0.00     0.094 A 
ATOM      9  C   UNL     1      35.463  13.951  29.165  1.00  0.00     0.119 A 
ATOM     10  C   UNL     1      34.842  12.742  29.506  1.00  0.00     0.047 A 
ATOM     11  C   UNL     1      35.381  11.526  29.075  1.00  0.00     0.020 A 
ENDROOT
BRANCH   1  12
ATOM     12  C   UNL     1      40.073  11.767  25.923  1.00  0.00     0.025 A 
ATOM     13  C   UNL     1      41.199  10.954  26.137  1.00  0.00     0.016 A 
ATOM     14  C   UNL     1      42.331  11.087  25.329  1.00  0.00     0.051 A 
ATOM     15  C   UNL     1      42.352  12.022  24.290  1.00  0.00     0.157 A 
ATOM     16  C   UNL     1      40.089  12.690  24.865  1.00  0.00     0.062 A 
ATOM     17  C   UNL     1      41.225  12.826  24.053  1.00  0.00     0.158 A 
BRANCH  15  18
ATOM     18  O   UNL     1      43.496  12.133  23.501  1.00  0.00    -0.504 OA
ATOM     19  H   UNL     1      44.029  12.993  23.444  1.00  0.00     0.293 HD
ENDBRANCH  15  18
BRANCH  17  20
ATOM     20  O   UNL     1      41.235  13.755  23.014  1.00  0.00    -0.504 OA
ATOM     21  H   UNL     1      40.880  13.527  22.093  1.00  0.00     0.293 HD
ENDBRANCH  17  20
ENDBRANCH   1  12
BRANCH   2  22
ATOM     22  O   UNL     1      38.935   9.194  26.648  1.00  0.00    -0.502 OA
ATOM     23  H   UNL     1      38.764   8.299  27.091  1.00  0.00     0.293 HD
ENDBRANCH   2  22
BRANCH   9  24
ATOM     24  O   UNL     1      34.934  15.166  29.593  1.00  0.00    -0.508 OA
ATOM     25  H   UNL     1      35.425  15.754  30.255  1.00  0.00     0.293 HD
ENDBRANCH   9  24
TORSDOF 5
ENDMDL
