MODEL 1
REMARK VINA RESULT:    -2.141      0.000      0.000
REMARK INTER + INTRA:          -4.559
REMARK INTER:                  -3.267
REMARK INTRA:                  -1.292
REMARK UNBOUND:                -1.292
REMARK SMILES CCCCCCCCCCC(=O)[O-]
REMARK SMILES IDX 7 1 8 2 9 3 10 4 11 5 12 6 13 7 6 8 5 9 4 10 3 11 2 12 1 13
REMARK H PARENT
REMARK Flexibility Score: inf
ROOT
ATOM      1  C   UNL     1     176.686 206.240 198.427  1.00  0.00     0.000 C 
ENDROOT
BRANCH   1   2
ATOM      2  C   UNL     1     177.600 207.381 197.951  1.00  0.00     0.000 C 
BRANCH   2   3
ATOM      3  C   UNL     1     179.088 207.095 198.219  1.00  0.00     0.006 C 
BRANCH   3   4
ATOM      4  C   UNL     1     179.462 207.314 199.691  1.00  0.00     0.053 C 
BRANCH   4   5
ATOM      5  C   UNL     1     180.445 206.291 200.172  1.00  0.00     0.041 C 
ATOM      6  O   UNL     1     181.036 205.543 199.351  1.00  0.00    -0.550 OA
ATOM      7  O   UNL     1     180.686 206.144 201.533  1.00  0.00    -0.550 OA
ENDBRANCH   4   5
ENDBRANCH   3   4
ENDBRANCH   2   3
ENDBRANCH   1   2
BRANCH   1   8
ATOM      8  C   UNL     1     175.486 206.746 199.247  1.00  0.00     0.000 C 
BRANCH   8   9
ATOM      9  C   UNL     1     175.756 208.104 199.913  1.00  0.00    -0.000 C 
BRANCH   9  10
ATOM     10  C   UNL     1     176.261 207.965 201.357  1.00  0.00    -0.000 C 
BRANCH  10  11
ATOM     11  C   UNL     1     175.909 206.588 201.931  1.00  0.00    -0.000 C 
BRANCH  11  12
ATOM     12  C   UNL     1     177.156 205.884 202.480  1.00  0.00    -0.003 C 
ATOM     13  C   UNL     1     177.468 204.618 201.687  1.00  0.00     0.004 C 
ENDBRANCH  11  12
ENDBRANCH  10  11
ENDBRANCH   9  10
ENDBRANCH   8   9
ENDBRANCH   1   8
TORSDOF 9
ENDMDL
MODEL 2
REMARK VINA RESULT:    -2.099      3.263      5.209
REMARK INTER + INTRA:          -4.494
REMARK INTER:                  -3.164
REMARK INTRA:                  -1.331
REMARK UNBOUND:                -1.292
REMARK SMILES CCCCCCCCCCC(=O)[O-]
REMARK SMILES IDX 7 1 8 2 9 3 10 4 11 5 12 6 13 7 6 8 5 9 4 10 3 11 2 12 1 13
REMARK H PARENT
REMARK Flexibility Score: inf
ROOT
ATOM      1  C   UNL     1     176.548 205.376 201.717  1.00  0.00     0.000 C 
ENDROOT
BRANCH   1   2
ATOM      2  C   UNL     1     176.577 206.760 202.384  1.00  0.00     0.000 C 
BRANCH   2   3
ATOM      3  C   UNL     1     176.093 207.879 201.444  1.00  0.00     0.006 C 
BRANCH   3   4
ATOM      4  C   UNL     1     175.235 207.337 200.294  1.00  0.00     0.053 C 
BRANCH   4   5
ATOM      5  C   UNL     1     173.827 207.845 200.363  1.00  0.00     0.041 C 
ATOM      6  O   UNL     1     173.172 208.047 199.308  1.00  0.00    -0.550 OA
ATOM      7  O   UNL     1     173.249 208.125 201.595  1.00  0.00    -0.550 OA
ENDBRANCH   4   5
ENDBRANCH   3   4
ENDBRANCH   2   3
ENDBRANCH   1   2
BRANCH   1   8
ATOM      8  C   UNL     1     177.808 204.546 202.018  1.00  0.00     0.000 C 
BRANCH   8   9
ATOM      9  C   UNL     1     179.104 205.352 201.834  1.00  0.00    -0.000 C 
BRANCH   9  10
ATOM     10  C   UNL     1     179.445 205.593 200.356  1.00  0.00    -0.000 C 
BRANCH  10  11
ATOM     11  C   UNL     1     179.472 207.092 200.036  1.00  0.00    -0.000 C 
BRANCH  11  12
ATOM     12  C   UNL     1     178.828 207.377 198.674  1.00  0.00    -0.003 C 
ATOM     13  C   UNL     1     178.020 206.178 198.185  1.00  0.00     0.004 C 
ENDBRANCH  11  12
ENDBRANCH  10  11
ENDBRANCH   9  10
ENDBRANCH   8   9
ENDBRANCH   1   8
TORSDOF 9
ENDMDL
MODEL 3
REMARK VINA RESULT:    -2.062      3.624      5.497
REMARK INTER + INTRA:          -4.439
REMARK INTER:                  -3.209
REMARK INTRA:                  -1.230
REMARK UNBOUND:                -1.292
REMARK SMILES CCCCCCCCCCC(=O)[O-]
REMARK SMILES IDX 7 1 8 2 9 3 10 4 11 5 12 6 13 7 6 8 5 9 4 10 3 11 2 12 1 13
REMARK H PARENT
REMARK Flexibility Score: inf
ROOT
ATOM      1  C   UNL     1     176.995 206.471 201.541  1.00  0.00     0.000 C 
ENDROOT
BRANCH   1   2
ATOM      2  C   UNL     1     176.559 207.944 201.492  1.00  0.00     0.000 C 
BRANCH   2   3
ATOM      3  C   UNL     1     175.157 208.125 200.883  1.00  0.00     0.006 C 
BRANCH   3   4
ATOM      4  C   UNL     1     174.418 206.789 200.726  1.00  0.00     0.053 C 
BRANCH   4   5
ATOM      5  C   UNL     1     172.934 206.958 200.841  1.00  0.00     0.041 C 
ATOM      6  O   UNL     1     172.255 207.298 199.837  1.00  0.00    -0.550 OA
ATOM      7  O   UNL     1     172.305 206.767 202.064  1.00  0.00    -0.550 OA
ENDBRANCH   4   5
ENDBRANCH   3   4
ENDBRANCH   2   3
ENDBRANCH   1   2
BRANCH   1   8
ATOM      8  C   UNL     1     178.257 206.199 200.703  1.00  0.00     0.000 C 
BRANCH   8   9
ATOM      9  C   UNL     1     178.749 207.447 199.953  1.00  0.00    -0.000 C 
BRANCH   9  10
ATOM     10  C   UNL     1     178.571 207.331 198.432  1.00  0.00    -0.000 C 
BRANCH  10  11
ATOM     11  C   UNL     1     177.735 206.097 198.070  1.00  0.00    -0.000 C 
BRANCH  11  12
ATOM     12  C   UNL     1     176.347 206.502 197.560  1.00  0.00    -0.003 C 
ATOM     13  C   UNL     1     176.288 207.995 197.248  1.00  0.00     0.004 C 
ENDBRANCH  11  12
ENDBRANCH  10  11
ENDBRANCH   9  10
ENDBRANCH   8   9
ENDBRANCH   1   8
TORSDOF 9
ENDMDL
MODEL 4
REMARK VINA RESULT:    -2.054      1.879      3.364
REMARK INTER + INTRA:          -4.426
REMARK INTER:                  -3.287
REMARK INTRA:                  -1.138
REMARK UNBOUND:                -1.292
REMARK SMILES CCCCCCCCCCC(=O)[O-]
REMARK SMILES IDX 7 1 8 2 9 3 10 4 11 5 12 6 13 7 6 8 5 9 4 10 3 11 2 12 1 13
REMARK H PARENT
REMARK Flexibility Score: inf
ROOT
ATOM      1  C   UNL     1     178.048 205.615 200.658  1.00  0.00     0.000 C 
ENDROOT
BRANCH   1   2
ATOM      2  C   UNL     1     179.405 206.327 200.543  1.00  0.00     0.000 C 
BRANCH   2   3
ATOM      3  C   UNL     1     179.441 207.346 199.391  1.00  0.00     0.006 C 
BRANCH   3   4
ATOM      4  C   UNL     1     178.250 207.184 198.438  1.00  0.00     0.053 C 
BRANCH   4   5
ATOM      5  C   UNL     1     178.671 207.263 197.003  1.00  0.00     0.041 C 
ATOM      6  O   UNL     1     177.821 207.487 196.102  1.00  0.00    -0.550 OA
ATOM      7  O   UNL     1     180.002 207.061 196.656  1.00  0.00    -0.550 OA
ENDBRANCH   4   5
ENDBRANCH   3   4
ENDBRANCH   2   3
ENDBRANCH   1   2
BRANCH   1   8
ATOM      8  C   UNL     1     177.481 205.647 202.089  1.00  0.00     0.000 C 
BRANCH   8   9
ATOM      9  C   UNL     1     176.156 206.420 202.182  1.00  0.00    -0.000 C 
BRANCH   9  10
ATOM     10  C   UNL     1     176.259 207.840 201.607  1.00  0.00    -0.000 C 
BRANCH  10  11
ATOM     11  C   UNL     1     175.105 208.125 200.638  1.00  0.00    -0.000 C 
BRANCH  11  12
ATOM     12  C   UNL     1     174.429 206.824 200.189  1.00  0.00    -0.003 C 
ATOM     13  C   UNL     1     174.665 206.563 198.705  1.00  0.00     0.004 C 
ENDBRANCH  11  12
ENDBRANCH  10  11
ENDBRANCH   9  10
ENDBRANCH   8   9
ENDBRANCH   1   8
TORSDOF 9
ENDMDL
MODEL 5
REMARK VINA RESULT:    -2.051      2.825      4.487
REMARK INTER + INTRA:          -4.422
REMARK INTER:                  -3.438
REMARK INTRA:                  -0.984
REMARK UNBOUND:                -1.292
REMARK SMILES CCCCCCCCCCC(=O)[O-]
REMARK SMILES IDX 7 1 8 2 9 3 10 4 11 5 12 6 13 7 6 8 5 9 4 10 3 11 2 12 1 13
REMARK H PARENT
REMARK Flexibility Score: inf
ROOT
ATOM      1  C   UNL     1     178.557 207.333 198.758  1.00  0.00     0.000 C 
ENDROOT
BRANCH   1   2
ATOM      2  C   UNL     1     177.947 207.917 200.043  1.00  0.00     0.000 C 
BRANCH   2   3
ATOM      3  C   UNL     1     176.426 208.125 199.933  1.00  0.00     0.006 C 
BRANCH   3   4
ATOM      4  C   UNL     1     175.704 207.809 201.249  1.00  0.00     0.053 C 
BRANCH   4   5
ATOM      5  C   UNL     1     174.765 206.649 201.103  1.00  0.00     0.041 C 
ATOM      6  O   UNL     1     175.005 205.740 200.266  1.00  0.00    -0.550 OA
ATOM      7  O   UNL     1     173.609 206.589 201.871  1.00  0.00    -0.550 OA
ENDBRANCH   4   5
ENDBRANCH   3   4
ENDBRANCH   2   3
ENDBRANCH   1   2
BRANCH   1   8
ATOM      8  C   UNL     1     180.052 207.003 198.909  1.00  0.00     0.000 C 
BRANCH   8   9
ATOM      9  C   UNL     1     180.499 206.944 200.378  1.00  0.00    -0.000 C 
BRANCH   9  10
ATOM     10  C   UNL     1     181.125 205.592 200.751  1.00  0.00    -0.000 C 
BRANCH  10  11
ATOM     11  C   UNL     1     180.062 204.623 201.283  1.00  0.00    -0.000 C 
BRANCH  11  12
ATOM     12  C   UNL     1     179.455 205.137 202.594  1.00  0.00    -0.003 C 
ATOM     13  C   UNL     1     177.931 205.158 202.524  1.00  0.00     0.004 C 
ENDBRANCH  11  12
ENDBRANCH  10  11
ENDBRANCH   9  10
ENDBRANCH   8   9
ENDBRANCH   1   8
TORSDOF 9
ENDMDL
MODEL 6
REMARK VINA RESULT:    -2.041      1.601      2.624
REMARK INTER + INTRA:          -4.407
REMARK INTER:                  -3.415
REMARK INTRA:                  -0.992
REMARK UNBOUND:                -1.292
REMARK SMILES CCCCCCCCCCC(=O)[O-]
REMARK SMILES IDX 7 1 8 2 9 3 10 4 11 5 12 6 13 7 6 8 5 9 4 10 3 11 2 12 1 13
REMARK H PARENT
REMARK Flexibility Score: inf
ROOT
ATOM      1  C   UNL     1     176.625 208.067 199.854  1.00  0.00     0.000 C 
ENDROOT
BRANCH   1   2
ATOM      2  C   UNL     1     178.077 207.769 199.449  1.00  0.00     0.000 C 
BRANCH   2   3
ATOM      3  C   UNL     1     178.189 206.560 198.503  1.00  0.00     0.006 C 
BRANCH   3   4
ATOM      4  C   UNL     1     178.691 206.961 197.110  1.00  0.00     0.053 C 
BRANCH   4   5
ATOM      5  C   UNL     1     180.187 207.006 197.049  1.00  0.00     0.041 C 
ATOM      6  O   UNL     1     180.767 207.596 196.101  1.00  0.00    -0.550 OA
ATOM      7  O   UNL     1     180.942 206.369 198.026  1.00  0.00    -0.550 OA
ENDBRANCH   4   5
ENDBRANCH   3   4
ENDBRANCH   2   3
ENDBRANCH   1   2
BRANCH   1   8
ATOM      8  C   UNL     1     176.422 208.060 201.379  1.00  0.00     0.000 C 
BRANCH   8   9
ATOM      9  C   UNL     1     175.787 206.754 201.884  1.00  0.00    -0.000 C 
BRANCH   9  10
ATOM     10  C   UNL     1     176.713 205.973 202.828  1.00  0.00    -0.000 C 
BRANCH  10  11
ATOM     11  C   UNL     1     177.633 205.033 202.039  1.00  0.00    -0.000 C 
BRANCH  11  12
ATOM     12  C   UNL     1     179.107 205.398 202.252  1.00  0.00    -0.003 C 
ATOM     13  C   UNL     1     179.993 204.759 201.187  1.00  0.00     0.004 C 
ENDBRANCH  11  12
ENDBRANCH  10  11
ENDBRANCH   9  10
ENDBRANCH   8   9
ENDBRANCH   1   8
TORSDOF 9
ENDMDL
MODEL 7
REMARK VINA RESULT:    -2.038      2.982      5.286
REMARK INTER + INTRA:          -4.402
REMARK INTER:                  -3.606
REMARK INTRA:                  -0.796
REMARK UNBOUND:                -1.292
REMARK SMILES CCCCCCCCCCC(=O)[O-]
REMARK SMILES IDX 7 1 8 2 9 3 10 4 11 5 12 6 13 7 6 8 5 9 4 10 3 11 2 12 1 13
REMARK H PARENT
REMARK Flexibility Score: inf
ROOT
ATOM      1  C   UNL     1     177.028 206.454 201.676  1.00  0.00     0.000 C 
ENDROOT
BRANCH   1   2
ATOM      2  C   UNL     1     176.336 207.826 201.633  1.00  0.00     0.000 C 
BRANCH   2   3
ATOM      3  C   UNL     1     174.875 207.736 201.159  1.00  0.00     0.006 C 
BRANCH   3   4
ATOM      4  C   UNL     1     174.721 208.124 199.683  1.00  0.00     0.053 C 
BRANCH   4   5
ATOM      5  C   UNL     1     174.566 206.920 198.805  1.00  0.00     0.041 C 
ATOM      6  O   UNL     1     175.581 206.337 198.343  1.00  0.00    -0.550 OA
ATOM      7  O   UNL     1     173.298 206.459 198.474  1.00  0.00    -0.550 OA
ENDBRANCH   4   5
ENDBRANCH   3   4
ENDBRANCH   2   3
ENDBRANCH   1   2
BRANCH   1   8
ATOM      8  C   UNL     1     178.303 206.407 200.815  1.00  0.00     0.000 C 
BRANCH   8   9
ATOM      9  C   UNL     1     178.454 207.644 199.915  1.00  0.00    -0.000 C 
BRANCH   9  10
ATOM     10  C   UNL     1     179.000 207.299 198.522  1.00  0.00    -0.000 C 
BRANCH  10  11
ATOM     11  C   UNL     1     180.481 206.907 198.594  1.00  0.00    -0.000 C 
BRANCH  11  12
ATOM     12  C   UNL     1     181.094 206.807 197.192  1.00  0.00    -0.003 C 
ATOM     13  C   UNL     1     180.081 207.196 196.119  1.00  0.00     0.004 C 
ENDBRANCH  11  12
ENDBRANCH  10  11
ENDBRANCH   9  10
ENDBRANCH   8   9
ENDBRANCH   1   8
TORSDOF 9
ENDMDL
MODEL 8
REMARK VINA RESULT:    -1.967      1.442      3.599
REMARK INTER + INTRA:          -4.294
REMARK INTER:                  -3.156
REMARK INTRA:                  -1.138
REMARK UNBOUND:                -1.292
REMARK SMILES CCCCCCCCCCC(=O)[O-]
REMARK SMILES IDX 7 1 8 2 9 3 10 4 11 5 12 6 13 7 6 8 5 9 4 10 3 11 2 12 1 13
REMARK H PARENT
REMARK Flexibility Score: inf
ROOT
ATOM      1  C   UNL     1     175.462 207.454 200.198  1.00  0.00     0.000 C 
ENDROOT
BRANCH   1   2
ATOM      2  C   UNL     1     176.031 207.930 201.544  1.00  0.00     0.000 C 
BRANCH   2   3
ATOM      3  C   UNL     1     176.606 206.776 202.383  1.00  0.00     0.006 C 
BRANCH   3   4
ATOM      4  C   UNL     1     176.581 205.442 201.625  1.00  0.00     0.053 C 
BRANCH   4   5
ATOM      5  C   UNL     1     177.867 204.690 201.781  1.00  0.00     0.041 C 
ATOM      6  O   UNL     1     178.036 203.591 201.191  1.00  0.00    -0.550 OA
ATOM      7  O   UNL     1     178.870 205.189 202.604  1.00  0.00    -0.550 OA
ENDBRANCH   4   5
ENDBRANCH   3   4
ENDBRANCH   2   3
ENDBRANCH   1   2
BRANCH   1   8
ATOM      8  C   UNL     1     176.251 207.999 198.994  1.00  0.00     0.000 C 
BRANCH   8   9
ATOM      9  C   UNL     1     177.135 206.928 198.335  1.00  0.00    -0.000 C 
BRANCH   9  10
ATOM     10  C   UNL     1     178.623 207.312 198.328  1.00  0.00    -0.000 C 
BRANCH  10  11
ATOM     11  C   UNL     1     179.132 207.560 199.753  1.00  0.00    -0.000 C 
BRANCH  11  12
ATOM     12  C   UNL     1     180.524 206.948 199.954  1.00  0.00    -0.003 C 
ATOM     13  C   UNL     1     180.597 205.540 199.369  1.00  0.00     0.004 C 
ENDBRANCH  11  12
ENDBRANCH  10  11
ENDBRANCH   9  10
ENDBRANCH   8   9
ENDBRANCH   1   8
TORSDOF 9
ENDMDL
MODEL 9
REMARK VINA RESULT:    -1.960      1.535      3.595
REMARK INTER + INTRA:          -4.283
REMARK INTER:                  -3.014
REMARK INTRA:                  -1.269
REMARK UNBOUND:                -1.292
REMARK SMILES CCCCCCCCCCC(=O)[O-]
REMARK SMILES IDX 7 1 8 2 9 3 10 4 11 5 12 6 13 7 6 8 5 9 4 10 3 11 2 12 1 13
REMARK H PARENT
REMARK Flexibility Score: inf
ROOT
ATOM      1  C   UNL     1     175.671 205.620 202.215  1.00  0.00     0.000 C 
ENDROOT
BRANCH   1   2
ATOM      2  C   UNL     1     176.989 205.871 202.964  1.00  0.00     0.000 C 
BRANCH   2   3
ATOM      3  C   UNL     1     178.116 204.926 202.510  1.00  0.00     0.006 C 
BRANCH   3   4
ATOM      4  C   UNL     1     177.637 203.923 201.452  1.00  0.00     0.053 C 
BRANCH   4   5
ATOM      5  C   UNL     1     178.733 203.557 200.498  1.00  0.00     0.041 C 
ATOM      6  O   UNL     1     178.493 203.449 199.267  1.00  0.00    -0.550 OA
ATOM      7  O   UNL     1     180.014 203.305 200.973  1.00  0.00    -0.550 OA
ENDBRANCH   4   5
ENDBRANCH   3   4
ENDBRANCH   2   3
ENDBRANCH   1   2
BRANCH   1   8
ATOM      8  C   UNL     1     175.127 206.886 201.531  1.00  0.00     0.000 C 
BRANCH   8   9
ATOM      9  C   UNL     1     176.219 207.941 201.288  1.00  0.00    -0.000 C 
BRANCH   9  10
ATOM     10  C   UNL     1     176.541 208.124 199.797  1.00  0.00    -0.000 C 
BRANCH  10  11
ATOM     11  C   UNL     1     177.347 206.936 199.259  1.00  0.00    -0.000 C 
BRANCH  11  12
ATOM     12  C   UNL     1     178.751 207.374 198.826  1.00  0.00    -0.003 C 
ATOM     13  C   UNL     1     179.765 207.160 199.946  1.00  0.00     0.004 C 
ENDBRANCH  11  12
ENDBRANCH  10  11
ENDBRANCH   9  10
ENDBRANCH   8   9
ENDBRANCH   1   8
TORSDOF 9
ENDMDL
