MODEL 1
REMARK VINA RESULT:    -4.018      0.000      0.000
REMARK INTER + INTRA:          -4.097
REMARK INTER:                  -4.958
REMARK INTRA:                   0.862
REMARK UNBOUND:                 0.862
REMARK SMILES CC1=CC=CC(C)(C)CC1=O
REMARK SMILES IDX 1 1 2 2 3 3 10 4 11 5 9 6 4 8 5 9 6 10 7 11 8 12
REMARK H PARENT
REMARK Flexibility Score: 80.00
ROOT
ATOM      1  C   UNL     1      -6.905  18.990  68.226  1.00  0.00     0.048 C 
ATOM      2  C   UNL     1      -7.625  20.215  68.739  1.00  0.00    -0.008 C 
ATOM      3  C   UNL     1      -7.817  20.323  70.071  1.00  0.00     0.007 C 
ENDROOT
BRANCH   2   4
ATOM      4  C   UNL     1      -8.114  21.181  67.718  1.00  0.00     0.159 C 
ATOM      5  O   UNL     1      -7.831  20.971  66.506  1.00  0.00    -0.295 OA
BRANCH   4   6
ATOM      6  C   UNL     1      -8.961  22.378  68.030  1.00  0.00     0.091 CG0
ATOM      7  G   UNL     1      -8.387  23.279  69.146  1.00  0.00     0.000 G0
ENDBRANCH   4   6
ENDBRANCH   2   4
BRANCH   3   8
ATOM      8  C   UNL     1      -8.470  21.399  70.851  1.00  0.00    -0.003 C 
ATOM      9  C   UNL     1      -8.696  22.668  70.493  1.00  0.00    -0.020 C 
BRANCH   9  10
ATOM     10  C   UNL     1      -8.389  23.283  69.148  1.00  0.00    -0.010 CG0
ATOM     11  C   UNL     1      -9.095  24.656  69.072  1.00  0.00     0.016 C 
ATOM     12  C   UNL     1      -6.868  23.522  69.003  1.00  0.00     0.016 C 
ATOM     13  G   UNL     1      -8.962  22.385  68.029  1.00  0.00     0.000 G0
ENDBRANCH   9  10
ENDBRANCH   3   8
TORSDOF 0
ENDMDL
MODEL 2
REMARK VINA RESULT:    -4.000      1.458      2.272
REMARK INTER + INTRA:          -4.073
REMARK INTER:                  -4.916
REMARK INTRA:                   0.843
REMARK UNBOUND:                 0.862
REMARK SMILES CC1=CC=CC(C)(C)CC1=O
REMARK SMILES IDX 1 1 2 2 3 3 10 4 11 5 9 6 4 8 5 9 6 10 7 11 8 12
REMARK H PARENT
REMARK Flexibility Score: 80.00
ROOT
ATOM      1  C   UNL     1      -6.661  19.848  65.144  1.00  0.00     0.048 C 
ATOM      2  C   UNL     1      -7.258  19.999  66.525  1.00  0.00    -0.008 C 
ATOM      3  C   UNL     1      -6.887  19.112  67.473  1.00  0.00     0.007 C 
ENDROOT
BRANCH   2   4
ATOM      4  C   UNL     1      -8.253  21.090  66.707  1.00  0.00     0.159 C 
ATOM      5  O   UNL     1      -8.473  21.873  65.742  1.00  0.00    -0.295 OA
BRANCH   4   6
ATOM      6  C   UNL     1      -9.048  21.301  67.961  1.00  0.00     0.091 CG0
ATOM      7  G   UNL     1      -8.192  21.362  69.245  1.00  0.00     0.000 G0
ENDBRANCH   4   6
ENDBRANCH   2   4
BRANCH   3   8
ATOM      8  C   UNL     1      -7.291  19.020  68.894  1.00  0.00    -0.003 C 
ATOM      9  C   UNL     1      -7.822  19.969  69.673  1.00  0.00    -0.020 C 
BRANCH   9  10
ATOM     10  C   UNL     1      -8.202  21.366  69.243  1.00  0.00    -0.010 CG0
ATOM     11  C   UNL     1      -9.082  21.991  70.349  1.00  0.00     0.016 C 
ATOM     12  C   UNL     1      -6.938  22.243  69.089  1.00  0.00     0.016 C 
ATOM     13  G   UNL     1      -9.040  21.295  67.946  1.00  0.00     0.000 G0
ENDBRANCH   9  10
ENDBRANCH   3   8
TORSDOF 0
ENDMDL
MODEL 3
REMARK VINA RESULT:    -3.862      2.502      4.067
REMARK INTER + INTRA:          -3.904
REMARK INTER:                  -4.742
REMARK INTRA:                   0.838
REMARK UNBOUND:                 0.862
REMARK SMILES CC1=CC=CC(C)(C)CC1=O
REMARK SMILES IDX 1 1 2 2 3 3 10 4 11 5 9 6 4 8 5 9 6 10 7 11 8 12
REMARK H PARENT
REMARK Flexibility Score: 80.00
ROOT
ATOM      1  C   UNL     1      -6.808  20.966  69.667  1.00  0.00     0.048 C 
ATOM      2  C   UNL     1      -7.491  21.048  68.321  1.00  0.00    -0.008 C 
ATOM      3  C   UNL     1      -7.643  22.268  67.764  1.00  0.00     0.007 C 
ENDROOT
BRANCH   2   4
ATOM      4  C   UNL     1      -7.991  19.770  67.746  1.00  0.00     0.159 C 
ATOM      5  O   UNL     1      -7.761  18.697  68.371  1.00  0.00    -0.295 OA
BRANCH   4   6
ATOM      6  C   UNL     1      -8.791  19.673  66.482  1.00  0.00     0.091 CG0
ATOM      7  G   UNL     1      -8.162  20.417  65.283  1.00  0.00     0.000 G0
ENDBRANCH   4   6
ENDBRANCH   2   4
BRANCH   3   8
ATOM      8  C   UNL     1      -8.254  22.650  66.470  1.00  0.00    -0.003 C 
ATOM      9  C   UNL     1      -8.467  21.887  65.392  1.00  0.00    -0.020 C 
BRANCH   9  10
ATOM     10  C   UNL     1      -8.186  20.408  65.277  1.00  0.00    -0.010 CG0
ATOM     11  C   UNL     1      -8.894  19.878  64.008  1.00  0.00     0.016 C 
ATOM     12  C   UNL     1      -6.669  20.161  65.112  1.00  0.00     0.016 C 
ATOM     13  G   UNL     1      -8.781  19.675  66.500  1.00  0.00     0.000 G0
ENDBRANCH   9  10
ENDBRANCH   3   8
TORSDOF 0
ENDMDL
MODEL 4
REMARK VINA RESULT:    -3.110      9.827     11.260
REMARK INTER + INTRA:          -2.976
REMARK INTER:                  -3.833
REMARK INTRA:                   0.858
REMARK UNBOUND:                 0.862
REMARK SMILES CC1=CC=CC(C)(C)CC1=O
REMARK SMILES IDX 1 1 2 2 3 3 10 4 11 5 9 6 4 8 5 9 6 10 7 11 8 12
REMARK H PARENT
REMARK Flexibility Score: 80.00
ROOT
ATOM      1  C   UNL     1      -0.417  25.352  68.586  1.00  0.00     0.048 C 
ATOM      2  C   UNL     1       0.023  26.683  69.152  1.00  0.00    -0.008 C 
ATOM      3  C   UNL     1      -0.584  27.122  70.275  1.00  0.00     0.007 C 
ENDROOT
BRANCH   2   4
ATOM      4  C   UNL     1       1.059  27.426  68.385  1.00  0.00     0.159 C 
ATOM      5  O   UNL     1       1.593  26.862  67.390  1.00  0.00    -0.295 OA
BRANCH   4   6
ATOM      6  C   UNL     1       1.488  28.830  68.694  1.00  0.00     0.091 CG0
ATOM      7  G   UNL     1       1.935  29.042  70.157  1.00  0.00     0.000 G0
ENDBRANCH   4   6
ENDBRANCH   2   4
BRANCH   3   8
ATOM      8  C   UNL     1      -0.357  28.362  71.052  1.00  0.00    -0.003 C 
ATOM      9  C   UNL     1       0.711  29.167  71.044  1.00  0.00    -0.020 C 
BRANCH   9  10
ATOM     10  C   UNL     1       1.931  29.021  70.165  1.00  0.00    -0.010 CG0
ATOM     11  C   UNL     1       2.745  30.333  70.246  1.00  0.00     0.016 C 
ATOM     12  C   UNL     1       2.828  27.873  70.679  1.00  0.00     0.016 C 
ATOM     13  G   UNL     1       1.487  28.821  68.699  1.00  0.00     0.000 G0
ENDBRANCH   9  10
ENDBRANCH   3   8
TORSDOF 0
ENDMDL
MODEL 5
REMARK VINA RESULT:    -3.106      8.807     10.420
REMARK INTER + INTRA:          -2.971
REMARK INTER:                  -3.810
REMARK INTRA:                   0.840
REMARK UNBOUND:                 0.862
REMARK SMILES CC1=CC=CC(C)(C)CC1=O
REMARK SMILES IDX 1 1 2 2 3 3 10 4 11 5 9 6 4 8 5 9 6 10 7 11 8 12
REMARK H PARENT
REMARK Flexibility Score: 80.00
ROOT
ATOM      1  C   UNL     1      -7.182  29.559  69.604  1.00  0.00     0.048 C 
ATOM      2  C   UNL     1      -7.072  30.294  70.920  1.00  0.00    -0.008 C 
ATOM      3  C   UNL     1      -6.947  29.557  72.045  1.00  0.00     0.007 C 
ENDROOT
BRANCH   2   4
ATOM      4  C   UNL     1      -7.167  31.778  70.868  1.00  0.00     0.159 C 
ATOM      5  O   UNL     1      -7.233  32.338  69.739  1.00  0.00    -0.295 OA
BRANCH   4   6
ATOM      6  C   UNL     1      -7.229  32.660  72.079  1.00  0.00     0.091 CG0
ATOM      7  G   UNL     1      -6.088  32.416  73.092  1.00  0.00     0.000 G0
ENDBRANCH   4   6
ENDBRANCH   2   4
BRANCH   3   8
ATOM      8  C   UNL     1      -6.811  29.994  73.453  1.00  0.00    -0.003 C 
ATOM      9  C   UNL     1      -6.421  31.185  73.923  1.00  0.00    -0.020 C 
BRANCH   9  10
ATOM     10  C   UNL     1      -6.092  32.405  73.096  1.00  0.00    -0.010 CG0
ATOM     11  C   UNL     1      -6.036  33.629  74.039  1.00  0.00     0.016 C 
ATOM     12  C   UNL     1      -4.701  32.248  72.439  1.00  0.00     0.016 C 
ATOM     13  G   UNL     1      -7.216  32.646  72.063  1.00  0.00     0.000 G0
ENDBRANCH   9  10
ENDBRANCH   3   8
TORSDOF 0
ENDMDL
MODEL 6
REMARK VINA RESULT:    -3.032      9.406     10.891
REMARK INTER + INTRA:          -2.880
REMARK INTER:                  -3.733
REMARK INTRA:                   0.854
REMARK UNBOUND:                 0.862
REMARK SMILES CC1=CC=CC(C)(C)CC1=O
REMARK SMILES IDX 1 1 2 2 3 3 10 4 11 5 9 6 4 8 5 9 6 10 7 11 8 12
REMARK H PARENT
REMARK Flexibility Score: 80.00
ROOT
ATOM      1  C   UNL     1      -7.083  30.848  74.898  1.00  0.00     0.048 C 
ATOM      2  C   UNL     1      -6.694  31.000  73.446  1.00  0.00    -0.008 C 
ATOM      3  C   UNL     1      -7.016  30.000  72.598  1.00  0.00     0.007 C 
ENDROOT
BRANCH   2   4
ATOM      4  C   UNL     1      -5.934  32.227  73.082  1.00  0.00     0.159 C 
ATOM      5  O   UNL     1      -5.747  33.105  73.969  1.00  0.00    -0.295 OA
BRANCH   4   6
ATOM      6  C   UNL     1      -5.336  32.475  71.730  1.00  0.00     0.091 CG0
ATOM      7  G   UNL     1      -6.334  32.311  70.562  1.00  0.00     0.000 G0
ENDBRANCH   4   6
ENDBRANCH   2   4
BRANCH   3   8
ATOM      8  C   UNL     1      -6.777  29.878  71.142  1.00  0.00    -0.003 C 
ATOM      9  C   UNL     1      -6.514  30.846  70.256  1.00  0.00    -0.020 C 
BRANCH   9  10
ATOM     10  C   UNL     1      -6.330  32.312  70.567  1.00  0.00    -0.010 CG0
ATOM     11  C   UNL     1      -5.720  32.998  69.322  1.00  0.00     0.016 C 
ATOM     12  C   UNL     1      -7.696  32.976  70.852  1.00  0.00     0.016 C 
ATOM     13  G   UNL     1      -5.334  32.468  71.738  1.00  0.00     0.000 G0
ENDBRANCH   9  10
ENDBRANCH   3   8
TORSDOF 0
ENDMDL
MODEL 7
REMARK VINA RESULT:    -3.019      9.012     10.748
REMARK INTER + INTRA:          -2.864
REMARK INTER:                  -3.714
REMARK INTRA:                   0.850
REMARK UNBOUND:                 0.862
REMARK SMILES CC1=CC=CC(C)(C)CC1=O
REMARK SMILES IDX 1 1 2 2 3 3 10 4 11 5 9 6 4 8 5 9 6 10 7 11 8 12
REMARK H PARENT
REMARK Flexibility Score: 80.00
ROOT
ATOM      1  C   UNL     1      -5.255  33.697  74.146  1.00  0.00     0.048 C 
ATOM      2  C   UNL     1      -5.755  32.528  73.329  1.00  0.00    -0.008 C 
ATOM      3  C   UNL     1      -6.561  31.632  73.939  1.00  0.00     0.007 C 
ENDROOT
BRANCH   2   4
ATOM      4  C   UNL     1      -5.267  32.433  71.927  1.00  0.00     0.159 C 
ATOM      5  O   UNL     1      -4.540  33.363  71.478  1.00  0.00    -0.295 OA
BRANCH   4   6
ATOM      6  C   UNL     1      -5.551  31.279  71.014  1.00  0.00     0.091 CG0
ATOM      7  G   UNL     1      -7.049  30.915  70.909  1.00  0.00     0.000 G0
ENDBRANCH   4   6
ENDBRANCH   2   4
BRANCH   3   8
ATOM      8  C   UNL     1      -7.202  30.412  73.397  1.00  0.00    -0.003 C 
ATOM      9  C   UNL     1      -7.446  30.095  72.120  1.00  0.00    -0.020 C 
BRANCH   9  10
ATOM     10  C   UNL     1      -7.045  30.904  70.909  1.00  0.00    -0.010 CG0
ATOM     11  C   UNL     1      -7.231  30.020  69.654  1.00  0.00     0.016 C 
ATOM     12  C   UNL     1      -7.965  32.138  70.761  1.00  0.00     0.016 C 
ATOM     13  G   UNL     1      -5.551  31.282  71.014  1.00  0.00     0.000 G0
ENDBRANCH   9  10
ENDBRANCH   3   8
TORSDOF 0
ENDMDL
MODEL 8
REMARK VINA RESULT:    -2.975     10.472     12.020
REMARK INTER + INTRA:          -2.809
REMARK INTER:                  -3.657
REMARK INTRA:                   0.848
REMARK UNBOUND:                 0.862
REMARK SMILES CC1=CC=CC(C)(C)CC1=O
REMARK SMILES IDX 1 1 2 2 3 3 10 4 11 5 9 6 4 8 5 9 6 10 7 11 8 12
REMARK H PARENT
REMARK Flexibility Score: 80.00
ROOT
ATOM      1  C   UNL     1      -0.219  25.765  67.888  1.00  0.00     0.048 C 
ATOM      2  C   UNL     1       0.991  26.524  68.383  1.00  0.00    -0.008 C 
ATOM      3  C   UNL     1       2.115  26.476  67.636  1.00  0.00     0.007 C 
ENDROOT
BRANCH   2   4
ATOM      4  C   UNL     1       0.855  27.219  69.691  1.00  0.00     0.159 C 
ATOM      5  O   UNL     1      -0.273  27.222  70.258  1.00  0.00    -0.295 OA
BRANCH   4   6
ATOM      6  C   UNL     1       1.987  27.892  70.408  1.00  0.00     0.091 CG0
ATOM      7  G   UNL     1       2.768  28.903  69.539  1.00  0.00     0.000 G0
ENDBRANCH   4   6
ENDBRANCH   2   4
BRANCH   3   8
ATOM      8  C   UNL     1       3.429  27.118  67.860  1.00  0.00    -0.003 C 
ATOM      9  C   UNL     1       3.724  28.166  68.639  1.00  0.00    -0.020 C 
BRANCH   9  10
ATOM     10  C   UNL     1       2.763  28.903  69.542  1.00  0.00    -0.010 CG0
ATOM     11  C   UNL     1       3.586  29.801  70.494  1.00  0.00     0.016 C 
ATOM     12  C   UNL     1       1.838  29.818  68.707  1.00  0.00     0.016 C 
ATOM     13  G   UNL     1       1.980  27.885  70.400  1.00  0.00     0.000 G0
ENDBRANCH   9  10
ENDBRANCH   3   8
TORSDOF 0
ENDMDL
MODEL 9
REMARK VINA RESULT:    -2.868      9.886     11.104
REMARK INTER + INTRA:          -2.677
REMARK INTER:                  -3.524
REMARK INTRA:                   0.847
REMARK UNBOUND:                 0.862
REMARK SMILES CC1=CC=CC(C)(C)CC1=O
REMARK SMILES IDX 1 1 2 2 3 3 10 4 11 5 9 6 4 8 5 9 6 10 7 11 8 12
REMARK H PARENT
REMARK Flexibility Score: 80.00
ROOT
ATOM      1  C   UNL     1       2.496  26.256  66.264  1.00  0.00     0.048 C 
ATOM      2  C   UNL     1       1.597  26.832  67.334  1.00  0.00    -0.008 C 
ATOM      3  C   UNL     1       0.751  25.990  67.967  1.00  0.00     0.007 C 
ENDROOT
BRANCH   2   4
ATOM      4  C   UNL     1       1.683  28.299  67.562  1.00  0.00     0.159 C 
ATOM      5  O   UNL     1       2.571  28.953  66.948  1.00  0.00    -0.295 OA
BRANCH   4   6
ATOM      6  C   UNL     1       0.754  29.068  68.452  1.00  0.00     0.091 CG0
ATOM      7  G   UNL     1       0.639  28.497  69.883  1.00  0.00     0.000 G0
ENDBRANCH   4   6
ENDBRANCH   2   4
BRANCH   3   8
ATOM      8  C   UNL     1      -0.223  26.262  69.048  1.00  0.00    -0.003 C 
ATOM      9  C   UNL     1      -0.265  27.300  69.891  1.00  0.00    -0.020 C 
BRANCH   9  10
ATOM     10  C   UNL     1       0.660  28.495  69.881  1.00  0.00    -0.010 CG0
ATOM     11  C   UNL     1       0.046  29.589  70.784  1.00  0.00     0.016 C 
ATOM     12  C   UNL     1       2.037  28.111  70.469  1.00  0.00     0.016 C 
ATOM     13  G   UNL     1       0.759  29.056  68.445  1.00  0.00     0.000 G0
ENDBRANCH   9  10
ENDBRANCH   3   8
TORSDOF 0
ENDMDL
