MODEL 1
REMARK VINA RESULT:    -4.763      0.000      0.000
REMARK INTER + INTRA:          -6.253
REMARK INTER:                  -5.738
REMARK INTRA:                  -0.515
REMARK UNBOUND:                -0.515
REMARK SMILES CCCCc1oc(O)c2ccccc12
REMARK SMILES IDX 4 1 5 2 7 3 6 4 9 5 14 6 10 7 13 8 11 9 12 10 8 11 3 13 2 14
REMARK SMILES IDX 1 15
REMARK H PARENT 8 12
REMARK Flexibility Score: inf
ROOT
ATOM      1  C   UNL     1       1.080 -36.098  13.071  1.00  0.00     0.076 C 
ENDROOT
BRANCH   1   2
ATOM      2  C   UNL     1       2.434 -36.544  12.604  1.00  0.00     0.116 A 
ATOM      3  C   UNL     1       4.501 -37.111  12.678  1.00  0.00     0.290 A 
ATOM      4  O   UNL     1       3.483 -36.678  13.398  1.00  0.00    -0.430 OA
ATOM      5  C   UNL     1       4.111 -37.270  11.369  1.00  0.00     0.066 A 
ATOM      6  C   UNL     1       2.791 -36.910  11.319  1.00  0.00     0.027 A 
ATOM      7  C   UNL     1       4.803 -37.703  10.240  1.00  0.00     0.016 A 
ATOM      8  C   UNL     1       2.063 -36.958  10.129  1.00  0.00     0.012 A 
ATOM      9  C   UNL     1       4.097 -37.760   9.024  1.00  0.00     0.001 A 
ATOM     10  C   UNL     1       2.733 -37.390   8.969  1.00  0.00     0.001 A 
BRANCH   3  11
ATOM     11  O   UNL     1       5.770 -37.365  13.185  1.00  0.00    -0.480 OA
ATOM     12  H   UNL     1       6.594 -37.134  12.645  1.00  0.00     0.297 HD
ENDBRANCH   3  11
ENDBRANCH   1   2
BRANCH   1  13
ATOM     13  C   UNL     1       0.142 -37.286  13.314  1.00  0.00     0.008 C 
BRANCH  13  14
ATOM     14  C   UNL     1      -0.939 -37.405  12.231  1.00  0.00    -0.003 C 
ATOM     15  C   UNL     1      -1.269 -36.042  11.630  1.00  0.00     0.004 C 
ENDBRANCH  13  14
ENDBRANCH   1  13
TORSDOF 4
ENDMDL
MODEL 2
REMARK VINA RESULT:    -4.713     13.286     15.197
REMARK INTER + INTRA:          -6.192
REMARK INTER:                  -5.751
REMARK INTRA:                  -0.441
REMARK UNBOUND:                -0.515
REMARK SMILES CCCCc1oc(O)c2ccccc12
REMARK SMILES IDX 4 1 5 2 7 3 6 4 9 5 14 6 10 7 13 8 11 9 12 10 8 11 3 13 2 14
REMARK SMILES IDX 1 15
REMARK H PARENT 8 12
REMARK Flexibility Score: inf
ROOT
ATOM      1  C   UNL     1      -9.166 -45.739  11.881  1.00  0.00     0.076 C 
ENDROOT
BRANCH   1   2
ATOM      2  C   UNL     1      -8.635 -46.999  12.496  1.00  0.00     0.116 A 
ATOM      3  C   UNL     1      -7.994 -49.038  12.667  1.00  0.00     0.290 A 
ATOM      4  O   UNL     1      -8.516 -48.146  11.847  1.00  0.00    -0.430 OA
ATOM      5  C   UNL     1      -7.760 -48.463  13.894  1.00  0.00     0.066 A 
ATOM      6  C   UNL     1      -8.167 -47.160  13.787  1.00  0.00     0.027 A 
ATOM      7  C   UNL     1      -7.222 -48.976  15.073  1.00  0.00     0.016 A 
ATOM      8  C   UNL     1      -8.064 -46.271  14.858  1.00  0.00     0.012 A 
ATOM      9  C   UNL     1      -7.108 -48.104  16.171  1.00  0.00     0.001 A 
ATOM     10  C   UNL     1      -7.526 -46.757  16.064  1.00  0.00     0.001 A 
BRANCH   3  11
ATOM     11  O   UNL     1      -7.726 -50.358  12.323  1.00  0.00    -0.480 OA
ATOM     12  H   UNL     1      -8.468 -50.962  11.993  1.00  0.00     0.297 HD
ENDBRANCH   3  11
ENDBRANCH   1   2
BRANCH   1  13
ATOM     13  C   UNL     1      -8.038 -44.770  11.505  1.00  0.00     0.008 C 
BRANCH  13  14
ATOM     14  C   UNL     1      -8.212 -43.393  12.160  1.00  0.00    -0.003 C 
ATOM     15  C   UNL     1      -9.666 -43.148  12.551  1.00  0.00     0.004 C 
ENDBRANCH  13  14
ENDBRANCH   1  13
TORSDOF 4
ENDMDL
MODEL 3
REMARK VINA RESULT:    -4.634      5.204      8.094
REMARK INTER + INTRA:          -6.097
REMARK INTER:                  -5.661
REMARK INTRA:                  -0.437
REMARK UNBOUND:                -0.515
REMARK SMILES CCCCc1oc(O)c2ccccc12
REMARK SMILES IDX 4 1 5 2 7 3 6 4 9 5 14 6 10 7 13 8 11 9 12 10 8 11 3 13 2 14
REMARK SMILES IDX 1 15
REMARK H PARENT 8 12
REMARK Flexibility Score: inf
ROOT
ATOM      1  C   UNL     1      -2.497 -36.643  11.635  1.00  0.00     0.076 C 
ENDROOT
BRANCH   1   2
ATOM      2  C   UNL     1      -3.464 -35.731  12.330  1.00  0.00     0.116 A 
ATOM      3  C   UNL     1      -4.416 -34.637  13.910  1.00  0.00     0.290 A 
ATOM      4  O   UNL     1      -3.460 -35.503  13.633  1.00  0.00    -0.430 OA
ATOM      5  C   UNL     1      -5.070 -34.281  12.754  1.00  0.00     0.066 A 
ATOM      6  C   UNL     1      -4.463 -34.976  11.743  1.00  0.00     0.027 A 
ATOM      7  C   UNL     1      -6.130 -33.406  12.519  1.00  0.00     0.016 A 
ATOM      8  C   UNL     1      -4.874 -34.847  10.416  1.00  0.00     0.012 A 
ATOM      9  C   UNL     1      -6.568 -33.256  11.191  1.00  0.00     0.001 A 
ATOM     10  C   UNL     1      -5.943 -33.972  10.144  1.00  0.00     0.001 A 
BRANCH   3  11
ATOM     11  O   UNL     1      -4.703 -34.166  15.186  1.00  0.00    -0.480 OA
ATOM     12  H   UNL     1      -4.880 -34.813  15.943  1.00  0.00     0.297 HD
ENDBRANCH   3  11
ENDBRANCH   1   2
BRANCH   1  13
ATOM     13  C   UNL     1      -1.425 -35.858  10.870  1.00  0.00     0.008 C 
BRANCH  13  14
ATOM     14  C   UNL     1      -1.379 -36.234   9.382  1.00  0.00    -0.003 C 
ATOM     15  C   UNL     1      -1.849 -35.076   8.507  1.00  0.00     0.004 C 
ENDBRANCH  13  14
ENDBRANCH   1  13
TORSDOF 4
ENDMDL
MODEL 4
REMARK VINA RESULT:    -4.564      7.027      8.526
REMARK INTER + INTRA:          -6.013
REMARK INTER:                  -5.802
REMARK INTRA:                  -0.211
REMARK UNBOUND:                -0.515
REMARK SMILES CCCCc1oc(O)c2ccccc12
REMARK SMILES IDX 4 1 5 2 7 3 6 4 9 5 14 6 10 7 13 8 11 9 12 10 8 11 3 13 2 14
REMARK SMILES IDX 1 15
REMARK H PARENT 8 12
REMARK Flexibility Score: inf
ROOT
ATOM      1  C   UNL     1      -4.973 -34.212   9.895  1.00  0.00     0.076 C 
ENDROOT
BRANCH   1   2
ATOM      2  C   UNL     1      -4.444 -33.806   8.552  1.00  0.00     0.116 A 
ATOM      3  C   UNL     1      -4.313 -32.806   6.660  1.00  0.00     0.290 A 
ATOM      4  O   UNL     1      -5.058 -32.965   7.738  1.00  0.00    -0.430 OA
ATOM      5  C   UNL     1      -3.171 -33.564   6.768  1.00  0.00     0.066 A 
ATOM      6  C   UNL     1      -3.251 -34.203   7.975  1.00  0.00     0.027 A 
ATOM      7  C   UNL     1      -2.084 -33.731   5.912  1.00  0.00     0.016 A 
ATOM      8  C   UNL     1      -2.242 -35.060   8.418  1.00  0.00     0.012 A 
ATOM      9  C   UNL     1      -1.051 -34.590   6.329  1.00  0.00     0.001 A 
ATOM     10  C   UNL     1      -1.130 -35.252   7.577  1.00  0.00     0.001 A 
BRANCH   3  11
ATOM     11  O   UNL     1      -4.649 -31.987   5.588  1.00  0.00    -0.480 OA
ATOM     12  H   UNL     1      -4.670 -32.359   4.646  1.00  0.00     0.297 HD
ENDBRANCH   3  11
ENDBRANCH   1   2
BRANCH   1  13
ATOM     13  C   UNL     1      -6.280 -33.484  10.234  1.00  0.00     0.008 C 
BRANCH  13  14
ATOM     14  C   UNL     1      -6.566 -33.476  11.743  1.00  0.00    -0.003 C 
ATOM     15  C   UNL     1      -5.312 -33.813  12.543  1.00  0.00     0.004 C 
ENDBRANCH  13  14
ENDBRANCH   1  13
TORSDOF 4
ENDMDL
MODEL 5
REMARK VINA RESULT:    -4.512     14.314     15.807
REMARK INTER + INTRA:          -5.950
REMARK INTER:                  -5.660
REMARK INTRA:                  -0.290
REMARK UNBOUND:                -0.515
REMARK SMILES CCCCc1oc(O)c2ccccc12
REMARK SMILES IDX 4 1 5 2 7 3 6 4 9 5 14 6 10 7 13 8 11 9 12 10 8 11 3 13 2 14
REMARK SMILES IDX 1 15
REMARK H PARENT 8 12
REMARK Flexibility Score: inf
ROOT
ATOM      1  C   UNL     1      -7.985 -50.110  13.048  1.00  0.00     0.076 C 
ENDROOT
BRANCH   1   2
ATOM      2  C   UNL     1      -8.062 -48.642  13.346  1.00  0.00     0.116 A 
ATOM      3  C   UNL     1      -8.486 -46.556  13.085  1.00  0.00     0.290 A 
ATOM      4  O   UNL     1      -8.534 -47.739  12.503  1.00  0.00    -0.430 OA
ATOM      5  C   UNL     1      -7.968 -46.682  14.353  1.00  0.00     0.066 A 
ATOM      6  C   UNL     1      -7.698 -48.013  14.523  1.00  0.00     0.027 A 
ATOM      7  C   UNL     1      -7.725 -45.743  15.354  1.00  0.00     0.016 A 
ATOM      8  C   UNL     1      -7.163 -48.505  15.714  1.00  0.00     0.012 A 
ATOM      9  C   UNL     1      -7.184 -46.208  16.566  1.00  0.00     0.001 A 
ATOM     10  C   UNL     1      -6.905 -47.583  16.746  1.00  0.00     0.001 A 
BRANCH   3  11
ATOM     11  O   UNL     1      -8.902 -45.371  12.490  1.00  0.00    -0.480 OA
ATOM     12  H   UNL     1      -8.711 -44.481  12.932  1.00  0.00     0.297 HD
ENDBRANCH   3  11
ENDBRANCH   1   2
BRANCH   1  13
ATOM     13  C   UNL     1      -6.539 -50.570  12.828  1.00  0.00     0.008 C 
BRANCH  13  14
ATOM     14  C   UNL     1      -6.314 -51.125  11.414  1.00  0.00    -0.003 C 
ATOM     15  C   UNL     1      -6.203 -49.998  10.392  1.00  0.00     0.004 C 
ENDBRANCH  13  14
ENDBRANCH   1  13
TORSDOF 4
ENDMDL
MODEL 6
REMARK VINA RESULT:    -4.505      1.831      3.639
REMARK INTER + INTRA:          -5.942
REMARK INTER:                  -5.581
REMARK INTRA:                  -0.361
REMARK UNBOUND:                -0.515
REMARK SMILES CCCCc1oc(O)c2ccccc12
REMARK SMILES IDX 4 1 5 2 7 3 6 4 9 5 14 6 10 7 13 8 11 9 12 10 8 11 3 13 2 14
REMARK SMILES IDX 1 15
REMARK H PARENT 8 12
REMARK Flexibility Score: inf
ROOT
ATOM      1  C   UNL     1       1.288 -36.735  11.637  1.00  0.00     0.076 C 
ENDROOT
BRANCH   1   2
ATOM      2  C   UNL     1       2.664 -36.825  12.225  1.00  0.00     0.116 A 
ATOM      3  C   UNL     1       4.709 -36.331  12.644  1.00  0.00     0.290 A 
ATOM      4  O   UNL     1       3.648 -35.989  11.937  1.00  0.00    -0.430 OA
ATOM      5  C   UNL     1       4.416 -37.425  13.424  1.00  0.00     0.066 A 
ATOM      6  C   UNL     1       3.110 -37.742  13.160  1.00  0.00     0.027 A 
ATOM      7  C   UNL     1       5.183 -38.148  14.335  1.00  0.00     0.016 A 
ATOM      8  C   UNL     1       2.474 -38.810  13.793  1.00  0.00     0.012 A 
ATOM      9  C   UNL     1       4.570 -39.233  14.988  1.00  0.00     0.001 A 
ATOM     10  C   UNL     1       3.221 -39.562  14.719  1.00  0.00     0.001 A 
BRANCH   3  11
ATOM     11  O   UNL     1       5.931 -35.671  12.595  1.00  0.00    -0.480 OA
ATOM     12  H   UNL     1       6.204 -35.042  13.339  1.00  0.00     0.297 HD
ENDBRANCH   3  11
ENDBRANCH   1   2
BRANCH   1  13
ATOM     13  C   UNL     1       1.161 -37.572  10.358  1.00  0.00     0.008 C 
BRANCH  13  14
ATOM     14  C   UNL     1       1.858 -36.913   9.160  1.00  0.00    -0.003 C 
ATOM     15  C   UNL     1       3.129 -37.666   8.779  1.00  0.00     0.004 C 
ENDBRANCH  13  14
ENDBRANCH   1  13
TORSDOF 4
ENDMDL
MODEL 7
REMARK VINA RESULT:    -4.497      1.723      4.472
REMARK INTER + INTRA:          -5.932
REMARK INTER:                  -5.429
REMARK INTRA:                  -0.502
REMARK UNBOUND:                -0.515
REMARK SMILES CCCCc1oc(O)c2ccccc12
REMARK SMILES IDX 4 1 5 2 7 3 6 4 9 5 14 6 10 7 13 8 11 9 12 10 8 11 3 13 2 14
REMARK SMILES IDX 1 15
REMARK H PARENT 8 12
REMARK Flexibility Score: inf
ROOT
ATOM      1  C   UNL     1       5.928 -36.958  11.625  1.00  0.00     0.076 C 
ENDROOT
BRANCH   1   2
ATOM      2  C   UNL     1       5.127 -37.414  12.808  1.00  0.00     0.116 A 
ATOM      3  C   UNL     1       4.654 -38.371  14.668  1.00  0.00     0.290 A 
ATOM      4  O   UNL     1       5.605 -38.182  13.773  1.00  0.00    -0.430 OA
ATOM      5  C   UNL     1       3.514 -37.706  14.283  1.00  0.00     0.066 A 
ATOM      6  C   UNL     1       3.813 -37.093  13.097  1.00  0.00     0.027 A 
ATOM      7  C   UNL     1       2.260 -37.590  14.881  1.00  0.00     0.016 A 
ATOM      8  C   UNL     1       2.876 -36.314  12.418  1.00  0.00     0.012 A 
ATOM      9  C   UNL     1       1.292 -36.812  14.219  1.00  0.00     0.001 A 
ATOM     10  C   UNL     1       1.598 -36.177  12.993  1.00  0.00     0.001 A 
BRANCH   3  11
ATOM     11  O   UNL     1       4.802 -39.131  15.823  1.00  0.00    -0.480 OA
ATOM     12  H   UNL     1       5.648 -39.664  15.980  1.00  0.00     0.297 HD
ENDBRANCH   3  11
ENDBRANCH   1   2
BRANCH   1  13
ATOM     13  C   UNL     1       5.788 -37.921  10.439  1.00  0.00     0.008 C 
BRANCH  13  14
ATOM     14  C   UNL     1       5.070 -37.274   9.246  1.00  0.00    -0.003 C 
ATOM     15  C   UNL     1       3.671 -37.856   9.065  1.00  0.00     0.004 C 
ENDBRANCH  13  14
ENDBRANCH   1  13
TORSDOF 4
ENDMDL
MODEL 8
REMARK VINA RESULT:    -4.458      1.730      3.893
REMARK INTER + INTRA:          -5.885
REMARK INTER:                  -5.501
REMARK INTRA:                  -0.384
REMARK UNBOUND:                -0.515
REMARK SMILES CCCCc1oc(O)c2ccccc12
REMARK SMILES IDX 4 1 5 2 7 3 6 4 9 5 14 6 10 7 13 8 11 9 12 10 8 11 3 13 2 14
REMARK SMILES IDX 1 15
REMARK H PARENT 8 12
REMARK Flexibility Score: inf
ROOT
ATOM      1  C   UNL     1       4.992 -37.206  13.281  1.00  0.00     0.076 C 
ENDROOT
BRANCH   1   2
ATOM      2  C   UNL     1       3.696 -37.125  12.531  1.00  0.00     0.116 A 
ATOM      3  C   UNL     1       1.612 -36.797  12.146  1.00  0.00     0.290 A 
ATOM      4  O   UNL     1       2.539 -36.803  13.085  1.00  0.00    -0.430 OA
ATOM      5  C   UNL     1       2.174 -37.122  10.935  1.00  0.00     0.066 A 
ATOM      6  C   UNL     1       3.506 -37.331  11.176  1.00  0.00     0.027 A 
ATOM      7  C   UNL     1       1.626 -37.242   9.659  1.00  0.00     0.016 A 
ATOM      8  C   UNL     1       4.391 -37.675  10.154  1.00  0.00     0.012 A 
ATOM      9  C   UNL     1       2.493 -37.590   8.606  1.00  0.00     0.001 A 
ATOM     10  C   UNL     1       3.869 -37.804   8.852  1.00  0.00     0.001 A 
BRANCH   3  11
ATOM     11  O   UNL     1       0.272 -36.502  12.368  1.00  0.00    -0.480 OA
ATOM     12  H   UNL     1      -0.452 -37.126  12.038  1.00  0.00     0.297 HD
ENDBRANCH   3  11
ENDBRANCH   1   2
BRANCH   1  13
ATOM     13  C   UNL     1       5.363 -38.655  13.618  1.00  0.00     0.008 C 
BRANCH  13  14
ATOM     14  C   UNL     1       4.506 -39.226  14.757  1.00  0.00    -0.003 C 
ATOM     15  C   UNL     1       4.563 -38.331  15.991  1.00  0.00     0.004 C 
ENDBRANCH  13  14
ENDBRANCH   1  13
TORSDOF 4
ENDMDL
MODEL 9
REMARK VINA RESULT:    -4.421     13.760     15.661
REMARK INTER + INTRA:          -5.841
REMARK INTER:                  -5.397
REMARK INTRA:                  -0.443
REMARK UNBOUND:                -0.515
REMARK SMILES CCCCc1oc(O)c2ccccc12
REMARK SMILES IDX 4 1 5 2 7 3 6 4 9 5 14 6 10 7 13 8 11 9 12 10 8 11 3 13 2 14
REMARK SMILES IDX 1 15
REMARK H PARENT 8 12
REMARK Flexibility Score: inf
ROOT
ATOM      1  C   UNL     1      -8.505 -49.513  12.766  1.00  0.00     0.076 C 
ENDROOT
BRANCH   1   2
ATOM      2  C   UNL     1      -8.569 -48.035  12.523  1.00  0.00     0.116 A 
ATOM      3  C   UNL     1      -8.925 -46.176  11.515  1.00  0.00     0.290 A 
ATOM      4  O   UNL     1      -8.959 -47.489  11.383  1.00  0.00    -0.430 OA
ATOM      5  C   UNL     1      -8.501 -45.846  12.780  1.00  0.00     0.066 A 
ATOM      6  C   UNL     1      -8.274 -47.031  13.427  1.00  0.00     0.027 A 
ATOM      7  C   UNL     1      -8.307 -44.614  13.403  1.00  0.00     0.016 A 
ATOM      8  C   UNL     1      -7.836 -47.070  14.752  1.00  0.00     0.012 A 
ATOM      9  C   UNL     1      -7.864 -44.621  14.738  1.00  0.00     0.001 A 
ATOM     10  C   UNL     1      -7.630 -45.843  15.410  1.00  0.00     0.001 A 
BRANCH   3  11
ATOM     11  O   UNL     1      -9.271 -45.278  10.512  1.00  0.00    -0.480 OA
ATOM     12  H   UNL     1      -9.889 -44.501  10.710  1.00  0.00     0.297 HD
ENDBRANCH   3  11
ENDBRANCH   1   2
BRANCH   1  13
ATOM     13  C   UNL     1      -7.086 -50.061  12.572  1.00  0.00     0.008 C 
BRANCH  13  14
ATOM     14  C   UNL     1      -6.661 -50.992  13.716  1.00  0.00    -0.003 C 
ATOM     15  C   UNL     1      -7.766 -51.124  14.759  1.00  0.00     0.004 C 
ENDBRANCH  13  14
ENDBRANCH   1  13
TORSDOF 4
ENDMDL
