MODEL 1
REMARK VINA RESULT:    -6.281      0.000      0.000
REMARK INTER + INTRA:         -13.255
REMARK INTER:                 -11.788
REMARK INTRA:                  -1.467
REMARK UNBOUND:                -1.467
REMARK SMILES CCCCCCCCC=CCCCCCCCC(=O)[O-]
REMARK SMILES IDX 10 1 9 2 11 3 12 4 13 5 14 6 15 7 16 8 17 9 18 10 19 11
REMARK SMILES IDX 20 12 8 13 7 14 6 15 5 16 4 17 3 18 2 19 1 20
REMARK H PARENT
REMARK Flexibility Score: inf
ROOT
ATOM      1  C   UNL     1      42.654   4.028  27.748  1.00  0.00    -0.031 C 
ATOM      2  C   UNL     1      42.066   4.898  28.592  1.00  0.00    -0.031 C 
ENDROOT
BRANCH   1   3
ATOM      3  C   UNL     1      43.976   4.261  27.056  1.00  0.00     0.027 C 
BRANCH   3   4
ATOM      4  C   UNL     1      43.815   4.634  25.570  1.00  0.00     0.004 C 
BRANCH   4   5
ATOM      5  C   UNL     1      43.971   6.139  25.283  1.00  0.00     0.000 C 
BRANCH   5   6
ATOM      6  C   UNL     1      45.211   6.461  24.429  1.00  0.00     0.000 C 
BRANCH   6   7
ATOM      7  C   UNL     1      45.880   5.198  23.862  1.00  0.00     0.000 C 
BRANCH   7   8
ATOM      8  C   UNL     1      46.056   5.262  22.332  1.00  0.00     0.006 C 
BRANCH   8   9
ATOM      9  C   UNL     1      47.184   4.343  21.839  1.00  0.00     0.053 C 
BRANCH   9  10
ATOM     10  C   UNL     1      47.815   4.862  20.583  1.00  0.00     0.041 C 
ATOM     11  O   UNL     1      48.225   6.054  20.525  1.00  0.00    -0.550 OA
ATOM     12  O   UNL     1      47.923   4.042  19.465  1.00  0.00    -0.550 OA
ENDBRANCH   9  10
ENDBRANCH   8   9
ENDBRANCH   7   8
ENDBRANCH   6   7
ENDBRANCH   5   6
ENDBRANCH   4   5
ENDBRANCH   3   4
ENDBRANCH   1   3
BRANCH   2  13
ATOM     13  C   UNL     1      42.585   6.282  28.901  1.00  0.00     0.027 C 
BRANCH  13  14
ATOM     14  C   UNL     1      41.513   7.336  28.602  1.00  0.00     0.004 C 
BRANCH  14  15
ATOM     15  C   UNL     1      40.855   7.078  27.240  1.00  0.00     0.000 C 
BRANCH  15  16
ATOM     16  C   UNL     1      39.322   6.969  27.326  1.00  0.00     0.000 C 
BRANCH  16  17
ATOM     17  C   UNL     1      38.778   5.585  26.908  1.00  0.00    -0.000 C 
BRANCH  17  18
ATOM     18  C   UNL     1      38.516   4.674  28.120  1.00  0.00    -0.000 C 
BRANCH  18  19
ATOM     19  C   UNL     1      37.061   4.744  28.609  1.00  0.00    -0.003 C 
ATOM     20  C   UNL     1      36.358   3.387  28.571  1.00  0.00     0.004 C 
ENDBRANCH  18  19
ENDBRANCH  17  18
ENDBRANCH  16  17
ENDBRANCH  15  16
ENDBRANCH  14  15
ENDBRANCH  13  14
ENDBRANCH   2  13
TORSDOF 15
ENDMDL
MODEL 2
REMARK VINA RESULT:    -6.008      1.465      2.585
REMARK INTER + INTRA:         -12.744
REMARK INTER:                 -11.722
REMARK INTRA:                  -1.022
REMARK UNBOUND:                -1.467
REMARK SMILES CCCCCCCCC=CCCCCCCCC(=O)[O-]
REMARK SMILES IDX 10 1 9 2 11 3 12 4 13 5 14 6 15 7 16 8 17 9 18 10 19 11
REMARK SMILES IDX 20 12 8 13 7 14 6 15 5 16 4 17 3 18 2 19 1 20
REMARK H PARENT
REMARK Flexibility Score: inf
ROOT
ATOM      1  C   UNL     1      43.550   4.232  25.430  1.00  0.00    -0.031 C 
ATOM      2  C   UNL     1      43.204   3.777  26.649  1.00  0.00    -0.031 C 
ENDROOT
BRANCH   1   3
ATOM      3  C   UNL     1      44.610   5.276  25.168  1.00  0.00     0.027 C 
BRANCH   3   4
ATOM      4  C   UNL     1      45.380   5.030  23.856  1.00  0.00     0.004 C 
BRANCH   4   5
ATOM      5  C   UNL     1      44.766   3.931  22.968  1.00  0.00     0.000 C 
BRANCH   5   6
ATOM      6  C   UNL     1      45.761   3.365  21.940  1.00  0.00     0.000 C 
BRANCH   6   7
ATOM      7  C   UNL     1      46.955   4.303  21.697  1.00  0.00     0.000 C 
BRANCH   7   8
ATOM      8  C   UNL     1      47.628   4.059  20.332  1.00  0.00     0.006 C 
BRANCH   8   9
ATOM      9  C   UNL     1      46.718   4.452  19.159  1.00  0.00     0.053 C 
BRANCH   9  10
ATOM     10  C   UNL     1      46.893   3.533  17.987  1.00  0.00     0.041 C 
ATOM     11  O   UNL     1      46.149   2.522  17.858  1.00  0.00    -0.550 OA
ATOM     12  O   UNL     1      47.898   3.773  17.056  1.00  0.00    -0.550 OA
ENDBRANCH   9  10
ENDBRANCH   8   9
ENDBRANCH   7   8
ENDBRANCH   6   7
ENDBRANCH   5   6
ENDBRANCH   4   5
ENDBRANCH   3   4
ENDBRANCH   1   3
BRANCH   2  13
ATOM     13  C   UNL     1      43.751   4.310  27.953  1.00  0.00     0.027 C 
BRANCH  13  14
ATOM     14  C   UNL     1      42.839   5.410  28.507  1.00  0.00     0.004 C 
BRANCH  14  15
ATOM     15  C   UNL     1      41.364   4.991  28.432  1.00  0.00     0.000 C 
BRANCH  15  16
ATOM     16  C   UNL     1      40.443   6.124  27.950  1.00  0.00     0.000 C 
BRANCH  16  17
ATOM     17  C   UNL     1      39.337   5.651  26.982  1.00  0.00    -0.000 C 
BRANCH  17  18
ATOM     18  C   UNL     1      37.980   5.481  27.688  1.00  0.00    -0.000 C 
BRANCH  18  19
ATOM     19  C   UNL     1      37.897   4.181  28.504  1.00  0.00    -0.003 C 
ATOM     20  C   UNL     1      36.495   3.574  28.510  1.00  0.00     0.004 C 
ENDBRANCH  18  19
ENDBRANCH  17  18
ENDBRANCH  16  17
ENDBRANCH  15  16
ENDBRANCH  14  15
ENDBRANCH  13  14
ENDBRANCH   2  13
TORSDOF 15
ENDMDL
MODEL 3
REMARK VINA RESULT:    -5.906      3.388      4.507
REMARK INTER + INTRA:         -12.551
REMARK INTER:                 -10.434
REMARK INTRA:                  -2.117
REMARK UNBOUND:                -1.467
REMARK SMILES CCCCCCCCC=CCCCCCCCC(=O)[O-]
REMARK SMILES IDX 10 1 9 2 11 3 12 4 13 5 14 6 15 7 16 8 17 9 18 10 19 11
REMARK SMILES IDX 20 12 8 13 7 14 6 15 5 16 4 17 3 18 2 19 1 20
REMARK H PARENT
REMARK Flexibility Score: inf
ROOT
ATOM      1  C   UNL     1      43.526   3.791  26.092  1.00  0.00    -0.031 C 
ATOM      2  C   UNL     1      43.215   3.733  27.401  1.00  0.00    -0.031 C 
ENDROOT
BRANCH   1   3
ATOM      3  C   UNL     1      44.244   4.941  25.427  1.00  0.00     0.027 C 
BRANCH   3   4
ATOM      4  C   UNL     1      43.278   5.969  24.806  1.00  0.00     0.004 C 
BRANCH   4   5
ATOM      5  C   UNL     1      42.127   5.337  24.001  1.00  0.00     0.000 C 
BRANCH   5   6
ATOM      6  C   UNL     1      40.974   6.320  23.732  1.00  0.00     0.000 C 
BRANCH   6   7
ATOM      7  C   UNL     1      39.591   5.670  23.903  1.00  0.00     0.000 C 
BRANCH   7   8
ATOM      8  C   UNL     1      38.843   5.514  22.564  1.00  0.00     0.006 C 
BRANCH   8   9
ATOM      9  C   UNL     1      38.795   4.053  22.093  1.00  0.00     0.053 C 
BRANCH   9  10
ATOM     10  C   UNL     1      40.008   3.687  21.291  1.00  0.00     0.041 C 
ATOM     11  O   UNL     1      40.571   2.572  21.467  1.00  0.00    -0.550 OA
ATOM     12  O   UNL     1      40.536   4.589  20.373  1.00  0.00    -0.550 OA
ENDBRANCH   9  10
ENDBRANCH   8   9
ENDBRANCH   7   8
ENDBRANCH   6   7
ENDBRANCH   5   6
ENDBRANCH   4   5
ENDBRANCH   3   4
ENDBRANCH   1   3
BRANCH   2  13
ATOM     13  C   UNL     1      43.445   4.850  28.390  1.00  0.00     0.027 C 
BRANCH  13  14
ATOM     14  C   UNL     1      42.132   5.239  29.076  1.00  0.00     0.004 C 
BRANCH  14  15
ATOM     15  C   UNL     1      41.567   6.538  28.484  1.00  0.00     0.000 C 
BRANCH  15  16
ATOM     16  C   UNL     1      40.546   6.291  27.361  1.00  0.00     0.000 C 
BRANCH  16  17
ATOM     17  C   UNL     1      39.487   5.224  27.714  1.00  0.00    -0.000 C 
BRANCH  17  18
ATOM     18  C   UNL     1      38.056   5.702  27.411  1.00  0.00    -0.000 C 
BRANCH  18  19
ATOM     19  C   UNL     1      37.037   5.220  28.455  1.00  0.00    -0.003 C 
ATOM     20  C   UNL     1      36.853   3.703  28.446  1.00  0.00     0.004 C 
ENDBRANCH  18  19
ENDBRANCH  17  18
ENDBRANCH  16  17
ENDBRANCH  15  16
ENDBRANCH  14  15
ENDBRANCH  13  14
ENDBRANCH   2  13
TORSDOF 15
ENDMDL
MODEL 4
REMARK VINA RESULT:    -5.859      4.533      5.334
REMARK INTER + INTRA:         -12.463
REMARK INTER:                 -11.603
REMARK INTRA:                  -0.860
REMARK UNBOUND:                -1.467
REMARK SMILES CCCCCCCCC=CCCCCCCCC(=O)[O-]
REMARK SMILES IDX 10 1 9 2 11 3 12 4 13 5 14 6 15 7 16 8 17 9 18 10 19 11
REMARK SMILES IDX 20 12 8 13 7 14 6 15 5 16 4 17 3 18 2 19 1 20
REMARK H PARENT
REMARK Flexibility Score: inf
ROOT
ATOM      1  C   UNL     1      44.077   4.385  24.248  1.00  0.00    -0.031 C 
ATOM      2  C   UNL     1      44.104   4.677  25.563  1.00  0.00    -0.031 C 
ENDROOT
BRANCH   1   3
ATOM      3  C   UNL     1      43.239   3.294  23.625  1.00  0.00     0.027 C 
BRANCH   3   4
ATOM      4  C   UNL     1      44.089   2.212  22.931  1.00  0.00     0.004 C 
BRANCH   4   5
ATOM      5  C   UNL     1      43.341   1.446  21.823  1.00  0.00     0.000 C 
BRANCH   5   6
ATOM      6  C   UNL     1      43.842   0.001  21.651  1.00  0.00     0.000 C 
BRANCH   6   7
ATOM      7  C   UNL     1      44.355  -0.606  22.967  1.00  0.00     0.000 C 
BRANCH   7   8
ATOM      8  C   UNL     1      45.821  -1.072  22.870  1.00  0.00     0.006 C 
BRANCH   8   9
ATOM      9  C   UNL     1      46.055  -2.405  23.595  1.00  0.00     0.053 C 
BRANCH   9  10
ATOM     10  C   UNL     1      46.035  -2.238  25.085  1.00  0.00     0.041 C 
ATOM     11  O   UNL     1      47.059  -1.819  25.690  1.00  0.00    -0.550 OA
ATOM     12  O   UNL     1      44.896  -2.576  25.810  1.00  0.00    -0.550 OA
ENDBRANCH   9  10
ENDBRANCH   8   9
ENDBRANCH   7   8
ENDBRANCH   6   7
ENDBRANCH   5   6
ENDBRANCH   4   5
ENDBRANCH   3   4
ENDBRANCH   1   3
BRANCH   2  13
ATOM     13  C   UNL     1      43.379   3.895  26.633  1.00  0.00     0.027 C 
BRANCH  13  14
ATOM     14  C   UNL     1      43.509   4.594  27.990  1.00  0.00     0.004 C 
BRANCH  14  15
ATOM     15  C   UNL     1      42.155   5.148  28.455  1.00  0.00     0.000 C 
BRANCH  15  16
ATOM     16  C   UNL     1      41.525   6.118  27.441  1.00  0.00     0.000 C 
BRANCH  16  17
ATOM     17  C   UNL     1      40.064   6.495  27.773  1.00  0.00    -0.000 C 
BRANCH  17  18
ATOM     18  C   UNL     1      39.061   5.460  27.236  1.00  0.00    -0.000 C 
BRANCH  18  19
ATOM     19  C   UNL     1      38.563   4.497  28.325  1.00  0.00    -0.003 C 
ATOM     20  C   UNL     1      37.058   4.604  28.567  1.00  0.00     0.004 C 
ENDBRANCH  18  19
ENDBRANCH  17  18
ENDBRANCH  16  17
ENDBRANCH  15  16
ENDBRANCH  14  15
ENDBRANCH  13  14
ENDBRANCH   2  13
TORSDOF 15
ENDMDL
MODEL 5
REMARK VINA RESULT:    -5.853      3.112      3.774
REMARK INTER + INTRA:         -12.452
REMARK INTER:                 -11.201
REMARK INTRA:                  -1.251
REMARK UNBOUND:                -1.467
REMARK SMILES CCCCCCCCC=CCCCCCCCC(=O)[O-]
REMARK SMILES IDX 10 1 9 2 11 3 12 4 13 5 14 6 15 7 16 8 17 9 18 10 19 11
REMARK SMILES IDX 20 12 8 13 7 14 6 15 5 16 4 17 3 18 2 19 1 20
REMARK H PARENT
REMARK Flexibility Score: inf
ROOT
ATOM      1  C   UNL     1      43.550   3.892  25.792  1.00  0.00    -0.031 C 
ATOM      2  C   UNL     1      43.269   3.724  27.099  1.00  0.00    -0.031 C 
ENDROOT
BRANCH   1   3
ATOM      3  C   UNL     1      44.189   5.126  25.201  1.00  0.00     0.027 C 
BRANCH   3   4
ATOM      4  C   UNL     1      45.325   4.795  24.213  1.00  0.00     0.004 C 
BRANCH   4   5
ATOM      5  C   UNL     1      44.839   4.469  22.789  1.00  0.00     0.000 C 
BRANCH   5   6
ATOM      6  C   UNL     1      45.662   3.356  22.116  1.00  0.00     0.000 C 
BRANCH   6   7
ATOM      7  C   UNL     1      44.946   2.746  20.900  1.00  0.00     0.000 C 
BRANCH   7   8
ATOM      8  C   UNL     1      44.785   1.217  21.016  1.00  0.00     0.006 C 
BRANCH   8   9
ATOM      9  C   UNL     1      44.236   0.795  22.387  1.00  0.00     0.053 C 
BRANCH   9  10
ATOM     10  C   UNL     1      44.624  -0.612  22.732  1.00  0.00     0.041 C 
ATOM     11  O   UNL     1      45.840  -0.943  22.763  1.00  0.00    -0.550 OA
ATOM     12  O   UNL     1      43.643  -1.564  22.988  1.00  0.00    -0.550 OA
ENDBRANCH   9  10
ENDBRANCH   8   9
ENDBRANCH   7   8
ENDBRANCH   6   7
ENDBRANCH   5   6
ENDBRANCH   4   5
ENDBRANCH   3   4
ENDBRANCH   1   3
BRANCH   2  13
ATOM     13  C   UNL     1      43.456   4.780  28.162  1.00  0.00     0.027 C 
BRANCH  13  14
ATOM     14  C   UNL     1      42.110   5.152  28.792  1.00  0.00     0.004 C 
BRANCH  14  15
ATOM     15  C   UNL     1      41.815   6.648  28.615  1.00  0.00     0.000 C 
BRANCH  15  16
ATOM     16  C   UNL     1      40.497   6.914  27.866  1.00  0.00     0.000 C 
BRANCH  16  17
ATOM     17  C   UNL     1      39.998   5.703  27.048  1.00  0.00    -0.000 C 
BRANCH  17  18
ATOM     18  C   UNL     1      38.504   5.420  27.282  1.00  0.00    -0.000 C 
BRANCH  18  19
ATOM     19  C   UNL     1      38.263   4.421  28.425  1.00  0.00    -0.003 C 
ATOM     20  C   UNL     1      36.823   3.913  28.473  1.00  0.00     0.004 C 
ENDBRANCH  18  19
ENDBRANCH  17  18
ENDBRANCH  16  17
ENDBRANCH  15  16
ENDBRANCH  14  15
ENDBRANCH  13  14
ENDBRANCH   2  13
TORSDOF 15
ENDMDL
MODEL 6
REMARK VINA RESULT:    -5.819      1.937      2.244
REMARK INTER + INTRA:         -12.389
REMARK INTER:                 -10.843
REMARK INTRA:                  -1.546
REMARK UNBOUND:                -1.467
REMARK SMILES CCCCCCCCC=CCCCCCCCC(=O)[O-]
REMARK SMILES IDX 10 1 9 2 11 3 12 4 13 5 14 6 15 7 16 8 17 9 18 10 19 11
REMARK SMILES IDX 20 12 8 13 7 14 6 15 5 16 4 17 3 18 2 19 1 20
REMARK H PARENT
REMARK Flexibility Score: inf
ROOT
ATOM      1  C   UNL     1      43.888   4.253  27.411  1.00  0.00    -0.031 C 
ATOM      2  C   UNL     1      43.187   4.857  28.390  1.00  0.00    -0.031 C 
ENDROOT
BRANCH   1   3
ATOM      3  C   UNL     1      43.371   3.994  26.016  1.00  0.00     0.027 C 
BRANCH   3   4
ATOM      4  C   UNL     1      43.340   5.265  25.145  1.00  0.00     0.004 C 
BRANCH   4   5
ATOM      5  C   UNL     1      44.735   5.782  24.745  1.00  0.00     0.000 C 
BRANCH   5   6
ATOM      6  C   UNL     1      45.630   4.685  24.142  1.00  0.00     0.000 C 
BRANCH   6   7
ATOM      7  C   UNL     1      46.360   5.151  22.872  1.00  0.00     0.000 C 
BRANCH   7   8
ATOM      8  C   UNL     1      46.116   4.213  21.674  1.00  0.00     0.006 C 
BRANCH   8   9
ATOM      9  C   UNL     1      45.176   3.052  22.030  1.00  0.00     0.053 C 
BRANCH   9  10
ATOM     10  C   UNL     1      43.966   3.026  21.145  1.00  0.00     0.041 C 
ATOM     11  O   UNL     1      42.832   2.764  21.631  1.00  0.00    -0.550 OA
ATOM     12  O   UNL     1      44.093   3.260  19.780  1.00  0.00    -0.550 OA
ENDBRANCH   9  10
ENDBRANCH   8   9
ENDBRANCH   7   8
ENDBRANCH   6   7
ENDBRANCH   5   6
ENDBRANCH   4   5
ENDBRANCH   3   4
ENDBRANCH   1   3
BRANCH   2  13
ATOM     13  C   UNL     1      41.742   5.280  28.277  1.00  0.00     0.027 C 
BRANCH  13  14
ATOM     14  C   UNL     1      41.631   6.808  28.254  1.00  0.00     0.004 C 
BRANCH  14  15
ATOM     15  C   UNL     1      40.241   7.251  27.776  1.00  0.00     0.000 C 
BRANCH  15  16
ATOM     16  C   UNL     1      39.879   6.695  26.388  1.00  0.00     0.000 C 
BRANCH  16  17
ATOM     17  C   UNL     1      38.673   5.730  26.405  1.00  0.00    -0.000 C 
BRANCH  17  18
ATOM     18  C   UNL     1      37.987   5.682  27.781  1.00  0.00    -0.000 C 
BRANCH  18  19
ATOM     19  C   UNL     1      38.008   4.278  28.404  1.00  0.00    -0.003 C 
ATOM     20  C   UNL     1      36.619   3.647  28.490  1.00  0.00     0.004 C 
ENDBRANCH  18  19
ENDBRANCH  17  18
ENDBRANCH  16  17
ENDBRANCH  15  16
ENDBRANCH  14  15
ENDBRANCH  13  14
ENDBRANCH   2  13
TORSDOF 15
ENDMDL
MODEL 7
REMARK VINA RESULT:    -5.772      3.287      3.893
REMARK INTER + INTRA:         -12.299
REMARK INTER:                 -10.741
REMARK INTRA:                  -1.559
REMARK UNBOUND:                -1.467
REMARK SMILES CCCCCCCCC=CCCCCCCCC(=O)[O-]
REMARK SMILES IDX 10 1 9 2 11 3 12 4 13 5 14 6 15 7 16 8 17 9 18 10 19 11
REMARK SMILES IDX 20 12 8 13 7 14 6 15 5 16 4 17 3 18 2 19 1 20
REMARK H PARENT
REMARK Flexibility Score: inf
ROOT
ATOM      1  C   UNL     1      44.261   4.455  26.372  1.00  0.00    -0.031 C 
ATOM      2  C   UNL     1      43.538   3.917  27.374  1.00  0.00    -0.031 C 
ENDROOT
BRANCH   1   3
ATOM      3  C   UNL     1      43.909   5.731  25.644  1.00  0.00     0.027 C 
BRANCH   3   4
ATOM      4  C   UNL     1      44.529   5.805  24.236  1.00  0.00     0.004 C 
BRANCH   4   5
ATOM      5  C   UNL     1      45.573   4.708  23.954  1.00  0.00     0.000 C 
BRANCH   5   6
ATOM      6  C   UNL     1      45.403   4.062  22.568  1.00  0.00     0.000 C 
BRANCH   6   7
ATOM      7  C   UNL     1      44.222   3.078  22.516  1.00  0.00     0.000 C 
BRANCH   7   8
ATOM      8  C   UNL     1      42.995   3.668  21.795  1.00  0.00     0.006 C 
BRANCH   8   9
ATOM      9  C   UNL     1      42.167   2.589  21.082  1.00  0.00     0.053 C 
BRANCH   9  10
ATOM     10  C   UNL     1      40.707   2.930  21.064  1.00  0.00     0.041 C 
ATOM     11  O   UNL     1      39.892   2.263  21.759  1.00  0.00    -0.550 OA
ATOM     12  O   UNL     1      40.241   3.962  20.256  1.00  0.00    -0.550 OA
ENDBRANCH   9  10
ENDBRANCH   8   9
ENDBRANCH   7   8
ENDBRANCH   6   7
ENDBRANCH   5   6
ENDBRANCH   4   5
ENDBRANCH   3   4
ENDBRANCH   1   3
BRANCH   2  13
ATOM     13  C   UNL     1      42.210   4.450  27.858  1.00  0.00     0.027 C 
BRANCH  13  14
ATOM     14  C   UNL     1      42.422   5.506  28.949  1.00  0.00     0.004 C 
BRANCH  14  15
ATOM     15  C   UNL     1      41.711   6.818  28.589  1.00  0.00     0.000 C 
BRANCH  15  16
ATOM     16  C   UNL     1      40.864   6.708  27.310  1.00  0.00     0.000 C 
BRANCH  16  17
ATOM     17  C   UNL     1      39.342   6.756  27.572  1.00  0.00    -0.000 C 
BRANCH  17  18
ATOM     18  C   UNL     1      38.635   5.466  27.122  1.00  0.00    -0.000 C 
BRANCH  18  19
ATOM     19  C   UNL     1      38.392   4.488  28.283  1.00  0.00    -0.003 C 
ATOM     20  C   UNL     1      36.909   4.308  28.604  1.00  0.00     0.004 C 
ENDBRANCH  18  19
ENDBRANCH  17  18
ENDBRANCH  16  17
ENDBRANCH  15  16
ENDBRANCH  14  15
ENDBRANCH  13  14
ENDBRANCH   2  13
TORSDOF 15
ENDMDL
MODEL 8
REMARK VINA RESULT:    -5.764      1.084      2.069
REMARK INTER + INTRA:         -12.285
REMARK INTER:                 -10.333
REMARK INTRA:                  -1.952
REMARK UNBOUND:                -1.467
REMARK SMILES CCCCCCCCC=CCCCCCCCC(=O)[O-]
REMARK SMILES IDX 10 1 9 2 11 3 12 4 13 5 14 6 15 7 16 8 17 9 18 10 19 11
REMARK SMILES IDX 20 12 8 13 7 14 6 15 5 16 4 17 3 18 2 19 1 20
REMARK H PARENT
REMARK Flexibility Score: inf
ROOT
ATOM      1  C   UNL     1      42.403   5.921  29.195  1.00  0.00    -0.031 C 
ATOM      2  C   UNL     1      42.260   7.214  28.845  1.00  0.00    -0.031 C 
ENDROOT
BRANCH   1   3
ATOM      3  C   UNL     1      41.686   4.767  28.536  1.00  0.00     0.027 C 
BRANCH   3   4
ATOM      4  C   UNL     1      42.629   3.868  27.714  1.00  0.00     0.004 C 
BRANCH   4   5
ATOM      5  C   UNL     1      43.852   4.607  27.139  1.00  0.00     0.000 C 
BRANCH   5   6
ATOM      6  C   UNL     1      44.067   4.334  25.640  1.00  0.00     0.000 C 
BRANCH   6   7
ATOM      7  C   UNL     1      44.758   5.504  24.920  1.00  0.00     0.000 C 
BRANCH   7   8
ATOM      8  C   UNL     1      45.696   5.030  23.792  1.00  0.00     0.006 C 
BRANCH   8   9
ATOM      9  C   UNL     1      45.077   5.232  22.401  1.00  0.00     0.053 C 
BRANCH   9  10
ATOM     10  C   UNL     1      46.120   5.240  21.324  1.00  0.00     0.041 C 
ATOM     11  O   UNL     1      46.825   4.215  21.117  1.00  0.00    -0.550 OA
ATOM     12  O   UNL     1      46.336   6.389  20.571  1.00  0.00    -0.550 OA
ENDBRANCH   9  10
ENDBRANCH   8   9
ENDBRANCH   7   8
ENDBRANCH   6   7
ENDBRANCH   5   6
ENDBRANCH   4   5
ENDBRANCH   3   4
ENDBRANCH   1   3
BRANCH   2  13
ATOM     13  C   UNL     1      41.287   7.722  27.808  1.00  0.00     0.027 C 
BRANCH  13  14
ATOM     14  C   UNL     1      41.851   7.520  26.398  1.00  0.00     0.004 C 
BRANCH  14  15
ATOM     15  C   UNL     1      40.897   6.679  25.540  1.00  0.00     0.000 C 
BRANCH  15  16
ATOM     16  C   UNL     1      39.417   6.905  25.893  1.00  0.00     0.000 C 
BRANCH  16  17
ATOM     17  C   UNL     1      38.680   5.616  26.317  1.00  0.00    -0.000 C 
BRANCH  17  18
ATOM     18  C   UNL     1      38.126   5.706  27.749  1.00  0.00    -0.000 C 
BRANCH  18  19
ATOM     19  C   UNL     1      38.030   4.334  28.434  1.00  0.00    -0.003 C 
ATOM     20  C   UNL     1      36.603   3.787  28.465  1.00  0.00     0.004 C 
ENDBRANCH  18  19
ENDBRANCH  17  18
ENDBRANCH  16  17
ENDBRANCH  15  16
ENDBRANCH  14  15
ENDBRANCH  13  14
ENDBRANCH   2  13
TORSDOF 15
ENDMDL
MODEL 9
REMARK VINA RESULT:    -5.648      2.441      3.775
REMARK INTER + INTRA:         -12.068
REMARK INTER:                 -10.127
REMARK INTRA:                  -1.941
REMARK UNBOUND:                -1.467
REMARK SMILES CCCCCCCCC=CCCCCCCCC(=O)[O-]
REMARK SMILES IDX 10 1 9 2 11 3 12 4 13 5 14 6 15 7 16 8 17 9 18 10 19 11
REMARK SMILES IDX 20 12 8 13 7 14 6 15 5 16 4 17 3 18 2 19 1 20
REMARK H PARENT
REMARK Flexibility Score: inf
ROOT
ATOM      1  C   UNL     1      43.620   6.366  24.451  1.00  0.00    -0.031 C 
ATOM      2  C   UNL     1      43.052   5.242  24.929  1.00  0.00    -0.031 C 
ENDROOT
BRANCH   1   3
ATOM      3  C   UNL     1      45.096   6.681  24.517  1.00  0.00     0.027 C 
BRANCH   3   4
ATOM      4  C   UNL     1      45.856   6.244  23.249  1.00  0.00     0.004 C 
BRANCH   4   5
ATOM      5  C   UNL     1      46.484   4.842  23.349  1.00  0.00     0.000 C 
BRANCH   5   6
ATOM      6  C   UNL     1      46.178   3.960  22.125  1.00  0.00     0.000 C 
BRANCH   6   7
ATOM      7  C   UNL     1      44.859   4.344  21.436  1.00  0.00     0.000 C 
BRANCH   7   8
ATOM      8  C   UNL     1      43.695   3.416  21.832  1.00  0.00     0.006 C 
BRANCH   8   9
ATOM      9  C   UNL     1      44.183   2.143  22.539  1.00  0.00     0.053 C 
BRANCH   9  10
ATOM     10  C   UNL     1      44.190   0.962  21.616  1.00  0.00     0.041 C 
ATOM     11  O   UNL     1      43.289   0.836  20.742  1.00  0.00    -0.550 OA
ATOM     12  O   UNL     1      45.173  -0.015  21.739  1.00  0.00    -0.550 OA
ENDBRANCH   9  10
ENDBRANCH   8   9
ENDBRANCH   7   8
ENDBRANCH   6   7
ENDBRANCH   5   6
ENDBRANCH   4   5
ENDBRANCH   3   4
ENDBRANCH   1   3
BRANCH   2  13
ATOM     13  C   UNL     1      43.786   4.166  25.694  1.00  0.00     0.027 C 
BRANCH  13  14
ATOM     14  C   UNL     1      43.859   4.522  27.182  1.00  0.00     0.004 C 
BRANCH  14  15
ATOM     15  C   UNL     1      42.572   4.107  27.910  1.00  0.00     0.000 C 
BRANCH  15  16
ATOM     16  C   UNL     1      41.829   5.298  28.539  1.00  0.00     0.000 C 
BRANCH  16  17
ATOM     17  C   UNL     1      40.461   5.588  27.884  1.00  0.00    -0.000 C 
BRANCH  17  18
ATOM     18  C   UNL     1      39.388   4.568  28.303  1.00  0.00    -0.000 C 
BRANCH  18  19
ATOM     19  C   UNL     1      37.998   4.908  27.743  1.00  0.00    -0.003 C 
ATOM     20  C   UNL     1      36.862   4.371  28.612  1.00  0.00     0.004 C 
ENDBRANCH  18  19
ENDBRANCH  17  18
ENDBRANCH  16  17
ENDBRANCH  15  16
ENDBRANCH  14  15
ENDBRANCH  13  14
ENDBRANCH   2  13
TORSDOF 15
ENDMDL
