MODEL 1
REMARK VINA RESULT:    -3.333      0.000      0.000
REMARK INTER + INTRA:         -13.996
REMARK INTER:                  -8.399
REMARK INTRA:                  -5.597
REMARK UNBOUND:                -5.597
REMARK SMILES CCCCCCCCCCCCCCCCCCCCCCCCCCCC(=O)[O-]
REMARK SMILES IDX 15 1 16 2 17 3 18 4 19 5 20 6 21 7 22 8 23 9 24 10 25 11
REMARK SMILES IDX 26 12 27 13 28 14 29 15 30 16 14 17 13 18 12 19 11 20 10 21
REMARK SMILES IDX 9 22 8 23 7 24 6 25 5 26 4 27 3 28 2 29 1 30
REMARK H PARENT
REMARK Flexibility Score: inf
ROOT
ATOM      1  C   UNL     1      18.208   2.889  39.231  1.00  0.00     0.000 C 
ENDROOT
BRANCH   1   2
ATOM      2  C   UNL     1      17.466   1.690  39.836  1.00  0.00     0.000 C 
BRANCH   2   3
ATOM      3  C   UNL     1      15.977   2.009  40.033  1.00  0.00     0.000 C 
BRANCH   3   4
ATOM      4  C   UNL     1      15.445   3.032  39.014  1.00  0.00     0.000 C 
BRANCH   4   5
ATOM      5  C   UNL     1      14.290   2.528  38.124  1.00  0.00     0.000 C 
BRANCH   5   6
ATOM      6  C   UNL     1      14.151   0.998  38.034  1.00  0.00     0.000 C 
BRANCH   6   7
ATOM      7  C   UNL     1      14.729   0.419  36.730  1.00  0.00     0.000 C 
BRANCH   7   8
ATOM      8  C   UNL     1      16.231   0.105  36.848  1.00  0.00     0.000 C 
BRANCH   8   9
ATOM      9  C   UNL     1      17.090   0.991  35.927  1.00  0.00     0.000 C 
BRANCH   9  10
ATOM     10  C   UNL     1      16.233   1.832  34.957  1.00  0.00     0.000 C 
BRANCH  10  11
ATOM     11  C   UNL     1      16.388   3.351  35.153  1.00  0.00     0.000 C 
BRANCH  11  12
ATOM     12  C   UNL     1      17.723   3.732  35.813  1.00  0.00     0.006 C 
BRANCH  12  13
ATOM     13  C   UNL     1      17.977   5.246  35.783  1.00  0.00     0.053 C 
BRANCH  13  14
ATOM     14  C   UNL     1      16.952   6.007  36.568  1.00  0.00     0.041 C 
ATOM     15  O   UNL     1      16.996   6.021  37.828  1.00  0.00    -0.550 OA
ATOM     16  O   UNL     1      15.959   6.723  35.908  1.00  0.00    -0.550 OA
ENDBRANCH  13  14
ENDBRANCH  12  13
ENDBRANCH  11  12
ENDBRANCH  10  11
ENDBRANCH   9  10
ENDBRANCH   8   9
ENDBRANCH   7   8
ENDBRANCH   6   7
ENDBRANCH   5   6
ENDBRANCH   4   5
ENDBRANCH   3   4
ENDBRANCH   2   3
ENDBRANCH   1   2
BRANCH   1  17
ATOM     17  C   UNL     1      19.676   2.542  38.943  1.00  0.00     0.000 C 
BRANCH  17  18
ATOM     18  C   UNL     1      19.937   1.025  38.906  1.00  0.00     0.000 C 
BRANCH  18  19
ATOM     19  C   UNL     1      20.888   0.499  39.999  1.00  0.00     0.000 C 
BRANCH  19  20
ATOM     20  C   UNL     1      20.281  -0.570  40.928  1.00  0.00     0.000 C 
BRANCH  20  21
ATOM     21  C   UNL     1      19.937  -0.041  42.338  1.00  0.00     0.000 C 
BRANCH  21  22
ATOM     22  C   UNL     1      20.311   1.441  42.514  1.00  0.00    -0.000 C 
BRANCH  22  23
ATOM     23  C   UNL     1      19.158   2.274  43.099  1.00  0.00    -0.000 C 
BRANCH  23  24
ATOM     24  C   UNL     1      17.980   1.403  43.567  1.00  0.00    -0.000 C 
BRANCH  24  25
ATOM     25  C   UNL     1      16.634   2.144  43.521  1.00  0.00    -0.000 C 
BRANCH  25  26
ATOM     26  C   UNL     1      16.752   3.624  43.924  1.00  0.00    -0.000 C 
BRANCH  26  27
ATOM     27  C   UNL     1      16.235   4.569  42.818  1.00  0.00    -0.000 C 
BRANCH  27  28
ATOM     28  C   UNL     1      17.346   5.103  41.898  1.00  0.00    -0.000 C 
BRANCH  28  29
ATOM     29  C   UNL     1      17.021   6.484  41.311  1.00  0.00    -0.003 C 
ATOM     30  C   UNL     1      18.217   7.427  41.429  1.00  0.00     0.004 C 
ENDBRANCH  28  29
ENDBRANCH  27  28
ENDBRANCH  26  27
ENDBRANCH  25  26
ENDBRANCH  24  25
ENDBRANCH  23  24
ENDBRANCH  22  23
ENDBRANCH  21  22
ENDBRANCH  20  21
ENDBRANCH  19  20
ENDBRANCH  18  19
ENDBRANCH  17  18
ENDBRANCH   1  17
TORSDOF 26
ENDMDL
MODEL 2
REMARK VINA RESULT:    -3.275      2.494      5.336
REMARK INTER + INTRA:         -13.849
REMARK INTER:                  -8.579
REMARK INTRA:                  -5.270
REMARK UNBOUND:                -5.597
REMARK SMILES CCCCCCCCCCCCCCCCCCCCCCCCCCCC(=O)[O-]
REMARK SMILES IDX 15 1 16 2 17 3 18 4 19 5 20 6 21 7 22 8 23 9 24 10 25 11
REMARK SMILES IDX 26 12 27 13 28 14 29 15 30 16 14 17 13 18 12 19 11 20 10 21
REMARK SMILES IDX 9 22 8 23 7 24 6 25 5 26 4 27 3 28 2 29 1 30
REMARK H PARENT
REMARK Flexibility Score: inf
ROOT
ATOM      1  C   UNL     1      19.408   1.528  45.260  1.00  0.00     0.000 C 
ENDROOT
BRANCH   1   2
ATOM      2  C   UNL     1      19.824   0.922  43.913  1.00  0.00     0.000 C 
BRANCH   2   3
ATOM      3  C   UNL     1      20.287   2.017  42.940  1.00  0.00     0.000 C 
BRANCH   3   4
ATOM      4  C   UNL     1      19.906   1.719  41.479  1.00  0.00     0.000 C 
BRANCH   4   5
ATOM      5  C   UNL     1      19.398   0.286  41.216  1.00  0.00     0.000 C 
BRANCH   5   6
ATOM      6  C   UNL     1      19.912  -0.363  39.918  1.00  0.00     0.000 C 
BRANCH   6   7
ATOM      7  C   UNL     1      21.214   0.275  39.405  1.00  0.00     0.000 C 
BRANCH   7   8
ATOM      8  C   UNL     1      21.028   0.965  38.042  1.00  0.00     0.000 C 
BRANCH   8   9
ATOM      9  C   UNL     1      19.548   1.045  37.623  1.00  0.00     0.000 C 
BRANCH   9  10
ATOM     10  C   UNL     1      18.927   2.425  37.928  1.00  0.00     0.000 C 
BRANCH  10  11
ATOM     11  C   UNL     1      17.387   2.427  37.911  1.00  0.00     0.000 C 
BRANCH  11  12
ATOM     12  C   UNL     1      16.785   1.095  38.388  1.00  0.00     0.006 C 
BRANCH  12  13
ATOM     13  C   UNL     1      15.372   1.267  38.964  1.00  0.00     0.053 C 
BRANCH  13  14
ATOM     14  C   UNL     1      14.310   1.052  37.929  1.00  0.00     0.041 C 
ATOM     15  O   UNL     1      13.129   1.438  38.142  1.00  0.00    -0.550 OA
ATOM     16  O   UNL     1      14.628   0.448  36.718  1.00  0.00    -0.550 OA
ENDBRANCH  13  14
ENDBRANCH  12  13
ENDBRANCH  11  12
ENDBRANCH  10  11
ENDBRANCH   9  10
ENDBRANCH   8   9
ENDBRANCH   7   8
ENDBRANCH   6   7
ENDBRANCH   5   6
ENDBRANCH   4   5
ENDBRANCH   3   4
ENDBRANCH   2   3
ENDBRANCH   1   2
BRANCH   1  17
ATOM     17  C   UNL     1      19.799   3.011  45.343  1.00  0.00     0.000 C 
BRANCH  17  18
ATOM     18  C   UNL     1      18.710   3.882  45.997  1.00  0.00     0.000 C 
BRANCH  18  19
ATOM     19  C   UNL     1      17.700   3.116  46.874  1.00  0.00     0.000 C 
BRANCH  19  20
ATOM     20  C   UNL     1      16.326   3.795  47.024  1.00  0.00     0.000 C 
BRANCH  20  21
ATOM     21  C   UNL     1      15.153   2.943  46.493  1.00  0.00     0.000 C 
BRANCH  21  22
ATOM     22  C   UNL     1      15.496   1.444  46.440  1.00  0.00    -0.000 C 
BRANCH  22  23
ATOM     23  C   UNL     1      15.041   0.781  45.128  1.00  0.00    -0.000 C 
BRANCH  23  24
ATOM     24  C   UNL     1      16.219   0.454  44.194  1.00  0.00    -0.000 C 
BRANCH  24  25
ATOM     25  C   UNL     1      16.173   1.245  42.877  1.00  0.00    -0.000 C 
BRANCH  25  26
ATOM     26  C   UNL     1      16.654   2.698  43.033  1.00  0.00    -0.000 C 
BRANCH  26  27
ATOM     27  C   UNL     1      16.352   3.547  41.780  1.00  0.00    -0.000 C 
BRANCH  27  28
ATOM     28  C   UNL     1      16.084   5.028  42.092  1.00  0.00    -0.000 C 
BRANCH  28  29
ATOM     29  C   UNL     1      15.925   5.303  43.594  1.00  0.00    -0.003 C 
ATOM     30  C   UNL     1      14.507   5.769  43.921  1.00  0.00     0.004 C 
ENDBRANCH  28  29
ENDBRANCH  27  28
ENDBRANCH  26  27
ENDBRANCH  25  26
ENDBRANCH  24  25
ENDBRANCH  23  24
ENDBRANCH  22  23
ENDBRANCH  21  22
ENDBRANCH  20  21
ENDBRANCH  19  20
ENDBRANCH  18  19
ENDBRANCH  17  18
ENDBRANCH   1  17
TORSDOF 26
ENDMDL
MODEL 3
REMARK VINA RESULT:    -3.262      2.654      5.192
REMARK INTER + INTRA:         -13.818
REMARK INTER:                  -9.168
REMARK INTRA:                  -4.650
REMARK UNBOUND:                -5.597
REMARK SMILES CCCCCCCCCCCCCCCCCCCCCCCCCCCC(=O)[O-]
REMARK SMILES IDX 15 1 16 2 17 3 18 4 19 5 20 6 21 7 22 8 23 9 24 10 25 11
REMARK SMILES IDX 26 12 27 13 28 14 29 15 30 16 14 17 13 18 12 19 11 20 10 21
REMARK SMILES IDX 9 22 8 23 7 24 6 25 5 26 4 27 3 28 2 29 1 30
REMARK H PARENT
REMARK Flexibility Score: inf
ROOT
ATOM      1  C   UNL     1      20.077   1.873  41.331  1.00  0.00     0.000 C 
ENDROOT
BRANCH   1   2
ATOM      2  C   UNL     1      21.264   1.352  40.510  1.00  0.00     0.000 C 
BRANCH   2   3
ATOM      3  C   UNL     1      20.794   0.357  39.438  1.00  0.00     0.000 C 
BRANCH   3   4
ATOM      4  C   UNL     1      21.413  -1.042  39.609  1.00  0.00     0.000 C 
BRANCH   4   5
ATOM      5  C   UNL     1      20.673  -1.968  40.597  1.00  0.00     0.000 C 
BRANCH   5   6
ATOM      6  C   UNL     1      19.143  -2.012  40.434  1.00  0.00     0.000 C 
BRANCH   6   7
ATOM      7  C   UNL     1      18.662  -3.227  39.622  1.00  0.00     0.000 C 
BRANCH   7   8
ATOM      8  C   UNL     1      18.331  -2.859  38.164  1.00  0.00     0.000 C 
BRANCH   8   9
ATOM      9  C   UNL     1      17.830  -1.410  38.024  1.00  0.00     0.000 C 
BRANCH   9  10
ATOM     10  C   UNL     1      18.471  -0.682  36.823  1.00  0.00     0.000 C 
BRANCH  10  11
ATOM     11  C   UNL     1      18.036   0.788  36.686  1.00  0.00     0.000 C 
BRANCH  11  12
ATOM     12  C   UNL     1      17.893   1.233  35.222  1.00  0.00     0.006 C 
BRANCH  12  13
ATOM     13  C   UNL     1      16.425   1.382  34.798  1.00  0.00     0.053 C 
BRANCH  13  14
ATOM     14  C   UNL     1      15.885   0.129  34.177  1.00  0.00     0.041 C 
ATOM     15  O   UNL     1      16.632  -0.603  33.474  1.00  0.00    -0.550 OA
ATOM     16  O   UNL     1      14.564  -0.243  34.394  1.00  0.00    -0.550 OA
ENDBRANCH  13  14
ENDBRANCH  12  13
ENDBRANCH  11  12
ENDBRANCH  10  11
ENDBRANCH   9  10
ENDBRANCH   8   9
ENDBRANCH   7   8
ENDBRANCH   6   7
ENDBRANCH   5   6
ENDBRANCH   4   5
ENDBRANCH   3   4
ENDBRANCH   2   3
ENDBRANCH   1   2
BRANCH   1  17
ATOM     17  C   UNL     1      20.395   1.854  42.834  1.00  0.00     0.000 C 
BRANCH  17  18
ATOM     18  C   UNL     1      19.862   0.596  43.544  1.00  0.00     0.000 C 
BRANCH  18  19
ATOM     19  C   UNL     1      18.423   0.193  43.167  1.00  0.00     0.000 C 
BRANCH  19  20
ATOM     20  C   UNL     1      17.317   0.955  43.923  1.00  0.00     0.000 C 
BRANCH  20  21
ATOM     21  C   UNL     1      16.274   1.614  42.995  1.00  0.00     0.000 C 
BRANCH  21  22
ATOM     22  C   UNL     1      16.757   2.964  42.437  1.00  0.00    -0.000 C 
BRANCH  22  23
ATOM     23  C   UNL     1      16.652   3.041  40.905  1.00  0.00    -0.000 C 
BRANCH  23  24
ATOM     24  C   UNL     1      16.532   1.653  40.252  1.00  0.00    -0.000 C 
BRANCH  24  25
ATOM     25  C   UNL     1      15.538   1.628  39.081  1.00  0.00    -0.000 C 
BRANCH  25  26
ATOM     26  C   UNL     1      14.850   2.985  38.850  1.00  0.00    -0.000 C 
BRANCH  26  27
ATOM     27  C   UNL     1      14.767   3.346  37.352  1.00  0.00    -0.000 C 
BRANCH  27  28
ATOM     28  C   UNL     1      15.794   4.404  36.916  1.00  0.00    -0.000 C 
BRANCH  28  29
ATOM     29  C   UNL     1      15.270   5.321  35.802  1.00  0.00    -0.003 C 
ATOM     30  C   UNL     1      16.377   5.668  34.809  1.00  0.00     0.004 C 
ENDBRANCH  28  29
ENDBRANCH  27  28
ENDBRANCH  26  27
ENDBRANCH  25  26
ENDBRANCH  24  25
ENDBRANCH  23  24
ENDBRANCH  22  23
ENDBRANCH  21  22
ENDBRANCH  20  21
ENDBRANCH  19  20
ENDBRANCH  18  19
ENDBRANCH  17  18
ENDBRANCH   1  17
TORSDOF 26
ENDMDL
MODEL 4
REMARK VINA RESULT:    -3.236      3.182      7.309
REMARK INTER + INTRA:         -13.752
REMARK INTER:                  -8.183
REMARK INTRA:                  -5.569
REMARK UNBOUND:                -5.597
REMARK SMILES CCCCCCCCCCCCCCCCCCCCCCCCCCCC(=O)[O-]
REMARK SMILES IDX 15 1 16 2 17 3 18 4 19 5 20 6 21 7 22 8 23 9 24 10 25 11
REMARK SMILES IDX 26 12 27 13 28 14 29 15 30 16 14 17 13 18 12 19 11 20 10 21
REMARK SMILES IDX 9 22 8 23 7 24 6 25 5 26 4 27 3 28 2 29 1 30
REMARK H PARENT
REMARK Flexibility Score: inf
ROOT
ATOM      1  C   UNL     1      17.328   1.753  39.238  1.00  0.00     0.000 C 
ENDROOT
BRANCH   1   2
ATOM      2  C   UNL     1      17.767   3.125  39.767  1.00  0.00     0.000 C 
BRANCH   2   3
ATOM      3  C   UNL     1      18.891   3.712  38.900  1.00  0.00     0.000 C 
BRANCH   3   4
ATOM      4  C   UNL     1      19.166   2.881  37.634  1.00  0.00     0.000 C 
BRANCH   4   5
ATOM      5  C   UNL     1      20.604   2.337  37.509  1.00  0.00     0.000 C 
BRANCH   5   6
ATOM      6  C   UNL     1      21.302   2.014  38.842  1.00  0.00     0.000 C 
BRANCH   6   7
ATOM      7  C   UNL     1      21.268   0.515  39.188  1.00  0.00     0.000 C 
BRANCH   7   8
ATOM      8  C   UNL     1      20.785   0.259  40.627  1.00  0.00     0.000 C 
BRANCH   8   9
ATOM      9  C   UNL     1      20.769   1.543  41.477  1.00  0.00     0.000 C 
BRANCH   9  10
ATOM     10  C   UNL     1      19.985   1.364  42.794  1.00  0.00     0.000 C 
BRANCH  10  11
ATOM     11  C   UNL     1      18.573   0.783  42.599  1.00  0.00     0.000 C 
BRANCH  11  12
ATOM     12  C   UNL     1      17.474   1.677  43.196  1.00  0.00     0.006 C 
BRANCH  12  13
ATOM     13  C   UNL     1      18.036   2.979  43.784  1.00  0.00     0.053 C 
BRANCH  13  14
ATOM     14  C   UNL     1      17.904   3.029  45.276  1.00  0.00     0.041 C 
ATOM     15  O   UNL     1      18.876   3.398  45.988  1.00  0.00    -0.550 OA
ATOM     16  O   UNL     1      16.698   2.692  45.881  1.00  0.00    -0.550 OA
ENDBRANCH  13  14
ENDBRANCH  12  13
ENDBRANCH  11  12
ENDBRANCH  10  11
ENDBRANCH   9  10
ENDBRANCH   8   9
ENDBRANCH   7   8
ENDBRANCH   6   7
ENDBRANCH   5   6
ENDBRANCH   4   5
ENDBRANCH   3   4
ENDBRANCH   2   3
ENDBRANCH   1   2
BRANCH   1  17
ATOM     17  C   UNL     1      15.816   1.550  39.416  1.00  0.00     0.000 C 
BRANCH  17  18
ATOM     18  C   UNL     1      14.995   2.097  38.233  1.00  0.00     0.000 C 
BRANCH  18  19
ATOM     19  C   UNL     1      15.696   2.028  36.863  1.00  0.00     0.000 C 
BRANCH  19  20
ATOM     20  C   UNL     1      15.236   0.871  35.956  1.00  0.00     0.000 C 
BRANCH  20  21
ATOM     21  C   UNL     1      16.172  -0.357  35.996  1.00  0.00     0.000 C 
BRANCH  21  22
ATOM     22  C   UNL     1      17.656   0.036  35.889  1.00  0.00    -0.000 C 
BRANCH  22  23
ATOM     23  C   UNL     1      18.565  -0.861  36.746  1.00  0.00    -0.000 C 
BRANCH  23  24
ATOM     24  C   UNL     1      17.794  -1.588  37.861  1.00  0.00    -0.000 C 
BRANCH  24  25
ATOM     25  C   UNL     1      18.705  -2.064  39.004  1.00  0.00    -0.000 C 
BRANCH  25  26
ATOM     26  C   UNL     1      18.572  -3.571  39.287  1.00  0.00    -0.000 C 
BRANCH  26  27
ATOM     27  C   UNL     1      18.609  -3.882  40.799  1.00  0.00    -0.000 C 
BRANCH  27  28
ATOM     28  C   UNL     1      19.301  -2.792  41.633  1.00  0.00    -0.000 C 
BRANCH  28  29
ATOM     29  C   UNL     1      18.990  -2.901  43.133  1.00  0.00    -0.003 C 
ATOM     30  C   UNL     1      20.110  -2.289  43.973  1.00  0.00     0.004 C 
ENDBRANCH  28  29
ENDBRANCH  27  28
ENDBRANCH  26  27
ENDBRANCH  25  26
ENDBRANCH  24  25
ENDBRANCH  23  24
ENDBRANCH  22  23
ENDBRANCH  21  22
ENDBRANCH  20  21
ENDBRANCH  19  20
ENDBRANCH  18  19
ENDBRANCH  17  18
ENDBRANCH   1  17
TORSDOF 26
ENDMDL
MODEL 5
REMARK VINA RESULT:    -3.225      2.974      7.255
REMARK INTER + INTRA:         -13.723
REMARK INTER:                  -8.725
REMARK INTRA:                  -4.998
REMARK UNBOUND:                -5.597
REMARK SMILES CCCCCCCCCCCCCCCCCCCCCCCCCCCC(=O)[O-]
REMARK SMILES IDX 15 1 16 2 17 3 18 4 19 5 20 6 21 7 22 8 23 9 24 10 25 11
REMARK SMILES IDX 26 12 27 13 28 14 29 15 30 16 14 17 13 18 12 19 11 20 10 21
REMARK SMILES IDX 9 22 8 23 7 24 6 25 5 26 4 27 3 28 2 29 1 30
REMARK H PARENT
REMARK Flexibility Score: inf
ROOT
ATOM      1  C   UNL     1      18.155   0.266  38.910  1.00  0.00     0.000 C 
ENDROOT
BRANCH   1   2
ATOM      2  C   UNL     1      17.930  -1.155  38.375  1.00  0.00     0.000 C 
BRANCH   2   3
ATOM      3  C   UNL     1      18.925  -2.141  39.006  1.00  0.00     0.000 C 
BRANCH   3   4
ATOM      4  C   UNL     1      19.642  -1.561  40.238  1.00  0.00     0.000 C 
BRANCH   4   5
ATOM      5  C   UNL     1      20.006  -2.591  41.328  1.00  0.00     0.000 C 
BRANCH   5   6
ATOM      6  C   UNL     1      20.010  -2.048  42.768  1.00  0.00     0.000 C 
BRANCH   6   7
ATOM      7  C   UNL     1      18.598  -1.744  43.298  1.00  0.00     0.000 C 
BRANCH   7   8
ATOM      8  C   UNL     1      18.339  -0.233  43.434  1.00  0.00     0.000 C 
BRANCH   8   9
ATOM      9  C   UNL     1      19.639   0.571  43.622  1.00  0.00     0.000 C 
BRANCH   9  10
ATOM     10  C   UNL     1      19.870   1.587  42.483  1.00  0.00     0.000 C 
BRANCH  10  11
ATOM     11  C   UNL     1      18.570   2.172  41.904  1.00  0.00     0.000 C 
BRANCH  11  12
ATOM     12  C   UNL     1      18.033   3.356  42.724  1.00  0.00     0.006 C 
BRANCH  12  13
ATOM     13  C   UNL     1      16.619   3.097  43.266  1.00  0.00     0.053 C 
BRANCH  13  14
ATOM     14  C   UNL     1      16.579   3.098  44.764  1.00  0.00     0.041 C 
ATOM     15  O   UNL     1      17.612   2.810  45.427  1.00  0.00    -0.550 OA
ATOM     16  O   UNL     1      15.408   3.440  45.429  1.00  0.00    -0.550 OA
ENDBRANCH  13  14
ENDBRANCH  12  13
ENDBRANCH  11  12
ENDBRANCH  10  11
ENDBRANCH   9  10
ENDBRANCH   8   9
ENDBRANCH   7   8
ENDBRANCH   6   7
ENDBRANCH   5   6
ENDBRANCH   4   5
ENDBRANCH   3   4
ENDBRANCH   2   3
ENDBRANCH   1   2
BRANCH   1  17
ATOM     17  C   UNL     1      18.674   1.196  37.803  1.00  0.00     0.000 C 
BRANCH  17  18
ATOM     18  C   UNL     1      19.706   2.219  38.315  1.00  0.00     0.000 C 
BRANCH  18  19
ATOM     19  C   UNL     1      19.263   3.692  38.231  1.00  0.00     0.000 C 
BRANCH  19  20
ATOM     20  C   UNL     1      17.751   3.904  38.024  1.00  0.00     0.000 C 
BRANCH  20  21
ATOM     21  C   UNL     1      17.015   4.389  39.293  1.00  0.00     0.000 C 
BRANCH  21  22
ATOM     22  C   UNL     1      15.854   3.459  39.687  1.00  0.00    -0.000 C 
BRANCH  22  23
ATOM     23  C   UNL     1      15.202   2.782  38.470  1.00  0.00    -0.000 C 
BRANCH  23  24
ATOM     24  C   UNL     1      14.650   1.384  38.800  1.00  0.00    -0.000 C 
BRANCH  24  25
ATOM     25  C   UNL     1      14.305   0.567  37.545  1.00  0.00    -0.000 C 
BRANCH  25  26
ATOM     26  C   UNL     1      15.271   0.830  36.376  1.00  0.00    -0.000 C 
BRANCH  26  27
ATOM     27  C   UNL     1      15.564  -0.452  35.567  1.00  0.00    -0.000 C 
BRANCH  27  28
ATOM     28  C   UNL     1      15.502  -0.245  34.045  1.00  0.00    -0.000 C 
BRANCH  28  29
ATOM     29  C   UNL     1      16.885  -0.289  33.380  1.00  0.00    -0.003 C 
ATOM     30  C   UNL     1      17.961  -0.715  34.376  1.00  0.00     0.004 C 
ENDBRANCH  28  29
ENDBRANCH  27  28
ENDBRANCH  26  27
ENDBRANCH  25  26
ENDBRANCH  24  25
ENDBRANCH  23  24
ENDBRANCH  22  23
ENDBRANCH  21  22
ENDBRANCH  20  21
ENDBRANCH  19  20
ENDBRANCH  18  19
ENDBRANCH  17  18
ENDBRANCH   1  17
TORSDOF 26
ENDMDL
MODEL 6
REMARK VINA RESULT:    -3.221      2.057      5.522
REMARK INTER + INTRA:         -13.715
REMARK INTER:                  -8.062
REMARK INTRA:                  -5.653
REMARK UNBOUND:                -5.597
REMARK SMILES CCCCCCCCCCCCCCCCCCCCCCCCCCCC(=O)[O-]
REMARK SMILES IDX 15 1 16 2 17 3 18 4 19 5 20 6 21 7 22 8 23 9 24 10 25 11
REMARK SMILES IDX 26 12 27 13 28 14 29 15 30 16 14 17 13 18 12 19 11 20 10 21
REMARK SMILES IDX 9 22 8 23 7 24 6 25 5 26 4 27 3 28 2 29 1 30
REMARK H PARENT
REMARK Flexibility Score: inf
ROOT
ATOM      1  C   UNL     1      16.719   3.403  34.248  1.00  0.00     0.000 C 
ENDROOT
BRANCH   1   2
ATOM      2  C   UNL     1      15.938   4.672  34.617  1.00  0.00     0.000 C 
BRANCH   2   3
ATOM      3  C   UNL     1      15.463   4.617  36.077  1.00  0.00     0.000 C 
BRANCH   3   4
ATOM      4  C   UNL     1      15.486   3.193  36.660  1.00  0.00     0.000 C 
BRANCH   4   5
ATOM      5  C   UNL     1      14.457   2.927  37.778  1.00  0.00     0.000 C 
BRANCH   5   6
ATOM      6  C   UNL     1      14.685   1.637  38.586  1.00  0.00     0.000 C 
BRANCH   6   7
ATOM      7  C   UNL     1      16.068   1.012  38.338  1.00  0.00     0.000 C 
BRANCH   7   8
ATOM      8  C   UNL     1      17.055   1.307  39.481  1.00  0.00     0.000 C 
BRANCH   8   9
ATOM      9  C   UNL     1      16.372   1.974  40.689  1.00  0.00     0.000 C 
BRANCH   9  10
ATOM     10  C   UNL     1      16.864   3.419  40.916  1.00  0.00     0.000 C 
BRANCH  10  11
ATOM     11  C   UNL     1      17.978   3.853  39.947  1.00  0.00     0.000 C 
BRANCH  11  12
ATOM     12  C   UNL     1      17.554   5.013  39.032  1.00  0.00     0.006 C 
BRANCH  12  13
ATOM     13  C   UNL     1      18.608   5.327  37.961  1.00  0.00     0.053 C 
BRANCH  13  14
ATOM     14  C   UNL     1      19.719   6.180  38.493  1.00  0.00     0.041 C 
ATOM     15  O   UNL     1      20.892   6.043  38.053  1.00  0.00    -0.550 OA
ATOM     16  O   UNL     1      19.455   7.145  39.458  1.00  0.00    -0.550 OA
ENDBRANCH  13  14
ENDBRANCH  12  13
ENDBRANCH  11  12
ENDBRANCH  10  11
ENDBRANCH   9  10
ENDBRANCH   8   9
ENDBRANCH   7   8
ENDBRANCH   6   7
ENDBRANCH   5   6
ENDBRANCH   4   5
ENDBRANCH   3   4
ENDBRANCH   2   3
ENDBRANCH   1   2
BRANCH   1  17
ATOM     17  C   UNL     1      16.186   2.787  32.946  1.00  0.00     0.000 C 
BRANCH  17  18
ATOM     18  C   UNL     1      16.284   1.250  32.926  1.00  0.00     0.000 C 
BRANCH  18  19
ATOM     19  C   UNL     1      15.586   0.536  34.101  1.00  0.00     0.000 C 
BRANCH  19  20
ATOM     20  C   UNL     1      16.499  -0.379  34.938  1.00  0.00     0.000 C 
BRANCH  20  21
ATOM     21  C   UNL     1      18.005  -0.086  34.755  1.00  0.00     0.000 C 
BRANCH  21  22
ATOM     22  C   UNL     1      18.724   0.138  36.096  1.00  0.00    -0.000 C 
BRANCH  22  23
ATOM     23  C   UNL     1      19.091   1.613  36.330  1.00  0.00    -0.000 C 
BRANCH  23  24
ATOM     24  C   UNL     1      20.551   1.792  36.781  1.00  0.00    -0.000 C 
BRANCH  24  25
ATOM     25  C   UNL     1      20.673   2.206  38.256  1.00  0.00    -0.000 C 
BRANCH  25  26
ATOM     26  C   UNL     1      20.853   1.006  39.201  1.00  0.00    -0.000 C 
BRANCH  26  27
ATOM     27  C   UNL     1      20.649   1.398  40.680  1.00  0.00    -0.000 C 
BRANCH  27  28
ATOM     28  C   UNL     1      19.928   0.321  41.508  1.00  0.00    -0.000 C 
BRANCH  28  29
ATOM     29  C   UNL     1      19.846   0.670  43.000  1.00  0.00    -0.003 C 
ATOM     30  C   UNL     1      19.972   2.176  43.220  1.00  0.00     0.004 C 
ENDBRANCH  28  29
ENDBRANCH  27  28
ENDBRANCH  26  27
ENDBRANCH  25  26
ENDBRANCH  24  25
ENDBRANCH  23  24
ENDBRANCH  22  23
ENDBRANCH  21  22
ENDBRANCH  20  21
ENDBRANCH  19  20
ENDBRANCH  18  19
ENDBRANCH  17  18
ENDBRANCH   1  17
TORSDOF 26
ENDMDL
MODEL 7
REMARK VINA RESULT:    -3.211      1.505      4.996
REMARK INTER + INTRA:         -13.688
REMARK INTER:                  -8.310
REMARK INTRA:                  -5.378
REMARK UNBOUND:                -5.597
REMARK SMILES CCCCCCCCCCCCCCCCCCCCCCCCCCCC(=O)[O-]
REMARK SMILES IDX 15 1 16 2 17 3 18 4 19 5 20 6 21 7 22 8 23 9 24 10 25 11
REMARK SMILES IDX 26 12 27 13 28 14 29 15 30 16 14 17 13 18 12 19 11 20 10 21
REMARK SMILES IDX 9 22 8 23 7 24 6 25 5 26 4 27 3 28 2 29 1 30
REMARK H PARENT
REMARK Flexibility Score: inf
ROOT
ATOM      1  C   UNL     1      17.112   4.393  43.384  1.00  0.00     0.000 C 
ENDROOT
BRANCH   1   2
ATOM      2  C   UNL     1      16.145   5.078  42.409  1.00  0.00     0.000 C 
BRANCH   2   3
ATOM      3  C   UNL     1      16.905   5.679  41.216  1.00  0.00     0.000 C 
BRANCH   3   4
ATOM      4  C   UNL     1      18.153   4.865  40.832  1.00  0.00     0.000 C 
BRANCH   4   5
ATOM      5  C   UNL     1      17.965   3.904  39.639  1.00  0.00     0.000 C 
BRANCH   5   6
ATOM      6  C   UNL     1      18.460   2.465  39.872  1.00  0.00     0.000 C 
BRANCH   6   7
ATOM      7  C   UNL     1      17.361   1.534  40.414  1.00  0.00     0.000 C 
BRANCH   7   8
ATOM      8  C   UNL     1      15.952   1.989  39.994  1.00  0.00     0.000 C 
BRANCH   8   9
ATOM      9  C   UNL     1      15.355   1.101  38.888  1.00  0.00     0.000 C 
BRANCH   9  10
ATOM     10  C   UNL     1      14.659   1.926  37.785  1.00  0.00     0.000 C 
BRANCH  10  11
ATOM     11  C   UNL     1      15.482   2.045  36.489  1.00  0.00     0.000 C 
BRANCH  11  12
ATOM     12  C   UNL     1      16.345   3.317  36.447  1.00  0.00     0.006 C 
BRANCH  12  13
ATOM     13  C   UNL     1      15.514   4.593  36.647  1.00  0.00     0.053 C 
BRANCH  13  14
ATOM     14  C   UNL     1      15.646   5.540  35.493  1.00  0.00     0.041 C 
ATOM     15  O   UNL     1      15.392   5.153  34.321  1.00  0.00    -0.550 OA
ATOM     16  O   UNL     1      16.026   6.859  35.714  1.00  0.00    -0.550 OA
ENDBRANCH  13  14
ENDBRANCH  12  13
ENDBRANCH  11  12
ENDBRANCH  10  11
ENDBRANCH   9  10
ENDBRANCH   8   9
ENDBRANCH   7   8
ENDBRANCH   6   7
ENDBRANCH   5   6
ENDBRANCH   4   5
ENDBRANCH   3   4
ENDBRANCH   2   3
ENDBRANCH   1   2
BRANCH   1  17
ATOM     17  C   UNL     1      16.625   2.981  43.743  1.00  0.00     0.000 C 
BRANCH  17  18
ATOM     18  C   UNL     1      17.775   2.029  44.122  1.00  0.00     0.000 C 
BRANCH  18  19
ATOM     19  C   UNL     1      19.157   2.419  43.563  1.00  0.00     0.000 C 
BRANCH  19  20
ATOM     20  C   UNL     1      20.033   1.234  43.113  1.00  0.00     0.000 C 
BRANCH  20  21
ATOM     21  C   UNL     1      19.649  -0.106  43.777  1.00  0.00     0.000 C 
BRANCH  21  22
ATOM     22  C   UNL     1      19.676  -1.280  42.784  1.00  0.00    -0.000 C 
BRANCH  22  23
ATOM     23  C   UNL     1      19.809  -0.815  41.324  1.00  0.00    -0.000 C 
BRANCH  23  24
ATOM     24  C   UNL     1      20.039  -1.985  40.352  1.00  0.00    -0.000 C 
BRANCH  24  25
ATOM     25  C   UNL     1      19.693  -1.629  38.897  1.00  0.00    -0.000 C 
BRANCH  25  26
ATOM     26  C   UNL     1      18.267  -2.049  38.501  1.00  0.00    -0.000 C 
BRANCH  26  27
ATOM     27  C   UNL     1      17.724  -1.217  37.320  1.00  0.00    -0.000 C 
BRANCH  27  28
ATOM     28  C   UNL     1      18.511   0.080  37.068  1.00  0.00    -0.000 C 
BRANCH  28  29
ATOM     29  C   UNL     1      18.903   0.264  35.595  1.00  0.00    -0.003 C 
ATOM     30  C   UNL     1      17.804  -0.248  34.666  1.00  0.00     0.004 C 
ENDBRANCH  28  29
ENDBRANCH  27  28
ENDBRANCH  26  27
ENDBRANCH  25  26
ENDBRANCH  24  25
ENDBRANCH  23  24
ENDBRANCH  22  23
ENDBRANCH  21  22
ENDBRANCH  20  21
ENDBRANCH  19  20
ENDBRANCH  18  19
ENDBRANCH  17  18
ENDBRANCH   1  17
TORSDOF 26
ENDMDL
MODEL 8
REMARK VINA RESULT:    -3.182      3.716      7.746
REMARK INTER + INTRA:         -13.616
REMARK INTER:                  -8.979
REMARK INTRA:                  -4.637
REMARK UNBOUND:                -5.597
REMARK SMILES CCCCCCCCCCCCCCCCCCCCCCCCCCCC(=O)[O-]
REMARK SMILES IDX 15 1 16 2 17 3 18 4 19 5 20 6 21 7 22 8 23 9 24 10 25 11
REMARK SMILES IDX 26 12 27 13 28 14 29 15 30 16 14 17 13 18 12 19 11 20 10 21
REMARK SMILES IDX 9 22 8 23 7 24 6 25 5 26 4 27 3 28 2 29 1 30
REMARK H PARENT
REMARK Flexibility Score: inf
ROOT
ATOM      1  C   UNL     1      19.685  -3.172  40.512  1.00  0.00     0.000 C 
ENDROOT
BRANCH   1   2
ATOM      2  C   UNL     1      20.106  -4.095  41.663  1.00  0.00     0.000 C 
BRANCH   2   3
ATOM      3  C   UNL     1      21.499  -3.716  42.187  1.00  0.00     0.000 C 
BRANCH   3   4
ATOM      4  C   UNL     1      21.511  -3.430  43.699  1.00  0.00     0.000 C 
BRANCH   4   5
ATOM      5  C   UNL     1      20.172  -2.931  44.281  1.00  0.00     0.000 C 
BRANCH   5   6
ATOM      6  C   UNL     1      19.907  -1.424  44.117  1.00  0.00     0.000 C 
BRANCH   6   7
ATOM      7  C   UNL     1      18.572  -1.124  43.414  1.00  0.00     0.000 C 
BRANCH   7   8
ATOM      8  C   UNL     1      18.668   0.093  42.476  1.00  0.00     0.000 C 
BRANCH   8   9
ATOM      9  C   UNL     1      20.051   0.767  42.529  1.00  0.00     0.000 C 
BRANCH   9  10
ATOM     10  C   UNL     1      19.981   2.207  43.080  1.00  0.00     0.000 C 
BRANCH  10  11
ATOM     11  C   UNL     1      19.778   2.277  44.604  1.00  0.00     0.000 C 
BRANCH  11  12
ATOM     12  C   UNL     1      18.355   2.706  44.996  1.00  0.00     0.006 C 
BRANCH  12  13
ATOM     13  C   UNL     1      18.350   3.764  46.109  1.00  0.00     0.053 C 
BRANCH  13  14
ATOM     14  C   UNL     1      17.492   3.360  47.269  1.00  0.00     0.041 C 
ATOM     15  O   UNL     1      17.161   4.210  48.141  1.00  0.00    -0.550 OA
ATOM     16  O   UNL     1      17.035   2.052  47.377  1.00  0.00    -0.550 OA
ENDBRANCH  13  14
ENDBRANCH  12  13
ENDBRANCH  11  12
ENDBRANCH  10  11
ENDBRANCH   9  10
ENDBRANCH   8   9
ENDBRANCH   7   8
ENDBRANCH   6   7
ENDBRANCH   5   6
ENDBRANCH   4   5
ENDBRANCH   3   4
ENDBRANCH   2   3
ENDBRANCH   1   2
BRANCH   1  17
ATOM     17  C   UNL     1      20.815  -2.199  40.143  1.00  0.00     0.000 C 
BRANCH  17  18
ATOM     18  C   UNL     1      20.326  -1.002  39.306  1.00  0.00     0.000 C 
BRANCH  18  19
ATOM     19  C   UNL     1      18.861  -1.088  38.837  1.00  0.00     0.000 C 
BRANCH  19  20
ATOM     20  C   UNL     1      18.100   0.252  38.836  1.00  0.00     0.000 C 
BRANCH  20  21
ATOM     21  C   UNL     1      19.021   1.486  38.960  1.00  0.00     0.000 C 
BRANCH  21  22
ATOM     22  C   UNL     1      18.314   2.678  39.627  1.00  0.00    -0.000 C 
BRANCH  22  23
ATOM     23  C   UNL     1      16.939   2.302  40.204  1.00  0.00    -0.000 C 
BRANCH  23  24
ATOM     24  C   UNL     1      15.861   3.352  39.890  1.00  0.00    -0.000 C 
BRANCH  24  25
ATOM     25  C   UNL     1      14.902   2.908  38.774  1.00  0.00    -0.000 C 
BRANCH  25  26
ATOM     26  C   UNL     1      14.770   1.378  38.672  1.00  0.00    -0.000 C 
BRANCH  26  27
ATOM     27  C   UNL     1      14.380   0.923  37.250  1.00  0.00    -0.000 C 
BRANCH  27  28
ATOM     28  C   UNL     1      15.549   0.956  36.252  1.00  0.00    -0.000 C 
BRANCH  28  29
ATOM     29  C   UNL     1      16.049  -0.445  35.872  1.00  0.00    -0.003 C 
ATOM     30  C   UNL     1      17.350  -0.367  35.074  1.00  0.00     0.004 C 
ENDBRANCH  28  29
ENDBRANCH  27  28
ENDBRANCH  26  27
ENDBRANCH  25  26
ENDBRANCH  24  25
ENDBRANCH  23  24
ENDBRANCH  22  23
ENDBRANCH  21  22
ENDBRANCH  20  21
ENDBRANCH  19  20
ENDBRANCH  18  19
ENDBRANCH  17  18
ENDBRANCH   1  17
TORSDOF 26
ENDMDL
MODEL 9
REMARK VINA RESULT:    -3.174      2.192      5.239
REMARK INTER + INTRA:         -13.596
REMARK INTER:                  -7.868
REMARK INTRA:                  -5.728
REMARK UNBOUND:                -5.597
REMARK SMILES CCCCCCCCCCCCCCCCCCCCCCCCCCCC(=O)[O-]
REMARK SMILES IDX 15 1 16 2 17 3 18 4 19 5 20 6 21 7 22 8 23 9 24 10 25 11
REMARK SMILES IDX 26 12 27 13 28 14 29 15 30 16 14 17 13 18 12 19 11 20 10 21
REMARK SMILES IDX 9 22 8 23 7 24 6 25 5 26 4 27 3 28 2 29 1 30
REMARK H PARENT
REMARK Flexibility Score: inf
ROOT
ATOM      1  C   UNL     1      15.865   4.873  41.704  1.00  0.00     0.000 C 
ENDROOT
BRANCH   1   2
ATOM      2  C   UNL     1      15.044   5.714  42.690  1.00  0.00     0.000 C 
BRANCH   2   3
ATOM      3  C   UNL     1      15.964   6.473  43.659  1.00  0.00     0.000 C 
BRANCH   3   4
ATOM      4  C   UNL     1      15.824   8.001  43.542  1.00  0.00     0.000 C 
BRANCH   4   5
ATOM      5  C   UNL     1      15.096   8.496  42.274  1.00  0.00     0.000 C 
BRANCH   5   6
ATOM      6  C   UNL     1      15.984   9.226  41.251  1.00  0.00     0.000 C 
BRANCH   6   7
ATOM      7  C   UNL     1      17.216   8.405  40.834  1.00  0.00     0.000 C 
BRANCH   7   8
ATOM      8  C   UNL     1      17.386   8.344  39.305  1.00  0.00     0.000 C 
BRANCH   8   9
ATOM      9  C   UNL     1      17.383   6.900  38.772  1.00  0.00     0.000 C 
BRANCH   9  10
ATOM     10  C   UNL     1      18.781   6.247  38.838  1.00  0.00     0.000 C 
BRANCH  10  11
ATOM     11  C   UNL     1      18.838   4.844  38.209  1.00  0.00     0.000 C 
BRANCH  11  12
ATOM     12  C   UNL     1      17.533   4.457  37.496  1.00  0.00     0.006 C 
BRANCH  12  13
ATOM     13  C   UNL     1      17.041   3.059  37.897  1.00  0.00     0.053 C 
BRANCH  13  14
ATOM     14  C   UNL     1      15.547   2.984  37.973  1.00  0.00     0.041 C 
ATOM     15  O   UNL     1      14.836   3.808  37.336  1.00  0.00    -0.550 OA
ATOM     16  O   UNL     1      14.936   1.990  38.729  1.00  0.00    -0.550 OA
ENDBRANCH  13  14
ENDBRANCH  12  13
ENDBRANCH  11  12
ENDBRANCH  10  11
ENDBRANCH   9  10
ENDBRANCH   8   9
ENDBRANCH   7   8
ENDBRANCH   6   7
ENDBRANCH   5   6
ENDBRANCH   4   5
ENDBRANCH   3   4
ENDBRANCH   2   3
ENDBRANCH   1   2
BRANCH   1  17
ATOM     17  C   UNL     1      17.369   4.992  41.994  1.00  0.00     0.000 C 
BRANCH  17  18
ATOM     18  C   UNL     1      18.156   3.725  41.609  1.00  0.00     0.000 C 
BRANCH  18  19
ATOM     19  C   UNL     1      17.297   2.462  41.396  1.00  0.00     0.000 C 
BRANCH  19  20
ATOM     20  C   UNL     1      18.095   1.150  41.267  1.00  0.00     0.000 C 
BRANCH  20  21
ATOM     21  C   UNL     1      19.472   1.193  41.964  1.00  0.00     0.000 C 
BRANCH  21  22
ATOM     22  C   UNL     1      19.612   0.113  43.050  1.00  0.00    -0.000 C 
BRANCH  22  23
ATOM     23  C   UNL     1      19.575   0.699  44.472  1.00  0.00    -0.000 C 
BRANCH  23  24
ATOM     24  C   UNL     1      19.790   2.222  44.487  1.00  0.00    -0.000 C 
BRANCH  24  25
ATOM     25  C   UNL     1      19.189   2.898  45.730  1.00  0.00    -0.000 C 
BRANCH  25  26
ATOM     26  C   UNL     1      18.137   3.965  45.381  1.00  0.00    -0.000 C 
BRANCH  26  27
ATOM     27  C   UNL     1      16.708   3.511  45.748  1.00  0.00    -0.000 C 
BRANCH  27  28
ATOM     28  C   UNL     1      16.063   2.596  44.693  1.00  0.00    -0.000 C 
BRANCH  28  29
ATOM     29  C   UNL     1      15.613   1.247  45.270  1.00  0.00    -0.003 C 
ATOM     30  C   UNL     1      15.971   0.099  44.328  1.00  0.00     0.004 C 
ENDBRANCH  28  29
ENDBRANCH  27  28
ENDBRANCH  26  27
ENDBRANCH  25  26
ENDBRANCH  24  25
ENDBRANCH  23  24
ENDBRANCH  22  23
ENDBRANCH  21  22
ENDBRANCH  20  21
ENDBRANCH  19  20
ENDBRANCH  18  19
ENDBRANCH  17  18
ENDBRANCH   1  17
TORSDOF 26
ENDMDL
