MODEL 1
REMARK VINA RESULT:    -3.285      0.000      0.000
REMARK INTER + INTRA:          -3.888
REMARK INTER:                  -3.861
REMARK INTRA:                  -0.027
REMARK UNBOUND:                -0.027
REMARK SMILES O=C([O-])CCC(=O)[O-]
REMARK SMILES IDX 4 1 2 2 1 3 3 4 5 5 6 6 7 7 8 8
REMARK H PARENT
REMARK Flexibility Score: inf
ROOT
ATOM      1  C   UNL     1      74.340  -8.498 -24.335  1.00  0.00     0.059 C 
ENDROOT
BRANCH   1   2
ATOM      2  C   UNL     1      73.252  -8.662 -23.320  1.00  0.00     0.042 C 
ATOM      3  O   UNL     1      72.326  -7.813 -23.240  1.00  0.00    -0.550 OA
ATOM      4  O   UNL     1      73.289  -9.728 -22.430  1.00  0.00    -0.550 OA
ENDBRANCH   1   2
BRANCH   1   5
ATOM      5  C   UNL     1      73.753  -8.457 -25.747  1.00  0.00     0.059 C 
BRANCH   5   6
ATOM      6  C   UNL     1      74.791  -8.835 -26.755  1.00  0.00     0.042 C 
ATOM      7  O   UNL     1      75.726  -8.038 -27.032  1.00  0.00    -0.550 OA
ATOM      8  O   UNL     1      74.699 -10.047 -27.426  1.00  0.00    -0.550 OA
ENDBRANCH   5   6
ENDBRANCH   1   5
TORSDOF 3
ENDMDL
MODEL 2
REMARK VINA RESULT:    -3.283      0.171      1.138
REMARK INTER + INTRA:          -3.885
REMARK INTER:                  -3.858
REMARK INTRA:                  -0.027
REMARK UNBOUND:                -0.027
REMARK SMILES O=C([O-])CCC(=O)[O-]
REMARK SMILES IDX 4 1 2 2 1 3 3 4 5 5 6 6 7 7 8 8
REMARK H PARENT
REMARK Flexibility Score: inf
ROOT
ATOM      1  C   UNL     1      74.337  -8.484 -24.296  1.00  0.00     0.059 C 
ENDROOT
BRANCH   1   2
ATOM      2  C   UNL     1      73.247  -8.664 -23.287  1.00  0.00     0.042 C 
ATOM      3  O   UNL     1      72.319  -7.819 -23.198  1.00  0.00    -0.550 OA
ATOM      4  O   UNL     1      73.285  -9.741 -22.409  1.00  0.00    -0.550 OA
ENDBRANCH   1   2
BRANCH   1   5
ATOM      5  C   UNL     1      73.754  -8.440 -25.710  1.00  0.00     0.059 C 
BRANCH   5   6
ATOM      6  C   UNL     1      74.787  -8.845 -26.714  1.00  0.00     0.042 C 
ATOM      7  O   UNL     1      74.580  -9.826 -27.476  1.00  0.00    -0.550 OA
ATOM      8  O   UNL     1      75.999  -8.170 -26.775  1.00  0.00    -0.550 OA
ENDBRANCH   5   6
ENDBRANCH   1   5
TORSDOF 3
ENDMDL
MODEL 3
REMARK VINA RESULT:    -3.247      0.291      4.211
REMARK INTER + INTRA:          -3.844
REMARK INTER:                  -3.814
REMARK INTRA:                  -0.030
REMARK UNBOUND:                -0.027
REMARK SMILES O=C([O-])CCC(=O)[O-]
REMARK SMILES IDX 4 1 2 2 1 3 3 4 5 5 6 6 7 7 8 8
REMARK H PARENT
REMARK Flexibility Score: inf
ROOT
ATOM      1  C   UNL     1      73.793  -8.527 -25.699  1.00  0.00     0.059 C 
ENDROOT
BRANCH   1   2
ATOM      2  C   UNL     1      74.883  -8.862 -26.668  1.00  0.00     0.042 C 
ATOM      3  O   UNL     1      76.023  -8.342 -26.545  1.00  0.00    -0.550 OA
ATOM      4  O   UNL     1      74.625  -9.710 -27.738  1.00  0.00    -0.550 OA
ENDBRANCH   1   2
BRANCH   1   5
ATOM      5  C   UNL     1      74.348  -8.446 -24.276  1.00  0.00     0.059 C 
BRANCH   5   6
ATOM      6  C   UNL     1      73.253  -8.636 -23.275  1.00  0.00     0.042 C 
ATOM      7  O   UNL     1      72.300  -7.815 -23.215  1.00  0.00    -0.550 OA
ATOM      8  O   UNL     1      73.309  -9.692 -22.376  1.00  0.00    -0.550 OA
ENDBRANCH   5   6
ENDBRANCH   1   5
TORSDOF 3
ENDMDL
MODEL 4
REMARK VINA RESULT:    -3.173      1.434      1.648
REMARK INTER + INTRA:          -3.756
REMARK INTER:                  -3.652
REMARK INTRA:                  -0.104
REMARK UNBOUND:                -0.027
REMARK SMILES O=C([O-])CCC(=O)[O-]
REMARK SMILES IDX 4 1 2 2 1 3 3 4 5 5 6 6 7 7 8 8
REMARK H PARENT
REMARK Flexibility Score: inf
ROOT
ATOM      1  C   UNL     1      73.590  -8.177 -25.682  1.00  0.00     0.059 C 
ENDROOT
BRANCH   1   2
ATOM      2  C   UNL     1      73.297  -8.785 -24.346  1.00  0.00     0.042 C 
ATOM      3  O   UNL     1      72.191  -9.348 -24.135  1.00  0.00    -0.550 OA
ATOM      4  O   UNL     1      74.226  -8.685 -23.318  1.00  0.00    -0.550 OA
ENDBRANCH   1   2
BRANCH   1   5
ATOM      5  C   UNL     1      74.491  -9.101 -26.504  1.00  0.00     0.059 C 
BRANCH   5   6
ATOM      6  C   UNL     1      75.835  -8.478 -26.704  1.00  0.00     0.042 C 
ATOM      7  O   UNL     1      76.039  -7.708 -27.680  1.00  0.00    -0.550 OA
ATOM      8  O   UNL     1      76.879  -8.785 -25.840  1.00  0.00    -0.550 OA
ENDBRANCH   5   6
ENDBRANCH   1   5
TORSDOF 3
ENDMDL
MODEL 5
REMARK VINA RESULT:    -3.027     11.053     11.584
REMARK INTER + INTRA:          -3.585
REMARK INTER:                  -3.555
REMARK INTRA:                  -0.030
REMARK UNBOUND:                -0.027
REMARK SMILES O=C([O-])CCC(=O)[O-]
REMARK SMILES IDX 4 1 2 2 1 3 3 4 5 5 6 6 7 7 8 8
REMARK H PARENT
REMARK Flexibility Score: inf
ROOT
ATOM      1  C   UNL     1      77.672 -19.768 -22.089  1.00  0.00     0.059 C 
ENDROOT
BRANCH   1   2
ATOM      2  C   UNL     1      77.185 -20.092 -20.712  1.00  0.00     0.042 C 
ATOM      3  O   UNL     1      76.216 -20.879 -20.551  1.00  0.00    -0.550 OA
ATOM      4  O   UNL     1      77.770 -19.486 -19.608  1.00  0.00    -0.550 OA
ENDBRANCH   1   2
BRANCH   1   5
ATOM      5  C   UNL     1      76.516 -19.277 -22.964  1.00  0.00     0.059 C 
BRANCH   5   6
ATOM      6  C   UNL     1      76.995 -18.995 -24.352  1.00  0.00     0.042 C 
ATOM      7  O   UNL     1      76.901 -17.834 -24.831  1.00  0.00    -0.550 OA
ATOM      8  O   UNL     1      77.500 -20.024 -25.136  1.00  0.00    -0.550 OA
ENDBRANCH   5   6
ENDBRANCH   1   5
TORSDOF 3
ENDMDL
MODEL 6
REMARK VINA RESULT:    -3.022     11.113     11.672
REMARK INTER + INTRA:          -3.579
REMARK INTER:                  -3.549
REMARK INTRA:                  -0.030
REMARK UNBOUND:                -0.027
REMARK SMILES O=C([O-])CCC(=O)[O-]
REMARK SMILES IDX 4 1 2 2 1 3 3 4 5 5 6 6 7 7 8 8
REMARK H PARENT
REMARK Flexibility Score: inf
ROOT
ATOM      1  C   UNL     1      77.662 -19.829 -21.932  1.00  0.00     0.059 C 
ENDROOT
BRANCH   1   2
ATOM      2  C   UNL     1      77.128 -20.119 -20.564  1.00  0.00     0.042 C 
ATOM      3  O   UNL     1      77.552 -19.476 -19.569  1.00  0.00    -0.550 OA
ATOM      4  O   UNL     1      76.199 -21.136 -20.383  1.00  0.00    -0.550 OA
ENDBRANCH   1   2
BRANCH   1   5
ATOM      5  C   UNL     1      76.552 -19.289 -22.836  1.00  0.00     0.059 C 
BRANCH   5   6
ATOM      6  C   UNL     1      77.077 -19.038 -24.214  1.00  0.00     0.042 C 
ATOM      7  O   UNL     1      77.768 -19.913 -24.799  1.00  0.00    -0.550 OA
ATOM      8  O   UNL     1      76.844 -17.817 -24.834  1.00  0.00    -0.550 OA
ENDBRANCH   5   6
ENDBRANCH   1   5
TORSDOF 3
ENDMDL
MODEL 7
REMARK VINA RESULT:    -3.011      1.263      4.272
REMARK INTER + INTRA:          -3.566
REMARK INTER:                  -3.527
REMARK INTRA:                  -0.039
REMARK UNBOUND:                -0.027
REMARK SMILES O=C([O-])CCC(=O)[O-]
REMARK SMILES IDX 4 1 2 2 1 3 3 4 5 5 6 6 7 7 8 8
REMARK H PARENT
REMARK Flexibility Score: inf
ROOT
ATOM      1  C   UNL     1      74.620  -8.787 -26.392  1.00  0.00     0.059 C 
ENDROOT
BRANCH   1   2
ATOM      2  C   UNL     1      75.880  -8.407 -27.105  1.00  0.00     0.042 C 
ATOM      3  O   UNL     1      75.939  -8.467 -28.360  1.00  0.00    -0.550 OA
ATOM      4  O   UNL     1      77.003  -8.035 -26.378  1.00  0.00    -0.550 OA
ENDBRANCH   1   2
BRANCH   1   5
ATOM      5  C   UNL     1      74.755  -8.527 -24.890  1.00  0.00     0.059 C 
BRANCH   5   6
ATOM      6  C   UNL     1      73.410  -8.515 -24.238  1.00  0.00     0.042 C 
ATOM      7  O   UNL     1      72.453  -7.893 -24.770  1.00  0.00    -0.550 OA
ATOM      8  O   UNL     1      73.223  -9.150 -23.017  1.00  0.00    -0.550 OA
ENDBRANCH   5   6
ENDBRANCH   1   5
TORSDOF 3
ENDMDL
MODEL 8
REMARK VINA RESULT:    -2.993     11.060     12.222
REMARK INTER + INTRA:          -3.545
REMARK INTER:                  -3.516
REMARK INTRA:                  -0.030
REMARK UNBOUND:                -0.027
REMARK SMILES O=C([O-])CCC(=O)[O-]
REMARK SMILES IDX 4 1 2 2 1 3 3 4 5 5 6 6 7 7 8 8
REMARK H PARENT
REMARK Flexibility Score: inf
ROOT
ATOM      1  C   UNL     1      76.555 -19.332 -22.986  1.00  0.00     0.059 C 
ENDROOT
BRANCH   1   2
ATOM      2  C   UNL     1      77.078 -19.020 -24.353  1.00  0.00     0.042 C 
ATOM      3  O   UNL     1      76.978 -17.855 -24.819  1.00  0.00    -0.550 OA
ATOM      4  O   UNL     1      77.631 -20.028 -25.132  1.00  0.00    -0.550 OA
ENDBRANCH   1   2
BRANCH   1   5
ATOM      5  C   UNL     1      77.696 -19.760 -22.061  1.00  0.00     0.059 C 
BRANCH   5   6
ATOM      6  C   UNL     1      77.174 -20.062 -20.692  1.00  0.00     0.042 C 
ATOM      7  O   UNL     1      76.201 -20.847 -20.544  1.00  0.00    -0.550 OA
ATOM      8  O   UNL     1      77.730 -19.439 -19.583  1.00  0.00    -0.550 OA
ENDBRANCH   5   6
ENDBRANCH   1   5
TORSDOF 3
ENDMDL
MODEL 9
REMARK VINA RESULT:    -2.758      2.555      4.757
REMARK INTER + INTRA:          -3.269
REMARK INTER:                  -3.221
REMARK INTRA:                  -0.048
REMARK UNBOUND:                -0.027
REMARK SMILES O=C([O-])CCC(=O)[O-]
REMARK SMILES IDX 4 1 2 2 1 3 3 4 5 5 6 6 7 7 8 8
REMARK H PARENT
REMARK Flexibility Score: inf
ROOT
ATOM      1  C   UNL     1      75.203 -10.774 -27.834  1.00  0.00     0.059 C 
ENDROOT
BRANCH   1   2
ATOM      2  C   UNL     1      74.425 -11.345 -28.978  1.00  0.00     0.042 C 
ATOM      3  O   UNL     1      73.872 -10.582 -29.812  1.00  0.00    -0.550 OA
ATOM      4  O   UNL     1      74.269 -12.721 -29.093  1.00  0.00    -0.550 OA
ENDBRANCH   1   2
BRANCH   1   5
ATOM      5  C   UNL     1      75.158  -9.245 -27.867  1.00  0.00     0.059 C 
BRANCH   5   6
ATOM      6  C   UNL     1      75.007  -8.696 -26.484  1.00  0.00     0.042 C 
ATOM      7  O   UNL     1      76.023  -8.499 -25.766  1.00  0.00    -0.550 OA
ATOM      8  O   UNL     1      73.742  -8.447 -25.969  1.00  0.00    -0.550 OA
ENDBRANCH   5   6
ENDBRANCH   1   5
TORSDOF 3
ENDMDL
