MODEL 1
REMARK VINA RESULT:    -5.444      0.000      0.000
REMARK INTER + INTRA:          -6.133
REMARK INTER:                  -5.922
REMARK INTRA:                  -0.212
REMARK UNBOUND:                -0.212
REMARK SMILES O=C([O-])c1ccccc1O
REMARK SMILES IDX 4 1 9 2 5 3 8 4 6 5 7 6 2 7 1 8 3 9 10 10
REMARK H PARENT 10 11
REMARK Flexibility Score: inf
ROOT
ATOM      1  C   UNL     1      14.951   0.128  26.614  1.00  0.00     0.039 A 
ATOM      2  C   UNL     1      14.589   0.360  27.963  1.00  0.00     0.124 A 
ATOM      3  C   UNL     1      15.477  -1.131  26.261  1.00  0.00     0.014 A 
ATOM      4  C   UNL     1      14.757  -0.655  28.917  1.00  0.00     0.047 A 
ATOM      5  C   UNL     1      15.640  -2.131  27.221  1.00  0.00     0.001 A 
ATOM      6  C   UNL     1      15.280  -1.895  28.547  1.00  0.00     0.004 A 
ENDROOT
BRANCH   1   7
ATOM      7  C   UNL     1      14.790   1.173  25.572  1.00  0.00     0.075 C 
ATOM      8  O   UNL     1      13.640   1.548  25.219  1.00  0.00    -0.545 OA
ATOM      9  O   UNL     1      15.895   1.760  24.966  1.00  0.00    -0.545 OA
ENDBRANCH   1   7
BRANCH   2  10
ATOM     10  O   UNL     1      14.063   1.590  28.360  1.00  0.00    -0.507 OA
ATOM     11  H   UNL     1      14.661   2.372  28.601  1.00  0.00     0.293 HD
ENDBRANCH   2  10
TORSDOF 2
ENDMDL
MODEL 2
REMARK VINA RESULT:    -5.413      1.941      2.951
REMARK INTER + INTRA:          -6.099
REMARK INTER:                  -5.876
REMARK INTRA:                  -0.223
REMARK UNBOUND:                -0.212
REMARK SMILES O=C([O-])c1ccccc1O
REMARK SMILES IDX 4 1 9 2 5 3 8 4 6 5 7 6 2 7 1 8 3 9 10 10
REMARK H PARENT 10 11
REMARK Flexibility Score: inf
ROOT
ATOM      1  C   UNL     1      13.356  -0.108  27.135  1.00  0.00     0.039 A 
ATOM      2  C   UNL     1      14.265  -1.162  26.877  1.00  0.00     0.124 A 
ATOM      3  C   UNL     1      13.356   0.488  28.413  1.00  0.00     0.014 A 
ATOM      4  C   UNL     1      15.140  -1.594  27.884  1.00  0.00     0.047 A 
ATOM      5  C   UNL     1      14.234   0.047  29.406  1.00  0.00     0.001 A 
ATOM      6  C   UNL     1      15.125  -0.992  29.142  1.00  0.00     0.004 A 
ENDROOT
BRANCH   1   7
ATOM      7  C   UNL     1      12.411   0.381  26.099  1.00  0.00     0.075 C 
ATOM      8  O   UNL     1      12.844   0.933  25.052  1.00  0.00    -0.545 OA
ATOM      9  O   UNL     1      11.037   0.242  26.258  1.00  0.00    -0.545 OA
ENDBRANCH   1   7
BRANCH   2  10
ATOM     10  O   UNL     1      14.301  -1.782  25.627  1.00  0.00    -0.507 OA
ATOM     11  H   UNL     1      13.660  -1.525  24.886  1.00  0.00     0.293 HD
ENDBRANCH   2  10
TORSDOF 2
ENDMDL
MODEL 3
REMARK VINA RESULT:    -5.390      1.982      2.806
REMARK INTER + INTRA:          -6.074
REMARK INTER:                  -5.870
REMARK INTRA:                  -0.204
REMARK UNBOUND:                -0.212
REMARK SMILES O=C([O-])c1ccccc1O
REMARK SMILES IDX 4 1 9 2 5 3 8 4 6 5 7 6 2 7 1 8 3 9 10 10
REMARK H PARENT 10 11
REMARK Flexibility Score: inf
ROOT
ATOM      1  C   UNL     1      13.310  -0.112  27.108  1.00  0.00     0.039 A 
ATOM      2  C   UNL     1      14.216  -1.163  26.828  1.00  0.00     0.124 A 
ATOM      3  C   UNL     1      13.336   0.482  28.386  1.00  0.00     0.014 A 
ATOM      4  C   UNL     1      15.115  -1.593  27.815  1.00  0.00     0.047 A 
ATOM      5  C   UNL     1      14.236   0.043  29.358  1.00  0.00     0.001 A 
ATOM      6  C   UNL     1      15.125  -0.993  29.074  1.00  0.00     0.004 A 
ENDROOT
BRANCH   1   7
ATOM      7  C   UNL     1      12.340   0.375  26.094  1.00  0.00     0.075 C 
ATOM      8  O   UNL     1      11.102   0.236  26.279  1.00  0.00    -0.545 OA
ATOM      9  O   UNL     1      12.773   0.993  24.926  1.00  0.00    -0.545 OA
ENDBRANCH   1   7
BRANCH   2  10
ATOM     10  O   UNL     1      14.227  -1.782  25.577  1.00  0.00    -0.507 OA
ATOM     11  H   UNL     1      15.060  -1.803  25.000  1.00  0.00     0.293 HD
ENDBRANCH   2  10
TORSDOF 2
ENDMDL
MODEL 4
REMARK VINA RESULT:    -5.386      2.341      3.795
REMARK INTER + INTRA:          -6.070
REMARK INTER:                  -5.852
REMARK INTRA:                  -0.218
REMARK UNBOUND:                -0.212
REMARK SMILES O=C([O-])c1ccccc1O
REMARK SMILES IDX 4 1 9 2 5 3 8 4 6 5 7 6 2 7 1 8 3 9 10 10
REMARK H PARENT 10 11
REMARK Flexibility Score: inf
ROOT
ATOM      1  C   UNL     1      14.605  -0.313  26.276  1.00  0.00     0.039 A 
ATOM      2  C   UNL     1      13.206  -0.319  26.062  1.00  0.00     0.124 A 
ATOM      3  C   UNL     1      15.361   0.771  25.784  1.00  0.00     0.014 A 
ATOM      4  C   UNL     1      12.599   0.740  25.370  1.00  0.00     0.047 A 
ATOM      5  C   UNL     1      14.743   1.818  25.097  1.00  0.00     0.001 A 
ATOM      6  C   UNL     1      13.364   1.803  24.891  1.00  0.00     0.004 A 
ENDROOT
BRANCH   1   7
ATOM      7  C   UNL     1      15.290  -1.413  27.002  1.00  0.00     0.075 C 
ATOM      8  O   UNL     1      15.061  -1.606  28.226  1.00  0.00    -0.545 OA
ATOM      9  O   UNL     1      16.190  -2.250  26.353  1.00  0.00    -0.545 OA
ENDBRANCH   1   7
BRANCH   2  10
ATOM     10  O   UNL     1      12.417  -1.370  26.530  1.00  0.00    -0.507 OA
ATOM     11  H   UNL     1      12.234  -2.192  25.966  1.00  0.00     0.293 HD
ENDBRANCH   2  10
TORSDOF 2
ENDMDL
MODEL 5
REMARK VINA RESULT:    -5.308      2.013      3.994
REMARK INTER + INTRA:          -5.985
REMARK INTER:                  -5.753
REMARK INTRA:                  -0.232
REMARK UNBOUND:                -0.212
REMARK SMILES O=C([O-])c1ccccc1O
REMARK SMILES IDX 4 1 9 2 5 3 8 4 6 5 7 6 2 7 1 8 3 9 10 10
REMARK H PARENT 10 11
REMARK Flexibility Score: inf
ROOT
ATOM      1  C   UNL     1      13.653   0.265  27.315  1.00  0.00     0.039 A 
ATOM      2  C   UNL     1      14.485   0.958  26.403  1.00  0.00     0.124 A 
ATOM      3  C   UNL     1      12.301   0.058  26.977  1.00  0.00     0.014 A 
ATOM      4  C   UNL     1      13.957   1.424  25.190  1.00  0.00     0.047 A 
ATOM      5  C   UNL     1      11.789   0.529  25.766  1.00  0.00     0.001 A 
ATOM      6  C   UNL     1      12.615   1.210  24.873  1.00  0.00     0.004 A 
ENDROOT
BRANCH   1   7
ATOM      7  C   UNL     1      14.170  -0.246  28.611  1.00  0.00     0.075 C 
ATOM      8  O   UNL     1      15.083  -1.114  28.634  1.00  0.00    -0.545 OA
ATOM      9  O   UNL     1      13.664   0.219  29.819  1.00  0.00    -0.545 OA
ENDBRANCH   1   7
BRANCH   2  10
ATOM     10  O   UNL     1      15.830   1.186  26.695  1.00  0.00    -0.507 OA
ATOM     11  H   UNL     1      16.302   2.035  26.406  1.00  0.00     0.293 HD
ENDBRANCH   2  10
TORSDOF 2
ENDMDL
MODEL 6
REMARK VINA RESULT:    -5.279      1.533      1.805
REMARK INTER + INTRA:          -5.954
REMARK INTER:                  -5.773
REMARK INTRA:                  -0.181
REMARK UNBOUND:                -0.212
REMARK SMILES O=C([O-])c1ccccc1O
REMARK SMILES IDX 4 1 9 2 5 3 8 4 6 5 7 6 2 7 1 8 3 9 10 10
REMARK H PARENT 10 11
REMARK Flexibility Score: inf
ROOT
ATOM      1  C   UNL     1      13.394  -0.272  26.755  1.00  0.00     0.039 A 
ATOM      2  C   UNL     1      13.800   0.183  28.033  1.00  0.00     0.124 A 
ATOM      3  C   UNL     1      13.980  -1.444  26.236  1.00  0.00     0.014 A 
ATOM      4  C   UNL     1      14.767  -0.532  28.755  1.00  0.00     0.047 A 
ATOM      5  C   UNL     1      14.942  -2.145  26.967  1.00  0.00     0.001 A 
ATOM      6  C   UNL     1      15.335  -1.690  28.225  1.00  0.00     0.004 A 
ENDROOT
BRANCH   1   7
ATOM      7  C   UNL     1      12.374   0.453  25.956  1.00  0.00     0.075 C 
ATOM      8  O   UNL     1      11.159   0.413  26.288  1.00  0.00    -0.545 OA
ATOM      9  O   UNL     1      12.732   1.188  24.831  1.00  0.00    -0.545 OA
ENDBRANCH   1   7
BRANCH   2  10
ATOM     10  O   UNL     1      13.248   1.338  28.588  1.00  0.00    -0.507 OA
ATOM     11  H   UNL     1      13.278   1.517  29.585  1.00  0.00     0.293 HD
ENDBRANCH   2  10
TORSDOF 2
ENDMDL
MODEL 7
REMARK VINA RESULT:    -5.145      1.343      3.237
REMARK INTER + INTRA:          -5.808
REMARK INTER:                  -5.587
REMARK INTRA:                  -0.221
REMARK UNBOUND:                -0.212
REMARK SMILES O=C([O-])c1ccccc1O
REMARK SMILES IDX 4 1 9 2 5 3 8 4 6 5 7 6 2 7 1 8 3 9 10 10
REMARK H PARENT 10 11
REMARK Flexibility Score: inf
ROOT
ATOM      1  C   UNL     1      14.674  -0.435  28.505  1.00  0.00     0.039 A 
ATOM      2  C   UNL     1      14.679   0.194  27.237  1.00  0.00     0.124 A 
ATOM      3  C   UNL     1      15.186  -1.744  28.613  1.00  0.00     0.014 A 
ATOM      4  C   UNL     1      15.186  -0.486  26.120  1.00  0.00     0.047 A 
ATOM      5  C   UNL     1      15.688  -2.409  27.492  1.00  0.00     0.001 A 
ATOM      6  C   UNL     1      15.688  -1.781  26.247  1.00  0.00     0.004 A 
ENDROOT
BRANCH   1   7
ATOM      7  C   UNL     1      14.147   0.247  29.714  1.00  0.00     0.075 C 
ATOM      8  O   UNL     1      13.215   1.089  29.614  1.00  0.00    -0.545 OA
ATOM      9  O   UNL     1      14.663  -0.027  30.975  1.00  0.00    -0.545 OA
ENDBRANCH   1   7
BRANCH   2  10
ATOM     10  O   UNL     1      14.182   1.489  27.081  1.00  0.00    -0.507 OA
ATOM     11  H   UNL     1      13.430   1.844  27.659  1.00  0.00     0.293 HD
ENDBRANCH   2  10
TORSDOF 2
ENDMDL
MODEL 8
REMARK VINA RESULT:    -5.135      2.515      3.600
REMARK INTER + INTRA:          -5.797
REMARK INTER:                  -5.560
REMARK INTRA:                  -0.237
REMARK UNBOUND:                -0.212
REMARK SMILES O=C([O-])c1ccccc1O
REMARK SMILES IDX 4 1 9 2 5 3 8 4 6 5 7 6 2 7 1 8 3 9 10 10
REMARK H PARENT 10 11
REMARK Flexibility Score: inf
ROOT
ATOM      1  C   UNL     1      14.947  -1.340  27.662  1.00  0.00     0.039 A 
ATOM      2  C   UNL     1      13.991  -0.627  26.898  1.00  0.00     0.124 A 
ATOM      3  C   UNL     1      15.101  -1.017  29.026  1.00  0.00     0.014 A 
ATOM      4  C   UNL     1      13.222   0.378  27.502  1.00  0.00     0.047 A 
ATOM      5  C   UNL     1      14.328  -0.014  29.613  1.00  0.00     0.001 A 
ATOM      6  C   UNL     1      13.389   0.683  28.853  1.00  0.00     0.004 A 
ENDROOT
BRANCH   1   7
ATOM      7  C   UNL     1      15.783  -2.412  27.064  1.00  0.00     0.075 C 
ATOM      8  O   UNL     1      16.212  -2.300  25.884  1.00  0.00    -0.545 OA
ATOM      9  O   UNL     1      16.112  -3.553  27.786  1.00  0.00    -0.545 OA
ENDBRANCH   1   7
BRANCH   2  10
ATOM     10  O   UNL     1      13.803  -0.911  25.545  1.00  0.00    -0.507 OA
ATOM     11  H   UNL     1      14.582  -0.963  24.898  1.00  0.00     0.293 HD
ENDBRANCH   2  10
TORSDOF 2
ENDMDL
MODEL 9
REMARK VINA RESULT:    -5.075      2.671      3.624
REMARK INTER + INTRA:          -5.732
REMARK INTER:                  -5.552
REMARK INTRA:                  -0.179
REMARK UNBOUND:                -0.212
REMARK SMILES O=C([O-])c1ccccc1O
REMARK SMILES IDX 4 1 9 2 5 3 8 4 6 5 7 6 2 7 1 8 3 9 10 10
REMARK H PARENT 10 11
REMARK Flexibility Score: inf
ROOT
ATOM      1  C   UNL     1      14.647  -1.384  27.370  1.00  0.00     0.039 A 
ATOM      2  C   UNL     1      14.538  -0.240  28.196  1.00  0.00     0.124 A 
ATOM      3  C   UNL     1      13.796  -1.496  26.252  1.00  0.00     0.014 A 
ATOM      4  C   UNL     1      13.595   0.754  27.895  1.00  0.00     0.047 A 
ATOM      5  C   UNL     1      12.861  -0.499  25.965  1.00  0.00     0.001 A 
ATOM      6  C   UNL     1      12.761   0.625  26.784  1.00  0.00     0.004 A 
ENDROOT
BRANCH   1   7
ATOM      7  C   UNL     1      15.631  -2.461  27.651  1.00  0.00     0.075 C 
ATOM      8  O   UNL     1      16.616  -2.639  26.886  1.00  0.00    -0.545 OA
ATOM      9  O   UNL     1      15.491  -3.290  28.758  1.00  0.00    -0.545 OA
ENDBRANCH   1   7
BRANCH   2  10
ATOM     10  O   UNL     1      15.360  -0.085  29.314  1.00  0.00    -0.507 OA
ATOM     11  H   UNL     1      16.352  -0.291  29.278  1.00  0.00     0.293 HD
ENDBRANCH   2  10
TORSDOF 2
ENDMDL
