MODEL 1
REMARK VINA RESULT:    -2.771      0.000      0.000
REMARK INTER + INTRA:          -6.116
REMARK INTER:                  -4.715
REMARK INTRA:                  -1.400
REMARK UNBOUND:                -1.400
REMARK SMILES CCCCCCCCCCCCCC(=O)[O-]
REMARK SMILES IDX 8 1 9 2 10 3 11 4 12 5 13 6 14 7 15 8 16 9 7 10 6 11 5 12
REMARK SMILES IDX 4 13 3 14 2 15 1 16
REMARK H PARENT
REMARK Flexibility Score: inf
ROOT
ATOM      1  C   UNL     1     -22.106  27.572 -21.515  1.00  0.00     0.000 C 
ENDROOT
BRANCH   1   2
ATOM      2  C   UNL     1     -21.202  28.673 -20.939  1.00  0.00     0.000 C 
BRANCH   2   3
ATOM      3  C   UNL     1     -20.166  28.128 -19.944  1.00  0.00     0.000 C 
BRANCH   3   4
ATOM      4  C   UNL     1     -18.888  28.984 -19.892  1.00  0.00     0.000 C 
BRANCH   4   5
ATOM      5  C   UNL     1     -18.189  29.086 -21.257  1.00  0.00     0.006 C 
BRANCH   5   6
ATOM      6  C   UNL     1     -17.222  30.275 -21.336  1.00  0.00     0.053 C 
BRANCH   6   7
ATOM      7  C   UNL     1     -16.267  30.097 -22.473  1.00  0.00     0.041 C 
ATOM      8  O   UNL     1     -15.068  30.465 -22.358  1.00  0.00    -0.550 OA
ATOM      9  O   UNL     1     -16.713  29.568 -23.679  1.00  0.00    -0.550 OA
ENDBRANCH   6   7
ENDBRANCH   5   6
ENDBRANCH   4   5
ENDBRANCH   3   4
ENDBRANCH   2   3
ENDBRANCH   1   2
BRANCH   1  10
ATOM     10  C   UNL     1     -23.361  28.177 -22.163  1.00  0.00     0.000 C 
BRANCH  10  11
ATOM     11  C   UNL     1     -23.592  29.641 -21.754  1.00  0.00    -0.000 C 
BRANCH  11  12
ATOM     12  C   UNL     1     -24.825  29.817 -20.849  1.00  0.00    -0.000 C 
BRANCH  12  13
ATOM     13  C   UNL     1     -24.445  29.912 -19.357  1.00  0.00    -0.000 C 
BRANCH  13  14
ATOM     14  C   UNL     1     -24.530  28.568 -18.610  1.00  0.00    -0.000 C 
BRANCH  14  15
ATOM     15  C   UNL     1     -23.290  28.220 -17.770  1.00  0.00    -0.003 C 
ATOM     16  C   UNL     1     -22.880  26.754 -17.898  1.00  0.00     0.004 C 
ENDBRANCH  14  15
ENDBRANCH  13  14
ENDBRANCH  12  13
ENDBRANCH  11  12
ENDBRANCH  10  11
ENDBRANCH   1  10
TORSDOF 12
ENDMDL
MODEL 2
REMARK VINA RESULT:    -2.736      1.397      2.172
REMARK INTER + INTRA:          -6.056
REMARK INTER:                  -4.446
REMARK INTRA:                  -1.610
REMARK UNBOUND:                -1.400
REMARK SMILES CCCCCCCCCCCCCC(=O)[O-]
REMARK SMILES IDX 8 1 9 2 10 3 11 4 12 5 13 6 14 7 15 8 16 9 7 10 6 11 5 12
REMARK SMILES IDX 4 13 3 14 2 15 1 16
REMARK H PARENT
REMARK Flexibility Score: inf
ROOT
ATOM      1  C   UNL     1     -22.953  29.461 -21.639  1.00  0.00     0.000 C 
ENDROOT
BRANCH   1   2
ATOM      2  C   UNL     1     -22.777  27.935 -21.633  1.00  0.00     0.000 C 
BRANCH   2   3
ATOM      3  C   UNL     1     -21.446  27.496 -21.003  1.00  0.00     0.000 C 
BRANCH   3   4
ATOM      4  C   UNL     1     -20.713  28.653 -20.302  1.00  0.00     0.000 C 
BRANCH   4   5
ATOM      5  C   UNL     1     -19.185  28.494 -20.340  1.00  0.00     0.006 C 
BRANCH   5   6
ATOM      6  C   UNL     1     -18.511  29.503 -21.281  1.00  0.00     0.053 C 
BRANCH   6   7
ATOM      7  C   UNL     1     -17.559  30.370 -20.520  1.00  0.00     0.041 C 
ATOM      8  O   UNL     1     -16.703  31.061 -21.133  1.00  0.00    -0.550 OA
ATOM      9  O   UNL     1     -17.583  30.377 -19.131  1.00  0.00    -0.550 OA
ENDBRANCH   6   7
ENDBRANCH   5   6
ENDBRANCH   4   5
ENDBRANCH   3   4
ENDBRANCH   2   3
ENDBRANCH   1   2
BRANCH   1  10
ATOM     10  C   UNL     1     -24.408  29.845 -21.328  1.00  0.00     0.000 C 
BRANCH  10  11
ATOM     11  C   UNL     1     -24.904  29.259 -19.997  1.00  0.00    -0.000 C 
BRANCH  11  12
ATOM     12  C   UNL     1     -24.423  30.065 -18.776  1.00  0.00    -0.000 C 
BRANCH  12  13
ATOM     13  C   UNL     1     -23.484  29.244 -17.869  1.00  0.00    -0.000 C 
BRANCH  13  14
ATOM     14  C   UNL     1     -23.778  27.731 -17.882  1.00  0.00    -0.000 C 
BRANCH  14  15
ATOM     15  C   UNL     1     -22.561  26.839 -17.587  1.00  0.00    -0.003 C 
ATOM     16  C   UNL     1     -22.954  25.446 -17.095  1.00  0.00     0.004 C 
ENDBRANCH  14  15
ENDBRANCH  13  14
ENDBRANCH  12  13
ENDBRANCH  11  12
ENDBRANCH  10  11
ENDBRANCH   1  10
TORSDOF 12
ENDMDL
MODEL 3
REMARK VINA RESULT:    -2.685     14.376     16.209
REMARK INTER + INTRA:          -5.969
REMARK INTER:                  -4.318
REMARK INTRA:                  -1.651
REMARK UNBOUND:                -1.400
REMARK SMILES CCCCCCCCCCCCCC(=O)[O-]
REMARK SMILES IDX 8 1 9 2 10 3 11 4 12 5 13 6 14 7 15 8 16 9 7 10 6 11 5 12
REMARK SMILES IDX 4 13 3 14 2 15 1 16
REMARK H PARENT
REMARK Flexibility Score: inf
ROOT
ATOM      1  C   UNL     1     -22.261  15.083 -22.890  1.00  0.00     0.000 C 
ENDROOT
BRANCH   1   2
ATOM      2  C   UNL     1     -21.438  15.470 -21.652  1.00  0.00     0.000 C 
BRANCH   2   3
ATOM      3  C   UNL     1     -20.969  14.248 -20.848  1.00  0.00     0.000 C 
BRANCH   3   4
ATOM      4  C   UNL     1     -19.738  14.551 -19.975  1.00  0.00     0.000 C 
BRANCH   4   5
ATOM      5  C   UNL     1     -19.876  13.999 -18.547  1.00  0.00     0.006 C 
BRANCH   5   6
ATOM      6  C   UNL     1     -21.229  13.315 -18.308  1.00  0.00     0.053 C 
BRANCH   6   7
ATOM      7  C   UNL     1     -21.187  12.499 -17.055  1.00  0.00     0.041 C 
ATOM      8  O   UNL     1     -21.830  12.866 -16.037  1.00  0.00    -0.550 OA
ATOM      9  O   UNL     1     -20.397  11.357 -16.996  1.00  0.00    -0.550 OA
ENDBRANCH   6   7
ENDBRANCH   5   6
ENDBRANCH   4   5
ENDBRANCH   3   4
ENDBRANCH   2   3
ENDBRANCH   1   2
BRANCH   1  10
ATOM     10  C   UNL     1     -21.742  13.775 -23.506  1.00  0.00     0.000 C 
BRANCH  10  11
ATOM     11  C   UNL     1     -21.237  13.957 -24.946  1.00  0.00    -0.000 C 
BRANCH  11  12
ATOM     12  C   UNL     1     -19.702  13.917 -25.047  1.00  0.00    -0.000 C 
BRANCH  12  13
ATOM     13  C   UNL     1     -19.062  13.116 -23.893  1.00  0.00    -0.000 C 
BRANCH  13  14
ATOM     14  C   UNL     1     -17.912  13.860 -23.188  1.00  0.00    -0.000 C 
BRANCH  14  15
ATOM     15  C   UNL     1     -17.973  15.392 -23.302  1.00  0.00    -0.003 C 
ATOM     16  C   UNL     1     -17.324  16.101 -22.114  1.00  0.00     0.004 C 
ENDBRANCH  14  15
ENDBRANCH  13  14
ENDBRANCH  12  13
ENDBRANCH  11  12
ENDBRANCH  10  11
ENDBRANCH   1  10
TORSDOF 12
ENDMDL
MODEL 4
REMARK VINA RESULT:    -2.677     14.202     15.949
REMARK INTER + INTRA:          -5.956
REMARK INTER:                  -4.934
REMARK INTRA:                  -1.022
REMARK UNBOUND:                -1.400
REMARK SMILES CCCCCCCCCCCCCC(=O)[O-]
REMARK SMILES IDX 8 1 9 2 10 3 11 4 12 5 13 6 14 7 15 8 16 9 7 10 6 11 5 12
REMARK SMILES IDX 4 13 3 14 2 15 1 16
REMARK H PARENT
REMARK Flexibility Score: inf
ROOT
ATOM      1  C   UNL     1     -20.590  14.248 -21.083  1.00  0.00     0.000 C 
ENDROOT
BRANCH   1   2
ATOM      2  C   UNL     1     -21.503  15.292 -21.743  1.00  0.00     0.000 C 
BRANCH   2   3
ATOM      3  C   UNL     1     -22.114  14.795 -23.061  1.00  0.00     0.000 C 
BRANCH   3   4
ATOM      4  C   UNL     1     -21.943  13.278 -23.258  1.00  0.00     0.000 C 
BRANCH   4   5
ATOM      5  C   UNL     1     -21.232  12.930 -24.576  1.00  0.00     0.006 C 
BRANCH   5   6
ATOM      6  C   UNL     1     -20.314  14.058 -25.066  1.00  0.00     0.053 C 
BRANCH   6   7
ATOM      7  C   UNL     1     -18.920  13.852 -24.562  1.00  0.00     0.041 C 
ATOM      8  O   UNL     1     -18.202  14.841 -24.263  1.00  0.00    -0.550 OA
ATOM      9  O   UNL     1     -18.397  12.568 -24.471  1.00  0.00    -0.550 OA
ENDBRANCH   6   7
ENDBRANCH   5   6
ENDBRANCH   4   5
ENDBRANCH   3   4
ENDBRANCH   2   3
ENDBRANCH   1   2
BRANCH   1  10
ATOM     10  C   UNL     1     -20.495  14.483 -19.568  1.00  0.00     0.000 C 
BRANCH  10  11
ATOM     11  C   UNL     1     -21.329  13.479 -18.757  1.00  0.00    -0.000 C 
BRANCH  11  12
ATOM     12  C   UNL     1     -21.924  14.095 -17.479  1.00  0.00    -0.000 C 
BRANCH  12  13
ATOM     13  C   UNL     1     -21.957  13.091 -16.308  1.00  0.00    -0.000 C 
BRANCH  13  14
ATOM     14  C   UNL     1     -21.171  11.794 -16.583  1.00  0.00    -0.000 C 
BRANCH  14  15
ATOM     15  C   UNL     1     -19.907  11.617 -15.728  1.00  0.00    -0.003 C 
ATOM     16  C   UNL     1     -18.696  12.355 -16.300  1.00  0.00     0.004 C 
ENDBRANCH  14  15
ENDBRANCH  13  14
ENDBRANCH  12  13
ENDBRANCH  11  12
ENDBRANCH  10  11
ENDBRANCH   1  10
TORSDOF 12
ENDMDL
MODEL 5
REMARK VINA RESULT:    -2.649      2.051      4.344
REMARK INTER + INTRA:          -5.907
REMARK INTER:                  -4.207
REMARK INTRA:                  -1.700
REMARK UNBOUND:                -1.400
REMARK SMILES CCCCCCCCCCCCCC(=O)[O-]
REMARK SMILES IDX 8 1 9 2 10 3 11 4 12 5 13 6 14 7 15 8 16 9 7 10 6 11 5 12
REMARK SMILES IDX 4 13 3 14 2 15 1 16
REMARK H PARENT
REMARK Flexibility Score: inf
ROOT
ATOM      1  C   UNL     1     -24.485  29.966 -19.343  1.00  0.00     0.000 C 
ENDROOT
BRANCH   1   2
ATOM      2  C   UNL     1     -24.865  29.992 -20.832  1.00  0.00     0.000 C 
BRANCH   2   3
ATOM      3  C   UNL     1     -23.668  29.711 -21.753  1.00  0.00     0.000 C 
BRANCH   3   4
ATOM      4  C   UNL     1     -23.526  28.218 -22.100  1.00  0.00     0.000 C 
BRANCH   4   5
ATOM      5  C   UNL     1     -22.168  27.638 -21.675  1.00  0.00     0.006 C 
BRANCH   5   6
ATOM      6  C   UNL     1     -21.262  28.685 -21.013  1.00  0.00     0.053 C 
BRANCH   6   7
ATOM      7  C   UNL     1     -19.851  28.191 -20.951  1.00  0.00     0.041 C 
ATOM      8  O   UNL     1     -19.615  26.974 -20.731  1.00  0.00    -0.550 OA
ATOM      9  O   UNL     1     -18.795  29.084 -21.087  1.00  0.00    -0.550 OA
ENDBRANCH   6   7
ENDBRANCH   5   6
ENDBRANCH   4   5
ENDBRANCH   3   4
ENDBRANCH   2   3
ENDBRANCH   1   2
BRANCH   1  10
ATOM     10  C   UNL     1     -24.902  28.638 -18.695  1.00  0.00     0.000 C 
BRANCH  10  11
ATOM     11  C   UNL     1     -23.968  28.219 -17.548  1.00  0.00    -0.000 C 
BRANCH  11  12
ATOM     12  C   UNL     1     -22.957  27.137 -17.971  1.00  0.00    -0.000 C 
BRANCH  12  13
ATOM     13  C   UNL     1     -21.514  27.493 -17.557  1.00  0.00    -0.000 C 
BRANCH  13  14
ATOM     14  C   UNL     1     -21.301  28.995 -17.289  1.00  0.00    -0.000 C 
BRANCH  14  15
ATOM     15  C   UNL     1     -19.864  29.490 -17.517  1.00  0.00    -0.003 C 
ATOM     16  C   UNL     1     -19.119  29.768 -16.211  1.00  0.00     0.004 C 
ENDBRANCH  14  15
ENDBRANCH  13  14
ENDBRANCH  12  13
ENDBRANCH  11  12
ENDBRANCH  10  11
ENDBRANCH   1  10
TORSDOF 12
ENDMDL
MODEL 6
REMARK VINA RESULT:    -2.564     14.188     16.055
REMARK INTER + INTRA:          -5.764
REMARK INTER:                  -4.485
REMARK INTRA:                  -1.279
REMARK UNBOUND:                -1.400
REMARK SMILES CCCCCCCCCCCCCC(=O)[O-]
REMARK SMILES IDX 8 1 9 2 10 3 11 4 12 5 13 6 14 7 15 8 16 9 7 10 6 11 5 12
REMARK SMILES IDX 4 13 3 14 2 15 1 16
REMARK H PARENT
REMARK Flexibility Score: inf
ROOT
ATOM      1  C   UNL     1     -18.148  16.112 -22.350  1.00  0.00     0.000 C 
ENDROOT
BRANCH   1   2
ATOM      2  C   UNL     1     -19.611  15.876 -21.945  1.00  0.00     0.000 C 
BRANCH   2   3
ATOM      3  C   UNL     1     -19.759  15.460 -20.474  1.00  0.00     0.000 C 
BRANCH   3   4
ATOM      4  C   UNL     1     -21.168  15.737 -19.919  1.00  0.00     0.000 C 
BRANCH   4   5
ATOM      5  C   UNL     1     -21.452  14.970 -18.618  1.00  0.00     0.006 C 
BRANCH   5   6
ATOM      6  C   UNL     1     -21.222  13.460 -18.763  1.00  0.00     0.053 C 
BRANCH   6   7
ATOM      7  C   UNL     1     -20.754  12.877 -17.467  1.00  0.00     0.041 C 
ATOM      8  O   UNL     1     -20.508  11.645 -17.378  1.00  0.00    -0.550 OA
ATOM      9  O   UNL     1     -20.638  13.685 -16.343  1.00  0.00    -0.550 OA
ENDBRANCH   6   7
ENDBRANCH   5   6
ENDBRANCH   4   5
ENDBRANCH   3   4
ENDBRANCH   2   3
ENDBRANCH   1   2
BRANCH   1  10
ATOM     10  C   UNL     1     -17.725  15.142 -23.464  1.00  0.00     0.000 C 
BRANCH  10  11
ATOM     11  C   UNL     1     -18.068  13.680 -23.139  1.00  0.00    -0.000 C 
BRANCH  11  12
ATOM     12  C   UNL     1     -18.636  12.919 -24.352  1.00  0.00    -0.000 C 
BRANCH  12  13
ATOM     13  C   UNL     1     -19.898  13.596 -24.926  1.00  0.00    -0.000 C 
BRANCH  13  14
ATOM     14  C   UNL     1     -21.199  12.824 -24.636  1.00  0.00    -0.000 C 
BRANCH  14  15
ATOM     15  C   UNL     1     -21.959  13.293 -23.385  1.00  0.00    -0.003 C 
ATOM     16  C   UNL     1     -22.551  14.694 -23.541  1.00  0.00     0.004 C 
ENDBRANCH  14  15
ENDBRANCH  13  14
ENDBRANCH  12  13
ENDBRANCH  11  12
ENDBRANCH  10  11
ENDBRANCH   1  10
TORSDOF 12
ENDMDL
MODEL 7
REMARK VINA RESULT:    -2.544     14.691     15.926
REMARK INTER + INTRA:          -5.728
REMARK INTER:                  -3.728
REMARK INTRA:                  -2.000
REMARK UNBOUND:                -1.400
REMARK SMILES CCCCCCCCCCCCCC(=O)[O-]
REMARK SMILES IDX 8 1 9 2 10 3 11 4 12 5 13 6 14 7 15 8 16 9 7 10 6 11 5 12
REMARK SMILES IDX 4 13 3 14 2 15 1 16
REMARK H PARENT
REMARK Flexibility Score: inf
ROOT
ATOM      1  C   UNL     1     -19.455  15.610 -21.303  1.00  0.00     0.000 C 
ENDROOT
BRANCH   1   2
ATOM      2  C   UNL     1     -19.209  14.145 -20.914  1.00  0.00     0.000 C 
BRANCH   2   3
ATOM      3  C   UNL     1     -17.716  13.801 -20.813  1.00  0.00     0.000 C 
BRANCH   3   4
ATOM      4  C   UNL     1     -16.827  14.787 -21.593  1.00  0.00     0.000 C 
BRANCH   4   5
ATOM      5  C   UNL     1     -15.463  14.186 -21.965  1.00  0.00     0.006 C 
BRANCH   5   6
ATOM      6  C   UNL     1     -15.499  12.655 -22.058  1.00  0.00     0.053 C 
BRANCH   6   7
ATOM      7  C   UNL     1     -15.474  12.218 -23.489  1.00  0.00     0.041 C 
ATOM      8  O   UNL     1     -15.878  11.069 -23.808  1.00  0.00    -0.550 OA
ATOM      9  O   UNL     1     -14.957  13.062 -24.464  1.00  0.00    -0.550 OA
ENDBRANCH   6   7
ENDBRANCH   5   6
ENDBRANCH   4   5
ENDBRANCH   3   4
ENDBRANCH   2   3
ENDBRANCH   1   2
BRANCH   1  10
ATOM     10  C   UNL     1     -20.853  15.789 -21.913  1.00  0.00     0.000 C 
BRANCH  10  11
ATOM     11  C   UNL     1     -21.533  14.449 -22.238  1.00  0.00    -0.000 C 
BRANCH  11  12
ATOM     12  C   UNL     1     -22.193  14.441 -23.629  1.00  0.00    -0.000 C 
BRANCH  12  13
ATOM     13  C   UNL     1     -21.170  14.198 -24.758  1.00  0.00    -0.000 C 
BRANCH  13  14
ATOM     14  C   UNL     1     -20.422  12.857 -24.637  1.00  0.00    -0.000 C 
BRANCH  14  15
ATOM     15  C   UNL     1     -18.908  12.986 -24.406  1.00  0.00    -0.003 C 
ATOM     16  C   UNL     1     -18.349  14.330 -24.873  1.00  0.00     0.004 C 
ENDBRANCH  14  15
ENDBRANCH  13  14
ENDBRANCH  12  13
ENDBRANCH  11  12
ENDBRANCH  10  11
ENDBRANCH   1  10
TORSDOF 12
ENDMDL
MODEL 8
REMARK VINA RESULT:    -2.538     14.779     16.751
REMARK INTER + INTRA:          -5.719
REMARK INTER:                  -4.580
REMARK INTRA:                  -1.139
REMARK UNBOUND:                -1.400
REMARK SMILES CCCCCCCCCCCCCC(=O)[O-]
REMARK SMILES IDX 8 1 9 2 10 3 11 4 12 5 13 6 14 7 15 8 16 9 7 10 6 11 5 12
REMARK SMILES IDX 4 13 3 14 2 15 1 16
REMARK H PARENT
REMARK Flexibility Score: inf
ROOT
ATOM      1  C   UNL     1     -20.183  15.501 -20.842  1.00  0.00     0.000 C 
ENDROOT
BRANCH   1   2
ATOM      2  C   UNL     1     -19.414  14.263 -20.354  1.00  0.00     0.000 C 
BRANCH   2   3
ATOM      3  C   UNL     1     -19.741  13.899 -18.899  1.00  0.00     0.000 C 
BRANCH   3   4
ATOM      4  C   UNL     1     -21.222  13.527 -18.700  1.00  0.00     0.000 C 
BRANCH   4   5
ATOM      5  C   UNL     1     -21.807  14.104 -17.401  1.00  0.00     0.006 C 
BRANCH   5   6
ATOM      6  C   UNL     1     -22.955  13.253 -16.844  1.00  0.00     0.053 C 
BRANCH   6   7
ATOM      7  C   UNL     1     -22.462  12.366 -15.745  1.00  0.00     0.041 C 
ATOM      8  O   UNL     1     -21.285  11.920 -15.770  1.00  0.00    -0.550 OA
ATOM      9  O   UNL     1     -23.318  11.991 -14.717  1.00  0.00    -0.550 OA
ENDBRANCH   6   7
ENDBRANCH   5   6
ENDBRANCH   4   5
ENDBRANCH   3   4
ENDBRANCH   2   3
ENDBRANCH   1   2
BRANCH   1  10
ATOM     10  C   UNL     1     -20.845  15.234 -22.202  1.00  0.00     0.000 C 
BRANCH  10  11
ATOM     11  C   UNL     1     -21.359  13.792 -22.338  1.00  0.00    -0.000 C 
BRANCH  11  12
ATOM     12  C   UNL     1     -21.606  13.385 -23.802  1.00  0.00    -0.000 C 
BRANCH  12  13
ATOM     13  C   UNL     1     -20.430  13.774 -24.722  1.00  0.00    -0.000 C 
BRANCH  13  14
ATOM     14  C   UNL     1     -19.136  12.987 -24.437  1.00  0.00    -0.000 C 
BRANCH  14  15
ATOM     15  C   UNL     1     -17.839  13.775 -24.684  1.00  0.00    -0.003 C 
ATOM     16  C   UNL     1     -17.376  14.556 -23.455  1.00  0.00     0.004 C 
ENDBRANCH  14  15
ENDBRANCH  13  14
ENDBRANCH  12  13
ENDBRANCH  11  12
ENDBRANCH  10  11
ENDBRANCH   1  10
TORSDOF 12
ENDMDL
MODEL 9
REMARK VINA RESULT:    -2.520     13.937     15.533
REMARK INTER + INTRA:          -5.688
REMARK INTER:                  -4.101
REMARK INTRA:                  -1.587
REMARK UNBOUND:                -1.400
REMARK SMILES CCCCCCCCCCCCCC(=O)[O-]
REMARK SMILES IDX 8 1 9 2 10 3 11 4 12 5 13 6 14 7 15 8 16 9 7 10 6 11 5 12
REMARK SMILES IDX 4 13 3 14 2 15 1 16
REMARK H PARENT
REMARK Flexibility Score: inf
ROOT
ATOM      1  C   UNL     1     -17.957  14.651 -22.328  1.00  0.00     0.000 C 
ENDROOT
BRANCH   1   2
ATOM      2  C   UNL     1     -17.400  14.990 -23.718  1.00  0.00     0.000 C 
BRANCH   2   3
ATOM      3  C   UNL     1     -18.135  14.252 -24.847  1.00  0.00     0.000 C 
BRANCH   3   4
ATOM      4  C   UNL     1     -18.866  12.991 -24.352  1.00  0.00     0.000 C 
BRANCH   4   5
ATOM      5  C   UNL     1     -20.310  12.904 -24.869  1.00  0.00     0.006 C 
BRANCH   5   6
ATOM      6  C   UNL     1     -21.073  14.227 -24.713  1.00  0.00     0.053 C 
BRANCH   6   7
ATOM      7  C   UNL     1     -22.177  14.078 -23.715  1.00  0.00     0.041 C 
ATOM      8  O   UNL     1     -22.242  13.051 -22.989  1.00  0.00    -0.550 OA
ATOM      9  O   UNL     1     -23.166  15.050 -23.623  1.00  0.00    -0.550 OA
ENDBRANCH   6   7
ENDBRANCH   5   6
ENDBRANCH   4   5
ENDBRANCH   3   4
ENDBRANCH   2   3
ENDBRANCH   1   2
BRANCH   1  10
ATOM     10  C   UNL     1     -18.434  15.920 -21.604  1.00  0.00     0.000 C 
BRANCH  10  11
ATOM     11  C   UNL     1     -19.960  16.093 -21.653  1.00  0.00    -0.000 C 
BRANCH  11  12
ATOM     12  C   UNL     1     -20.634  15.807 -20.299  1.00  0.00    -0.000 C 
BRANCH  12  13
ATOM     13  C   UNL     1     -20.831  14.297 -20.053  1.00  0.00    -0.000 C 
BRANCH  13  14
ATOM     14  C   UNL     1     -20.536  13.862 -18.604  1.00  0.00    -0.000 C 
BRANCH  14  15
ATOM     15  C   UNL     1     -19.064  13.995 -18.182  1.00  0.00    -0.003 C 
ATOM     16  C   UNL     1     -18.132  13.095 -18.993  1.00  0.00     0.004 C 
ENDBRANCH  14  15
ENDBRANCH  13  14
ENDBRANCH  12  13
ENDBRANCH  11  12
ENDBRANCH  10  11
ENDBRANCH   1  10
TORSDOF 12
ENDMDL
