MODEL 1
REMARK VINA RESULT:    -6.154      0.000      0.000
REMARK INTER + INTRA:         -20.427
REMARK INTER:                 -16.227
REMARK INTRA:                  -4.200
REMARK UNBOUND:                -4.200
REMARK SMILES CCCCCCCCCCCCCCCCCCCCCCCCCCCCCC(=O)[O-]
REMARK SMILES IDX 16 1 17 2 18 3 19 4 20 5 21 6 22 7 23 8 24 9 25 10 26 11
REMARK SMILES IDX 27 12 28 13 29 14 30 15 31 16 32 17 15 18 14 19 13 20 12 21
REMARK SMILES IDX 11 22 10 23 9 24 8 25 7 26 6 27 5 28 4 29 3 30 2 31 1 32
REMARK H PARENT
REMARK Flexibility Score: inf
ROOT
ATOM      1  C   UNL     1       4.307   7.338   8.747  1.00  0.00     0.000 C 
ENDROOT
BRANCH   1   2
ATOM      2  C   UNL     1       4.654   8.786   8.348  1.00  0.00     0.000 C 
BRANCH   2   3
ATOM      3  C   UNL     1       4.592   9.024   6.829  1.00  0.00     0.000 C 
BRANCH   3   4
ATOM      4  C   UNL     1       4.359   7.726   6.039  1.00  0.00     0.000 C 
BRANCH   4   5
ATOM      5  C   UNL     1       5.552   7.352   5.147  1.00  0.00     0.000 C 
BRANCH   5   6
ATOM      6  C   UNL     1       6.636   8.439   5.204  1.00  0.00     0.000 C 
BRANCH   6   7
ATOM      7  C   UNL     1       7.974   7.914   5.749  1.00  0.00     0.000 C 
BRANCH   7   8
ATOM      8  C   UNL     1       7.896   7.510   7.230  1.00  0.00     0.000 C 
BRANCH   8   9
ATOM      9  C   UNL     1       9.127   6.691   7.635  1.00  0.00     0.000 C 
BRANCH   9  10
ATOM     10  C   UNL     1       8.725   5.413   8.381  1.00  0.00     0.000 C 
BRANCH  10  11
ATOM     11  C   UNL     1       7.199   5.235   8.373  1.00  0.00     0.000 C 
BRANCH  11  12
ATOM     12  C   UNL     1       6.722   4.231   7.311  1.00  0.00     0.000 C 
BRANCH  12  13
ATOM     13  C   UNL     1       5.222   4.369   7.000  1.00  0.00     0.006 C 
BRANCH  13  14
ATOM     14  C   UNL     1       4.346   3.714   8.076  1.00  0.00     0.053 C 
BRANCH  14  15
ATOM     15  C   UNL     1       2.890   3.792   7.729  1.00  0.00     0.041 C 
ATOM     16  O   UNL     1       2.064   3.010   8.269  1.00  0.00    -0.550 OA
ATOM     17  O   UNL     1       2.439   4.757   6.836  1.00  0.00    -0.550 OA
ENDBRANCH  14  15
ENDBRANCH  13  14
ENDBRANCH  12  13
ENDBRANCH  11  12
ENDBRANCH  10  11
ENDBRANCH   9  10
ENDBRANCH   8   9
ENDBRANCH   7   8
ENDBRANCH   6   7
ENDBRANCH   5   6
ENDBRANCH   4   5
ENDBRANCH   3   4
ENDBRANCH   2   3
ENDBRANCH   1   2
BRANCH   1  18
ATOM     18  C   UNL     1       3.007   7.168   9.555  1.00  0.00     0.000 C 
BRANCH  18  19
ATOM     19  C   UNL     1       2.142   8.439   9.580  1.00  0.00     0.000 C 
BRANCH  19  20
ATOM     20  C   UNL     1       0.643   8.129   9.443  1.00  0.00     0.000 C 
BRANCH  20  21
ATOM     21  C   UNL     1       0.362   6.993   8.449  1.00  0.00     0.000 C 
BRANCH  21  22
ATOM     22  C   UNL     1      -0.866   6.178   8.885  1.00  0.00     0.000 C 
BRANCH  22  23
ATOM     23  C   UNL     1      -0.486   4.840   9.553  1.00  0.00     0.000 C 
BRANCH  23  24
ATOM     24  C   UNL     1      -1.075   4.662  10.965  1.00  0.00    -0.000 C 
BRANCH  24  25
ATOM     25  C   UNL     1      -0.881   5.863  11.910  1.00  0.00    -0.000 C 
BRANCH  25  26
ATOM     26  C   UNL     1       0.586   6.237  12.200  1.00  0.00    -0.000 C 
BRANCH  26  27
ATOM     27  C   UNL     1       0.737   7.156  13.423  1.00  0.00    -0.000 C 
BRANCH  27  28
ATOM     28  C   UNL     1       1.855   8.196  13.248  1.00  0.00    -0.000 C 
BRANCH  28  29
ATOM     29  C   UNL     1       2.788   8.271  14.469  1.00  0.00    -0.000 C 
BRANCH  29  30
ATOM     30  C   UNL     1       2.998   9.711  14.963  1.00  0.00    -0.000 C 
BRANCH  30  31
ATOM     31  C   UNL     1       4.062  10.465  14.153  1.00  0.00    -0.003 C 
ATOM     32  C   UNL     1       5.280  10.786  15.014  1.00  0.00     0.004 C 
ENDBRANCH  30  31
ENDBRANCH  29  30
ENDBRANCH  28  29
ENDBRANCH  27  28
ENDBRANCH  26  27
ENDBRANCH  25  26
ENDBRANCH  24  25
ENDBRANCH  23  24
ENDBRANCH  22  23
ENDBRANCH  21  22
ENDBRANCH  20  21
ENDBRANCH  19  20
ENDBRANCH  18  19
ENDBRANCH   1  18
TORSDOF 28
ENDMDL
MODEL 2
REMARK VINA RESULT:    -6.116      1.742      7.450
REMARK INTER + INTRA:         -20.327
REMARK INTER:                 -16.195
REMARK INTRA:                  -4.131
REMARK UNBOUND:                -4.200
REMARK SMILES CCCCCCCCCCCCCCCCCCCCCCCCCCCCCC(=O)[O-]
REMARK SMILES IDX 16 1 17 2 18 3 19 4 20 5 21 6 22 7 23 8 24 9 25 10 26 11
REMARK SMILES IDX 27 12 28 13 29 14 30 15 31 16 32 17 15 18 14 19 13 20 12 21
REMARK SMILES IDX 11 22 10 23 9 24 8 25 7 26 6 27 5 28 4 29 3 30 2 31 1 32
REMARK H PARENT
REMARK Flexibility Score: inf
ROOT
ATOM      1  C   UNL     1       2.572  10.223   7.990  1.00  0.00     0.000 C 
ENDROOT
BRANCH   1   2
ATOM      2  C   UNL     1       1.986   9.170   8.951  1.00  0.00     0.000 C 
BRANCH   2   3
ATOM      3  C   UNL     1       2.026   9.611  10.426  1.00  0.00     0.000 C 
BRANCH   3   4
ATOM      4  C   UNL     1       2.124   8.420  11.393  1.00  0.00     0.000 C 
BRANCH   4   5
ATOM      5  C   UNL     1       1.210   8.575  12.619  1.00  0.00     0.000 C 
BRANCH   5   6
ATOM      6  C   UNL     1       0.610   7.220  13.023  1.00  0.00     0.000 C 
BRANCH   6   7
ATOM      7  C   UNL     1       0.453   6.261  11.832  1.00  0.00     0.000 C 
BRANCH   7   8
ATOM      8  C   UNL     1      -0.928   5.590  11.786  1.00  0.00     0.000 C 
BRANCH   8   9
ATOM      9  C   UNL     1      -1.474   5.566  10.354  1.00  0.00     0.000 C 
BRANCH   9  10
ATOM     10  C   UNL     1      -0.780   6.616   9.476  1.00  0.00     0.000 C 
BRANCH  10  11
ATOM     11  C   UNL     1      -0.249   5.980   8.183  1.00  0.00     0.000 C 
BRANCH  11  12
ATOM     12  C   UNL     1       1.265   6.176   8.000  1.00  0.00     0.000 C 
BRANCH  12  13
ATOM     13  C   UNL     1       2.095   5.283   8.937  1.00  0.00     0.006 C 
BRANCH  13  14
ATOM     14  C   UNL     1       1.983   3.797   8.568  1.00  0.00     0.053 C 
BRANCH  14  15
ATOM     15  C   UNL     1       2.984   3.409   7.522  1.00  0.00     0.041 C 
ATOM     16  O   UNL     1       4.000   4.125   7.317  1.00  0.00    -0.550 OA
ATOM     17  O   UNL     1       2.816   2.234   6.799  1.00  0.00    -0.550 OA
ENDBRANCH  14  15
ENDBRANCH  13  14
ENDBRANCH  12  13
ENDBRANCH  11  12
ENDBRANCH  10  11
ENDBRANCH   9  10
ENDBRANCH   8   9
ENDBRANCH   7   8
ENDBRANCH   6   7
ENDBRANCH   5   6
ENDBRANCH   4   5
ENDBRANCH   3   4
ENDBRANCH   2   3
ENDBRANCH   1   2
BRANCH   1  18
ATOM     18  C   UNL     1       3.877   9.818   7.281  1.00  0.00     0.000 C 
BRANCH  18  19
ATOM     19  C   UNL     1       4.709   8.801   8.082  1.00  0.00     0.000 C 
BRANCH  19  20
ATOM     20  C   UNL     1       4.621   7.384   7.495  1.00  0.00     0.000 C 
BRANCH  20  21
ATOM     21  C   UNL     1       4.248   7.381   6.005  1.00  0.00     0.000 C 
BRANCH  21  22
ATOM     22  C   UNL     1       5.453   6.978   5.142  1.00  0.00     0.000 C 
BRANCH  22  23
ATOM     23  C   UNL     1       6.476   8.122   4.977  1.00  0.00     0.000 C 
BRANCH  23  24
ATOM     24  C   UNL     1       7.907   7.740   5.398  1.00  0.00    -0.000 C 
BRANCH  24  25
ATOM     25  C   UNL     1       8.189   7.825   6.910  1.00  0.00    -0.000 C 
BRANCH  25  26
ATOM     26  C   UNL     1       8.679   6.517   7.559  1.00  0.00    -0.000 C 
BRANCH  26  27
ATOM     27  C   UNL     1       7.552   5.487   7.749  1.00  0.00    -0.000 C 
BRANCH  27  28
ATOM     28  C   UNL     1       7.892   4.427   8.809  1.00  0.00    -0.000 C 
BRANCH  28  29
ATOM     29  C   UNL     1       8.728   4.998   9.967  1.00  0.00    -0.000 C 
BRANCH  29  30
ATOM     30  C   UNL     1       9.478   3.906  10.747  1.00  0.00    -0.000 C 
BRANCH  30  31
ATOM     31  C   UNL     1       8.530   2.898  11.413  1.00  0.00    -0.003 C 
ATOM     32  C   UNL     1       8.693   2.914  12.930  1.00  0.00     0.004 C 
ENDBRANCH  30  31
ENDBRANCH  29  30
ENDBRANCH  28  29
ENDBRANCH  27  28
ENDBRANCH  26  27
ENDBRANCH  25  26
ENDBRANCH  24  25
ENDBRANCH  23  24
ENDBRANCH  22  23
ENDBRANCH  21  22
ENDBRANCH  20  21
ENDBRANCH  19  20
ENDBRANCH  18  19
ENDBRANCH   1  18
TORSDOF 28
ENDMDL
MODEL 3
REMARK VINA RESULT:    -6.003      1.325      2.980
REMARK INTER + INTRA:         -20.028
REMARK INTER:                 -15.554
REMARK INTRA:                  -4.474
REMARK UNBOUND:                -4.200
REMARK SMILES CCCCCCCCCCCCCCCCCCCCCCCCCCCCCC(=O)[O-]
REMARK SMILES IDX 16 1 17 2 18 3 19 4 20 5 21 6 22 7 23 8 24 9 25 10 26 11
REMARK SMILES IDX 27 12 28 13 29 14 30 15 31 16 32 17 15 18 14 19 13 20 12 21
REMARK SMILES IDX 11 22 10 23 9 24 8 25 7 26 6 27 5 28 4 29 3 30 2 31 1 32
REMARK H PARENT
REMARK Flexibility Score: inf
ROOT
ATOM      1  C   UNL     1       3.239   6.778   9.471  1.00  0.00     0.000 C 
ENDROOT
BRANCH   1   2
ATOM      2  C   UNL     1       2.911   5.289   9.698  1.00  0.00     0.000 C 
BRANCH   2   3
ATOM      3  C   UNL     1       2.416   4.580   8.424  1.00  0.00     0.000 C 
BRANCH   3   4
ATOM      4  C   UNL     1       3.499   4.501   7.336  1.00  0.00     0.000 C 
BRANCH   4   5
ATOM      5  C   UNL     1       4.738   3.711   7.789  1.00  0.00     0.000 C 
BRANCH   5   6
ATOM      6  C   UNL     1       6.026   4.408   7.325  1.00  0.00     0.000 C 
BRANCH   6   7
ATOM      7  C   UNL     1       6.633   5.314   8.408  1.00  0.00     0.000 C 
BRANCH   7   8
ATOM      8  C   UNL     1       8.167   5.249   8.447  1.00  0.00     0.000 C 
BRANCH   8   9
ATOM      9  C   UNL     1       8.777   6.622   8.140  1.00  0.00     0.000 C 
BRANCH   9  10
ATOM     10  C   UNL     1       8.823   6.885   6.630  1.00  0.00     0.000 C 
BRANCH  10  11
ATOM     11  C   UNL     1       7.698   7.843   6.210  1.00  0.00     0.000 C 
BRANCH  11  12
ATOM     12  C   UNL     1       6.882   7.318   5.018  1.00  0.00     0.000 C 
BRANCH  12  13
ATOM     13  C   UNL     1       5.365   7.440   5.240  1.00  0.00     0.006 C 
BRANCH  13  14
ATOM     14  C   UNL     1       5.028   8.300   6.467  1.00  0.00     0.053 C 
BRANCH  14  15
ATOM     15  C   UNL     1       3.552   8.529   6.593  1.00  0.00     0.041 C 
ATOM     16  O   UNL     1       2.736   7.681   6.146  1.00  0.00    -0.550 OA
ATOM     17  O   UNL     1       3.078   9.663   7.242  1.00  0.00    -0.550 OA
ENDBRANCH  14  15
ENDBRANCH  13  14
ENDBRANCH  12  13
ENDBRANCH  11  12
ENDBRANCH  10  11
ENDBRANCH   9  10
ENDBRANCH   8   9
ENDBRANCH   7   8
ENDBRANCH   6   7
ENDBRANCH   5   6
ENDBRANCH   4   5
ENDBRANCH   3   4
ENDBRANCH   2   3
ENDBRANCH   1   2
BRANCH   1  18
ATOM     18  C   UNL     1       2.701   7.744  10.544  1.00  0.00     0.000 C 
BRANCH  18  19
ATOM     19  C   UNL     1       1.393   8.439  10.128  1.00  0.00     0.000 C 
BRANCH  19  20
ATOM     20  C   UNL     1       0.708   7.734   8.947  1.00  0.00     0.000 C 
BRANCH  20  21
ATOM     21  C   UNL     1      -0.749   7.352   9.249  1.00  0.00     0.000 C 
BRANCH  21  22
ATOM     22  C   UNL     1      -1.006   5.876   8.910  1.00  0.00     0.000 C 
BRANCH  22  23
ATOM     23  C   UNL     1      -0.790   4.941  10.118  1.00  0.00     0.000 C 
BRANCH  23  24
ATOM     24  C   UNL     1      -0.918   5.648  11.481  1.00  0.00    -0.000 C 
BRANCH  24  25
ATOM     25  C   UNL     1       0.384   5.729  12.300  1.00  0.00    -0.000 C 
BRANCH  25  26
ATOM     26  C   UNL     1       0.446   6.887  13.315  1.00  0.00    -0.000 C 
BRANCH  26  27
ATOM     27  C   UNL     1       1.038   6.462  14.669  1.00  0.00    -0.000 C 
BRANCH  27  28
ATOM     28  C   UNL     1       2.323   7.229  15.022  1.00  0.00    -0.000 C 
BRANCH  28  29
ATOM     29  C   UNL     1       2.528   8.471  14.138  1.00  0.00    -0.000 C 
BRANCH  29  30
ATOM     30  C   UNL     1       2.950   9.708  14.949  1.00  0.00    -0.000 C 
BRANCH  30  31
ATOM     31  C   UNL     1       4.017  10.548  14.233  1.00  0.00    -0.003 C 
ATOM     32  C   UNL     1       5.314  10.587  15.037  1.00  0.00     0.004 C 
ENDBRANCH  30  31
ENDBRANCH  29  30
ENDBRANCH  28  29
ENDBRANCH  27  28
ENDBRANCH  26  27
ENDBRANCH  25  26
ENDBRANCH  24  25
ENDBRANCH  23  24
ENDBRANCH  22  23
ENDBRANCH  21  22
ENDBRANCH  20  21
ENDBRANCH  19  20
ENDBRANCH  18  19
ENDBRANCH   1  18
TORSDOF 28
ENDMDL
MODEL 4
REMARK VINA RESULT:    -5.998      1.661      3.262
REMARK INTER + INTRA:         -20.015
REMARK INTER:                 -15.574
REMARK INTRA:                  -4.441
REMARK UNBOUND:                -4.200
REMARK SMILES CCCCCCCCCCCCCCCCCCCCCCCCCCCCCC(=O)[O-]
REMARK SMILES IDX 16 1 17 2 18 3 19 4 20 5 21 6 22 7 23 8 24 9 25 10 26 11
REMARK SMILES IDX 27 12 28 13 29 14 30 15 31 16 32 17 15 18 14 19 13 20 12 21
REMARK SMILES IDX 11 22 10 23 9 24 8 25 7 26 6 27 5 28 4 29 3 30 2 31 1 32
REMARK H PARENT
REMARK Flexibility Score: inf
ROOT
ATOM      1  C   UNL     1       4.299   7.895   8.824  1.00  0.00     0.000 C 
ENDROOT
BRANCH   1   2
ATOM      2  C   UNL     1       3.904   8.813   7.651  1.00  0.00     0.000 C 
BRANCH   2   3
ATOM      3  C   UNL     1       2.979   8.124   6.631  1.00  0.00     0.000 C 
BRANCH   3   4
ATOM      4  C   UNL     1       3.278   6.623   6.487  1.00  0.00     0.000 C 
BRANCH   4   5
ATOM      5  C   UNL     1       2.016   5.753   6.604  1.00  0.00     0.000 C 
BRANCH   5   6
ATOM      6  C   UNL     1       2.365   4.358   7.144  1.00  0.00     0.000 C 
BRANCH   6   7
ATOM      7  C   UNL     1       3.457   4.398   8.225  1.00  0.00     0.000 C 
BRANCH   7   8
ATOM      8  C   UNL     1       4.811   3.872   7.722  1.00  0.00     0.000 C 
BRANCH   8   9
ATOM      9  C   UNL     1       5.966   4.518   8.496  1.00  0.00     0.000 C 
BRANCH   9  10
ATOM     10  C   UNL     1       7.232   4.609   7.634  1.00  0.00     0.000 C 
BRANCH  10  11
ATOM     11  C   UNL     1       8.379   5.263   8.419  1.00  0.00     0.000 C 
BRANCH  11  12
ATOM     12  C   UNL     1       8.952   6.503   7.715  1.00  0.00     0.000 C 
BRANCH  12  13
ATOM     13  C   UNL     1       7.856   7.415   7.137  1.00  0.00     0.006 C 
BRANCH  13  14
ATOM     14  C   UNL     1       8.004   7.607   5.621  1.00  0.00     0.053 C 
BRANCH  14  15
ATOM     15  C   UNL     1       6.671   7.732   4.946  1.00  0.00     0.041 C 
ATOM     16  O   UNL     1       6.044   8.823   4.976  1.00  0.00    -0.550 OA
ATOM     17  O   UNL     1       6.141   6.652   4.250  1.00  0.00    -0.550 OA
ENDBRANCH  14  15
ENDBRANCH  13  14
ENDBRANCH  12  13
ENDBRANCH  11  12
ENDBRANCH  10  11
ENDBRANCH   9  10
ENDBRANCH   8   9
ENDBRANCH   7   8
ENDBRANCH   6   7
ENDBRANCH   5   6
ENDBRANCH   4   5
ENDBRANCH   3   4
ENDBRANCH   2   3
ENDBRANCH   1   2
BRANCH   1  18
ATOM     18  C   UNL     1       3.207   7.676   9.889  1.00  0.00     0.000 C 
BRANCH  18  19
ATOM     19  C   UNL     1       2.364   8.934  10.156  1.00  0.00     0.000 C 
BRANCH  19  20
ATOM     20  C   UNL     1       0.862   8.620  10.255  1.00  0.00     0.000 C 
BRANCH  20  21
ATOM     21  C   UNL     1       0.290   8.043   8.952  1.00  0.00     0.000 C 
BRANCH  21  22
ATOM     22  C   UNL     1      -1.019   7.285   9.221  1.00  0.00     0.000 C 
BRANCH  22  23
ATOM     23  C   UNL     1      -0.931   5.792   8.843  1.00  0.00     0.000 C 
BRANCH  23  24
ATOM     24  C   UNL     1      -0.712   4.858  10.048  1.00  0.00    -0.000 C 
BRANCH  24  25
ATOM     25  C   UNL     1      -0.952   5.502  11.426  1.00  0.00    -0.000 C 
BRANCH  25  26
ATOM     26  C   UNL     1       0.309   5.680  12.293  1.00  0.00    -0.000 C 
BRANCH  26  27
ATOM     27  C   UNL     1       0.244   6.926  13.193  1.00  0.00    -0.000 C 
BRANCH  27  28
ATOM     28  C   UNL     1       1.576   7.212  13.905  1.00  0.00    -0.000 C 
BRANCH  28  29
ATOM     29  C   UNL     1       2.048   8.663  13.712  1.00  0.00    -0.000 C 
BRANCH  29  30
ATOM     30  C   UNL     1       3.144   9.065  14.713  1.00  0.00    -0.000 C 
BRANCH  30  31
ATOM     31  C   UNL     1       3.831  10.385  14.338  1.00  0.00    -0.003 C 
ATOM     32  C   UNL     1       5.158  10.540  15.076  1.00  0.00     0.004 C 
ENDBRANCH  30  31
ENDBRANCH  29  30
ENDBRANCH  28  29
ENDBRANCH  27  28
ENDBRANCH  26  27
ENDBRANCH  25  26
ENDBRANCH  24  25
ENDBRANCH  23  24
ENDBRANCH  22  23
ENDBRANCH  21  22
ENDBRANCH  20  21
ENDBRANCH  19  20
ENDBRANCH  18  19
ENDBRANCH   1  18
TORSDOF 28
ENDMDL
MODEL 5
REMARK VINA RESULT:    -5.985      1.807      3.571
REMARK INTER + INTRA:         -19.981
REMARK INTER:                 -15.655
REMARK INTRA:                  -4.327
REMARK UNBOUND:                -4.200
REMARK SMILES CCCCCCCCCCCCCCCCCCCCCCCCCCCCCC(=O)[O-]
REMARK SMILES IDX 16 1 17 2 18 3 19 4 20 5 21 6 22 7 23 8 24 9 25 10 26 11
REMARK SMILES IDX 27 12 28 13 29 14 30 15 31 16 32 17 15 18 14 19 13 20 12 21
REMARK SMILES IDX 11 22 10 23 9 24 8 25 7 26 6 27 5 28 4 29 3 30 2 31 1 32
REMARK H PARENT
REMARK Flexibility Score: inf
ROOT
ATOM      1  C   UNL     1       3.109   3.985   7.922  1.00  0.00     0.000 C 
ENDROOT
BRANCH   1   2
ATOM      2  C   UNL     1       4.486   3.767   7.262  1.00  0.00     0.000 C 
BRANCH   2   3
ATOM      3  C   UNL     1       5.660   3.985   8.233  1.00  0.00     0.000 C 
BRANCH   3   4
ATOM      4  C   UNL     1       6.960   4.366   7.507  1.00  0.00     0.000 C 
BRANCH   4   5
ATOM      5  C   UNL     1       7.907   5.201   8.384  1.00  0.00     0.000 C 
BRANCH   5   6
ATOM      6  C   UNL     1       8.872   6.020   7.514  1.00  0.00     0.000 C 
BRANCH   6   7
ATOM      7  C   UNL     1       8.353   7.439   7.228  1.00  0.00     0.000 C 
BRANCH   7   8
ATOM      8  C   UNL     1       8.336   7.775   5.729  1.00  0.00     0.000 C 
BRANCH   8   9
ATOM      9  C   UNL     1       6.954   8.281   5.301  1.00  0.00     0.000 C 
BRANCH   9  10
ATOM     10  C   UNL     1       5.943   7.130   5.214  1.00  0.00     0.000 C 
BRANCH  10  11
ATOM     11  C   UNL     1       4.768   7.364   6.175  1.00  0.00     0.000 C 
BRANCH  11  12
ATOM     12  C   UNL     1       5.216   7.514   7.638  1.00  0.00     0.000 C 
BRANCH  12  13
ATOM     13  C   UNL     1       4.751   8.838   8.266  1.00  0.00     0.006 C 
BRANCH  13  14
ATOM     14  C   UNL     1       4.055   9.749   7.246  1.00  0.00     0.053 C 
BRANCH  14  15
ATOM     15  C   UNL     1       2.711  10.201   7.732  1.00  0.00     0.041 C 
ATOM     16  O   UNL     1       2.305   9.870   8.877  1.00  0.00    -0.550 OA
ATOM     17  O   UNL     1       1.923  11.023   6.935  1.00  0.00    -0.550 OA
ENDBRANCH  14  15
ENDBRANCH  13  14
ENDBRANCH  12  13
ENDBRANCH  11  12
ENDBRANCH  10  11
ENDBRANCH   9  10
ENDBRANCH   8   9
ENDBRANCH   7   8
ENDBRANCH   6   7
ENDBRANCH   5   6
ENDBRANCH   4   5
ENDBRANCH   3   4
ENDBRANCH   2   3
ENDBRANCH   1   2
BRANCH   1  18
ATOM     18  C   UNL     1       3.108   4.895   9.165  1.00  0.00     0.000 C 
BRANCH  18  19
ATOM     19  C   UNL     1       2.465   6.268   8.907  1.00  0.00     0.000 C 
BRANCH  19  20
ATOM     20  C   UNL     1       1.314   6.192   7.892  1.00  0.00     0.000 C 
BRANCH  20  21
ATOM     21  C   UNL     1      -0.064   6.388   8.543  1.00  0.00     0.000 C 
BRANCH  21  22
ATOM     22  C   UNL     1      -0.642   5.042   9.007  1.00  0.00     0.000 C 
BRANCH  22  23
ATOM     23  C   UNL     1      -0.319   4.734  10.484  1.00  0.00     0.000 C 
BRANCH  23  24
ATOM     24  C   UNL     1      -1.266   5.423  11.484  1.00  0.00    -0.000 C 
BRANCH  24  25
ATOM     25  C   UNL     1      -0.587   6.406  12.457  1.00  0.00    -0.000 C 
BRANCH  25  26
ATOM     26  C   UNL     1       0.921   6.618  12.225  1.00  0.00    -0.000 C 
BRANCH  26  27
ATOM     27  C   UNL     1       1.249   8.014  11.667  1.00  0.00    -0.000 C 
BRANCH  27  28
ATOM     28  C   UNL     1       1.918   8.925  12.708  1.00  0.00    -0.000 C 
BRANCH  28  29
ATOM     29  C   UNL     1       2.219   8.193  14.027  1.00  0.00    -0.000 C 
BRANCH  29  30
ATOM     30  C   UNL     1       3.425   8.789  14.771  1.00  0.00    -0.000 C 
BRANCH  30  31
ATOM     31  C   UNL     1       3.677  10.258  14.405  1.00  0.00    -0.003 C 
ATOM     32  C   UNL     1       5.034  10.726  14.925  1.00  0.00     0.004 C 
ENDBRANCH  30  31
ENDBRANCH  29  30
ENDBRANCH  28  29
ENDBRANCH  27  28
ENDBRANCH  26  27
ENDBRANCH  25  26
ENDBRANCH  24  25
ENDBRANCH  23  24
ENDBRANCH  22  23
ENDBRANCH  21  22
ENDBRANCH  20  21
ENDBRANCH  19  20
ENDBRANCH  18  19
ENDBRANCH   1  18
TORSDOF 28
ENDMDL
MODEL 6
REMARK VINA RESULT:    -5.977      2.128      7.853
REMARK INTER + INTRA:         -19.959
REMARK INTER:                 -16.049
REMARK INTRA:                  -3.910
REMARK UNBOUND:                -4.200
REMARK SMILES CCCCCCCCCCCCCCCCCCCCCCCCCCCCCC(=O)[O-]
REMARK SMILES IDX 16 1 17 2 18 3 19 4 20 5 21 6 22 7 23 8 24 9 25 10 26 11
REMARK SMILES IDX 27 12 28 13 29 14 30 15 31 16 32 17 15 18 14 19 13 20 12 21
REMARK SMILES IDX 11 22 10 23 9 24 8 25 7 26 6 27 5 28 4 29 3 30 2 31 1 32
REMARK H PARENT
REMARK Flexibility Score: inf
ROOT
ATOM      1  C   UNL     1       2.449   3.525   8.029  1.00  0.00     0.000 C 
ENDROOT
BRANCH   1   2
ATOM      2  C   UNL     1       2.533   4.580   9.149  1.00  0.00     0.000 C 
BRANCH   2   3
ATOM      3  C   UNL     1       2.025   5.966   8.712  1.00  0.00     0.000 C 
BRANCH   3   4
ATOM      4  C   UNL     1       0.659   5.897   8.011  1.00  0.00     0.000 C 
BRANCH   4   5
ATOM      5  C   UNL     1      -0.517   6.090   8.982  1.00  0.00     0.000 C 
BRANCH   5   6
ATOM      6  C   UNL     1      -0.978   4.740   9.552  1.00  0.00     0.000 C 
BRANCH   6   7
ATOM      7  C   UNL     1      -0.835   4.662  11.080  1.00  0.00     0.000 C 
BRANCH   7   8
ATOM      8  C   UNL     1      -0.741   6.047  11.740  1.00  0.00     0.000 C 
BRANCH   8   9
ATOM      9  C   UNL     1       0.663   6.285  12.307  1.00  0.00     0.000 C 
BRANCH   9  10
ATOM     10  C   UNL     1       0.741   7.617  13.062  1.00  0.00     0.000 C 
BRANCH  10  11
ATOM     11  C   UNL     1       1.642   8.613  12.317  1.00  0.00     0.000 C 
BRANCH  11  12
ATOM     12  C   UNL     1       1.410   8.607  10.798  1.00  0.00     0.000 C 
BRANCH  12  13
ATOM     13  C   UNL     1       2.248   9.669  10.067  1.00  0.00     0.006 C 
BRANCH  13  14
ATOM     14  C   UNL     1       3.216   9.045   9.052  1.00  0.00     0.053 C 
BRANCH  14  15
ATOM     15  C   UNL     1       3.002   9.592   7.673  1.00  0.00     0.041 C 
ATOM     16  O   UNL     1       3.765  10.484   7.218  1.00  0.00    -0.550 OA
ATOM     17  O   UNL     1       1.982   9.087   6.876  1.00  0.00    -0.550 OA
ENDBRANCH  14  15
ENDBRANCH  13  14
ENDBRANCH  12  13
ENDBRANCH  11  12
ENDBRANCH  10  11
ENDBRANCH   9  10
ENDBRANCH   8   9
ENDBRANCH   7   8
ENDBRANCH   6   7
ENDBRANCH   5   6
ENDBRANCH   4   5
ENDBRANCH   3   4
ENDBRANCH   2   3
ENDBRANCH   1   2
BRANCH   1  18
ATOM     18  C   UNL     1       3.763   3.261   7.270  1.00  0.00     0.000 C 
BRANCH  18  19
ATOM     19  C   UNL     1       5.016   3.614   8.090  1.00  0.00     0.000 C 
BRANCH  19  20
ATOM     20  C   UNL     1       5.532   5.030   7.789  1.00  0.00     0.000 C 
BRANCH  20  21
ATOM     21  C   UNL     1       5.440   5.389   6.298  1.00  0.00     0.000 C 
BRANCH  21  22
ATOM     22  C   UNL     1       4.701   6.722   6.104  1.00  0.00     0.000 C 
BRANCH  22  23
ATOM     23  C   UNL     1       5.469   7.701   5.190  1.00  0.00     0.000 C 
BRANCH  23  24
ATOM     24  C   UNL     1       6.903   7.246   4.860  1.00  0.00    -0.000 C 
BRANCH  24  25
ATOM     25  C   UNL     1       8.019   8.039   5.566  1.00  0.00    -0.000 C 
BRANCH  25  26
ATOM     26  C   UNL     1       8.169   7.756   7.072  1.00  0.00    -0.000 C 
BRANCH  26  27
ATOM     27  C   UNL     1       8.926   6.449   7.362  1.00  0.00    -0.000 C 
BRANCH  27  28
ATOM     28  C   UNL     1       9.149   6.213   8.865  1.00  0.00    -0.000 C 
BRANCH  28  29
ATOM     29  C   UNL     1       8.698   4.813   9.315  1.00  0.00    -0.000 C 
BRANCH  29  30
ATOM     30  C   UNL     1       9.252   4.432  10.698  1.00  0.00    -0.000 C 
BRANCH  30  31
ATOM     31  C   UNL     1       8.654   3.123  11.234  1.00  0.00    -0.003 C 
ATOM     32  C   UNL     1       8.763   3.054  12.754  1.00  0.00     0.004 C 
ENDBRANCH  30  31
ENDBRANCH  29  30
ENDBRANCH  28  29
ENDBRANCH  27  28
ENDBRANCH  26  27
ENDBRANCH  25  26
ENDBRANCH  24  25
ENDBRANCH  23  24
ENDBRANCH  22  23
ENDBRANCH  21  22
ENDBRANCH  20  21
ENDBRANCH  19  20
ENDBRANCH  18  19
ENDBRANCH   1  18
TORSDOF 28
ENDMDL
MODEL 7
REMARK VINA RESULT:    -5.967      1.930      7.273
REMARK INTER + INTRA:         -19.935
REMARK INTER:                 -15.310
REMARK INTRA:                  -4.624
REMARK UNBOUND:                -4.200
REMARK SMILES CCCCCCCCCCCCCCCCCCCCCCCCCCCCCC(=O)[O-]
REMARK SMILES IDX 16 1 17 2 18 3 19 4 20 5 21 6 22 7 23 8 24 9 25 10 26 11
REMARK SMILES IDX 27 12 28 13 29 14 30 15 31 16 32 17 15 18 14 19 13 20 12 21
REMARK SMILES IDX 11 22 10 23 9 24 8 25 7 26 6 27 5 28 4 29 3 30 2 31 1 32
REMARK H PARENT
REMARK Flexibility Score: inf
ROOT
ATOM      1  C   UNL     1       3.508   5.080   9.225  1.00  0.00     0.000 C 
ENDROOT
BRANCH   1   2
ATOM      2  C   UNL     1       2.479   4.345   8.343  1.00  0.00     0.000 C 
BRANCH   2   3
ATOM      3  C   UNL     1       2.382   4.923   6.920  1.00  0.00     0.000 C 
BRANCH   3   4
ATOM      4  C   UNL     1       1.597   6.244   6.874  1.00  0.00     0.000 C 
BRANCH   4   5
ATOM      5  C   UNL     1       2.408   7.394   6.258  1.00  0.00     0.000 C 
BRANCH   5   6
ATOM      6  C   UNL     1       2.650   8.503   7.293  1.00  0.00     0.000 C 
BRANCH   6   7
ATOM      7  C   UNL     1       1.794   8.331   8.558  1.00  0.00     0.000 C 
BRANCH   7   8
ATOM      8  C   UNL     1       2.478   8.882   9.819  1.00  0.00     0.000 C 
BRANCH   8   9
ATOM      9  C   UNL     1       1.436   9.281  10.871  1.00  0.00     0.000 C 
BRANCH   9  10
ATOM     10  C   UNL     1       1.954   9.027  12.292  1.00  0.00     0.000 C 
BRANCH  10  11
ATOM     11  C   UNL     1       0.868   8.371  13.158  1.00  0.00     0.000 C 
BRANCH  11  12
ATOM     12  C   UNL     1       0.824   6.842  13.003  1.00  0.00     0.000 C 
BRANCH  12  13
ATOM     13  C   UNL     1      -0.298   6.375  12.062  1.00  0.00     0.006 C 
BRANCH  13  14
ATOM     14  C   UNL     1       0.245   5.590  10.860  1.00  0.00     0.053 C 
BRANCH  14  15
ATOM     15  C   UNL     1      -0.736   5.564   9.726  1.00  0.00     0.041 C 
ATOM     16  O   UNL     1      -1.029   4.477   9.164  1.00  0.00    -0.550 OA
ATOM     17  O   UNL     1      -1.356   6.738   9.317  1.00  0.00    -0.550 OA
ENDBRANCH  14  15
ENDBRANCH  13  14
ENDBRANCH  12  13
ENDBRANCH  11  12
ENDBRANCH  10  11
ENDBRANCH   9  10
ENDBRANCH   8   9
ENDBRANCH   7   8
ENDBRANCH   6   7
ENDBRANCH   5   6
ENDBRANCH   4   5
ENDBRANCH   3   4
ENDBRANCH   2   3
ENDBRANCH   1   2
BRANCH   1  18
ATOM     18  C   UNL     1       4.743   5.625   8.484  1.00  0.00     0.000 C 
BRANCH  18  19
ATOM     19  C   UNL     1       5.862   4.582   8.328  1.00  0.00     0.000 C 
BRANCH  19  20
ATOM     20  C   UNL     1       6.364   4.475   6.879  1.00  0.00     0.000 C 
BRANCH  20  21
ATOM     21  C   UNL     1       5.446   5.194   5.880  1.00  0.00     0.000 C 
BRANCH  21  22
ATOM     22  C   UNL     1       6.272   5.932   4.815  1.00  0.00     0.000 C 
BRANCH  22  23
ATOM     23  C   UNL     1       5.844   7.404   4.643  1.00  0.00     0.000 C 
BRANCH  23  24
ATOM     24  C   UNL     1       6.667   8.393   5.490  1.00  0.00    -0.000 C 
BRANCH  24  25
ATOM     25  C   UNL     1       8.019   7.854   5.994  1.00  0.00    -0.000 C 
BRANCH  25  26
ATOM     26  C   UNL     1       8.088   7.574   7.507  1.00  0.00    -0.000 C 
BRANCH  26  27
ATOM     27  C   UNL     1       9.172   6.547   7.875  1.00  0.00    -0.000 C 
BRANCH  27  28
ATOM     28  C   UNL     1      10.023   6.988   9.077  1.00  0.00    -0.000 C 
BRANCH  28  29
ATOM     29  C   UNL     1       9.948   5.993  10.248  1.00  0.00    -0.000 C 
BRANCH  29  30
ATOM     30  C   UNL     1       8.862   4.925  10.046  1.00  0.00    -0.000 C 
BRANCH  30  31
ATOM     31  C   UNL     1       9.260   3.560  10.625  1.00  0.00    -0.003 C 
ATOM     32  C   UNL     1       8.814   3.431  12.079  1.00  0.00     0.004 C 
ENDBRANCH  30  31
ENDBRANCH  29  30
ENDBRANCH  28  29
ENDBRANCH  27  28
ENDBRANCH  26  27
ENDBRANCH  25  26
ENDBRANCH  24  25
ENDBRANCH  23  24
ENDBRANCH  22  23
ENDBRANCH  21  22
ENDBRANCH  20  21
ENDBRANCH  19  20
ENDBRANCH  18  19
ENDBRANCH   1  18
TORSDOF 28
ENDMDL
MODEL 8
REMARK VINA RESULT:    -5.958      2.555      6.772
REMARK INTER + INTRA:         -19.909
REMARK INTER:                 -15.096
REMARK INTRA:                  -4.813
REMARK UNBOUND:                -4.200
REMARK SMILES CCCCCCCCCCCCCCCCCCCCCCCCCCCCCC(=O)[O-]
REMARK SMILES IDX 16 1 17 2 18 3 19 4 20 5 21 6 22 7 23 8 24 9 25 10 26 11
REMARK SMILES IDX 27 12 28 13 29 14 30 15 31 16 32 17 15 18 14 19 13 20 12 21
REMARK SMILES IDX 11 22 10 23 9 24 8 25 7 26 6 27 5 28 4 29 3 30 2 31 1 32
REMARK H PARENT
REMARK Flexibility Score: inf
ROOT
ATOM      1  C   UNL     1      -1.079   5.840  11.821  1.00  0.00     0.000 C 
ENDROOT
BRANCH   1   2
ATOM      2  C   UNL     1      -1.318   4.576  10.973  1.00  0.00     0.000 C 
BRANCH   2   3
ATOM      3  C   UNL     1      -0.609   4.621   9.608  1.00  0.00     0.000 C 
BRANCH   3   4
ATOM      4  C   UNL     1      -1.043   5.828   8.760  1.00  0.00     0.000 C 
BRANCH   4   5
ATOM      5  C   UNL     1       0.088   6.850   8.561  1.00  0.00     0.000 C 
BRANCH   5   6
ATOM      6  C   UNL     1       1.363   6.158   8.055  1.00  0.00     0.000 C 
BRANCH   6   7
ATOM      7  C   UNL     1       2.409   5.958   9.163  1.00  0.00     0.000 C 
BRANCH   7   8
ATOM      8  C   UNL     1       3.011   4.544   9.165  1.00  0.00     0.000 C 
BRANCH   8   9
ATOM      9  C   UNL     1       2.963   3.932   7.760  1.00  0.00     0.000 C 
BRANCH   9  10
ATOM     10  C   UNL     1       4.359   3.497   7.295  1.00  0.00     0.000 C 
BRANCH  10  11
ATOM     11  C   UNL     1       5.434   3.971   8.284  1.00  0.00     0.000 C 
BRANCH  11  12
ATOM     12  C   UNL     1       6.804   4.181   7.619  1.00  0.00     0.000 C 
BRANCH  12  13
ATOM     13  C   UNL     1       7.884   4.627   8.619  1.00  0.00     0.006 C 
BRANCH  13  14
ATOM     14  C   UNL     1       8.550   5.945   8.202  1.00  0.00     0.053 C 
BRANCH  14  15
ATOM     15  C   UNL     1       9.573   6.391   9.204  1.00  0.00     0.041 C 
ATOM     16  O   UNL     1      10.246   7.435   9.003  1.00  0.00    -0.550 OA
ATOM     17  O   UNL     1       9.753   5.673  10.379  1.00  0.00    -0.550 OA
ENDBRANCH  14  15
ENDBRANCH  13  14
ENDBRANCH  12  13
ENDBRANCH  11  12
ENDBRANCH  10  11
ENDBRANCH   9  10
ENDBRANCH   8   9
ENDBRANCH   7   8
ENDBRANCH   6   7
ENDBRANCH   5   6
ENDBRANCH   4   5
ENDBRANCH   3   4
ENDBRANCH   2   3
ENDBRANCH   1   2
BRANCH   1  18
ATOM     18  C   UNL     1       0.398   6.200  12.069  1.00  0.00     0.000 C 
BRANCH  18  19
ATOM     19  C   UNL     1       0.588   7.216  13.208  1.00  0.00     0.000 C 
BRANCH  19  20
ATOM     20  C   UNL     1       1.552   8.350  12.825  1.00  0.00     0.000 C 
BRANCH  20  21
ATOM     21  C   UNL     1       1.242   8.951  11.446  1.00  0.00     0.000 C 
BRANCH  21  22
ATOM     22  C   UNL     1       2.458   8.835  10.515  1.00  0.00     0.000 C 
BRANCH  22  23
ATOM     23  C   UNL     1       2.563  10.012   9.523  1.00  0.00     0.000 C 
BRANCH  23  24
ATOM     24  C   UNL     1       2.407   9.597   8.048  1.00  0.00    -0.000 C 
BRANCH  24  25
ATOM     25  C   UNL     1       3.663   9.793   7.177  1.00  0.00    -0.000 C 
BRANCH  25  26
ATOM     26  C   UNL     1       4.944   9.131   7.719  1.00  0.00    -0.000 C 
BRANCH  26  27
ATOM     27  C   UNL     1       4.890   7.594   7.665  1.00  0.00    -0.000 C 
BRANCH  27  28
ATOM     28  C   UNL     1       4.465   7.064   6.286  1.00  0.00    -0.000 C 
BRANCH  28  29
ATOM     29  C   UNL     1       5.648   6.498   5.482  1.00  0.00    -0.000 C 
BRANCH  29  30
ATOM     30  C   UNL     1       6.368   7.575   4.655  1.00  0.00    -0.000 C 
BRANCH  30  31
ATOM     31  C   UNL     1       7.803   7.831   5.139  1.00  0.00    -0.003 C 
ATOM     32  C   UNL     1       8.056   9.323   5.335  1.00  0.00     0.004 C 
ENDBRANCH  30  31
ENDBRANCH  29  30
ENDBRANCH  28  29
ENDBRANCH  27  28
ENDBRANCH  26  27
ENDBRANCH  25  26
ENDBRANCH  24  25
ENDBRANCH  23  24
ENDBRANCH  22  23
ENDBRANCH  21  22
ENDBRANCH  20  21
ENDBRANCH  19  20
ENDBRANCH  18  19
ENDBRANCH   1  18
TORSDOF 28
ENDMDL
MODEL 9
REMARK VINA RESULT:    -5.798      2.450      7.974
REMARK INTER + INTRA:         -19.489
REMARK INTER:                 -14.538
REMARK INTRA:                  -4.951
REMARK UNBOUND:                -4.200
REMARK SMILES CCCCCCCCCCCCCCCCCCCCCCCCCCCCCC(=O)[O-]
REMARK SMILES IDX 16 1 17 2 18 3 19 4 20 5 21 6 22 7 23 8 24 9 25 10 26 11
REMARK SMILES IDX 27 12 28 13 29 14 30 15 31 16 32 17 15 18 14 19 13 20 12 21
REMARK SMILES IDX 11 22 10 23 9 24 8 25 7 26 6 27 5 28 4 29 3 30 2 31 1 32
REMARK H PARENT
REMARK Flexibility Score: inf
ROOT
ATOM      1  C   UNL     1       4.734   8.868   7.769  1.00  0.00     0.000 C 
ENDROOT
BRANCH   1   2
ATOM      2  C   UNL     1       3.749   9.966   7.323  1.00  0.00     0.000 C 
BRANCH   2   3
ATOM      3  C   UNL     1       2.342   9.795   7.924  1.00  0.00     0.000 C 
BRANCH   3   4
ATOM      4  C   UNL     1       2.368   9.683   9.457  1.00  0.00     0.000 C 
BRANCH   4   5
ATOM      5  C   UNL     1       1.576   8.473   9.977  1.00  0.00     0.000 C 
BRANCH   5   6
ATOM      6  C   UNL     1       0.891   7.734   8.818  1.00  0.00     0.000 C 
BRANCH   6   7
ATOM      7  C   UNL     1      -0.555   7.330   9.144  1.00  0.00     0.000 C 
BRANCH   7   8
ATOM      8  C   UNL     1      -0.878   5.886   8.730  1.00  0.00     0.000 C 
BRANCH   8   9
ATOM      9  C   UNL     1      -0.687   4.926   9.910  1.00  0.00     0.000 C 
BRANCH   9  10
ATOM     10  C   UNL     1      -1.012   5.611  11.243  1.00  0.00     0.000 C 
BRANCH  10  11
ATOM     11  C   UNL     1       0.251   5.744  12.108  1.00  0.00     0.000 C 
BRANCH  11  12
ATOM     12  C   UNL     1       0.230   6.993  13.005  1.00  0.00     0.000 C 
BRANCH  12  13
ATOM     13  C   UNL     1       1.623   7.353  13.547  1.00  0.00     0.006 C 
BRANCH  13  14
ATOM     14  C   UNL     1       1.928   8.852  13.408  1.00  0.00     0.053 C 
BRANCH  14  15
ATOM     15  C   UNL     1       3.110   9.255  14.235  1.00  0.00     0.041 C 
ATOM     16  O   UNL     1       3.575   8.473  15.105  1.00  0.00    -0.550 OA
ATOM     17  O   UNL     1       3.725  10.483  14.017  1.00  0.00    -0.550 OA
ENDBRANCH  14  15
ENDBRANCH  13  14
ENDBRANCH  12  13
ENDBRANCH  11  12
ENDBRANCH  10  11
ENDBRANCH   9  10
ENDBRANCH   8   9
ENDBRANCH   7   8
ENDBRANCH   6   7
ENDBRANCH   5   6
ENDBRANCH   4   5
ENDBRANCH   3   4
ENDBRANCH   2   3
ENDBRANCH   1   2
BRANCH   1  18
ATOM     18  C   UNL     1       4.406   7.445   7.277  1.00  0.00     0.000 C 
BRANCH  18  19
ATOM     19  C   UNL     1       3.769   7.423   5.878  1.00  0.00     0.000 C 
BRANCH  19  20
ATOM     20  C   UNL     1       4.801   7.156   4.770  1.00  0.00     0.000 C 
BRANCH  20  21
ATOM     21  C   UNL     1       6.189   6.807   5.326  1.00  0.00     0.000 C 
BRANCH  21  22
ATOM     22  C   UNL     1       7.205   7.908   4.985  1.00  0.00     0.000 C 
BRANCH  22  23
ATOM     23  C   UNL     1       8.433   7.896   5.920  1.00  0.00     0.000 C 
BRANCH  23  24
ATOM     24  C   UNL     1       8.122   7.403   7.346  1.00  0.00    -0.000 C 
BRANCH  24  25
ATOM     25  C   UNL     1       9.081   6.327   7.889  1.00  0.00    -0.000 C 
BRANCH  25  26
ATOM     26  C   UNL     1       8.402   5.039   8.390  1.00  0.00    -0.000 C 
BRANCH  26  27
ATOM     27  C   UNL     1       6.867   5.139   8.402  1.00  0.00    -0.000 C 
BRANCH  27  28
ATOM     28  C   UNL     1       6.200   4.144   7.438  1.00  0.00    -0.000 C 
BRANCH  28  29
ATOM     29  C   UNL     1       4.916   3.529   8.021  1.00  0.00    -0.000 C 
BRANCH  29  30
ATOM     30  C   UNL     1       3.650   4.003   7.288  1.00  0.00    -0.000 C 
BRANCH  30  31
ATOM     31  C   UNL     1       2.484   4.286   8.246  1.00  0.00    -0.003 C 
ATOM     32  C   UNL     1       2.984   4.902   9.550  1.00  0.00     0.004 C 
ENDBRANCH  30  31
ENDBRANCH  29  30
ENDBRANCH  28  29
ENDBRANCH  27  28
ENDBRANCH  26  27
ENDBRANCH  25  26
ENDBRANCH  24  25
ENDBRANCH  23  24
ENDBRANCH  22  23
ENDBRANCH  21  22
ENDBRANCH  20  21
ENDBRANCH  19  20
ENDBRANCH  18  19
ENDBRANCH   1  18
TORSDOF 28
ENDMDL
