MODEL 1
REMARK VINA RESULT:    -3.416      0.000      0.000
REMARK INTER + INTRA:          -3.980
REMARK INTER:                  -3.915
REMARK INTRA:                  -0.065
REMARK UNBOUND:                -0.065
REMARK SMILES CC(C)[C@@H]([NH3+])C(=O)[O-]
REMARK SMILES IDX 4 1 5 2 6 6 7 7 8 8 2 9 1 10 3 11
REMARK H PARENT 5 3 5 4 5 5
REMARK Flexibility Score: inf
ROOT
ATOM      1  C   UNL     1     111.381 102.111 100.497  1.00  0.00     0.230 C 
ENDROOT
BRANCH   1   2
ATOM      2  N   UNL     1     110.586 101.803 101.696  1.00  0.00    -0.350 N 
ATOM      3  H   UNL     1     110.478 102.653 102.297  1.00  0.00     0.345 HD
ATOM      4  H   UNL     1     111.042 101.040 102.246  1.00  0.00     0.345 HD
ATOM      5  H   UNL     1     109.637 101.460 101.420  1.00  0.00     0.345 HD
ENDBRANCH   1   2
BRANCH   1   6
ATOM      6  C   UNL     1     112.820 101.728 100.738  1.00  0.00     0.099 C 
ATOM      7  O   UNL     1     113.404 100.923  99.966  1.00  0.00    -0.544 OA
ATOM      8  O   UNL     1     113.513 102.272 101.812  1.00  0.00    -0.544 OA
ENDBRANCH   1   6
BRANCH   1   9
ATOM      9  C   UNL     1     110.821 101.397  99.228  1.00  0.00     0.047 C 
ATOM     10  C   UNL     1     109.682 100.424  99.576  1.00  0.00     0.014 C 
ATOM     11  C   UNL     1     110.313 102.417  98.194  1.00  0.00     0.014 C 
ENDBRANCH   1   9
TORSDOF 3
ENDMDL
MODEL 2
REMARK VINA RESULT:    -3.398     12.839     13.430
REMARK INTER + INTRA:          -3.960
REMARK INTER:                  -3.895
REMARK INTRA:                  -0.065
REMARK UNBOUND:                -0.065
REMARK SMILES CC(C)[C@@H]([NH3+])C(=O)[O-]
REMARK SMILES IDX 4 1 5 2 6 6 7 7 8 8 2 9 1 10 3 11
REMARK H PARENT 5 3 5 4 5 5
REMARK Flexibility Score: inf
ROOT
ATOM      1  C   UNL     1     112.815 114.306 100.482  1.00  0.00     0.230 C 
ENDROOT
BRANCH   1   2
ATOM      2  N   UNL     1     113.474 113.778 101.688  1.00  0.00    -0.350 N 
ATOM      3  H   UNL     1     112.822 113.800 102.505  1.00  0.00     0.345 HD
ATOM      4  H   UNL     1     114.329 114.339 101.906  1.00  0.00     0.345 HD
ATOM      5  H   UNL     1     113.784 112.793 101.525  1.00  0.00     0.345 HD
ENDBRANCH   1   2
BRANCH   1   6
ATOM      6  C   UNL     1     112.419 115.743 100.715  1.00  0.00     0.099 C 
ATOM      7  O   UNL     1     112.809 116.648  99.932  1.00  0.00    -0.544 OA
ATOM      8  O   UNL     1     111.610 116.074 101.796  1.00  0.00    -0.544 OA
ENDBRANCH   1   6
BRANCH   1   9
ATOM      9  C   UNL     1     113.723 114.177  99.220  1.00  0.00     0.047 C 
ATOM     10  C   UNL     1     115.138 113.694  99.579  1.00  0.00     0.014 C 
ATOM     11  C   UNL     1     113.108 113.214  98.188  1.00  0.00     0.014 C 
ENDBRANCH   1   9
TORSDOF 3
ENDMDL
MODEL 3
REMARK VINA RESULT:    -3.382     12.706     13.309
REMARK INTER + INTRA:          -3.941
REMARK INTER:                  -3.878
REMARK INTRA:                  -0.063
REMARK UNBOUND:                -0.065
REMARK SMILES CC(C)[C@@H]([NH3+])C(=O)[O-]
REMARK SMILES IDX 4 1 5 2 6 6 7 7 8 8 2 9 1 10 3 11
REMARK H PARENT 5 3 5 4 5 5
REMARK Flexibility Score: inf
ROOT
ATOM      1  C   UNL     1     101.651 109.318 100.378  1.00  0.00     0.230 C 
ENDROOT
BRANCH   1   2
ATOM      2  N   UNL     1     101.880 110.127 101.587  1.00  0.00    -0.350 N 
ATOM      3  H   UNL     1     102.363 109.562 102.323  1.00  0.00     0.345 HD
ATOM      4  H   UNL     1     100.971 110.485 101.959  1.00  0.00     0.345 HD
ATOM      5  H   UNL     1     102.468 110.960 101.355  1.00  0.00     0.345 HD
ENDBRANCH   1   2
BRANCH   1   6
ATOM      6  C   UNL     1     100.539 108.332 100.638  1.00  0.00     0.099 C 
ATOM      7  O   UNL     1      99.545 108.274  99.868  1.00  0.00    -0.544 OA
ATOM      8  O   UNL     1     100.614 107.473 101.727  1.00  0.00    -0.544 OA
ENDBRANCH   1   6
BRANCH   1   9
ATOM      9  C   UNL     1     101.327 110.207  99.137  1.00  0.00     0.047 C 
ATOM     10  C   UNL     1     100.998 111.654  99.539  1.00  0.00     0.014 C 
ATOM     11  C   UNL     1     102.498 110.215  98.138  1.00  0.00     0.014 C 
ENDBRANCH   1   9
TORSDOF 3
ENDMDL
MODEL 4
REMARK VINA RESULT:    -3.270     13.378     13.795
REMARK INTER + INTRA:          -3.813
REMARK INTER:                  -3.754
REMARK INTRA:                  -0.059
REMARK UNBOUND:                -0.065
REMARK SMILES CC(C)[C@@H]([NH3+])C(=O)[O-]
REMARK SMILES IDX 4 1 5 2 6 6 7 7 8 8 2 9 1 10 3 11
REMARK H PARENT 5 3 5 4 5 5
REMARK Flexibility Score: inf
ROOT
ATOM      1  C   UNL     1     102.095 111.577 101.244  1.00  0.00     0.230 C 
ENDROOT
BRANCH   1   2
ATOM      2  N   UNL     1     102.292 110.201 101.729  1.00  0.00    -0.350 N 
ATOM      3  H   UNL     1     101.690 110.014 102.564  1.00  0.00     0.345 HD
ATOM      4  H   UNL     1     103.295 110.047 101.978  1.00  0.00     0.345 HD
ATOM      5  H   UNL     1     102.052 109.517 100.975  1.00  0.00     0.345 HD
ENDBRANCH   1   2
BRANCH   1   6
ATOM      6  C   UNL     1     103.363 112.368 101.449  1.00  0.00     0.099 C 
ATOM      7  O   UNL     1     103.625 112.873 102.572  1.00  0.00    -0.544 OA
ATOM      8  O   UNL     1     104.256 112.533 100.397  1.00  0.00    -0.544 OA
ENDBRANCH   1   6
BRANCH   1   9
ATOM      9  C   UNL     1     101.656 111.608  99.747  1.00  0.00     0.047 C 
ATOM     10  C   UNL     1     100.888 110.337  99.349  1.00  0.00     0.014 C 
ATOM     11  C   UNL     1     100.782 112.839  99.449  1.00  0.00     0.014 C 
ENDBRANCH   1   9
TORSDOF 3
ENDMDL
MODEL 5
REMARK VINA RESULT:    -3.257     10.580     11.174
REMARK INTER + INTRA:          -3.798
REMARK INTER:                  -3.747
REMARK INTRA:                  -0.051
REMARK UNBOUND:                -0.065
REMARK SMILES CC(C)[C@@H]([NH3+])C(=O)[O-]
REMARK SMILES IDX 4 1 5 2 6 6 7 7 8 8 2 9 1 10 3 11
REMARK H PARENT 5 3 5 4 5 5
REMARK Flexibility Score: inf
ROOT
ATOM      1  C   UNL     1     114.603 112.145 100.714  1.00  0.00     0.230 C 
ENDROOT
BRANCH   1   2
ATOM      2  N   UNL     1     113.551 112.789 101.518  1.00  0.00    -0.350 N 
ATOM      3  H   UNL     1     112.857 112.082 101.855  1.00  0.00     0.345 HD
ATOM      4  H   UNL     1     113.061 113.519 100.952  1.00  0.00     0.345 HD
ATOM      5  H   UNL     1     113.974 113.272 102.344  1.00  0.00     0.345 HD
ENDBRANCH   1   2
BRANCH   1   6
ATOM      6  C   UNL     1     114.146 110.768 100.303  1.00  0.00     0.099 C 
ATOM      7  O   UNL     1     113.355 110.620  99.334  1.00  0.00    -0.544 OA
ATOM      8  O   UNL     1     114.607 109.650 100.988  1.00  0.00    -0.544 OA
ENDBRANCH   1   6
BRANCH   1   9
ATOM      9  C   UNL     1     114.986 113.000  99.467  1.00  0.00     0.047 C 
ATOM     10  C   UNL     1     114.154 114.290  99.378  1.00  0.00     0.014 C 
ATOM     11  C   UNL     1     116.482 113.365  99.481  1.00  0.00     0.014 C 
ENDBRANCH   1   9
TORSDOF 3
ENDMDL
MODEL 6
REMARK VINA RESULT:    -3.250     12.971     13.528
REMARK INTER + INTRA:          -3.790
REMARK INTER:                  -3.735
REMARK INTRA:                  -0.055
REMARK UNBOUND:                -0.065
REMARK SMILES CC(C)[C@@H]([NH3+])C(=O)[O-]
REMARK SMILES IDX 4 1 5 2 6 6 7 7 8 8 2 9 1 10 3 11
REMARK H PARENT 5 3 5 4 5 5
REMARK Flexibility Score: inf
ROOT
ATOM      1  C   UNL     1     101.776 110.391 100.819  1.00  0.00     0.230 C 
ENDROOT
BRANCH   1   2
ATOM      2  N   UNL     1     103.094 109.771 101.030  1.00  0.00    -0.350 N 
ATOM      3  H   UNL     1     103.725 110.415 101.561  1.00  0.00     0.345 HD
ATOM      4  H   UNL     1     103.531 109.530 100.112  1.00  0.00     0.345 HD
ATOM      5  H   UNL     1     102.989 108.878 101.566  1.00  0.00     0.345 HD
ENDBRANCH   1   2
BRANCH   1   6
ATOM      6  C   UNL     1     101.883 111.881 101.029  1.00  0.00     0.099 C 
ATOM      7  O   UNL     1     101.064 112.663 100.479  1.00  0.00    -0.544 OA
ATOM      8  O   UNL     1     102.884 112.397 101.841  1.00  0.00    -0.544 OA
ENDBRANCH   1   6
BRANCH   1   9
ATOM      9  C   UNL     1     101.202 110.068  99.405  1.00  0.00     0.047 C 
ATOM     10  C   UNL     1     102.286 110.142  98.316  1.00  0.00     0.014 C 
ATOM     11  C   UNL     1     100.550 108.674  99.373  1.00  0.00     0.014 C 
ENDBRANCH   1   9
TORSDOF 3
ENDMDL
MODEL 7
REMARK VINA RESULT:    -3.249     11.627     12.181
REMARK INTER + INTRA:          -3.789
REMARK INTER:                  -3.731
REMARK INTRA:                  -0.058
REMARK UNBOUND:                -0.065
REMARK SMILES CC(C)[C@@H]([NH3+])C(=O)[O-]
REMARK SMILES IDX 4 1 5 2 6 6 7 7 8 8 2 9 1 10 3 11
REMARK H PARENT 5 3 5 4 5 5
REMARK Flexibility Score: inf
ROOT
ATOM      1  C   UNL     1     113.625 113.740 100.828  1.00  0.00     0.230 C 
ENDROOT
BRANCH   1   2
ATOM      2  N   UNL     1     112.407 112.955 101.087  1.00  0.00    -0.350 N 
ATOM      3  H   UNL     1     111.843 112.848 100.213  1.00  0.00     0.345 HD
ATOM      4  H   UNL     1     111.829 113.418 101.824  1.00  0.00     0.345 HD
ATOM      5  H   UNL     1     112.662 112.006 101.447  1.00  0.00     0.345 HD
ENDBRANCH   1   2
BRANCH   1   6
ATOM      6  C   UNL     1     114.837 112.863 101.017  1.00  0.00     0.099 C 
ATOM      7  O   UNL     1     114.775 111.834 101.740  1.00  0.00    -0.544 OA
ATOM      8  O   UNL     1     116.031 113.182 100.382  1.00  0.00    -0.544 OA
ENDBRANCH   1   6
BRANCH   1   9
ATOM      9  C   UNL     1     113.614 114.376  99.403  1.00  0.00     0.047 C 
ATOM     10  C   UNL     1     113.154 113.372  98.333  1.00  0.00     0.014 C 
ATOM     11  C   UNL     1     112.706 115.617  99.354  1.00  0.00     0.014 C 
ENDBRANCH   1   9
TORSDOF 3
ENDMDL
MODEL 8
REMARK VINA RESULT:    -3.241      3.553      4.145
REMARK INTER + INTRA:          -3.779
REMARK INTER:                  -3.724
REMARK INTRA:                  -0.055
REMARK UNBOUND:                -0.065
REMARK SMILES CC(C)[C@@H]([NH3+])C(=O)[O-]
REMARK SMILES IDX 4 1 5 2 6 6 7 7 8 8 2 9 1 10 3 11
REMARK H PARENT 5 3 5 4 5 5
REMARK Flexibility Score: inf
ROOT
ATOM      1  C   UNL     1     108.681 101.514 100.841  1.00  0.00     0.230 C 
ENDROOT
BRANCH   1   2
ATOM      2  N   UNL     1     109.783 102.046 101.660  1.00  0.00    -0.350 N 
ATOM      3  H   UNL     1     109.629 101.829 102.672  1.00  0.00     0.345 HD
ATOM      4  H   UNL     1     109.862 103.080 101.531  1.00  0.00     0.345 HD
ATOM      5  H   UNL     1     110.692 101.626 101.356  1.00  0.00     0.345 HD
ENDBRANCH   1   2
BRANCH   1   6
ATOM      6  C   UNL     1     107.717 102.627 100.516  1.00  0.00     0.099 C 
ATOM      7  O   UNL     1     107.854 103.304  99.462  1.00  0.00    -0.544 OA
ATOM      8  O   UNL     1     106.662 102.906 101.376  1.00  0.00    -0.544 OA
ENDBRANCH   1   6
BRANCH   1   9
ATOM      9  C   UNL     1     109.202 100.832  99.539  1.00  0.00     0.047 C 
ATOM     10  C   UNL     1     110.731 100.932  99.413  1.00  0.00     0.014 C 
ATOM     11  C   UNL     1     108.788  99.350  99.483  1.00  0.00     0.014 C 
ENDBRANCH   1   9
TORSDOF 3
ENDMDL
MODEL 9
REMARK VINA RESULT:    -3.178     11.091     11.683
REMARK INTER + INTRA:          -3.707
REMARK INTER:                  -3.638
REMARK INTRA:                  -0.069
REMARK UNBOUND:                -0.065
REMARK SMILES CC(C)[C@@H]([NH3+])C(=O)[O-]
REMARK SMILES IDX 4 1 5 2 6 6 7 7 8 8 2 9 1 10 3 11
REMARK H PARENT 5 3 5 4 5 5
REMARK Flexibility Score: inf
ROOT
ATOM      1  C   UNL     1     112.448 112.830  99.485  1.00  0.00     0.230 C 
ENDROOT
BRANCH   1   2
ATOM      2  N   UNL     1     111.013 113.137  99.379  1.00  0.00    -0.350 N 
ATOM      3  H   UNL     1     110.436 112.287  99.579  1.00  0.00     0.345 HD
ATOM      4  H   UNL     1     110.789 113.495  98.423  1.00  0.00     0.345 HD
ATOM      5  H   UNL     1     110.756 113.891 100.058  1.00  0.00     0.345 HD
ENDBRANCH   1   2
BRANCH   1   6
ATOM      6  C   UNL     1     112.741 111.544  98.752  1.00  0.00     0.099 C 
ATOM      7  O   UNL     1     112.375 111.393  97.556  1.00  0.00    -0.544 OA
ATOM      8  O   UNL     1     113.427 110.520  99.393  1.00  0.00    -0.544 OA
ENDBRANCH   1   6
BRANCH   1   9
ATOM      9  C   UNL     1     113.333 113.994  98.941  1.00  0.00     0.047 C 
ATOM     10  C   UNL     1     112.817 115.368  99.399  1.00  0.00     0.014 C 
ATOM     11  C   UNL     1     114.798 113.833  99.385  1.00  0.00     0.014 C 
ENDBRANCH   1   9
TORSDOF 3
ENDMDL
