MODEL 1
REMARK VINA RESULT:    -4.096      0.000      0.000
REMARK INTER + INTRA:          -8.374
REMARK INTER:                  -7.090
REMARK INTRA:                  -1.284
REMARK UNBOUND:                -1.284
REMARK SMILES CCCCCCCCCCCCCCO
REMARK SMILES IDX 8 1 7 2 6 3 5 4 4 5 3 6 2 7 1 8 9 9 10 10 11 11 12 12 13 13
REMARK SMILES IDX 14 14 15 15
REMARK H PARENT 15 16
REMARK Flexibility Score: inf
ROOT
ATOM      1  C   UNL     1       0.196   9.377  21.547  1.00  0.00     0.000 C 
ENDROOT
BRANCH   1   2
ATOM      2  C   UNL     1      -0.176   9.220  20.065  1.00  0.00    -0.000 C 
BRANCH   2   3
ATOM      3  C   UNL     1      -1.591   9.753  19.796  1.00  0.00    -0.000 C 
BRANCH   3   4
ATOM      4  C   UNL     1      -1.697  11.275  19.979  1.00  0.00    -0.000 C 
BRANCH   4   5
ATOM      5  C   UNL     1      -2.330  11.975  18.768  1.00  0.00    -0.000 C 
BRANCH   5   6
ATOM      6  C   UNL     1      -2.710  10.957  17.682  1.00  0.00    -0.000 C 
BRANCH   6   7
ATOM      7  C   UNL     1      -4.202  11.006  17.322  1.00  0.00    -0.003 C 
ATOM      8  C   UNL     1      -4.786  12.417  17.410  1.00  0.00     0.004 C 
ENDBRANCH   6   7
ENDBRANCH   5   6
ENDBRANCH   4   5
ENDBRANCH   3   4
ENDBRANCH   2   3
ENDBRANCH   1   2
BRANCH   1   9
ATOM      9  C   UNL     1       1.459  10.231  21.760  1.00  0.00     0.000 C 
BRANCH   9  10
ATOM     10  C   UNL     1       2.406  10.311  20.546  1.00  0.00     0.000 C 
BRANCH  10  11
ATOM     11  C   UNL     1       2.751  11.737  20.079  1.00  0.00     0.000 C 
BRANCH  11  12
ATOM     12  C   UNL     1       1.714  12.777  20.528  1.00  0.00     0.002 C 
BRANCH  12  13
ATOM     13  C   UNL     1       1.253  13.637  19.342  1.00  0.00     0.028 C 
BRANCH  13  14
ATOM     14  C   UNL     1       1.102  15.108  19.734  1.00  0.00     0.156 C 
BRANCH  14  15
ATOM     15  O   UNL     1      -0.110  15.615  19.247  1.00  0.00    -0.396 OA
ATOM     16  H   UNL     1       0.131  16.295  18.565  1.00  0.00     0.210 HD
ENDBRANCH  14  15
ENDBRANCH  13  14
ENDBRANCH  12  13
ENDBRANCH  11  12
ENDBRANCH  10  11
ENDBRANCH   9  10
ENDBRANCH   1   9
TORSDOF 13
ENDMDL
MODEL 2
REMARK VINA RESULT:    -3.948      3.686      6.389
REMARK INTER + INTRA:          -8.117
REMARK INTER:                  -6.913
REMARK INTRA:                  -1.204
REMARK UNBOUND:                -1.284
REMARK SMILES CCCCCCCCCCCCCCO
REMARK SMILES IDX 8 1 7 2 6 3 5 4 4 5 3 6 2 7 1 8 9 9 10 10 11 11 12 12 13 13
REMARK SMILES IDX 14 14 15 15
REMARK H PARENT 15 16
REMARK Flexibility Score: inf
ROOT
ATOM      1  C   UNL     1      -6.950   8.735  16.398  1.00  0.00     0.000 C 
ENDROOT
BRANCH   1   2
ATOM      2  C   UNL     1      -8.083   9.773  16.402  1.00  0.00    -0.000 C 
BRANCH   2   3
ATOM      3  C   UNL     1      -8.352  10.285  17.825  1.00  0.00    -0.000 C 
BRANCH   3   4
ATOM      4  C   UNL     1      -7.971  11.762  18.006  1.00  0.00    -0.000 C 
BRANCH   4   5
ATOM      5  C   UNL     1      -6.501  12.043  17.660  1.00  0.00    -0.000 C 
BRANCH   5   6
ATOM      6  C   UNL     1      -6.356  13.384  16.926  1.00  0.00    -0.000 C 
BRANCH   6   7
ATOM      7  C   UNL     1      -5.963  13.212  15.451  1.00  0.00    -0.003 C 
ATOM      8  C   UNL     1      -6.181  14.482  14.628  1.00  0.00     0.004 C 
ENDBRANCH   6   7
ENDBRANCH   5   6
ENDBRANCH   4   5
ENDBRANCH   3   4
ENDBRANCH   2   3
ENDBRANCH   1   2
BRANCH   1   9
ATOM      9  C   UNL     1      -6.480   8.357  17.814  1.00  0.00     0.000 C 
BRANCH   9  10
ATOM     10  C   UNL     1      -4.957   8.163  17.967  1.00  0.00     0.000 C 
BRANCH  10  11
ATOM     11  C   UNL     1      -4.230   9.282  18.733  1.00  0.00     0.000 C 
BRANCH  11  12
ATOM     12  C   UNL     1      -2.928   9.725  18.048  1.00  0.00     0.002 C 
BRANCH  12  13
ATOM     13  C   UNL     1      -2.995  11.206  17.651  1.00  0.00     0.028 C 
BRANCH  13  14
ATOM     14  C   UNL     1      -2.455  12.115  18.756  1.00  0.00     0.156 C 
BRANCH  14  15
ATOM     15  O   UNL     1      -1.317  12.797  18.306  1.00  0.00    -0.396 OA
ATOM     16  H   UNL     1      -0.630  12.101  18.132  1.00  0.00     0.210 HD
ENDBRANCH  14  15
ENDBRANCH  13  14
ENDBRANCH  12  13
ENDBRANCH  11  12
ENDBRANCH  10  11
ENDBRANCH   9  10
ENDBRANCH   1   9
TORSDOF 13
ENDMDL
MODEL 3
REMARK VINA RESULT:    -3.908      1.974      5.567
REMARK INTER + INTRA:          -8.048
REMARK INTER:                  -6.887
REMARK INTRA:                  -1.161
REMARK UNBOUND:                -1.284
REMARK SMILES CCCCCCCCCCCCCCO
REMARK SMILES IDX 8 1 7 2 6 3 5 4 4 5 3 6 2 7 1 8 9 9 10 10 11 11 12 12 13 13
REMARK SMILES IDX 14 14 15 15
REMARK H PARENT 15 16
REMARK Flexibility Score: inf
ROOT
ATOM      1  C   UNL     1      -0.811  10.172  21.034  1.00  0.00     0.000 C 
ENDROOT
BRANCH   1   2
ATOM      2  C   UNL     1      -0.378   8.855  20.369  1.00  0.00    -0.000 C 
BRANCH   2   3
ATOM      3  C   UNL     1       0.983   8.392  20.908  1.00  0.00    -0.000 C 
BRANCH   3   4
ATOM      4  C   UNL     1       1.871   9.561  21.361  1.00  0.00    -0.000 C 
BRANCH   4   5
ATOM      5  C   UNL     1       3.141   9.707  20.510  1.00  0.00    -0.000 C 
BRANCH   5   6
ATOM      6  C   UNL     1       3.358  11.170  20.095  1.00  0.00    -0.000 C 
BRANCH   6   7
ATOM      7  C   UNL     1       2.363  12.129  20.766  1.00  0.00    -0.003 C 
ATOM      8  C   UNL     1       1.745  13.124  19.784  1.00  0.00     0.004 C 
ENDBRANCH   6   7
ENDBRANCH   5   6
ENDBRANCH   4   5
ENDBRANCH   3   4
ENDBRANCH   2   3
ENDBRANCH   1   2
BRANCH   1   9
ATOM      9  C   UNL     1      -2.108  10.746  20.435  1.00  0.00     0.000 C 
BRANCH   9  10
ATOM     10  C   UNL     1      -1.914  11.942  19.481  1.00  0.00     0.000 C 
BRANCH  10  11
ATOM     11  C   UNL     1      -2.539  11.772  18.085  1.00  0.00     0.000 C 
BRANCH  11  12
ATOM     12  C   UNL     1      -3.505  10.580  18.006  1.00  0.00     0.002 C 
BRANCH  12  13
ATOM     13  C   UNL     1      -4.788  10.964  17.254  1.00  0.00     0.028 C 
BRANCH  13  14
ATOM     14  C   UNL     1      -4.817  12.453  16.905  1.00  0.00     0.156 C 
BRANCH  14  15
ATOM     15  O   UNL     1      -4.692  12.625  15.520  1.00  0.00    -0.396 OA
ATOM     16  H   UNL     1      -4.464  13.582  15.382  1.00  0.00     0.210 HD
ENDBRANCH  14  15
ENDBRANCH  13  14
ENDBRANCH  12  13
ENDBRANCH  11  12
ENDBRANCH  10  11
ENDBRANCH   9  10
ENDBRANCH   1   9
TORSDOF 13
ENDMDL
MODEL 4
REMARK VINA RESULT:    -3.853      2.045      6.204
REMARK INTER + INTRA:          -7.952
REMARK INTER:                  -7.105
REMARK INTRA:                  -0.847
REMARK UNBOUND:                -1.284
REMARK SMILES CCCCCCCCCCCCCCO
REMARK SMILES IDX 8 1 7 2 6 3 5 4 4 5 3 6 2 7 1 8 9 9 10 10 11 11 12 12 13 13
REMARK SMILES IDX 14 14 15 15
REMARK H PARENT 15 16
REMARK Flexibility Score: inf
ROOT
ATOM      1  C   UNL     1      -1.769  11.756  19.675  1.00  0.00     0.000 C 
ENDROOT
BRANCH   1   2
ATOM      2  C   UNL     1      -1.978  10.347  20.253  1.00  0.00    -0.000 C 
BRANCH   2   3
ATOM      3  C   UNL     1      -0.662   9.555  20.255  1.00  0.00    -0.000 C 
BRANCH   3   4
ATOM      4  C   UNL     1       0.271   9.960  21.406  1.00  0.00    -0.000 C 
BRANCH   4   5
ATOM      5  C   UNL     1       1.751   9.696  21.090  1.00  0.00    -0.000 C 
BRANCH   5   6
ATOM      6  C   UNL     1       2.602  10.945  21.362  1.00  0.00    -0.000 C 
BRANCH   6   7
ATOM      7  C   UNL     1       2.820  11.798  20.103  1.00  0.00    -0.003 C 
ATOM      8  C   UNL     1       1.890  13.009  20.039  1.00  0.00     0.004 C 
ENDBRANCH   6   7
ENDBRANCH   5   6
ENDBRANCH   4   5
ENDBRANCH   3   4
ENDBRANCH   2   3
ENDBRANCH   1   2
BRANCH   1   9
ATOM      9  C   UNL     1      -2.387  11.926  18.276  1.00  0.00     0.000 C 
BRANCH   9  10
ATOM     10  C   UNL     1      -3.175  10.706  17.756  1.00  0.00     0.000 C 
BRANCH  10  11
ATOM     11  C   UNL     1      -4.690  10.926  17.599  1.00  0.00     0.000 C 
BRANCH  11  12
ATOM     12  C   UNL     1      -5.041  12.346  17.131  1.00  0.00     0.002 C 
BRANCH  12  13
ATOM     13  C   UNL     1      -5.876  12.307  15.842  1.00  0.00     0.028 C 
BRANCH  13  14
ATOM     14  C   UNL     1      -6.032  13.699  15.226  1.00  0.00     0.156 C 
BRANCH  14  15
ATOM     15  O   UNL     1      -4.833  14.094  14.618  1.00  0.00    -0.396 OA
ATOM     16  H   UNL     1      -4.349  14.638  15.294  1.00  0.00     0.210 HD
ENDBRANCH  14  15
ENDBRANCH  13  14
ENDBRANCH  12  13
ENDBRANCH  11  12
ENDBRANCH  10  11
ENDBRANCH   9  10
ENDBRANCH   1   9
TORSDOF 13
ENDMDL
MODEL 5
REMARK VINA RESULT:    -3.847      2.003      5.747
REMARK INTER + INTRA:          -7.942
REMARK INTER:                  -7.148
REMARK INTRA:                  -0.794
REMARK UNBOUND:                -1.284
REMARK SMILES CCCCCCCCCCCCCCO
REMARK SMILES IDX 8 1 7 2 6 3 5 4 4 5 3 6 2 7 1 8 9 9 10 10 11 11 12 12 13 13
REMARK SMILES IDX 14 14 15 15
REMARK H PARENT 15 16
REMARK Flexibility Score: inf
ROOT
ATOM      1  C   UNL     1      -1.811  10.801  20.132  1.00  0.00     0.000 C 
ENDROOT
BRANCH   1   2
ATOM      2  C   UNL     1      -0.794  10.365  21.198  1.00  0.00    -0.000 C 
BRANCH   2   3
ATOM      3  C   UNL     1       0.417   9.676  20.551  1.00  0.00    -0.000 C 
BRANCH   3   4
ATOM      4  C   UNL     1       1.756  10.232  21.058  1.00  0.00    -0.000 C 
BRANCH   4   5
ATOM      5  C   UNL     1       2.388  11.237  20.082  1.00  0.00    -0.000 C 
BRANCH   5   6
ATOM      6  C   UNL     1       2.147  12.680  20.549  1.00  0.00    -0.000 C 
BRANCH   6   7
ATOM      7  C   UNL     1       1.288  13.485  19.562  1.00  0.00    -0.003 C 
ATOM      8  C   UNL     1       1.326  14.989  19.834  1.00  0.00     0.004 C 
ENDBRANCH   6   7
ENDBRANCH   5   6
ENDBRANCH   4   5
ENDBRANCH   3   4
ENDBRANCH   2   3
ENDBRANCH   1   2
BRANCH   1   9
ATOM      9  C   UNL     1      -2.030   9.736  19.043  1.00  0.00     0.000 C 
BRANCH   9  10
ATOM     10  C   UNL     1      -2.565  10.274  17.700  1.00  0.00     0.000 C 
BRANCH  10  11
ATOM     11  C   UNL     1      -3.373  11.580  17.795  1.00  0.00     0.000 C 
BRANCH  11  12
ATOM     12  C   UNL     1      -4.553  11.624  16.812  1.00  0.00     0.002 C 
BRANCH  12  13
ATOM     13  C   UNL     1      -5.558  12.714  17.211  1.00  0.00     0.028 C 
BRANCH  13  14
ATOM     14  C   UNL     1      -5.960  13.579  16.016  1.00  0.00     0.156 C 
BRANCH  14  15
ATOM     15  O   UNL     1      -5.042  13.413  14.970  1.00  0.00    -0.396 OA
ATOM     16  H   UNL     1      -5.289  12.564  14.520  1.00  0.00     0.210 HD
ENDBRANCH  14  15
ENDBRANCH  13  14
ENDBRANCH  12  13
ENDBRANCH  11  12
ENDBRANCH  10  11
ENDBRANCH   9  10
ENDBRANCH   1   9
TORSDOF 13
ENDMDL
MODEL 6
REMARK VINA RESULT:    -3.835      2.172      6.638
REMARK INTER + INTRA:          -7.921
REMARK INTER:                  -7.203
REMARK INTRA:                  -0.718
REMARK UNBOUND:                -1.284
REMARK SMILES CCCCCCCCCCCCCCO
REMARK SMILES IDX 8 1 7 2 6 3 5 4 4 5 3 6 2 7 1 8 9 9 10 10 11 11 12 12 13 13
REMARK SMILES IDX 14 14 15 15
REMARK H PARENT 15 16
REMARK Flexibility Score: inf
ROOT
ATOM      1  C   UNL     1      -3.023  11.269  17.852  1.00  0.00     0.000 C 
ENDROOT
BRANCH   1   2
ATOM      2  C   UNL     1      -2.170  11.579  19.092  1.00  0.00    -0.000 C 
BRANCH   2   3
ATOM      3  C   UNL     1      -2.143  10.381  20.051  1.00  0.00    -0.000 C 
BRANCH   3   4
ATOM      4  C   UNL     1      -0.776   9.679  20.084  1.00  0.00    -0.000 C 
BRANCH   4   5
ATOM      5  C   UNL     1       0.290  10.491  20.833  1.00  0.00    -0.000 C 
BRANCH   5   6
ATOM      6  C   UNL     1       1.631   9.741  20.862  1.00  0.00    -0.000 C 
BRANCH   6   7
ATOM      7  C   UNL     1       2.812  10.627  20.438  1.00  0.00    -0.003 C 
ATOM      8  C   UNL     1       2.424  12.097  20.283  1.00  0.00     0.004 C 
ENDBRANCH   6   7
ENDBRANCH   5   6
ENDBRANCH   4   5
ENDBRANCH   3   4
ENDBRANCH   2   3
ENDBRANCH   1   2
BRANCH   1   9
ATOM      9  C   UNL     1      -3.730   9.904  17.938  1.00  0.00     0.000 C 
BRANCH   9  10
ATOM     10  C   UNL     1      -5.255   9.970  18.159  1.00  0.00     0.000 C 
BRANCH  10  11
ATOM     11  C   UNL     1      -6.061  10.546  16.982  1.00  0.00     0.000 C 
BRANCH  11  12
ATOM     12  C   UNL     1      -6.911  11.762  17.381  1.00  0.00     0.002 C 
BRANCH  12  13
ATOM     13  C   UNL     1      -6.187  13.072  17.040  1.00  0.00     0.028 C 
BRANCH  13  14
ATOM     14  C   UNL     1      -5.944  13.211  15.536  1.00  0.00     0.156 C 
BRANCH  14  15
ATOM     15  O   UNL     1      -4.605  12.928  15.235  1.00  0.00    -0.396 OA
ATOM     16  H   UNL     1      -4.150  12.796  16.108  1.00  0.00     0.210 HD
ENDBRANCH  14  15
ENDBRANCH  13  14
ENDBRANCH  12  13
ENDBRANCH  11  12
ENDBRANCH  10  11
ENDBRANCH   9  10
ENDBRANCH   1   9
TORSDOF 13
ENDMDL
MODEL 7
REMARK VINA RESULT:    -3.737      1.933      4.967
REMARK INTER + INTRA:          -7.751
REMARK INTER:                  -6.800
REMARK INTRA:                  -0.952
REMARK UNBOUND:                -1.284
REMARK SMILES CCCCCCCCCCCCCCO
REMARK SMILES IDX 8 1 7 2 6 3 5 4 4 5 3 6 2 7 1 8 9 9 10 10 11 11 12 12 13 13
REMARK SMILES IDX 14 14 15 15
REMARK H PARENT 15 16
REMARK Flexibility Score: inf
ROOT
ATOM      1  C   UNL     1       1.847   9.533  21.509  1.00  0.00     0.000 C 
ENDROOT
BRANCH   1   2
ATOM      2  C   UNL     1       3.248   9.667  20.894  1.00  0.00    -0.000 C 
BRANCH   2   3
ATOM      3  C   UNL     1       3.424  11.039  20.226  1.00  0.00    -0.000 C 
BRANCH   3   4
ATOM      4  C   UNL     1       2.085  11.691  19.850  1.00  0.00    -0.000 C 
BRANCH   4   5
ATOM      5  C   UNL     1       2.045  13.192  20.174  1.00  0.00    -0.000 C 
BRANCH   5   6
ATOM      6  C   UNL     1       0.935  13.896  19.378  1.00  0.00    -0.000 C 
BRANCH   6   7
ATOM      7  C   UNL     1       0.762  15.368  19.780  1.00  0.00    -0.003 C 
ATOM      8  C   UNL     1       2.076  16.023  20.209  1.00  0.00     0.004 C 
ENDBRANCH   6   7
ENDBRANCH   5   6
ENDBRANCH   4   5
ENDBRANCH   3   4
ENDBRANCH   2   3
ENDBRANCH   1   2
BRANCH   1   9
ATOM      9  C   UNL     1       1.066   8.325  20.961  1.00  0.00     0.000 C 
BRANCH   9  10
ATOM     10  C   UNL     1      -0.170   8.678  20.107  1.00  0.00     0.000 C 
BRANCH  10  11
ATOM     11  C   UNL     1      -0.863  10.001  20.478  1.00  0.00     0.000 C 
BRANCH  11  12
ATOM     12  C   UNL     1      -2.240  10.158  19.815  1.00  0.00     0.002 C 
BRANCH  12  13
ATOM     13  C   UNL     1      -2.299  11.438  18.970  1.00  0.00     0.028 C 
BRANCH  13  14
ATOM     14  C   UNL     1      -2.939  11.188  17.604  1.00  0.00     0.156 C 
BRANCH  14  15
ATOM     15  O   UNL     1      -2.389  10.041  17.016  1.00  0.00    -0.396 OA
ATOM     16  H   UNL     1      -1.488   9.932  17.418  1.00  0.00     0.210 HD
ENDBRANCH  14  15
ENDBRANCH  13  14
ENDBRANCH  12  13
ENDBRANCH  11  12
ENDBRANCH  10  11
ENDBRANCH   9  10
ENDBRANCH   1   9
TORSDOF 13
ENDMDL
MODEL 8
REMARK VINA RESULT:    -3.735      3.272      6.702
REMARK INTER + INTRA:          -7.748
REMARK INTER:                  -6.439
REMARK INTRA:                  -1.310
REMARK UNBOUND:                -1.284
REMARK SMILES CCCCCCCCCCCCCCO
REMARK SMILES IDX 8 1 7 2 6 3 5 4 4 5 3 6 2 7 1 8 9 9 10 10 11 11 12 12 13 13
REMARK SMILES IDX 14 14 15 15
REMARK H PARENT 15 16
REMARK Flexibility Score: inf
ROOT
ATOM      1  C   UNL     1      -3.985   9.881  18.400  1.00  0.00     0.000 C 
ENDROOT
BRANCH   1   2
ATOM      2  C   UNL     1      -3.130  10.741  17.456  1.00  0.00    -0.000 C 
BRANCH   2   3
ATOM      3  C   UNL     1      -2.452  11.886  18.223  1.00  0.00    -0.000 C 
BRANCH   3   4
ATOM      4  C   UNL     1      -2.381  11.627  19.735  1.00  0.00    -0.000 C 
BRANCH   4   5
ATOM      5  C   UNL     1      -1.014  11.086  20.181  1.00  0.00    -0.000 C 
BRANCH   5   6
ATOM      6  C   UNL     1      -1.177  10.009  21.264  1.00  0.00    -0.000 C 
BRANCH   6   7
ATOM      7  C   UNL     1      -2.540  10.081  21.969  1.00  0.00    -0.003 C 
ATOM      8  C   UNL     1      -3.311   8.762  21.903  1.00  0.00     0.004 C 
ENDBRANCH   6   7
ENDBRANCH   5   6
ENDBRANCH   4   5
ENDBRANCH   3   4
ENDBRANCH   2   3
ENDBRANCH   1   2
BRANCH   1   9
ATOM      9  C   UNL     1      -5.315   9.437  17.764  1.00  0.00     0.000 C 
BRANCH   9  10
ATOM     10  C   UNL     1      -6.526  10.337  18.083  1.00  0.00     0.000 C 
BRANCH  10  11
ATOM     11  C   UNL     1      -6.990  11.240  16.927  1.00  0.00     0.000 C 
BRANCH  11  12
ATOM     12  C   UNL     1      -6.286  12.606  16.918  1.00  0.00     0.002 C 
BRANCH  12  13
ATOM     13  C   UNL     1      -5.684  12.902  15.537  1.00  0.00     0.028 C 
BRANCH  13  14
ATOM     14  C   UNL     1      -6.090  14.286  15.027  1.00  0.00     0.156 C 
BRANCH  14  15
ATOM     15  O   UNL     1      -6.168  14.279  13.628  1.00  0.00    -0.396 OA
ATOM     16  H   UNL     1      -5.784  13.412  13.335  1.00  0.00     0.210 HD
ENDBRANCH  14  15
ENDBRANCH  13  14
ENDBRANCH  12  13
ENDBRANCH  11  12
ENDBRANCH  10  11
ENDBRANCH   9  10
ENDBRANCH   1   9
TORSDOF 13
ENDMDL
MODEL 9
REMARK VINA RESULT:    -3.709      1.260      2.915
REMARK INTER + INTRA:          -7.703
REMARK INTER:                  -6.939
REMARK INTRA:                  -0.764
REMARK UNBOUND:                -1.284
REMARK SMILES CCCCCCCCCCCCCCO
REMARK SMILES IDX 8 1 7 2 6 3 5 4 4 5 3 6 2 7 1 8 9 9 10 10 11 11 12 12 13 13
REMARK SMILES IDX 14 14 15 15
REMARK H PARENT 15 16
REMARK Flexibility Score: inf
ROOT
ATOM      1  C   UNL     1      -1.717  10.925  20.376  1.00  0.00     0.000 C 
ENDROOT
BRANCH   1   2
ATOM      2  C   UNL     1      -2.319  11.718  19.206  1.00  0.00    -0.000 C 
BRANCH   2   3
ATOM      3  C   UNL     1      -2.763  10.775  18.077  1.00  0.00    -0.000 C 
BRANCH   3   4
ATOM      4  C   UNL     1      -3.823  11.406  17.161  1.00  0.00    -0.000 C 
BRANCH   4   5
ATOM      5  C   UNL     1      -5.202  10.744  17.307  1.00  0.00    -0.000 C 
BRANCH   5   6
ATOM      6  C   UNL     1      -6.325  11.742  16.987  1.00  0.00    -0.000 C 
BRANCH   6   7
ATOM      7  C   UNL     1      -5.800  13.163  16.737  1.00  0.00    -0.003 C 
ATOM      8  C   UNL     1      -6.030  13.635  15.301  1.00  0.00     0.004 C 
ENDBRANCH   6   7
ENDBRANCH   5   6
ENDBRANCH   4   5
ENDBRANCH   3   4
ENDBRANCH   2   3
ENDBRANCH   1   2
BRANCH   1   9
ATOM      9  C   UNL     1      -1.242   9.520  19.966  1.00  0.00     0.000 C 
BRANCH   9  10
ATOM     10  C   UNL     1       0.196   9.164  20.396  1.00  0.00     0.000 C 
BRANCH  10  11
ATOM     11  C   UNL     1       0.995  10.319  21.023  1.00  0.00     0.000 C 
BRANCH  11  12
ATOM     12  C   UNL     1       2.437  10.402  20.498  1.00  0.00     0.002 C 
BRANCH  12  13
ATOM     13  C   UNL     1       2.854  11.861  20.271  1.00  0.00     0.028 C 
BRANCH  13  14
ATOM     14  C   UNL     1       1.642  12.780  20.110  1.00  0.00     0.156 C 
BRANCH  14  15
ATOM     15  O   UNL     1       2.044  14.121  20.150  1.00  0.00    -0.396 OA
ATOM     16  H   UNL     1       1.912  14.475  19.232  1.00  0.00     0.210 HD
ENDBRANCH  14  15
ENDBRANCH  13  14
ENDBRANCH  12  13
ENDBRANCH  11  12
ENDBRANCH  10  11
ENDBRANCH   9  10
ENDBRANCH   1   9
TORSDOF 13
ENDMDL
