MODEL 1
REMARK VINA RESULT:    -7.176      0.000      0.000
REMARK INTER + INTRA:          -8.148
REMARK INTER:                  -8.016
REMARK INTRA:                  -0.132
REMARK UNBOUND:                -0.132
REMARK SMILES O=C([O-])C=Cc1ccccc1
REMARK SMILES IDX 4 1 5 2 2 3 1 4 3 5 6 6 7 7 11 8 8 9 10 10 9 11
REMARK H PARENT
REMARK Flexibility Score: inf
ROOT
ATOM      1  C   UNL     1     -18.943 -22.960 -46.119  1.00  0.00     0.025 C 
ATOM      2  C   UNL     1     -20.093 -22.363 -45.776  1.00  0.00     0.010 C 
ENDROOT
BRANCH   1   3
ATOM      3  C   UNL     1     -18.113 -22.481 -47.238  1.00  0.00     0.064 C 
ATOM      4  O   UNL     1     -18.565 -22.435 -48.414  1.00  0.00    -0.545 OA
ATOM      5  O   UNL     1     -16.808 -22.071 -46.995  1.00  0.00    -0.545 OA
ENDBRANCH   1   3
BRANCH   2   6
ATOM      6  C   UNL     1     -20.977 -22.797 -44.660  1.00  0.00    -0.026 A 
ATOM      7  C   UNL     1     -21.241 -22.000 -43.524  1.00  0.00     0.008 A 
ATOM      8  C   UNL     1     -21.578 -24.065 -44.745  1.00  0.00     0.008 A 
ATOM      9  C   UNL     1     -22.083 -22.468 -42.510  1.00  0.00     0.001 A 
ATOM     10  C   UNL     1     -22.418 -24.528 -43.728  1.00  0.00     0.001 A 
ATOM     11  C   UNL     1     -22.670 -23.730 -42.611  1.00  0.00     0.000 A 
ENDBRANCH   2   6
TORSDOF 2
ENDMDL
MODEL 2
REMARK VINA RESULT:    -7.170      0.077      1.460
REMARK INTER + INTRA:          -8.141
REMARK INTER:                  -8.014
REMARK INTRA:                  -0.127
REMARK UNBOUND:                -0.132
REMARK SMILES O=C([O-])C=Cc1ccccc1
REMARK SMILES IDX 4 1 5 2 2 3 1 4 3 5 6 6 7 7 11 8 8 9 10 10 9 11
REMARK H PARENT
REMARK Flexibility Score: inf
ROOT
ATOM      1  C   UNL     1     -18.967 -22.998 -46.171  1.00  0.00     0.025 C 
ATOM      2  C   UNL     1     -20.086 -22.384 -45.760  1.00  0.00     0.010 C 
ENDROOT
BRANCH   1   3
ATOM      3  C   UNL     1     -18.135 -22.464 -47.264  1.00  0.00     0.064 C 
ATOM      4  O   UNL     1     -18.570 -22.401 -48.445  1.00  0.00    -0.545 OA
ATOM      5  O   UNL     1     -16.848 -22.021 -46.988  1.00  0.00    -0.545 OA
ENDBRANCH   1   3
BRANCH   2   6
ATOM      6  C   UNL     1     -20.970 -22.870 -44.666  1.00  0.00    -0.026 A 
ATOM      7  C   UNL     1     -21.613 -24.127 -44.689  1.00  0.00     0.008 A 
ATOM      8  C   UNL     1     -21.172 -22.032 -43.554  1.00  0.00     0.008 A 
ATOM      9  C   UNL     1     -22.431 -24.523 -43.625  1.00  0.00     0.001 A 
ATOM     10  C   UNL     1     -21.991 -22.434 -42.495  1.00  0.00     0.001 A 
ATOM     11  C   UNL     1     -22.621 -23.679 -42.531  1.00  0.00     0.000 A 
ENDBRANCH   2   6
TORSDOF 2
ENDMDL
MODEL 3
REMARK VINA RESULT:    -6.011      4.803      6.112
REMARK INTER + INTRA:          -6.846
REMARK INTER:                  -6.700
REMARK INTRA:                  -0.145
REMARK UNBOUND:                -0.132
REMARK SMILES O=C([O-])C=Cc1ccccc1
REMARK SMILES IDX 4 1 5 2 2 3 1 4 3 5 6 6 7 7 11 8 8 9 10 10 9 11
REMARK H PARENT
REMARK Flexibility Score: inf
ROOT
ATOM      1  C   UNL     1     -23.225 -25.639 -42.110  1.00  0.00     0.025 C 
ATOM      2  C   UNL     1     -22.939 -24.330 -42.059  1.00  0.00     0.010 C 
ENDROOT
BRANCH   1   3
ATOM      3  C   UNL     1     -23.843 -26.352 -40.979  1.00  0.00     0.064 C 
ATOM      4  O   UNL     1     -24.123 -27.578 -41.055  1.00  0.00    -0.545 OA
ATOM      5  O   UNL     1     -24.122 -25.662 -39.807  1.00  0.00    -0.545 OA
ENDBRANCH   1   3
BRANCH   2   6
ATOM      6  C   UNL     1     -22.315 -23.552 -43.164  1.00  0.00    -0.026 A 
ATOM      7  C   UNL     1     -21.684 -22.303 -42.974  1.00  0.00     0.008 A 
ATOM      8  C   UNL     1     -22.357 -24.093 -44.462  1.00  0.00     0.008 A 
ATOM      9  C   UNL     1     -21.115 -21.625 -44.057  1.00  0.00     0.001 A 
ATOM     10  C   UNL     1     -21.787 -23.409 -45.540  1.00  0.00     0.001 A 
ATOM     11  C   UNL     1     -21.167 -22.176 -45.338  1.00  0.00     0.000 A 
ENDBRANCH   2   6
TORSDOF 2
ENDMDL
MODEL 4
REMARK VINA RESULT:    -5.476      1.994      2.929
REMARK INTER + INTRA:          -6.249
REMARK INTER:                  -6.115
REMARK INTRA:                  -0.134
REMARK UNBOUND:                -0.132
REMARK SMILES O=C([O-])C=Cc1ccccc1
REMARK SMILES IDX 4 1 5 2 2 3 1 4 3 5 6 6 7 7 11 8 8 9 10 10 9 11
REMARK H PARENT
REMARK Flexibility Score: inf
ROOT
ATOM      1  C   UNL     1     -21.060 -23.509 -44.976  1.00  0.00     0.025 C 
ATOM      2  C   UNL     1     -21.882 -23.220 -43.957  1.00  0.00     0.010 C 
ENDROOT
BRANCH   1   3
ATOM      3  C   UNL     1     -20.405 -22.461 -45.778  1.00  0.00     0.064 C 
ATOM      4  O   UNL     1     -19.243 -22.621 -46.238  1.00  0.00    -0.545 OA
ATOM      5  O   UNL     1     -21.081 -21.275 -46.033  1.00  0.00    -0.545 OA
ENDBRANCH   1   3
BRANCH   2   6
ATOM      6  C   UNL     1     -22.574 -24.230 -43.110  1.00  0.00    -0.026 A 
ATOM      7  C   UNL     1     -22.400 -24.321 -41.712  1.00  0.00     0.008 A 
ATOM      8  C   UNL     1     -23.446 -25.138 -43.739  1.00  0.00     0.008 A 
ATOM      9  C   UNL     1     -23.082 -25.294 -40.975  1.00  0.00     0.001 A 
ATOM     10  C   UNL     1     -24.124 -26.108 -42.996  1.00  0.00     0.001 A 
ATOM     11  C   UNL     1     -23.943 -26.187 -41.615  1.00  0.00     0.000 A 
ENDBRANCH   2   6
TORSDOF 2
ENDMDL
MODEL 5
REMARK VINA RESULT:    -4.564      4.132      5.586
REMARK INTER + INTRA:          -5.230
REMARK INTER:                  -5.100
REMARK INTRA:                  -0.130
REMARK UNBOUND:                -0.132
REMARK SMILES O=C([O-])C=Cc1ccccc1
REMARK SMILES IDX 4 1 5 2 2 3 1 4 3 5 6 6 7 7 11 8 8 9 10 10 9 11
REMARK H PARENT
REMARK Flexibility Score: inf
ROOT
ATOM      1  C   UNL     1     -22.518 -24.617 -42.649  1.00  0.00     0.025 C 
ATOM      2  C   UNL     1     -22.536 -24.482 -43.983  1.00  0.00     0.010 C 
ENDROOT
BRANCH   1   3
ATOM      3  C   UNL     1     -23.426 -25.536 -41.941  1.00  0.00     0.064 C 
ATOM      4  O   UNL     1     -24.124 -26.377 -42.569  1.00  0.00    -0.545 OA
ATOM      5  O   UNL     1     -23.514 -25.477 -40.556  1.00  0.00    -0.545 OA
ENDBRANCH   1   3
BRANCH   2   6
ATOM      6  C   UNL     1     -21.649 -23.572 -44.757  1.00  0.00    -0.026 A 
ATOM      7  C   UNL     1     -22.015 -22.259 -45.125  1.00  0.00     0.008 A 
ATOM      8  C   UNL     1     -20.381 -24.048 -45.139  1.00  0.00     0.008 A 
ATOM      9  C   UNL     1     -21.131 -21.455 -45.853  1.00  0.00     0.001 A 
ATOM     10  C   UNL     1     -19.504 -23.240 -45.867  1.00  0.00     0.001 A 
ATOM     11  C   UNL     1     -19.878 -21.944 -46.225  1.00  0.00     0.000 A 
ENDBRANCH   2   6
TORSDOF 2
ENDMDL
