MODEL 1
REMARK VINA RESULT:    -6.581      0.000      0.000
REMARK INTER + INTRA:          -8.736
REMARK INTER:                  -8.312
REMARK INTRA:                  -0.424
REMARK UNBOUND:                -0.424
REMARK SMILES CC(C)=CCCC(C)=CCO
REMARK SMILES IDX 7 1 9 2 8 3 6 4 5 5 4 6 1 7 2 8 3 9 10 10 11 11
REMARK H PARENT 11 12
REMARK Flexibility Score: inf
ROOT
ATOM      1  C   UNL     1      12.226 -18.672  41.677  1.00  0.00    -0.075 C 
ATOM      2  C   UNL     1      12.750 -19.874  42.005  1.00  0.00    -0.000 C 
ATOM      3  C   UNL     1      11.508 -17.818  42.695  1.00  0.00     0.039 C 
ENDROOT
BRANCH   1   4
ATOM      4  C   UNL     1      12.349 -18.176  40.253  1.00  0.00     0.034 C 
BRANCH   4   5
ATOM      5  C   UNL     1      13.086 -16.833  40.206  1.00  0.00     0.032 C 
BRANCH   5   6
ATOM      6  C   UNL     1      12.540 -15.962  39.102  1.00  0.00    -0.028 C 
ATOM      7  C   UNL     1      11.073 -14.289  38.058  1.00  0.00     0.039 C 
ATOM      8  C   UNL     1      11.543 -15.063  39.263  1.00  0.00    -0.080 C 
ATOM      9  C   UNL     1      10.907 -14.804  40.608  1.00  0.00     0.039 C 
ENDBRANCH   5   6
ENDBRANCH   4   5
ENDBRANCH   1   4
BRANCH   2  10
ATOM     10  C   UNL     1      12.684 -20.470  43.384  1.00  0.00     0.183 C 
BRANCH  10  11
ATOM     11  O   UNL     1      13.864 -21.175  43.654  1.00  0.00    -0.392 OA
ATOM     12  H   UNL     1      13.599 -22.124  43.761  1.00  0.00     0.210 HD
ENDBRANCH  10  11
ENDBRANCH   2  10
TORSDOF 5
ENDMDL
MODEL 2
REMARK VINA RESULT:    -6.051      0.913      1.386
REMARK INTER + INTRA:          -8.067
REMARK INTER:                  -7.817
REMARK INTRA:                  -0.249
REMARK UNBOUND:                -0.424
REMARK SMILES CC(C)=CCCC(C)=CCO
REMARK SMILES IDX 7 1 9 2 8 3 6 4 5 5 4 6 1 7 2 8 3 9 10 10 11 11
REMARK H PARENT 11 12
REMARK Flexibility Score: inf
ROOT
ATOM      1  C   UNL     1      12.449 -19.265  41.067  1.00  0.00    -0.075 C 
ATOM      2  C   UNL     1      12.623 -19.400  42.401  1.00  0.00    -0.000 C 
ATOM      3  C   UNL     1      12.177 -20.458  40.180  1.00  0.00     0.039 C 
ENDROOT
BRANCH   1   4
ATOM      4  C   UNL     1      12.541 -17.889  40.446  1.00  0.00     0.034 C 
BRANCH   4   5
ATOM      5  C   UNL     1      11.262 -17.553  39.672  1.00  0.00     0.032 C 
BRANCH   5   6
ATOM      6  C   UNL     1      11.471 -16.348  38.790  1.00  0.00    -0.028 C 
ATOM      7  C   UNL     1      11.482 -13.967  38.181  1.00  0.00     0.039 C 
ATOM      8  C   UNL     1      11.270 -15.070  39.184  1.00  0.00    -0.080 C 
ATOM      9  C   UNL     1      10.861 -14.723  40.597  1.00  0.00     0.039 C 
ENDBRANCH   5   6
ENDBRANCH   4   5
ENDBRANCH   1   4
BRANCH   2  10
ATOM     10  C   UNL     1      12.559 -20.716  43.126  1.00  0.00     0.183 C 
BRANCH  10  11
ATOM     11  O   UNL     1      13.841 -21.085  43.554  1.00  0.00    -0.392 OA
ATOM     12  H   UNL     1      13.808 -22.065  43.705  1.00  0.00     0.210 HD
ENDBRANCH  10  11
ENDBRANCH   2  10
TORSDOF 5
ENDMDL
MODEL 3
REMARK VINA RESULT:    -5.332      2.211      2.770
REMARK INTER + INTRA:          -7.159
REMARK INTER:                  -6.857
REMARK INTRA:                  -0.301
REMARK UNBOUND:                -0.424
REMARK SMILES CC(C)=CCCC(C)=CCO
REMARK SMILES IDX 7 1 9 2 8 3 6 4 5 5 4 6 1 7 2 8 3 9 10 10 11 11
REMARK H PARENT 11 12
REMARK Flexibility Score: inf
ROOT
ATOM      1  C   UNL     1      12.366 -18.585  41.378  1.00  0.00    -0.075 C 
ATOM      2  C   UNL     1      12.238 -18.738  40.041  1.00  0.00    -0.000 C 
ATOM      3  C   UNL     1      12.432 -19.776  42.307  1.00  0.00     0.039 C 
ENDROOT
BRANCH   1   4
ATOM      4  C   UNL     1      12.432 -17.191  41.960  1.00  0.00     0.034 C 
BRANCH   4   5
ATOM      5  C   UNL     1      11.208 -16.368  41.544  1.00  0.00     0.032 C 
BRANCH   5   6
ATOM      6  C   UNL     1      11.567 -15.388  40.455  1.00  0.00    -0.028 C 
ATOM      7  C   UNL     1      11.519 -14.380  38.215  1.00  0.00     0.039 C 
ATOM      8  C   UNL     1      11.035 -15.399  39.213  1.00  0.00    -0.080 C 
ATOM      9  C   UNL     1       9.964 -16.385  38.809  1.00  0.00     0.039 C 
ENDBRANCH   5   6
ENDBRANCH   4   5
ENDBRANCH   1   4
BRANCH   2  10
ATOM     10  C   UNL     1      12.156 -20.072  39.352  1.00  0.00     0.183 C 
BRANCH  10  11
ATOM     11  O   UNL     1      11.922 -19.886  37.984  1.00  0.00    -0.392 OA
ATOM     12  H   UNL     1      11.297 -20.607  37.712  1.00  0.00     0.210 HD
ENDBRANCH  10  11
ENDBRANCH   2  10
TORSDOF 5
ENDMDL
MODEL 4
REMARK VINA RESULT:    -5.167      2.604      3.214
REMARK INTER + INTRA:          -6.951
REMARK INTER:                  -6.984
REMARK INTRA:                   0.033
REMARK UNBOUND:                -0.424
REMARK SMILES CC(C)=CCCC(C)=CCO
REMARK SMILES IDX 7 1 9 2 8 3 6 4 5 5 4 6 1 7 2 8 3 9 10 10 11 11
REMARK H PARENT 11 12
REMARK Flexibility Score: inf
ROOT
ATOM      1  C   UNL     1      12.332 -16.993  40.584  1.00  0.00    -0.075 C 
ATOM      2  C   UNL     1      11.636 -18.126  40.343  1.00  0.00    -0.000 C 
ATOM      3  C   UNL     1      13.750 -16.816  40.095  1.00  0.00     0.039 C 
ENDROOT
BRANCH   1   4
ATOM      4  C   UNL     1      11.680 -15.880  41.375  1.00  0.00     0.034 C 
BRANCH   4   5
ATOM      5  C   UNL     1      10.875 -14.956  40.453  1.00  0.00     0.032 C 
BRANCH   5   6
ATOM      6  C   UNL     1      10.566 -15.642  39.146  1.00  0.00    -0.028 C 
ATOM      7  C   UNL     1      10.718 -16.085  36.734  1.00  0.00     0.039 C 
ATOM      8  C   UNL     1      11.157 -15.341  37.968  1.00  0.00    -0.080 C 
ATOM      9  C   UNL     1      12.248 -14.301  37.863  1.00  0.00     0.039 C 
ENDBRANCH   5   6
ENDBRANCH   4   5
ENDBRANCH   1   4
BRANCH   2  10
ATOM     10  C   UNL     1      12.182 -19.299  39.576  1.00  0.00     0.183 C 
BRANCH  10  11
ATOM     11  O   UNL     1      11.887 -19.154  38.214  1.00  0.00    -0.392 OA
ATOM     12  H   UNL     1      12.758 -19.032  37.756  1.00  0.00     0.210 HD
ENDBRANCH  10  11
ENDBRANCH   2  10
TORSDOF 5
ENDMDL
MODEL 5
REMARK VINA RESULT:    -5.109      2.895      5.788
REMARK INTER + INTRA:          -6.877
REMARK INTER:                  -6.637
REMARK INTRA:                  -0.240
REMARK UNBOUND:                -0.424
REMARK SMILES CC(C)=CCCC(C)=CCO
REMARK SMILES IDX 7 1 9 2 8 3 6 4 5 5 4 6 1 7 2 8 3 9 10 10 11 11
REMARK H PARENT 11 12
REMARK Flexibility Score: inf
ROOT
ATOM      1  C   UNL     1      11.539 -15.420  40.367  1.00  0.00    -0.075 C 
ATOM      2  C   UNL     1      11.938 -15.775  39.126  1.00  0.00    -0.000 C 
ATOM      3  C   UNL     1      10.729 -14.168  40.610  1.00  0.00     0.039 C 
ENDROOT
BRANCH   1   4
ATOM      4  C   UNL     1      11.922 -16.291  41.543  1.00  0.00     0.034 C 
BRANCH   4   5
ATOM      5  C   UNL     1      11.581 -17.760  41.269  1.00  0.00     0.032 C 
BRANCH   5   6
ATOM      6  C   UNL     1      12.223 -18.659  42.294  1.00  0.00    -0.028 C 
ATOM      7  C   UNL     1      13.147 -20.743  43.212  1.00  0.00     0.039 C 
ATOM      8  C   UNL     1      12.545 -19.954  42.079  1.00  0.00    -0.080 C 
ATOM      9  C   UNL     1      12.334 -20.619  40.739  1.00  0.00     0.039 C 
ENDBRANCH   5   6
ENDBRANCH   4   5
ENDBRANCH   1   4
BRANCH   2  10
ATOM     10  C   UNL     1      11.622 -14.986  37.885  1.00  0.00     0.183 C 
BRANCH  10  11
ATOM     11  O   UNL     1      11.090 -15.834  36.905  1.00  0.00    -0.392 OA
ATOM     12  H   UNL     1      11.668 -16.640  36.897  1.00  0.00     0.210 HD
ENDBRANCH  10  11
ENDBRANCH   2  10
TORSDOF 5
ENDMDL
MODEL 6
REMARK VINA RESULT:    -5.046      2.981      5.641
REMARK INTER + INTRA:          -6.797
REMARK INTER:                  -6.498
REMARK INTRA:                  -0.299
REMARK UNBOUND:                -0.424
REMARK SMILES CC(C)=CCCC(C)=CCO
REMARK SMILES IDX 7 1 9 2 8 3 6 4 5 5 4 6 1 7 2 8 3 9 10 10 11 11
REMARK H PARENT 11 12
REMARK Flexibility Score: inf
ROOT
ATOM      1  C   UNL     1      12.282 -16.123  39.864  1.00  0.00    -0.075 C 
ATOM      2  C   UNL     1      12.245 -15.600  38.618  1.00  0.00    -0.000 C 
ATOM      3  C   UNL     1      11.542 -15.481  41.014  1.00  0.00     0.039 C 
ENDROOT
BRANCH   1   4
ATOM      4  C   UNL     1      13.094 -17.375  40.116  1.00  0.00     0.034 C 
BRANCH   4   5
ATOM      5  C   UNL     1      12.202 -18.621  40.072  1.00  0.00     0.032 C 
BRANCH   5   6
ATOM      6  C   UNL     1      12.667 -19.647  41.075  1.00  0.00    -0.028 C 
ATOM      7  C   UNL     1      13.012 -20.646  43.293  1.00  0.00     0.039 C 
ATOM      8  C   UNL     1      12.452 -19.564  42.407  1.00  0.00    -0.080 C 
ATOM      9  C   UNL     1      11.658 -18.435  43.021  1.00  0.00     0.039 C 
ENDBRANCH   5   6
ENDBRANCH   4   5
ENDBRANCH   1   4
BRANCH   2  10
ATOM     10  C   UNL     1      11.479 -14.359  38.251  1.00  0.00     0.183 C 
BRANCH  10  11
ATOM     11  O   UNL     1      10.337 -14.706  37.517  1.00  0.00    -0.392 OA
ATOM     12  H   UNL     1      10.161 -15.661  37.719  1.00  0.00     0.210 HD
ENDBRANCH  10  11
ENDBRANCH   2  10
TORSDOF 5
ENDMDL
MODEL 7
REMARK VINA RESULT:    -4.966      3.024      5.222
REMARK INTER + INTRA:          -6.697
REMARK INTER:                  -6.413
REMARK INTRA:                  -0.284
REMARK UNBOUND:                -0.424
REMARK SMILES CC(C)=CCCC(C)=CCO
REMARK SMILES IDX 7 1 9 2 8 3 6 4 5 5 4 6 1 7 2 8 3 9 10 10 11 11
REMARK H PARENT 11 12
REMARK Flexibility Score: inf
ROOT
ATOM      1  C   UNL     1      11.864 -15.508  40.212  1.00  0.00    -0.075 C 
ATOM      2  C   UNL     1      12.337 -15.498  38.946  1.00  0.00    -0.000 C 
ATOM      3  C   UNL     1      10.620 -14.743  40.598  1.00  0.00     0.039 C 
ENDROOT
BRANCH   1   4
ATOM      4  C   UNL     1      12.605 -16.295  41.271  1.00  0.00     0.034 C 
BRANCH   4   5
ATOM      5  C   UNL     1      11.766 -17.483  41.755  1.00  0.00     0.032 C 
BRANCH   5   6
ATOM      6  C   UNL     1      12.213 -18.760  41.089  1.00  0.00    -0.028 C 
ATOM      7  C   UNL     1      12.249 -20.527  39.383  1.00  0.00     0.039 C 
ATOM      8  C   UNL     1      11.736 -19.212  39.908  1.00  0.00    -0.080 C 
ATOM      9  C   UNL     1      10.726 -18.431  39.101  1.00  0.00     0.039 C 
ENDBRANCH   5   6
ENDBRANCH   4   5
ENDBRANCH   1   4
BRANCH   2  10
ATOM     10  C   UNL     1      11.690 -14.749  37.814  1.00  0.00     0.183 C 
BRANCH  10  11
ATOM     11  O   UNL     1      11.078 -15.652  36.936  1.00  0.00    -0.392 OA
ATOM     12  H   UNL     1      11.109 -16.535  37.385  1.00  0.00     0.210 HD
ENDBRANCH  10  11
ENDBRANCH   2  10
TORSDOF 5
ENDMDL
MODEL 8
REMARK VINA RESULT:    -4.486      2.517      4.964
REMARK INTER + INTRA:          -6.090
REMARK INTER:                  -5.900
REMARK INTRA:                  -0.190
REMARK UNBOUND:                -0.424
REMARK SMILES CC(C)=CCCC(C)=CCO
REMARK SMILES IDX 7 1 9 2 8 3 6 4 5 5 4 6 1 7 2 8 3 9 10 10 11 11
REMARK H PARENT 11 12
REMARK Flexibility Score: inf
ROOT
ATOM      1  C   UNL     1      11.010 -15.487  38.970  1.00  0.00    -0.075 C 
ATOM      2  C   UNL     1      10.711 -16.735  38.546  1.00  0.00    -0.000 C 
ATOM      3  C   UNL     1      11.774 -14.518  38.098  1.00  0.00     0.039 C 
ENDROOT
BRANCH   1   4
ATOM      4  C   UNL     1      10.580 -15.055  40.354  1.00  0.00     0.034 C 
BRANCH   4   5
ATOM      5  C   UNL     1      11.626 -15.458  41.400  1.00  0.00     0.032 C 
BRANCH   5   6
ATOM      6  C   UNL     1      11.587 -16.944  41.652  1.00  0.00    -0.028 C 
ATOM      7  C   UNL     1      12.312 -19.286  41.485  1.00  0.00     0.039 C 
ATOM      8  C   UNL     1      12.503 -17.821  41.186  1.00  0.00    -0.080 C 
ATOM      9  C   UNL     1      13.712 -17.374  40.398  1.00  0.00     0.039 C 
ENDBRANCH   5   6
ENDBRANCH   4   5
ENDBRANCH   1   4
BRANCH   2  10
ATOM     10  C   UNL     1      11.091 -17.276  37.195  1.00  0.00     0.183 C 
BRANCH  10  11
ATOM     11  O   UNL     1      11.842 -18.449  37.347  1.00  0.00    -0.392 OA
ATOM     12  H   UNL     1      11.271 -19.075  37.862  1.00  0.00     0.210 HD
ENDBRANCH  10  11
ENDBRANCH   2  10
TORSDOF 5
ENDMDL
MODEL 9
REMARK VINA RESULT:    -4.364      2.865      5.372
REMARK INTER + INTRA:          -5.937
REMARK INTER:                  -5.915
REMARK INTRA:                  -0.022
REMARK UNBOUND:                -0.424
REMARK SMILES CC(C)=CCCC(C)=CCO
REMARK SMILES IDX 7 1 9 2 8 3 6 4 5 5 4 6 1 7 2 8 3 9 10 10 11 11
REMARK H PARENT 11 12
REMARK Flexibility Score: inf
ROOT
ATOM      1  C   UNL     1      10.991 -17.033  38.763  1.00  0.00    -0.075 C 
ATOM      2  C   UNL     1      10.967 -16.148  39.784  1.00  0.00    -0.000 C 
ATOM      3  C   UNL     1      11.052 -16.579  37.323  1.00  0.00     0.039 C 
ENDROOT
BRANCH   1   4
ATOM      4  C   UNL     1      10.943 -18.514  39.068  1.00  0.00     0.034 C 
BRANCH   4   5
ATOM      5  C   UNL     1      12.349 -19.061  39.337  1.00  0.00     0.032 C 
BRANCH   5   6
ATOM      6  C   UNL     1      12.362 -19.917  40.579  1.00  0.00    -0.028 C 
ATOM      7  C   UNL     1      12.392 -20.407  42.987  1.00  0.00     0.039 C 
ATOM      8  C   UNL     1      12.335 -19.431  41.840  1.00  0.00    -0.080 C 
ATOM      9  C   UNL     1      12.232 -17.951  42.126  1.00  0.00     0.039 C 
ENDBRANCH   5   6
ENDBRANCH   4   5
ENDBRANCH   1   4
BRANCH   2  10
ATOM     10  C   UNL     1      11.004 -14.656  39.602  1.00  0.00     0.183 C 
BRANCH  10  11
ATOM     11  O   UNL     1      10.627 -14.022  40.794  1.00  0.00    -0.392 OA
ATOM     12  H   UNL     1       9.887 -13.407  40.555  1.00  0.00     0.210 HD
ENDBRANCH  10  11
ENDBRANCH   2  10
TORSDOF 5
ENDMDL
