MODEL 1
REMARK VINA RESULT:    -4.755      0.000      0.000
REMARK INTER + INTRA:          -8.493
REMARK INTER:                  -7.257
REMARK INTRA:                  -1.236
REMARK UNBOUND:                -1.236
REMARK SMILES CCCCCCCCCCC(=O)[O-]
REMARK SMILES IDX 7 1 8 2 9 3 10 4 11 5 12 6 13 7 6 8 5 9 4 10 3 11 2 12 1 13
REMARK H PARENT
REMARK Flexibility Score: inf
ROOT
ATOM      1  C   UNL     1      19.345  23.109   6.485  1.00  0.00     0.000 C 
ENDROOT
BRANCH   1   2
ATOM      2  C   UNL     1      17.947  22.926   7.100  1.00  0.00     0.000 C 
BRANCH   2   3
ATOM      3  C   UNL     1      17.210  24.260   7.304  1.00  0.00     0.006 C 
BRANCH   3   4
ATOM      4  C   UNL     1      17.242  24.682   8.776  1.00  0.00     0.053 C 
BRANCH   4   5
ATOM      5  C   UNL     1      17.821  26.054   8.916  1.00  0.00     0.041 C 
ATOM      6  O   UNL     1      17.071  27.038   9.149  1.00  0.00    -0.550 OA
ATOM      7  O   UNL     1      19.184  26.254   8.739  1.00  0.00    -0.550 OA
ENDBRANCH   4   5
ENDBRANCH   3   4
ENDBRANCH   2   3
ENDBRANCH   1   2
BRANCH   1   8
ATOM      8  C   UNL     1      20.236  21.867   6.666  1.00  0.00     0.000 C 
BRANCH   8   9
ATOM      9  C   UNL     1      21.514  22.170   7.464  1.00  0.00    -0.000 C 
BRANCH   9  10
ATOM     10  C   UNL     1      21.373  23.405   8.372  1.00  0.00    -0.000 C 
BRANCH  10  11
ATOM     11  C   UNL     1      21.410  23.034   9.869  1.00  0.00    -0.000 C 
BRANCH  11  12
ATOM     12  C   UNL     1      20.061  23.224  10.582  1.00  0.00    -0.003 C 
ATOM     13  C   UNL     1      19.156  21.997  10.489  1.00  0.00     0.004 C 
ENDBRANCH  11  12
ENDBRANCH  10  11
ENDBRANCH   9  10
ENDBRANCH   8   9
ENDBRANCH   1   8
TORSDOF 9
ENDMDL
MODEL 2
REMARK VINA RESULT:    -4.657      0.978      2.970
REMARK INTER + INTRA:          -8.344
REMARK INTER:                  -7.120
REMARK INTRA:                  -1.223
REMARK UNBOUND:                -1.236
REMARK SMILES CCCCCCCCCCC(=O)[O-]
REMARK SMILES IDX 7 1 8 2 9 3 10 4 11 5 12 6 13 7 6 8 5 9 4 10 3 11 2 12 1 13
REMARK H PARENT
REMARK Flexibility Score: inf
ROOT
ATOM      1  C   UNL     1      20.644  23.217  10.672  1.00  0.00     0.000 C 
ENDROOT
BRANCH   1   2
ATOM      2  C   UNL     1      19.339  22.463  10.370  1.00  0.00     0.000 C 
BRANCH   2   3
ATOM      3  C   UNL     1      18.178  23.405  10.012  1.00  0.00     0.006 C 
BRANCH   3   4
ATOM      4  C   UNL     1      18.538  24.861  10.327  1.00  0.00     0.053 C 
BRANCH   4   5
ATOM      5  C   UNL     1      18.240  25.740   9.154  1.00  0.00     0.041 C 
ATOM      6  O   UNL     1      17.257  25.491   8.409  1.00  0.00    -0.550 OA
ATOM      7  O   UNL     1      19.079  26.806   8.854  1.00  0.00    -0.550 OA
ENDBRANCH   4   5
ENDBRANCH   3   4
ENDBRANCH   2   3
ENDBRANCH   1   2
BRANCH   1   8
ATOM      8  C   UNL     1      21.788  22.822   9.722  1.00  0.00     0.000 C 
BRANCH   8   9
ATOM      9  C   UNL     1      21.576  23.347   8.293  1.00  0.00    -0.000 C 
BRANCH   9  10
ATOM     10  C   UNL     1      21.758  22.256   7.223  1.00  0.00    -0.000 C 
BRANCH  10  11
ATOM     11  C   UNL     1      20.449  21.962   6.461  1.00  0.00    -0.000 C 
BRANCH  11  12
ATOM     12  C   UNL     1      19.396  23.076   6.596  1.00  0.00    -0.003 C 
ATOM     13  C   UNL     1      17.965  22.570   6.426  1.00  0.00     0.004 C 
ENDBRANCH  11  12
ENDBRANCH  10  11
ENDBRANCH   9  10
ENDBRANCH   8   9
ENDBRANCH   1   8
TORSDOF 9
ENDMDL
MODEL 3
REMARK VINA RESULT:    -4.655      2.145      3.153
REMARK INTER + INTRA:          -8.340
REMARK INTER:                  -7.313
REMARK INTRA:                  -1.026
REMARK UNBOUND:                -1.236
REMARK SMILES CCCCCCCCCCC(=O)[O-]
REMARK SMILES IDX 7 1 8 2 9 3 10 4 11 5 12 6 13 7 6 8 5 9 4 10 3 11 2 12 1 13
REMARK H PARENT
REMARK Flexibility Score: inf
ROOT
ATOM      1  C   UNL     1      17.166  24.253   7.551  1.00  0.00     0.000 C 
ENDROOT
BRANCH   1   2
ATOM      2  C   UNL     1      17.991  25.347   8.249  1.00  0.00     0.000 C 
BRANCH   2   3
ATOM      3  C   UNL     1      18.147  25.101   9.758  1.00  0.00     0.006 C 
BRANCH   3   4
ATOM      4  C   UNL     1      16.969  24.289  10.305  1.00  0.00     0.053 C 
BRANCH   4   5
ATOM      5  C   UNL     1      17.459  23.112  11.085  1.00  0.00     0.041 C 
ATOM      6  O   UNL     1      17.045  22.909  12.256  1.00  0.00    -0.550 OA
ATOM      7  O   UNL     1      18.413  22.264  10.536  1.00  0.00    -0.550 OA
ENDBRANCH   4   5
ENDBRANCH   3   4
ENDBRANCH   2   3
ENDBRANCH   1   2
BRANCH   1   8
ATOM      8  C   UNL     1      17.935  23.577   6.402  1.00  0.00     0.000 C 
BRANCH   8   9
ATOM      9  C   UNL     1      18.829  22.426   6.887  1.00  0.00    -0.000 C 
BRANCH   9  10
ATOM     10  C   UNL     1      20.216  22.425   6.221  1.00  0.00    -0.000 C 
BRANCH  10  11
ATOM     11  C   UNL     1      21.360  22.423   7.257  1.00  0.00    -0.000 C 
BRANCH  11  12
ATOM     12  C   UNL     1      21.142  23.410   8.416  1.00  0.00    -0.003 C 
ATOM     13  C   UNL     1      21.844  22.985   9.704  1.00  0.00     0.004 C 
ENDBRANCH  11  12
ENDBRANCH  10  11
ENDBRANCH   9  10
ENDBRANCH   8   9
ENDBRANCH   1   8
TORSDOF 9
ENDMDL
MODEL 4
REMARK VINA RESULT:    -4.648      2.089      4.117
REMARK INTER + INTRA:          -8.329
REMARK INTER:                  -7.096
REMARK INTRA:                  -1.233
REMARK UNBOUND:                -1.236
REMARK SMILES CCCCCCCCCCC(=O)[O-]
REMARK SMILES IDX 7 1 8 2 9 3 10 4 11 5 12 6 13 7 6 8 5 9 4 10 3 11 2 12 1 13
REMARK H PARENT
REMARK Flexibility Score: inf
ROOT
ATOM      1  C   UNL     1      21.298  22.341   6.974  1.00  0.00     0.000 C 
ENDROOT
BRANCH   1   2
ATOM      2  C   UNL     1      21.363  23.258   8.207  1.00  0.00     0.000 C 
BRANCH   2   3
ATOM      3  C   UNL     1      21.255  22.483   9.530  1.00  0.00     0.006 C 
BRANCH   3   4
ATOM      4  C   UNL     1      20.196  23.107  10.444  1.00  0.00     0.053 C 
BRANCH   4   5
ATOM      5  C   UNL     1      19.052  22.164  10.640  1.00  0.00     0.041 C 
ATOM      6  O   UNL     1      18.883  21.199   9.850  1.00  0.00    -0.550 OA
ATOM      7  O   UNL     1      18.141  22.380  11.667  1.00  0.00    -0.550 OA
ENDBRANCH   4   5
ENDBRANCH   3   4
ENDBRANCH   2   3
ENDBRANCH   1   2
BRANCH   1   8
ATOM      8  C   UNL     1      19.858  21.931   6.620  1.00  0.00     0.000 C 
BRANCH   8   9
ATOM      9  C   UNL     1      18.954  23.141   6.331  1.00  0.00    -0.000 C 
BRANCH   9  10
ATOM     10  C   UNL     1      17.711  23.187   7.237  1.00  0.00    -0.000 C 
BRANCH  10  11
ATOM     11  C   UNL     1      17.254  24.633   7.524  1.00  0.00    -0.000 C 
BRANCH  11  12
ATOM     12  C   UNL     1      17.739  25.173   8.880  1.00  0.00    -0.003 C 
ATOM     13  C   UNL     1      18.836  26.228   8.746  1.00  0.00     0.004 C 
ENDBRANCH  11  12
ENDBRANCH  10  11
ENDBRANCH   9  10
ENDBRANCH   8   9
ENDBRANCH   1   8
TORSDOF 9
ENDMDL
MODEL 5
REMARK VINA RESULT:    -4.624      3.016      5.202
REMARK INTER + INTRA:          -8.293
REMARK INTER:                  -7.177
REMARK INTRA:                  -1.116
REMARK UNBOUND:                -1.236
REMARK SMILES CCCCCCCCCCC(=O)[O-]
REMARK SMILES IDX 7 1 8 2 9 3 10 4 11 5 12 6 13 7 6 8 5 9 4 10 3 11 2 12 1 13
REMARK H PARENT
REMARK Flexibility Score: inf
ROOT
ATOM      1  C   UNL     1      19.502  22.137  10.296  1.00  0.00     0.000 C 
ENDROOT
BRANCH   1   2
ATOM      2  C   UNL     1      20.601  23.190  10.519  1.00  0.00     0.000 C 
BRANCH   2   3
ATOM      3  C   UNL     1      21.644  23.207   9.390  1.00  0.00     0.006 C 
BRANCH   3   4
ATOM      4  C   UNL     1      21.013  22.798   8.056  1.00  0.00     0.053 C 
BRANCH   4   5
ATOM      5  C   UNL     1      21.852  21.766   7.373  1.00  0.00     0.041 C 
ATOM      6  O   UNL     1      22.579  20.991   8.048  1.00  0.00    -0.550 OA
ATOM      7  O   UNL     1      21.871  21.692   5.986  1.00  0.00    -0.550 OA
ENDBRANCH   4   5
ENDBRANCH   3   4
ENDBRANCH   2   3
ENDBRANCH   1   2
BRANCH   1   8
ATOM      8  C   UNL     1      18.270  22.373  11.188  1.00  0.00     0.000 C 
BRANCH   8   9
ATOM      9  C   UNL     1      17.090  22.983  10.414  1.00  0.00    -0.000 C 
BRANCH   9  10
ATOM     10  C   UNL     1      17.221  24.505  10.227  1.00  0.00    -0.000 C 
BRANCH  10  11
ATOM     11  C   UNL     1      17.263  24.907   8.738  1.00  0.00    -0.000 C 
BRANCH  11  12
ATOM     12  C   UNL     1      18.599  25.535   8.307  1.00  0.00    -0.003 C 
ATOM     13  C   UNL     1      19.058  26.658   9.235  1.00  0.00     0.004 C 
ENDBRANCH  11  12
ENDBRANCH  10  11
ENDBRANCH   9  10
ENDBRANCH   8   9
ENDBRANCH   1   8
TORSDOF 9
ENDMDL
MODEL 6
REMARK VINA RESULT:    -4.621      2.009      4.063
REMARK INTER + INTRA:          -8.289
REMARK INTER:                  -7.126
REMARK INTRA:                  -1.162
REMARK UNBOUND:                -1.236
REMARK SMILES CCCCCCCCCCC(=O)[O-]
REMARK SMILES IDX 7 1 8 2 9 3 10 4 11 5 12 6 13 7 6 8 5 9 4 10 3 11 2 12 1 13
REMARK H PARENT
REMARK Flexibility Score: inf
ROOT
ATOM      1  C   UNL     1      19.105  22.738   5.755  1.00  0.00     0.000 C 
ENDROOT
BRANCH   1   2
ATOM      2  C   UNL     1      20.333  22.126   6.450  1.00  0.00     0.000 C 
BRANCH   2   3
ATOM      3  C   UNL     1      20.681  22.832   7.770  1.00  0.00     0.006 C 
BRANCH   3   4
ATOM      4  C   UNL     1      20.413  21.915   8.968  1.00  0.00     0.053 C 
BRANCH   4   5
ATOM      5  C   UNL     1      20.222  22.721  10.212  1.00  0.00     0.041 C 
ATOM      6  O   UNL     1      21.033  23.638  10.505  1.00  0.00    -0.550 OA
ATOM      7  O   UNL     1      19.175  22.428  11.077  1.00  0.00    -0.550 OA
ENDBRANCH   4   5
ENDBRANCH   3   4
ENDBRANCH   2   3
ENDBRANCH   1   2
BRANCH   1   8
ATOM      8  C   UNL     1      17.780  22.286   6.393  1.00  0.00     0.000 C 
BRANCH   8   9
ATOM      9  C   UNL     1      16.958  23.463   6.940  1.00  0.00    -0.000 C 
BRANCH   9  10
ATOM     10  C   UNL     1      17.034  23.584   8.473  1.00  0.00    -0.000 C 
BRANCH  10  11
ATOM     11  C   UNL     1      17.277  25.037   8.931  1.00  0.00    -0.000 C 
BRANCH  11  12
ATOM     12  C   UNL     1      18.578  25.646   8.382  1.00  0.00    -0.003 C 
ATOM     13  C   UNL     1      19.112  26.791   9.240  1.00  0.00     0.004 C 
ENDBRANCH  11  12
ENDBRANCH  10  11
ENDBRANCH   9  10
ENDBRANCH   8   9
ENDBRANCH   1   8
TORSDOF 9
ENDMDL
MODEL 7
REMARK VINA RESULT:    -4.612      2.948      4.383
REMARK INTER + INTRA:          -8.274
REMARK INTER:                  -7.038
REMARK INTRA:                  -1.236
REMARK UNBOUND:                -1.236
REMARK SMILES CCCCCCCCCCC(=O)[O-]
REMARK SMILES IDX 7 1 8 2 9 3 10 4 11 5 12 6 13 7 6 8 5 9 4 10 3 11 2 12 1 13
REMARK H PARENT
REMARK Flexibility Score: inf
ROOT
ATOM      1  C   UNL     1      17.688  23.716   6.538  1.00  0.00     0.000 C 
ENDROOT
BRANCH   1   2
ATOM      2  C   UNL     1      18.481  22.419   6.772  1.00  0.00     0.000 C 
BRANCH   2   3
ATOM      3  C   UNL     1      19.818  22.396   6.015  1.00  0.00     0.006 C 
BRANCH   3   4
ATOM      4  C   UNL     1      20.997  22.543   6.983  1.00  0.00     0.053 C 
BRANCH   4   5
ATOM      5  C   UNL     1      21.546  21.201   7.348  1.00  0.00     0.041 C 
ATOM      6  O   UNL     1      22.429  21.098   8.239  1.00  0.00    -0.550 OA
ATOM      7  O   UNL     1      21.119  20.066   6.669  1.00  0.00    -0.550 OA
ENDBRANCH   4   5
ENDBRANCH   3   4
ENDBRANCH   2   3
ENDBRANCH   1   2
BRANCH   1   8
ATOM      8  C   UNL     1      17.395  24.473   7.846  1.00  0.00     0.000 C 
BRANCH   8   9
ATOM      9  C   UNL     1      18.613  25.257   8.359  1.00  0.00    -0.000 C 
BRANCH   9  10
ATOM     10  C   UNL     1      18.877  25.035   9.859  1.00  0.00    -0.000 C 
BRANCH  10  11
ATOM     11  C   UNL     1      18.508  23.606  10.310  1.00  0.00    -0.000 C 
BRANCH  11  12
ATOM     12  C   UNL     1      19.727  22.687  10.499  1.00  0.00    -0.003 C 
ATOM     13  C   UNL     1      21.050  23.449  10.544  1.00  0.00     0.004 C 
ENDBRANCH  11  12
ENDBRANCH  10  11
ENDBRANCH   9  10
ENDBRANCH   8   9
ENDBRANCH   1   8
TORSDOF 9
ENDMDL
MODEL 8
REMARK VINA RESULT:    -4.566      2.061      4.497
REMARK INTER + INTRA:          -8.204
REMARK INTER:                  -6.824
REMARK INTRA:                  -1.380
REMARK UNBOUND:                -1.236
REMARK SMILES CCCCCCCCCCC(=O)[O-]
REMARK SMILES IDX 7 1 8 2 9 3 10 4 11 5 12 6 13 7 6 8 5 9 4 10 3 11 2 12 1 13
REMARK H PARENT
REMARK Flexibility Score: inf
ROOT
ATOM      1  C   UNL     1      20.306  23.185  10.664  1.00  0.00     0.000 C 
ENDROOT
BRANCH   1   2
ATOM      2  C   UNL     1      21.249  22.763   9.526  1.00  0.00     0.000 C 
BRANCH   2   3
ATOM      3  C   UNL     1      20.945  23.486   8.204  1.00  0.00     0.006 C 
BRANCH   3   4
ATOM      4  C   UNL     1      20.664  22.481   7.082  1.00  0.00     0.053 C 
BRANCH   4   5
ATOM      5  C   UNL     1      19.200  22.419   6.787  1.00  0.00     0.041 C 
ATOM      6  O   UNL     1      18.705  23.134   5.877  1.00  0.00    -0.550 OA
ATOM      7  O   UNL     1      18.370  21.608   7.552  1.00  0.00    -0.550 OA
ENDBRANCH   4   5
ENDBRANCH   3   4
ENDBRANCH   2   3
ENDBRANCH   1   2
BRANCH   1   8
ATOM      8  C   UNL     1      19.132  22.209  10.851  1.00  0.00     0.000 C 
BRANCH   8   9
ATOM      9  C   UNL     1      17.768  22.916  10.833  1.00  0.00    -0.000 C 
BRANCH   9  10
ATOM     10  C   UNL     1      17.871  24.402  10.444  1.00  0.00    -0.000 C 
BRANCH  10  11
ATOM     11  C   UNL     1      17.343  24.669   9.019  1.00  0.00    -0.000 C 
BRANCH  11  12
ATOM     12  C   UNL     1      17.989  25.890   8.343  1.00  0.00    -0.003 C 
ATOM     13  C   UNL     1      19.089  26.530   9.188  1.00  0.00     0.004 C 
ENDBRANCH  11  12
ENDBRANCH  10  11
ENDBRANCH   9  10
ENDBRANCH   8   9
ENDBRANCH   1   8
TORSDOF 9
ENDMDL
MODEL 9
REMARK VINA RESULT:    -4.539      2.230      4.314
REMARK INTER + INTRA:          -8.163
REMARK INTER:                  -7.109
REMARK INTRA:                  -1.053
REMARK UNBOUND:                -1.236
REMARK SMILES CCCCCCCCCCC(=O)[O-]
REMARK SMILES IDX 7 1 8 2 9 3 10 4 11 5 12 6 13 7 6 8 5 9 4 10 3 11 2 12 1 13
REMARK H PARENT
REMARK Flexibility Score: inf
ROOT
ATOM      1  C   UNL     1      17.587  25.294   8.614  1.00  0.00     0.000 C 
ENDROOT
BRANCH   1   2
ATOM      2  C   UNL     1      19.111  25.105   8.692  1.00  0.00     0.000 C 
BRANCH   2   3
ATOM      3  C   UNL     1      19.587  24.697  10.096  1.00  0.00     0.006 C 
BRANCH   3   4
ATOM      4  C   UNL     1      20.185  23.287  10.082  1.00  0.00     0.053 C 
BRANCH   4   5
ATOM      5  C   UNL     1      19.125  22.265  10.339  1.00  0.00     0.041 C 
ATOM      6  O   UNL     1      18.404  22.344  11.369  1.00  0.00    -0.550 OA
ATOM      7  O   UNL     1      18.964  21.196   9.468  1.00  0.00    -0.550 OA
ENDBRANCH   4   5
ENDBRANCH   3   4
ENDBRANCH   2   3
ENDBRANCH   1   2
BRANCH   1   8
ATOM      8  C   UNL     1      16.893  24.176   7.816  1.00  0.00     0.000 C 
BRANCH   8   9
ATOM      9  C   UNL     1      17.621  23.851   6.502  1.00  0.00    -0.000 C 
BRANCH   9  10
ATOM     10  C   UNL     1      17.906  22.348   6.334  1.00  0.00    -0.000 C 
BRANCH  10  11
ATOM     11  C   UNL     1      19.246  22.086   5.614  1.00  0.00    -0.000 C 
BRANCH  11  12
ATOM     12  C   UNL     1      20.479  22.372   6.488  1.00  0.00    -0.003 C 
ATOM     13  C   UNL     1      21.723  21.609   6.034  1.00  0.00     0.004 C 
ENDBRANCH  11  12
ENDBRANCH  10  11
ENDBRANCH   9  10
ENDBRANCH   8   9
ENDBRANCH   1   8
TORSDOF 9
ENDMDL
