MODEL 1
REMARK VINA RESULT:    -3.991      0.000      0.000
REMARK INTER + INTRA:          -7.329
REMARK INTER:                  -6.090
REMARK INTRA:                  -1.239
REMARK UNBOUND:                -1.239
REMARK SMILES CCCCCCCCCCC(=O)[O-]
REMARK SMILES IDX 7 1 8 2 9 3 10 4 11 5 12 6 13 7 6 8 5 9 4 10 3 11 2 12 1 13
REMARK H PARENT
REMARK Flexibility Score: inf
ROOT
ATOM      1  C   UNL     1      15.808 -32.531  23.841  1.00  0.00     0.000 C 
ENDROOT
BRANCH   1   2
ATOM      2  C   UNL     1      16.364 -33.376  22.683  1.00  0.00     0.000 C 
BRANCH   2   3
ATOM      3  C   UNL     1      15.280 -34.225  21.998  1.00  0.00     0.006 C 
BRANCH   3   4
ATOM      4  C   UNL     1      15.141 -33.893  20.507  1.00  0.00     0.053 C 
BRANCH   4   5
ATOM      5  C   UNL     1      16.058 -34.728  19.666  1.00  0.00     0.041 C 
ATOM      6  O   UNL     1      16.852 -34.180  18.857  1.00  0.00    -0.550 OA
ATOM      7  O   UNL     1      16.059 -36.110  19.801  1.00  0.00    -0.550 OA
ENDBRANCH   4   5
ENDBRANCH   3   4
ENDBRANCH   2   3
ENDBRANCH   1   2
BRANCH   1   8
ATOM      8  C   UNL     1      14.271 -32.580  23.921  1.00  0.00     0.000 C 
BRANCH   8   9
ATOM      9  C   UNL     1      13.624 -31.197  23.751  1.00  0.00    -0.000 C 
BRANCH   9  10
ATOM     10  C   UNL     1      13.094 -30.965  22.325  1.00  0.00    -0.000 C 
BRANCH  10  11
ATOM     11  C   UNL     1      14.168 -30.411  21.371  1.00  0.00    -0.000 C 
BRANCH  11  12
ATOM     12  C   UNL     1      14.992 -29.236  21.929  1.00  0.00    -0.003 C 
ATOM     13  C   UNL     1      16.500 -29.475  21.858  1.00  0.00     0.004 C 
ENDBRANCH  11  12
ENDBRANCH  10  11
ENDBRANCH   9  10
ENDBRANCH   8   9
ENDBRANCH   1   8
TORSDOF 9
ENDMDL
MODEL 2
REMARK VINA RESULT:    -3.986      2.463      3.275
REMARK INTER + INTRA:          -7.322
REMARK INTER:                  -6.807
REMARK INTRA:                  -0.515
REMARK UNBOUND:                -1.239
REMARK SMILES CCCCCCCCCCC(=O)[O-]
REMARK SMILES IDX 7 1 8 2 9 3 10 4 11 5 12 6 13 7 6 8 5 9 4 10 3 11 2 12 1 13
REMARK H PARENT
REMARK Flexibility Score: inf
ROOT
ATOM      1  C   UNL     1      13.415 -31.172  20.986  1.00  0.00     0.000 C 
ENDROOT
BRANCH   1   2
ATOM      2  C   UNL     1      14.698 -30.839  21.765  1.00  0.00     0.000 C 
BRANCH   2   3
ATOM      3  C   UNL     1      15.699 -32.007  21.782  1.00  0.00     0.006 C 
BRANCH   3   4
ATOM      4  C   UNL     1      15.026 -33.342  22.125  1.00  0.00     0.053 C 
BRANCH   4   5
ATOM      5  C   UNL     1      15.456 -34.434  21.193  1.00  0.00     0.041 C 
ATOM      6  O   UNL     1      14.908 -34.560  20.066  1.00  0.00    -0.550 OA
ATOM      7  O   UNL     1      16.487 -35.290  21.556  1.00  0.00    -0.550 OA
ENDBRANCH   4   5
ENDBRANCH   3   4
ENDBRANCH   2   3
ENDBRANCH   1   2
BRANCH   1   8
ATOM      8  C   UNL     1      12.149 -30.640  21.682  1.00  0.00     0.000 C 
BRANCH   8   9
ATOM      9  C   UNL     1      12.461 -29.583  22.754  1.00  0.00    -0.000 C 
BRANCH   9  10
ATOM     10  C   UNL     1      11.258 -28.672  23.052  1.00  0.00    -0.000 C 
BRANCH  10  11
ATOM     11  C   UNL     1      11.635 -27.441  23.896  1.00  0.00    -0.000 C 
BRANCH  11  12
ATOM     12  C   UNL     1      12.750 -27.677  24.931  1.00  0.00    -0.003 C 
ATOM     13  C   UNL     1      13.644 -26.454  25.138  1.00  0.00     0.004 C 
ENDBRANCH  11  12
ENDBRANCH  10  11
ENDBRANCH   9  10
ENDBRANCH   8   9
ENDBRANCH   1   8
TORSDOF 9
ENDMDL
MODEL 3
REMARK VINA RESULT:    -3.970      1.640      2.818
REMARK INTER + INTRA:          -7.298
REMARK INTER:                  -6.125
REMARK INTRA:                  -1.173
REMARK UNBOUND:                -1.239
REMARK SMILES CCCCCCCCCCC(=O)[O-]
REMARK SMILES IDX 7 1 8 2 9 3 10 4 11 5 12 6 13 7 6 8 5 9 4 10 3 11 2 12 1 13
REMARK H PARENT
REMARK Flexibility Score: inf
ROOT
ATOM      1  C   UNL     1      13.160 -31.308  23.014  1.00  0.00     0.000 C 
ENDROOT
BRANCH   1   2
ATOM      2  C   UNL     1      13.191 -31.308  21.477  1.00  0.00     0.000 C 
BRANCH   2   3
ATOM      3  C   UNL     1      13.965 -32.506  20.901  1.00  0.00     0.006 C 
BRANCH   3   4
ATOM      4  C   UNL     1      14.764 -33.251  21.978  1.00  0.00     0.053 C 
BRANCH   4   5
ATOM      5  C   UNL     1      15.486 -34.435  21.411  1.00  0.00     0.041 C 
ATOM      6  O   UNL     1      16.458 -34.942  22.031  1.00  0.00    -0.550 OA
ATOM      7  O   UNL     1      15.063 -35.001  20.216  1.00  0.00    -0.550 OA
ENDBRANCH   4   5
ENDBRANCH   3   4
ENDBRANCH   2   3
ENDBRANCH   1   2
BRANCH   1   8
ATOM      8  C   UNL     1      13.466 -29.922  23.609  1.00  0.00     0.000 C 
BRANCH   8   9
ATOM      9  C   UNL     1      14.617 -29.207  22.884  1.00  0.00    -0.000 C 
BRANCH   9  10
ATOM     10  C   UNL     1      15.984 -29.854  23.165  1.00  0.00    -0.000 C 
BRANCH  10  11
ATOM     11  C   UNL     1      16.834 -30.034  21.893  1.00  0.00    -0.000 C 
BRANCH  11  12
ATOM     12  C   UNL     1      17.832 -31.205  21.938  1.00  0.00    -0.003 C 
ATOM     13  C   UNL     1      18.032 -31.874  20.578  1.00  0.00     0.004 C 
ENDBRANCH  11  12
ENDBRANCH  10  11
ENDBRANCH   9  10
ENDBRANCH   8   9
ENDBRANCH   1   8
TORSDOF 9
ENDMDL
MODEL 4
REMARK VINA RESULT:    -3.940      2.124      2.844
REMARK INTER + INTRA:          -7.251
REMARK INTER:                  -6.880
REMARK INTRA:                  -0.372
REMARK UNBOUND:                -1.239
REMARK SMILES CCCCCCCCCCC(=O)[O-]
REMARK SMILES IDX 7 1 8 2 9 3 10 4 11 5 12 6 13 7 6 8 5 9 4 10 3 11 2 12 1 13
REMARK H PARENT
REMARK Flexibility Score: inf
ROOT
ATOM      1  C   UNL     1      14.297 -32.762  21.320  1.00  0.00     0.000 C 
ENDROOT
BRANCH   1   2
ATOM      2  C   UNL     1      14.595 -33.822  20.247  1.00  0.00     0.000 C 
BRANCH   2   3
ATOM      3  C   UNL     1      15.663 -34.834  20.696  1.00  0.00     0.006 C 
BRANCH   3   4
ATOM      4  C   UNL     1      16.474 -35.382  19.515  1.00  0.00     0.053 C 
BRANCH   4   5
ATOM      5  C   UNL     1      17.251 -36.606  19.898  1.00  0.00     0.041 C 
ATOM      6  O   UNL     1      17.581 -37.447  19.021  1.00  0.00    -0.550 OA
ATOM      7  O   UNL     1      17.639 -36.798  21.217  1.00  0.00    -0.550 OA
ENDBRANCH   4   5
ENDBRANCH   3   4
ENDBRANCH   2   3
ENDBRANCH   1   2
BRANCH   1   8
ATOM      8  C   UNL     1      13.478 -31.580  20.769  1.00  0.00     0.000 C 
BRANCH   8   9
ATOM      9  C   UNL     1      12.536 -30.972  21.820  1.00  0.00    -0.000 C 
BRANCH   9  10
ATOM     10  C   UNL     1      13.087 -31.098  23.250  1.00  0.00    -0.000 C 
BRANCH  10  11
ATOM     11  C   UNL     1      13.706 -29.786  23.770  1.00  0.00    -0.000 C 
BRANCH  11  12
ATOM     12  C   UNL     1      12.933 -28.509  23.396  1.00  0.00    -0.003 C 
ATOM     13  C   UNL     1      12.261 -27.842  24.597  1.00  0.00     0.004 C 
ENDBRANCH  11  12
ENDBRANCH  10  11
ENDBRANCH   9  10
ENDBRANCH   8   9
ENDBRANCH   1   8
TORSDOF 9
ENDMDL
MODEL 5
REMARK VINA RESULT:    -3.918      2.581      3.668
REMARK INTER + INTRA:          -7.218
REMARK INTER:                  -6.274
REMARK INTRA:                  -0.944
REMARK UNBOUND:                -1.239
REMARK SMILES CCCCCCCCCCC(=O)[O-]
REMARK SMILES IDX 7 1 8 2 9 3 10 4 11 5 12 6 13 7 6 8 5 9 4 10 3 11 2 12 1 13
REMARK H PARENT
REMARK Flexibility Score: inf
ROOT
ATOM      1  C   UNL     1      14.694 -29.849  21.618  1.00  0.00     0.000 C 
ENDROOT
BRANCH   1   2
ATOM      2  C   UNL     1      15.399 -30.208  22.936  1.00  0.00     0.000 C 
BRANCH   2   3
ATOM      3  C   UNL     1      16.932 -30.218  22.802  1.00  0.00     0.006 C 
BRANCH   3   4
ATOM      4  C   UNL     1      17.385 -30.387  21.347  1.00  0.00     0.053 C 
BRANCH   4   5
ATOM      5  C   UNL     1      17.732 -31.811  21.037  1.00  0.00     0.041 C 
ATOM      6  O   UNL     1      16.854 -32.710  21.116  1.00  0.00    -0.550 OA
ATOM      7  O   UNL     1      19.018 -32.139  20.627  1.00  0.00    -0.550 OA
ENDBRANCH   4   5
ENDBRANCH   3   4
ENDBRANCH   2   3
ENDBRANCH   1   2
BRANCH   1   8
ATOM      8  C   UNL     1      13.604 -30.867  21.236  1.00  0.00     0.000 C 
BRANCH   8   9
ATOM      9  C   UNL     1      12.450 -30.908  22.250  1.00  0.00    -0.000 C 
BRANCH   9  10
ATOM     10  C   UNL     1      11.289 -29.976  21.860  1.00  0.00    -0.000 C 
BRANCH  10  11
ATOM     11  C   UNL     1      11.139 -28.776  22.814  1.00  0.00    -0.000 C 
BRANCH  11  12
ATOM     12  C   UNL     1      12.063 -28.803  24.045  1.00  0.00    -0.003 C 
ATOM     13  C   UNL     1      12.959 -27.569  24.147  1.00  0.00     0.004 C 
ENDBRANCH  11  12
ENDBRANCH  10  11
ENDBRANCH   9  10
ENDBRANCH   8   9
ENDBRANCH   1   8
TORSDOF 9
ENDMDL
MODEL 6
REMARK VINA RESULT:    -3.881      1.340      2.021
REMARK INTER + INTRA:          -7.162
REMARK INTER:                  -6.551
REMARK INTRA:                  -0.611
REMARK UNBOUND:                -1.239
REMARK SMILES CCCCCCCCCCC(=O)[O-]
REMARK SMILES IDX 7 1 8 2 9 3 10 4 11 5 12 6 13 7 6 8 5 9 4 10 3 11 2 12 1 13
REMARK H PARENT
REMARK Flexibility Score: inf
ROOT
ATOM      1  C   UNL     1      15.509 -33.036  23.547  1.00  0.00     0.000 C 
ENDROOT
BRANCH   1   2
ATOM      2  C   UNL     1      15.417 -33.996  22.350  1.00  0.00     0.000 C 
BRANCH   2   3
ATOM      3  C   UNL     1      14.984 -33.286  21.055  1.00  0.00     0.006 C 
BRANCH   3   4
ATOM      4  C   UNL     1      14.869 -34.257  19.874  1.00  0.00     0.053 C 
BRANCH   4   5
ATOM      5  C   UNL     1      16.203 -34.825  19.492  1.00  0.00     0.041 C 
ATOM      6  O   UNL     1      17.121 -34.067  19.080  1.00  0.00    -0.550 OA
ATOM      7  O   UNL     1      16.442 -36.186  19.624  1.00  0.00    -0.550 OA
ENDBRANCH   4   5
ENDBRANCH   3   4
ENDBRANCH   2   3
ENDBRANCH   1   2
BRANCH   1   8
ATOM      8  C   UNL     1      14.161 -32.868  24.272  1.00  0.00     0.000 C 
BRANCH   8   9
ATOM      9  C   UNL     1      13.507 -31.505  23.999  1.00  0.00    -0.000 C 
BRANCH   9  10
ATOM     10  C   UNL     1      14.495 -30.484  23.410  1.00  0.00    -0.000 C 
BRANCH  10  11
ATOM     11  C   UNL     1      13.924 -29.054  23.368  1.00  0.00    -0.000 C 
BRANCH  11  12
ATOM     12  C   UNL     1      12.571 -28.872  24.079  1.00  0.00    -0.003 C 
ATOM     13  C   UNL     1      11.435 -28.511  23.122  1.00  0.00     0.004 C 
ENDBRANCH  11  12
ENDBRANCH  10  11
ENDBRANCH   9  10
ENDBRANCH   8   9
ENDBRANCH   1   8
TORSDOF 9
ENDMDL
MODEL 7
REMARK VINA RESULT:    -3.879      2.978      3.738
REMARK INTER + INTRA:          -7.159
REMARK INTER:                  -6.355
REMARK INTRA:                  -0.804
REMARK UNBOUND:                -1.239
REMARK SMILES CCCCCCCCCCC(=O)[O-]
REMARK SMILES IDX 7 1 8 2 9 3 10 4 11 5 12 6 13 7 6 8 5 9 4 10 3 11 2 12 1 13
REMARK H PARENT
REMARK Flexibility Score: inf
ROOT
ATOM      1  C   UNL     1      13.481 -30.954  21.178  1.00  0.00     0.000 C 
ENDROOT
BRANCH   1   2
ATOM      2  C   UNL     1      13.840 -32.407  20.828  1.00  0.00     0.000 C 
BRANCH   2   3
ATOM      3  C   UNL     1      15.252 -32.797  21.297  1.00  0.00     0.006 C 
BRANCH   3   4
ATOM      4  C   UNL     1      15.240 -34.025  22.215  1.00  0.00     0.053 C 
BRANCH   4   5
ATOM      5  C   UNL     1      15.292 -33.635  23.661  1.00  0.00     0.041 C 
ATOM      6  O   UNL     1      16.397 -33.565  24.261  1.00  0.00    -0.550 OA
ATOM      7  O   UNL     1      14.121 -33.316  24.337  1.00  0.00    -0.550 OA
ENDBRANCH   4   5
ENDBRANCH   3   4
ENDBRANCH   2   3
ENDBRANCH   1   2
BRANCH   1   8
ATOM      8  C   UNL     1      14.610 -30.235  21.938  1.00  0.00     0.000 C 
BRANCH   8   9
ATOM      9  C   UNL     1      14.270 -29.997  23.418  1.00  0.00    -0.000 C 
BRANCH   9  10
ATOM     10  C   UNL     1      12.766 -29.773  23.649  1.00  0.00    -0.000 C 
BRANCH  10  11
ATOM     11  C   UNL     1      12.379 -28.283  23.669  1.00  0.00    -0.000 C 
BRANCH  11  12
ATOM     12  C   UNL     1      12.814 -27.514  24.930  1.00  0.00    -0.003 C 
ATOM     13  C   UNL     1      13.622 -26.255  24.615  1.00  0.00     0.004 C 
ENDBRANCH  11  12
ENDBRANCH  10  11
ENDBRANCH   9  10
ENDBRANCH   8   9
ENDBRANCH   1   8
TORSDOF 9
ENDMDL
MODEL 8
REMARK VINA RESULT:    -3.879      3.625      5.526
REMARK INTER + INTRA:          -7.159
REMARK INTER:                  -6.349
REMARK INTRA:                  -0.810
REMARK UNBOUND:                -1.239
REMARK SMILES CCCCCCCCCCC(=O)[O-]
REMARK SMILES IDX 7 1 8 2 9 3 10 4 11 5 12 6 13 7 6 8 5 9 4 10 3 11 2 12 1 13
REMARK H PARENT
REMARK Flexibility Score: inf
ROOT
ATOM      1  C   UNL     1      14.425 -32.922  21.501  1.00  0.00     0.000 C 
ENDROOT
BRANCH   1   2
ATOM      2  C   UNL     1      15.093 -31.541  21.398  1.00  0.00     0.000 C 
BRANCH   2   3
ATOM      3  C   UNL     1      14.071 -30.398  21.268  1.00  0.00     0.006 C 
BRANCH   3   4
ATOM      4  C   UNL     1      12.738 -30.733  21.948  1.00  0.00     0.053 C 
BRANCH   4   5
ATOM      5  C   UNL     1      12.350 -29.689  22.951  1.00  0.00     0.041 C 
ATOM      6  O   UNL     1      11.477 -28.828  22.665  1.00  0.00    -0.550 OA
ATOM      7  O   UNL     1      12.929 -29.689  24.213  1.00  0.00    -0.550 OA
ENDBRANCH   4   5
ENDBRANCH   3   4
ENDBRANCH   2   3
ENDBRANCH   1   2
BRANCH   1   8
ATOM      8  C   UNL     1      14.635 -33.773  20.235  1.00  0.00     0.000 C 
BRANCH   8   9
ATOM      9  C   UNL     1      15.591 -34.953  20.465  1.00  0.00    -0.000 C 
BRANCH   9  10
ATOM     10  C   UNL     1      16.644 -35.085  19.351  1.00  0.00    -0.000 C 
BRANCH  10  11
ATOM     11  C   UNL     1      17.616 -33.892  19.301  1.00  0.00    -0.000 C 
BRANCH  11  12
ATOM     12  C   UNL     1      18.368 -33.609  20.614  1.00  0.00    -0.003 C 
ATOM     13  C   UNL     1      18.703 -32.130  20.805  1.00  0.00     0.004 C 
ENDBRANCH  11  12
ENDBRANCH  10  11
ENDBRANCH   9  10
ENDBRANCH   8   9
ENDBRANCH   1   8
TORSDOF 9
ENDMDL
MODEL 9
REMARK VINA RESULT:    -3.818      3.343      5.379
REMARK INTER + INTRA:          -7.065
REMARK INTER:                  -6.361
REMARK INTRA:                  -0.704
REMARK UNBOUND:                -1.239
REMARK SMILES CCCCCCCCCCC(=O)[O-]
REMARK SMILES IDX 7 1 8 2 9 3 10 4 11 5 12 6 13 7 6 8 5 9 4 10 3 11 2 12 1 13
REMARK H PARENT
REMARK Flexibility Score: inf
ROOT
ATOM      1  C   UNL     1      15.787 -31.934  22.132  1.00  0.00     0.000 C 
ENDROOT
BRANCH   1   2
ATOM      2  C   UNL     1      15.352 -30.996  23.270  1.00  0.00     0.000 C 
BRANCH   2   3
ATOM      3  C   UNL     1      13.885 -31.208  23.681  1.00  0.00     0.006 C 
BRANCH   3   4
ATOM      4  C   UNL     1      13.151 -29.881  23.913  1.00  0.00     0.053 C 
BRANCH   4   5
ATOM      5  C   UNL     1      12.176 -29.588  22.813  1.00  0.00     0.041 C 
ATOM      6  O   UNL     1      11.537 -28.503  22.804  1.00  0.00    -0.550 OA
ATOM      7  O   UNL     1      11.999 -30.500  21.781  1.00  0.00    -0.550 OA
ENDBRANCH   4   5
ENDBRANCH   3   4
ENDBRANCH   2   3
ENDBRANCH   1   2
BRANCH   1   8
ATOM      8  C   UNL     1      14.804 -33.099  21.920  1.00  0.00     0.000 C 
BRANCH   8   9
ATOM      9  C   UNL     1      14.831 -33.644  20.483  1.00  0.00    -0.000 C 
BRANCH   9  10
ATOM     10  C   UNL     1      15.381 -35.079  20.407  1.00  0.00    -0.000 C 
BRANCH  10  11
ATOM     11  C   UNL     1      16.541 -35.222  19.403  1.00  0.00    -0.000 C 
BRANCH  11  12
ATOM     12  C   UNL     1      17.351 -33.937  19.157  1.00  0.00    -0.003 C 
ATOM     13  C   UNL     1      18.445 -33.710  20.200  1.00  0.00     0.004 C 
ENDBRANCH  11  12
ENDBRANCH  10  11
ENDBRANCH   9  10
ENDBRANCH   8   9
ENDBRANCH   1   8
TORSDOF 9
ENDMDL
