MODEL 1
REMARK VINA RESULT:    -7.481      0.000      0.000
REMARK INTER + INTRA:          -9.228
REMARK INTER:                  -9.012
REMARK INTRA:                  -0.216
REMARK UNBOUND:                -0.216
REMARK SMILES O=c1c(O)c(-c2ccc(O)c(O)c2)oc2cc(O)cc(O)c12
REMARK SMILES IDX 5 1 3 2 2 3 1 4 22 5 20 6 19 7 17 8 16 9 15 10 14 11 6 12
REMARK SMILES IDX 7 13 8 14 9 15 13 16 11 17 10 18 12 20 4 22 21 24 18 26
REMARK H PARENT 10 19 12 21 4 23 21 25 18 27
REMARK Flexibility Score: inf
ROOT
ATOM      1  C   UNL     1      23.427  30.239  18.179  1.00  0.00     0.180 A 
ATOM      2  C   UNL     1      22.644  30.779  17.139  1.00  0.00     0.208 A 
ATOM      3  C   UNL     1      21.845  31.902  17.404  1.00  0.00     0.238 A 
ATOM      4  O   UNL     1      21.148  32.400  16.479  1.00  0.00    -0.285 OA
ATOM      5  C   UNL     1      21.826  32.453  18.703  1.00  0.00     0.111 A 
ATOM      6  C   UNL     1      21.046  33.580  19.053  1.00  0.00     0.134 A 
ATOM      7  C   UNL     1      21.075  34.064  20.370  1.00  0.00     0.093 A 
ATOM      8  C   UNL     1      21.865  33.443  21.340  1.00  0.00     0.123 A 
ATOM      9  C   UNL     1      22.638  32.329  20.999  1.00  0.00     0.094 A 
ATOM     10  C   UNL     1      22.625  31.833  19.692  1.00  0.00     0.146 A 
ATOM     11  O   UNL     1      23.373  30.777  19.393  1.00  0.00    -0.452 OA
ENDROOT
BRANCH   1  12
ATOM     12  C   UNL     1      24.309  29.068  17.972  1.00  0.00     0.025 A 
ATOM     13  C   UNL     1      24.044  27.875  18.662  1.00  0.00     0.016 A 
ATOM     14  C   UNL     1      24.875  26.763  18.499  1.00  0.00     0.051 A 
ATOM     15  C   UNL     1      25.992  26.834  17.656  1.00  0.00     0.157 A 
ATOM     16  C   UNL     1      25.443  29.141  17.143  1.00  0.00     0.062 A 
ATOM     17  C   UNL     1      26.279  28.031  16.979  1.00  0.00     0.158 A 
BRANCH  15  18
ATOM     18  O   UNL     1      26.818  25.722  17.493  1.00  0.00    -0.504 OA
ATOM     19  H   UNL     1      27.504  25.675  16.749  1.00  0.00     0.293 HD
ENDBRANCH  15  18
BRANCH  17  20
ATOM     20  O   UNL     1      27.390  28.137  16.144  1.00  0.00    -0.504 OA
ATOM     21  H   UNL     1      28.156  27.475  16.180  1.00  0.00     0.293 HD
ENDBRANCH  17  20
ENDBRANCH   1  12
BRANCH   2  22
ATOM     22  O   UNL     1      22.642  30.184  15.875  1.00  0.00    -0.502 OA
ATOM     23  H   UNL     1      22.447  30.707  15.030  1.00  0.00     0.293 HD
ENDBRANCH   2  22
BRANCH   6  24
ATOM     24  O   UNL     1      20.246  34.223  18.108  1.00  0.00    -0.507 OA
ATOM     25  H   UNL     1      19.686  33.703  17.442  1.00  0.00     0.293 HD
ENDBRANCH   6  24
BRANCH   8  26
ATOM     26  O   UNL     1      21.875  33.942  22.640  1.00  0.00    -0.508 OA
ATOM     27  H   UNL     1      21.018  34.074  23.164  1.00  0.00     0.293 HD
ENDBRANCH   8  26
TORSDOF 6
ENDMDL
MODEL 2
REMARK VINA RESULT:    -6.680     10.343     12.831
REMARK INTER + INTRA:          -8.263
REMARK INTER:                  -8.215
REMARK INTRA:                  -0.048
REMARK UNBOUND:                -0.216
REMARK SMILES O=c1c(O)c(-c2ccc(O)c(O)c2)oc2cc(O)cc(O)c12
REMARK SMILES IDX 5 1 3 2 2 3 1 4 22 5 20 6 19 7 17 8 16 9 15 10 14 11 6 12
REMARK SMILES IDX 7 13 8 14 9 15 13 16 11 17 10 18 12 20 4 22 21 24 18 26
REMARK H PARENT 10 19 12 21 4 23 21 25 18 27
REMARK Flexibility Score: inf
ROOT
ATOM      1  C   UNL     1      18.174  21.033  20.909  1.00  0.00     0.180 A 
ATOM      2  C   UNL     1      17.969  22.210  20.162  1.00  0.00     0.208 A 
ATOM      3  C   UNL     1      18.016  22.142  18.762  1.00  0.00     0.238 A 
ATOM      4  O   UNL     1      17.825  23.187  18.082  1.00  0.00    -0.285 OA
ATOM      5  C   UNL     1      18.286  20.908  18.132  1.00  0.00     0.111 A 
ATOM      6  C   UNL     1      18.354  20.754  16.727  1.00  0.00     0.134 A 
ATOM      7  C   UNL     1      18.635  19.495  16.178  1.00  0.00     0.093 A 
ATOM      8  C   UNL     1      18.850  18.389  17.004  1.00  0.00     0.123 A 
ATOM      9  C   UNL     1      18.783  18.535  18.393  1.00  0.00     0.094 A 
ATOM     10  C   UNL     1      18.502  19.781  18.960  1.00  0.00     0.146 A 
ATOM     11  O   UNL     1      18.440  19.891  20.282  1.00  0.00    -0.452 OA
ENDROOT
BRANCH   1  12
ATOM     12  C   UNL     1      18.121  21.021  22.389  1.00  0.00     0.025 A 
ATOM     13  C   UNL     1      19.163  20.418  23.111  1.00  0.00     0.016 A 
ATOM     14  C   UNL     1      19.124  20.375  24.507  1.00  0.00     0.051 A 
ATOM     15  C   UNL     1      18.036  20.923  25.201  1.00  0.00     0.157 A 
ATOM     16  C   UNL     1      17.021  21.550  23.087  1.00  0.00     0.062 A 
ATOM     17  C   UNL     1      16.978  21.508  24.486  1.00  0.00     0.158 A 
BRANCH  15  18
ATOM     18  O   UNL     1      18.001  20.881  26.594  1.00  0.00    -0.504 OA
ATOM     19  H   UNL     1      17.539  21.603  27.135  1.00  0.00     0.293 HD
ENDBRANCH  15  18
BRANCH  17  20
ATOM     20  O   UNL     1      15.875  22.048  25.145  1.00  0.00    -0.504 OA
ATOM     21  H   UNL     1      15.617  21.766  26.084  1.00  0.00     0.293 HD
ENDBRANCH  17  20
ENDBRANCH   1  12
BRANCH   2  22
ATOM     22  O   UNL     1      17.754  23.428  20.811  1.00  0.00    -0.502 OA
ATOM     23  H   UNL     1      18.068  24.311  20.425  1.00  0.00     0.293 HD
ENDBRANCH   2  22
BRANCH   6  24
ATOM     24  O   UNL     1      18.144  21.839  15.875  1.00  0.00    -0.507 OA
ATOM     25  H   UNL     1      17.382  22.491  16.019  1.00  0.00     0.293 HD
ENDBRANCH   6  24
BRANCH   8  26
ATOM     26  O   UNL     1      19.129  17.150  16.433  1.00  0.00    -0.508 OA
ATOM     27  H   UNL     1      18.971  16.972  15.448  1.00  0.00     0.293 HD
ENDBRANCH   8  26
TORSDOF 6
ENDMDL
MODEL 3
REMARK VINA RESULT:    -6.473     10.196     12.608
REMARK INTER + INTRA:          -8.014
REMARK INTER:                  -7.942
REMARK INTRA:                  -0.072
REMARK UNBOUND:                -0.216
REMARK SMILES O=c1c(O)c(-c2ccc(O)c(O)c2)oc2cc(O)cc(O)c12
REMARK SMILES IDX 5 1 3 2 2 3 1 4 22 5 20 6 19 7 17 8 16 9 15 10 14 11 6 12
REMARK SMILES IDX 7 13 8 14 9 15 13 16 11 17 10 18 12 20 4 22 21 24 18 26
REMARK H PARENT 10 19 12 21 4 23 21 25 18 27
REMARK Flexibility Score: inf
ROOT
ATOM      1  C   UNL     1      17.980  20.748  20.830  1.00  0.00     0.180 A 
ATOM      2  C   UNL     1      18.013  19.498  20.182  1.00  0.00     0.208 A 
ATOM      3  C   UNL     1      18.011  19.461  18.779  1.00  0.00     0.238 A 
ATOM      4  O   UNL     1      18.051  18.348  18.187  1.00  0.00    -0.285 OA
ATOM      5  C   UNL     1      17.955  20.668  18.050  1.00  0.00     0.111 A 
ATOM      6  C   UNL     1      17.945  20.718  16.636  1.00  0.00     0.134 A 
ATOM      7  C   UNL     1      17.879  21.959  15.984  1.00  0.00     0.093 A 
ATOM      8  C   UNL     1      17.822  23.146  16.717  1.00  0.00     0.123 A 
ATOM      9  C   UNL     1      17.832  23.103  18.114  1.00  0.00     0.094 A 
ATOM     10  C   UNL     1      17.899  21.877  18.783  1.00  0.00     0.146 A 
ATOM     11  O   UNL     1      17.913  21.864  20.110  1.00  0.00    -0.452 OA
ENDROOT
BRANCH   1  12
ATOM     12  C   UNL     1      17.999  20.869  22.306  1.00  0.00     0.025 A 
ATOM     13  C   UNL     1      19.052  20.290  23.032  1.00  0.00     0.016 A 
ATOM     14  C   UNL     1      19.079  20.371  24.426  1.00  0.00     0.051 A 
ATOM     15  C   UNL     1      18.047  21.021  25.117  1.00  0.00     0.157 A 
ATOM     16  C   UNL     1      16.954  21.501  23.004  1.00  0.00     0.062 A 
ATOM     17  C   UNL     1      16.978  21.584  24.400  1.00  0.00     0.158 A 
BRANCH  15  18
ATOM     18  O   UNL     1      18.079  21.104  26.508  1.00  0.00    -0.504 OA
ATOM     19  H   UNL     1      17.490  21.754  27.015  1.00  0.00     0.293 HD
ENDBRANCH  15  18
BRANCH  17  20
ATOM     20  O   UNL     1      15.928  22.224  25.058  1.00  0.00    -0.504 OA
ATOM     21  H   UNL     1      15.182  21.710  25.509  1.00  0.00     0.293 HD
ENDBRANCH  17  20
ENDBRANCH   1  12
BRANCH   2  22
ATOM     22  O   UNL     1      18.018  18.316  20.927  1.00  0.00    -0.502 OA
ATOM     23  H   UNL     1      17.349  17.572  20.768  1.00  0.00     0.293 HD
ENDBRANCH   2  22
BRANCH   6  24
ATOM     24  O   UNL     1      18.000  19.549  15.875  1.00  0.00    -0.507 OA
ATOM     25  H   UNL     1      18.766  19.363  15.239  1.00  0.00     0.293 HD
ENDBRANCH   6  24
BRANCH   8  26
ATOM     26  O   UNL     1      17.756  24.365  16.045  1.00  0.00    -0.508 OA
ATOM     27  H   UNL     1      17.081  24.528  15.307  1.00  0.00     0.293 HD
ENDBRANCH   8  26
TORSDOF 6
ENDMDL
MODEL 4
REMARK VINA RESULT:    -6.375      1.853      3.735
REMARK INTER + INTRA:          -7.896
REMARK INTER:                  -8.222
REMARK INTRA:                   0.326
REMARK UNBOUND:                -0.216
REMARK SMILES O=c1c(O)c(-c2ccc(O)c(O)c2)oc2cc(O)cc(O)c12
REMARK SMILES IDX 5 1 3 2 2 3 1 4 22 5 20 6 19 7 17 8 16 9 15 10 14 11 6 12
REMARK SMILES IDX 7 13 8 14 9 15 13 16 11 17 10 18 12 20 4 22 21 24 18 26
REMARK H PARENT 10 19 12 21 4 23 21 25 18 27
REMARK Flexibility Score: inf
ROOT
ATOM      1  C   UNL     1      22.296  31.919  18.544  1.00  0.00     0.180 A 
ATOM      2  C   UNL     1      22.349  32.284  19.904  1.00  0.00     0.208 A 
ATOM      3  C   UNL     1      21.569  33.362  20.349  1.00  0.00     0.238 A 
ATOM      4  O   UNL     1      21.600  33.691  21.566  1.00  0.00    -0.285 OA
ATOM      5  C   UNL     1      20.766  34.068  19.428  1.00  0.00     0.111 A 
ATOM      6  C   UNL     1      19.953  35.167  19.794  1.00  0.00     0.134 A 
ATOM      7  C   UNL     1      19.190  35.823  18.817  1.00  0.00     0.093 A 
ATOM      8  C   UNL     1      19.224  35.403  17.485  1.00  0.00     0.123 A 
ATOM      9  C   UNL     1      20.024  34.317  17.118  1.00  0.00     0.094 A 
ATOM     10  C   UNL     1      20.792  33.649  18.077  1.00  0.00     0.146 A 
ATOM     11  O   UNL     1      21.539  32.617  17.703  1.00  0.00    -0.452 OA
ENDROOT
BRANCH   1  12
ATOM     12  C   UNL     1      23.076  30.783  18.004  1.00  0.00     0.025 A 
ATOM     13  C   UNL     1      23.336  30.718  16.626  1.00  0.00     0.016 A 
ATOM     14  C   UNL     1      24.051  29.644  16.090  1.00  0.00     0.051 A 
ATOM     15  C   UNL     1      24.504  28.611  16.922  1.00  0.00     0.157 A 
ATOM     16  C   UNL     1      23.514  29.734  18.832  1.00  0.00     0.062 A 
ATOM     17  C   UNL     1      24.228  28.655  18.299  1.00  0.00     0.158 A 
BRANCH  15  18
ATOM     18  O   UNL     1      25.219  27.542  16.385  1.00  0.00    -0.504 OA
ATOM     19  H   UNL     1      26.102  27.240  16.783  1.00  0.00     0.293 HD
ENDBRANCH  15  18
BRANCH  17  20
ATOM     20  O   UNL     1      24.653  27.637  19.151  1.00  0.00    -0.504 OA
ATOM     21  H   UNL     1      24.311  27.553  20.101  1.00  0.00     0.293 HD
ENDBRANCH  17  20
ENDBRANCH   1  12
BRANCH   2  22
ATOM     22  O   UNL     1      23.191  31.600  20.786  1.00  0.00    -0.502 OA
ATOM     23  H   UNL     1      22.933  31.415  21.748  1.00  0.00     0.293 HD
ENDBRANCH   2  22
BRANCH   6  24
ATOM     24  O   UNL     1      19.897  35.611  21.115  1.00  0.00    -0.507 OA
ATOM     25  H   UNL     1      19.845  36.597  21.345  1.00  0.00     0.293 HD
ENDBRANCH   6  24
BRANCH   8  26
ATOM     26  O   UNL     1      18.457  36.072  16.534  1.00  0.00    -0.508 OA
ATOM     27  H   UNL     1      17.451  36.159  16.630  1.00  0.00     0.293 HD
ENDBRANCH   8  26
TORSDOF 6
ENDMDL
MODEL 5
REMARK VINA RESULT:    -6.316     10.422     14.441
REMARK INTER + INTRA:          -7.825
REMARK INTER:                  -7.520
REMARK INTRA:                  -0.305
REMARK UNBOUND:                -0.216
REMARK SMILES O=c1c(O)c(-c2ccc(O)c(O)c2)oc2cc(O)cc(O)c12
REMARK SMILES IDX 5 1 3 2 2 3 1 4 22 5 20 6 19 7 17 8 16 9 15 10 14 11 6 12
REMARK SMILES IDX 7 13 8 14 9 15 13 16 11 17 10 18 12 20 4 22 21 24 18 26
REMARK H PARENT 10 19 12 21 4 23 21 25 18 27
REMARK Flexibility Score: inf
ROOT
ATOM      1  C   UNL     1      20.624  33.698  31.032  1.00  0.00     0.180 A 
ATOM      2  C   UNL     1      20.054  32.475  31.438  1.00  0.00     0.208 A 
ATOM      3  C   UNL     1      20.255  32.038  32.756  1.00  0.00     0.238 A 
ATOM      4  O   UNL     1      19.741  30.950  33.134  1.00  0.00    -0.285 OA
ATOM      5  C   UNL     1      21.035  32.815  33.637  1.00  0.00     0.111 A 
ATOM      6  C   UNL     1      21.289  32.444  34.979  1.00  0.00     0.134 A 
ATOM      7  C   UNL     1      22.083  33.268  35.791  1.00  0.00     0.093 A 
ATOM      8  C   UNL     1      22.628  34.451  35.288  1.00  0.00     0.123 A 
ATOM      9  C   UNL     1      22.380  34.824  33.963  1.00  0.00     0.094 A 
ATOM     10  C   UNL     1      21.590  34.017  33.138  1.00  0.00     0.146 A 
ATOM     11  O   UNL     1      21.366  34.396  31.886  1.00  0.00    -0.452 OA
ENDROOT
BRANCH   1  12
ATOM     12  C   UNL     1      20.441  34.234  29.664  1.00  0.00     0.025 A 
ATOM     13  C   UNL     1      19.417  35.163  29.418  1.00  0.00     0.016 A 
ATOM     14  C   UNL     1      19.212  35.666  28.131  1.00  0.00     0.051 A 
ATOM     15  C   UNL     1      20.017  35.237  27.068  1.00  0.00     0.157 A 
ATOM     16  C   UNL     1      21.234  33.791  28.590  1.00  0.00     0.062 A 
ATOM     17  C   UNL     1      21.029  34.291  27.299  1.00  0.00     0.158 A 
BRANCH  15  18
ATOM     18  O   UNL     1      19.812  35.744  25.785  1.00  0.00    -0.504 OA
ATOM     19  H   UNL     1      19.330  35.208  25.074  1.00  0.00     0.293 HD
ENDBRANCH  15  18
BRANCH  17  20
ATOM     20  O   UNL     1      21.839  33.834  26.260  1.00  0.00    -0.504 OA
ATOM     21  H   UNL     1      21.590  33.028  25.699  1.00  0.00     0.293 HD
ENDBRANCH  17  20
ENDBRANCH   1  12
BRANCH   2  22
ATOM     22  O   UNL     1      19.328  31.699  30.531  1.00  0.00    -0.502 OA
ATOM     23  H   UNL     1      19.307  31.902  29.539  1.00  0.00     0.293 HD
ENDBRANCH   2  22
BRANCH   6  24
ATOM     24  O   UNL     1      20.760  31.268  35.511  1.00  0.00    -0.507 OA
ATOM     25  H   UNL     1      19.786  31.196  35.783  1.00  0.00     0.293 HD
ENDBRANCH   6  24
BRANCH   8  26
ATOM     26  O   UNL     1      23.413  35.251  36.114  1.00  0.00    -0.508 OA
ATOM     27  H   UNL     1      23.000  35.925  36.748  1.00  0.00     0.293 HD
ENDBRANCH   8  26
TORSDOF 6
ENDMDL
MODEL 6
REMARK VINA RESULT:    -6.149      9.288     11.234
REMARK INTER + INTRA:          -7.624
REMARK INTER:                  -7.375
REMARK INTRA:                  -0.249
REMARK UNBOUND:                -0.216
REMARK SMILES O=c1c(O)c(-c2ccc(O)c(O)c2)oc2cc(O)cc(O)c12
REMARK SMILES IDX 5 1 3 2 2 3 1 4 22 5 20 6 19 7 17 8 16 9 15 10 14 11 6 12
REMARK SMILES IDX 7 13 8 14 9 15 13 16 11 17 10 18 12 20 4 22 21 24 18 26
REMARK H PARENT 10 19 12 21 4 23 21 25 18 27
REMARK Flexibility Score: inf
ROOT
ATOM      1  C   UNL     1      31.897  34.994  20.946  1.00  0.00     0.180 A 
ATOM      2  C   UNL     1      33.104  34.618  20.325  1.00  0.00     0.208 A 
ATOM      3  C   UNL     1      33.182  34.636  18.924  1.00  0.00     0.238 A 
ATOM      4  O   UNL     1      34.260  34.311  18.358  1.00  0.00    -0.285 OA
ATOM      5  C   UNL     1      32.050  35.010  18.168  1.00  0.00     0.111 A 
ATOM      6  C   UNL     1      32.044  35.051  16.754  1.00  0.00     0.134 A 
ATOM      7  C   UNL     1      30.875  35.425  16.074  1.00  0.00     0.093 A 
ATOM      8  C   UNL     1      29.716  35.756  16.779  1.00  0.00     0.123 A 
ATOM      9  C   UNL     1      29.717  35.718  18.176  1.00  0.00     0.094 A 
ATOM     10  C   UNL     1      30.872  35.350  18.873  1.00  0.00     0.146 A 
ATOM     11  O   UNL     1      30.847  35.327  20.200  1.00  0.00    -0.452 OA
ENDROOT
BRANCH   1  12
ATOM     12  C   UNL     1      31.744  35.018  22.418  1.00  0.00     0.025 A 
ATOM     13  C   UNL     1      32.372  36.031  23.161  1.00  0.00     0.016 A 
ATOM     14  C   UNL     1      32.260  36.061  24.553  1.00  0.00     0.051 A 
ATOM     15  C   UNL     1      31.530  35.071  25.225  1.00  0.00     0.157 A 
ATOM     16  C   UNL     1      31.030  34.015  23.098  1.00  0.00     0.062 A 
ATOM     17  C   UNL     1      30.917  34.041  24.492  1.00  0.00     0.158 A 
BRANCH  15  18
ATOM     18  O   UNL     1      31.417  35.105  26.614  1.00  0.00    -0.504 OA
ATOM     19  H   UNL     1      32.001  35.711  27.179  1.00  0.00     0.293 HD
ENDBRANCH  15  18
BRANCH  17  20
ATOM     20  O   UNL     1      30.196  33.033  25.132  1.00  0.00    -0.504 OA
ATOM     21  H   UNL     1      29.232  33.159  25.418  1.00  0.00     0.293 HD
ENDBRANCH  17  20
ENDBRANCH   1  12
BRANCH   2  22
ATOM     22  O   UNL     1      34.194  34.204  21.095  1.00  0.00    -0.502 OA
ATOM     23  H   UNL     1      34.095  33.905  22.058  1.00  0.00     0.293 HD
ENDBRANCH   2  22
BRANCH   6  24
ATOM     24  O   UNL     1      33.186  34.725  16.021  1.00  0.00    -0.507 OA
ATOM     25  H   UNL     1      34.113  34.783  16.424  1.00  0.00     0.293 HD
ENDBRANCH   6  24
BRANCH   8  26
ATOM     26  O   UNL     1      28.569  36.123  16.080  1.00  0.00    -0.508 OA
ATOM     27  H   UNL     1      28.622  36.586  15.180  1.00  0.00     0.293 HD
ENDBRANCH   8  26
TORSDOF 6
ENDMDL
MODEL 7
REMARK VINA RESULT:    -5.815     18.752     19.600
REMARK INTER + INTRA:          -7.221
REMARK INTER:                  -7.649
REMARK INTRA:                   0.427
REMARK UNBOUND:                -0.216
REMARK SMILES O=c1c(O)c(-c2ccc(O)c(O)c2)oc2cc(O)cc(O)c12
REMARK SMILES IDX 5 1 3 2 2 3 1 4 22 5 20 6 19 7 17 8 16 9 15 10 14 11 6 12
REMARK SMILES IDX 7 13 8 14 9 15 13 16 11 17 10 18 12 20 4 22 21 24 18 26
REMARK H PARENT 10 19 12 21 4 23 21 25 18 27
REMARK Flexibility Score: inf
ROOT
ATOM      1  C   UNL     1      31.337  26.855  34.994  1.00  0.00     0.180 A 
ATOM      2  C   UNL     1      32.342  26.131  34.324  1.00  0.00     0.208 A 
ATOM      3  C   UNL     1      33.593  26.735  34.122  1.00  0.00     0.238 A 
ATOM      4  O   UNL     1      34.504  26.093  33.532  1.00  0.00    -0.285 OA
ATOM      5  C   UNL     1      33.811  28.054  34.573  1.00  0.00     0.111 A 
ATOM      6  C   UNL     1      35.040  28.735  34.406  1.00  0.00     0.134 A 
ATOM      7  C   UNL     1      35.175  30.051  34.875  1.00  0.00     0.093 A 
ATOM      8  C   UNL     1      34.109  30.695  35.505  1.00  0.00     0.123 A 
ATOM      9  C   UNL     1      32.893  30.027  35.673  1.00  0.00     0.094 A 
ATOM     10  C   UNL     1      32.738  28.715  35.215  1.00  0.00     0.146 A 
ATOM     11  O   UNL     1      31.574  28.101  35.392  1.00  0.00    -0.452 OA
ENDROOT
BRANCH   1  12
ATOM     12  C   UNL     1      29.999  26.279  35.261  1.00  0.00     0.025 A 
ATOM     13  C   UNL     1      28.983  27.103  35.769  1.00  0.00     0.016 A 
ATOM     14  C   UNL     1      27.719  26.576  36.050  1.00  0.00     0.051 A 
ATOM     15  C   UNL     1      27.457  25.216  35.839  1.00  0.00     0.157 A 
ATOM     16  C   UNL     1      29.739  24.910  35.071  1.00  0.00     0.062 A 
ATOM     17  C   UNL     1      28.475  24.379  35.352  1.00  0.00     0.158 A 
BRANCH  15  18
ATOM     18  O   UNL     1      26.195  24.695  36.117  1.00  0.00    -0.504 OA
ATOM     19  H   UNL     1      25.785  24.759  37.042  1.00  0.00     0.293 HD
ENDBRANCH  15  18
BRANCH  17  20
ATOM     20  O   UNL     1      28.251  23.018  35.146  1.00  0.00    -0.504 OA
ATOM     21  H   UNL     1      27.317  22.626  35.109  1.00  0.00     0.293 HD
ENDBRANCH  17  20
ENDBRANCH   1  12
BRANCH   2  22
ATOM     22  O   UNL     1      32.085  24.845  33.842  1.00  0.00    -0.502 OA
ATOM     23  H   UNL     1      32.760  24.325  33.295  1.00  0.00     0.293 HD
ENDBRANCH   2  22
BRANCH   6  24
ATOM     24  O   UNL     1      36.124  28.119  33.780  1.00  0.00    -0.507 OA
ATOM     25  H   UNL     1      36.008  27.553  32.947  1.00  0.00     0.293 HD
ENDBRANCH   6  24
BRANCH   8  26
ATOM     26  O   UNL     1      34.269  32.002  35.961  1.00  0.00    -0.508 OA
ATOM     27  H   UNL     1      33.582  32.720  35.765  1.00  0.00     0.293 HD
ENDBRANCH   8  26
TORSDOF 6
ENDMDL
MODEL 8
REMARK VINA RESULT:    -5.743      9.882     11.065
REMARK INTER + INTRA:          -7.134
REMARK INTER:                  -6.906
REMARK INTRA:                  -0.228
REMARK UNBOUND:                -0.216
REMARK SMILES O=c1c(O)c(-c2ccc(O)c(O)c2)oc2cc(O)cc(O)c12
REMARK SMILES IDX 5 1 3 2 2 3 1 4 22 5 20 6 19 7 17 8 16 9 15 10 14 11 6 12
REMARK SMILES IDX 7 13 8 14 9 15 13 16 11 17 10 18 12 20 4 22 21 24 18 26
REMARK H PARENT 10 19 12 21 4 23 21 25 18 27
REMARK Flexibility Score: inf
ROOT
ATOM      1  C   UNL     1      17.667  21.251  19.187  1.00  0.00     0.180 A 
ATOM      2  C   UNL     1      17.373  22.532  18.680  1.00  0.00     0.208 A 
ATOM      3  C   UNL     1      16.882  23.512  19.556  1.00  0.00     0.238 A 
ATOM      4  O   UNL     1      16.625  24.666  19.115  1.00  0.00    -0.285 OA
ATOM      5  C   UNL     1      16.675  23.192  20.914  1.00  0.00     0.111 A 
ATOM      6  C   UNL     1      16.181  24.121  21.861  1.00  0.00     0.134 A 
ATOM      7  C   UNL     1      15.994  23.723  23.193  1.00  0.00     0.093 A 
ATOM      8  C   UNL     1      16.290  22.419  23.595  1.00  0.00     0.123 A 
ATOM      9  C   UNL     1      16.779  21.497  22.665  1.00  0.00     0.094 A 
ATOM     10  C   UNL     1      16.974  21.874  21.332  1.00  0.00     0.146 A 
ATOM     11  O   UNL     1      17.445  20.982  20.470  1.00  0.00    -0.452 OA
ENDROOT
BRANCH   1  12
ATOM     12  C   UNL     1      18.205  20.170  18.329  1.00  0.00     0.025 A 
ATOM     13  C   UNL     1      17.427  19.025  18.093  1.00  0.00     0.016 A 
ATOM     14  C   UNL     1      17.922  17.983  17.305  1.00  0.00     0.051 A 
ATOM     15  C   UNL     1      19.209  18.064  16.754  1.00  0.00     0.157 A 
ATOM     16  C   UNL     1      19.502  20.238  17.792  1.00  0.00     0.062 A 
ATOM     17  C   UNL     1      20.003  19.195  17.004  1.00  0.00     0.158 A 
BRANCH  15  18
ATOM     18  O   UNL     1      19.699  17.024  15.966  1.00  0.00    -0.504 OA
ATOM     19  H   UNL     1      19.084  16.455  15.395  1.00  0.00     0.293 HD
ENDBRANCH  15  18
BRANCH  17  20
ATOM     20  O   UNL     1      21.292  19.299  16.482  1.00  0.00    -0.504 OA
ATOM     21  H   UNL     1      21.480  19.765  15.602  1.00  0.00     0.293 HD
ENDBRANCH  17  20
ENDBRANCH   1  12
BRANCH   2  22
ATOM     22  O   UNL     1      17.539  22.808  17.320  1.00  0.00    -0.502 OA
ATOM     23  H   UNL     1      17.015  22.325  16.601  1.00  0.00     0.293 HD
ENDBRANCH   2  22
BRANCH   6  24
ATOM     24  O   UNL     1      15.875  25.431  21.491  1.00  0.00    -0.507 OA
ATOM     25  H   UNL     1      15.481  26.093  22.149  1.00  0.00     0.293 HD
ENDBRANCH   6  24
BRANCH   8  26
ATOM     26  O   UNL     1      16.094  22.049  24.924  1.00  0.00    -0.508 OA
ATOM     27  H   UNL     1      15.212  21.668  25.244  1.00  0.00     0.293 HD
ENDBRANCH   8  26
TORSDOF 6
ENDMDL
MODEL 9
REMARK VINA RESULT:    -5.624     10.569     12.410
REMARK INTER + INTRA:          -6.991
REMARK INTER:                  -6.863
REMARK INTRA:                  -0.128
REMARK UNBOUND:                -0.216
REMARK SMILES O=c1c(O)c(-c2ccc(O)c(O)c2)oc2cc(O)cc(O)c12
REMARK SMILES IDX 5 1 3 2 2 3 1 4 22 5 20 6 19 7 17 8 16 9 15 10 14 11 6 12
REMARK SMILES IDX 7 13 8 14 9 15 13 16 11 17 10 18 12 20 4 22 21 24 18 26
REMARK H PARENT 10 19 12 21 4 23 21 25 18 27
REMARK Flexibility Score: inf
ROOT
ATOM      1  C   UNL     1      16.778  22.083  21.304  1.00  0.00     0.180 A 
ATOM      2  C   UNL     1      16.691  23.416  20.858  1.00  0.00     0.208 A 
ATOM      3  C   UNL     1      16.427  23.662  19.502  1.00  0.00     0.238 A 
ATOM      4  O   UNL     1      16.336  24.852  19.092  1.00  0.00    -0.285 OA
ATOM      5  C   UNL     1      16.274  22.577  18.613  1.00  0.00     0.111 A 
ATOM      6  C   UNL     1      16.009  22.738  17.233  1.00  0.00     0.134 A 
ATOM      7  C   UNL     1      15.879  21.608  16.412  1.00  0.00     0.093 A 
ATOM      8  C   UNL     1      16.008  20.323  16.944  1.00  0.00     0.123 A 
ATOM      9  C   UNL     1      16.269  20.157  18.308  1.00  0.00     0.094 A 
ATOM     10  C   UNL     1      16.400  21.271  19.143  1.00  0.00     0.146 A 
ATOM     11  O   UNL     1      16.642  21.086  20.435  1.00  0.00    -0.452 OA
ENDROOT
BRANCH   1  12
ATOM     12  C   UNL     1      17.035  21.744  22.722  1.00  0.00     0.025 A 
ATOM     13  C   UNL     1      16.122  22.155  23.706  1.00  0.00     0.016 A 
ATOM     14  C   UNL     1      16.356  21.866  25.053  1.00  0.00     0.051 A 
ATOM     15  C   UNL     1      17.512  21.174  25.437  1.00  0.00     0.157 A 
ATOM     16  C   UNL     1      18.205  21.068  23.114  1.00  0.00     0.062 A 
ATOM     17  C   UNL     1      18.443  20.779  24.462  1.00  0.00     0.158 A 
BRANCH  15  18
ATOM     18  O   UNL     1      17.741  20.884  26.781  1.00  0.00    -0.504 OA
ATOM     19  H   UNL     1      17.932  21.614  27.457  1.00  0.00     0.293 HD
ENDBRANCH  15  18
BRANCH  17  20
ATOM     20  O   UNL     1      19.610  20.101  24.813  1.00  0.00    -0.504 OA
ATOM     21  H   UNL     1      19.935  20.050  25.771  1.00  0.00     0.293 HD
ENDBRANCH  17  20
ENDBRANCH   1  12
BRANCH   2  22
ATOM     22  O   UNL     1      16.896  24.473  21.748  1.00  0.00    -0.502 OA
ATOM     23  H   UNL     1      17.527  25.239  21.544  1.00  0.00     0.293 HD
ENDBRANCH   2  22
BRANCH   6  24
ATOM     24  O   UNL     1      15.875  24.008  16.670  1.00  0.00    -0.507 OA
ATOM     25  H   UNL     1      16.475  24.778  16.943  1.00  0.00     0.293 HD
ENDBRANCH   6  24
BRANCH   8  26
ATOM     26  O   UNL     1      15.875  19.217  16.108  1.00  0.00    -0.508 OA
ATOM     27  H   UNL     1      15.788  19.319  15.103  1.00  0.00     0.293 HD
ENDBRANCH   8  26
TORSDOF 6
ENDMDL
