MODEL 1
REMARK VINA RESULT:    -4.775      0.000      0.000
REMARK INTER + INTRA:          -6.237
REMARK INTER:                  -6.728
REMARK INTRA:                   0.491
REMARK UNBOUND:                 0.491
REMARK SMILES CC1=CCC(=C(C)C)C(=O)CC(C)=CCC1
REMARK SMILES IDX 12 1 14 2 13 3 15 4 16 5 2 6 1 7 3 8 11 10 9 11 10 12 5 13
REMARK SMILES IDX 6 14 7 15 8 16 4 17
REMARK H PARENT
REMARK Flexibility Score: 60.00
ROOT
ATOM      1  C   UNL     1       3.029  11.757  47.120  1.00  0.00    -0.070 C 
ATOM      2  C   UNL     1       3.451  13.035  46.971  1.00  0.00    -0.027 C 
ATOM      3  C   UNL     1       4.037  10.660  46.879  1.00  0.00     0.039 C 
ENDROOT
BRANCH   2   4
ATOM      4  C   UNL     1       2.593  14.275  47.059  1.00  0.00     0.032 C 
BRANCH   4   5
ATOM      5  C   UNL     1       1.613  14.402  45.878  1.00  0.00     0.034 C 
BRANCH   5   6
ATOM      6  C   UNL     1       0.207  14.745  46.334  1.00  0.00    -0.077 C 
ATOM      7  C   UNL     1       0.007  15.996  47.151  1.00  0.00     0.039 C 
ATOM      8  C   UNL     1      -0.883  14.006  46.029  1.00  0.00    -0.023 CG0
ATOM      9  G   UNL     1      -0.889  12.746  45.196  1.00  0.00     0.000 G0
ENDBRANCH   5   6
ENDBRANCH   4   5
ENDBRANCH   2   4
BRANCH   1  10
ATOM     10  C   UNL     1       1.596  11.373  47.450  1.00  0.00     0.111 C 
BRANCH  10  11
ATOM     11  C   UNL     1       0.794  11.100  46.201  1.00  0.00     0.163 C 
ATOM     12  O   UNL     1       1.343  10.446  45.274  1.00  0.00    -0.294 OA
BRANCH  11  13
ATOM     13  C   UNL     1      -0.631  11.535  46.066  1.00  0.00    -0.002 C 
ATOM     14  C   UNL     1      -1.654  10.837  46.645  1.00  0.00    -0.069 C 
ATOM     15  C   UNL     1      -1.408   9.545  47.392  1.00  0.00     0.039 C 
ATOM     16  C   UNL     1      -3.090  11.304  46.536  1.00  0.00     0.039 C 
BRANCH  13  17
ATOM     17  C   UNL     1      -0.903  12.747  45.194  1.00  0.00     0.066 CG0
ATOM     18  G   UNL     1      -0.880  14.000  46.037  1.00  0.00     0.000 G0
ENDBRANCH  13  17
ENDBRANCH  11  13
ENDBRANCH  10  11
ENDBRANCH   1  10
TORSDOF 0
ENDMDL
MODEL 2
REMARK VINA RESULT:    -4.673      1.433      3.573
REMARK INTER + INTRA:          -6.094
REMARK INTER:                  -6.782
REMARK INTRA:                   0.688
REMARK UNBOUND:                 0.491
REMARK SMILES CC1=CCC(=C(C)C)C(=O)CC(C)=CCC1
REMARK SMILES IDX 12 1 14 2 13 3 15 4 16 5 2 6 1 7 3 8 11 10 9 11 10 12 5 13
REMARK SMILES IDX 6 14 7 15 8 16 4 17
REMARK H PARENT
REMARK Flexibility Score: 60.00
ROOT
ATOM      1  C   UNL     1       2.663  13.215  47.005  1.00  0.00    -0.070 C 
ATOM      2  C   UNL     1       2.761  11.868  46.908  1.00  0.00    -0.027 C 
ATOM      3  C   UNL     1       3.948  14.007  47.011  1.00  0.00     0.039 C 
ENDROOT
BRANCH   2   4
ATOM      4  C   UNL     1       1.621  10.881  46.989  1.00  0.00     0.032 C 
BRANCH   4   5
ATOM      5  C   UNL     1       0.629  11.023  45.819  1.00  0.00     0.034 C 
BRANCH   5   6
ATOM      6  C   UNL     1      -0.808  11.120  46.295  1.00  0.00    -0.077 C 
ATOM      7  C   UNL     1      -1.292  10.122  47.315  1.00  0.00     0.039 C 
ATOM      8  C   UNL     1      -1.675  12.069  45.876  1.00  0.00    -0.023 CG0
ATOM      9  G   UNL     1      -1.368  13.172  44.891  1.00  0.00     0.000 G0
ENDBRANCH   5   6
ENDBRANCH   4   5
ENDBRANCH   2   4
BRANCH   1  10
ATOM     10  C   UNL     1       1.347  13.957  47.175  1.00  0.00     0.111 C 
BRANCH  10  11
ATOM     11  C   UNL     1       0.744  14.329  45.843  1.00  0.00     0.163 C 
ATOM     12  O   UNL     1       1.526  14.575  44.886  1.00  0.00    -0.294 OA
BRANCH  11  13
ATOM     13  C   UNL     1      -0.735  14.361  45.625  1.00  0.00    -0.002 C 
ATOM     14  C   UNL     1      -1.513  15.373  46.116  1.00  0.00    -0.069 C 
ATOM     15  C   UNL     1      -0.931  16.477  46.969  1.00  0.00     0.039 C 
ATOM     16  C   UNL     1      -3.004  15.417  45.859  1.00  0.00     0.039 C 
BRANCH  13  17
ATOM     17  C   UNL     1      -1.351  13.180  44.897  1.00  0.00     0.066 CG0
ATOM     18  G   UNL     1      -1.665  12.078  45.881  1.00  0.00     0.000 G0
ENDBRANCH  13  17
ENDBRANCH  11  13
ENDBRANCH  10  11
ENDBRANCH   1  10
TORSDOF 0
ENDMDL
MODEL 3
REMARK VINA RESULT:    -4.351      2.296      4.055
REMARK INTER + INTRA:          -5.640
REMARK INTER:                  -6.510
REMARK INTRA:                   0.870
REMARK UNBOUND:                 0.491
REMARK SMILES CC1=CCC(=C(C)C)C(=O)CC(C)=CCC1
REMARK SMILES IDX 12 1 14 2 13 3 15 4 16 5 2 6 1 7 3 8 11 10 9 11 10 12 5 13
REMARK SMILES IDX 6 14 7 15 8 16 4 17
REMARK H PARENT
REMARK Flexibility Score: 60.00
ROOT
ATOM      1  C   UNL     1       2.882  10.750  46.425  1.00  0.00    -0.070 C 
ATOM      2  C   UNL     1       3.947  10.873  47.252  1.00  0.00    -0.027 C 
ATOM      3  C   UNL     1       3.089   9.998  45.132  1.00  0.00     0.039 C 
ENDROOT
BRANCH   2   4
ATOM      4  C   UNL     1       3.996  11.667  48.535  1.00  0.00     0.032 C 
BRANCH   4   5
ATOM      5  C   UNL     1       5.029  12.808  48.487  1.00  0.00     0.034 C 
BRANCH   5   6
ATOM      6  C   UNL     1       4.885  13.659  47.240  1.00  0.00    -0.077 C 
ATOM      7  C   UNL     1       6.056  13.744  46.295  1.00  0.00     0.039 C 
ATOM      8  C   UNL     1       3.756  14.326  46.912  1.00  0.00    -0.023 CG0
ATOM      9  G   UNL     1       2.473  14.335  47.709  1.00  0.00     0.000 G0
ENDBRANCH   5   6
ENDBRANCH   4   5
ENDBRANCH   2   4
BRANCH   1  10
ATOM     10  C   UNL     1       1.526  11.379  46.695  1.00  0.00     0.111 C 
BRANCH  10  11
ATOM     11  C   UNL     1       1.394  12.725  46.025  1.00  0.00     0.163 C 
ATOM     12  O   UNL     1       1.322  12.757  44.767  1.00  0.00    -0.294 OA
BRANCH  11  13
ATOM     13  C   UNL     1       1.295  13.994  46.811  1.00  0.00    -0.002 C 
ATOM     14  C   UNL     1       0.227  14.838  46.684  1.00  0.00    -0.069 C 
ATOM     15  C   UNL     1      -0.877  14.572  45.686  1.00  0.00     0.039 C 
ATOM     16  C   UNL     1       0.116  16.101  47.511  1.00  0.00     0.039 C 
BRANCH  13  17
ATOM     17  C   UNL     1       2.470  14.344  47.706  1.00  0.00     0.066 CG0
ATOM     18  G   UNL     1       3.747  14.339  46.900  1.00  0.00     0.000 G0
ENDBRANCH  13  17
ENDBRANCH  11  13
ENDBRANCH  10  11
ENDBRANCH   1  10
TORSDOF 0
ENDMDL
MODEL 4
REMARK VINA RESULT:    -4.290      1.531      4.068
REMARK INTER + INTRA:          -5.555
REMARK INTER:                  -6.912
REMARK INTRA:                   1.357
REMARK UNBOUND:                 0.491
REMARK SMILES CC1=CCC(=C(C)C)C(=O)CC(C)=CCC1
REMARK SMILES IDX 12 1 14 2 13 3 15 4 16 5 2 6 1 7 3 8 11 10 9 11 10 12 5 13
REMARK SMILES IDX 6 14 7 15 8 16 4 17
REMARK H PARENT
REMARK Flexibility Score: 60.00
ROOT
ATOM      1  C   UNL     1      -0.459  11.322  46.197  1.00  0.00    -0.070 C 
ATOM      2  C   UNL     1      -1.022  12.444  45.689  1.00  0.00    -0.027 C 
ATOM      3  C   UNL     1      -1.315  10.460  47.094  1.00  0.00     0.039 C 
ENDROOT
BRANCH   2   4
ATOM      4  C   UNL     1      -0.325  13.498  44.861  1.00  0.00     0.032 C 
BRANCH   4   5
ATOM      5  C   UNL     1      -0.535  14.920  45.415  1.00  0.00     0.034 C 
BRANCH   5   6
ATOM      6  C   UNL     1       0.193  15.137  46.728  1.00  0.00    -0.077 C 
ATOM      7  C   UNL     1      -0.500  15.931  47.805  1.00  0.00     0.039 C 
ATOM      8  C   UNL     1       1.419  14.636  46.998  1.00  0.00    -0.023 CG0
ATOM      9  G   UNL     1       2.253  13.791  46.065  1.00  0.00     0.000 G0
ENDBRANCH   5   6
ENDBRANCH   4   5
ENDBRANCH   2   4
BRANCH   1  10
ATOM     10  C   UNL     1       0.990  10.925  45.968  1.00  0.00     0.111 C 
BRANCH  10  11
ATOM     11  C   UNL     1       1.889  11.454  47.058  1.00  0.00     0.163 C 
ATOM     12  O   UNL     1       1.871  10.873  48.176  1.00  0.00    -0.294 OA
BRANCH  11  13
ATOM     13  C   UNL     1       2.824  12.598  46.825  1.00  0.00    -0.002 C 
ATOM     14  C   UNL     1       4.098  12.598  47.322  1.00  0.00    -0.069 C 
ATOM     15  C   UNL     1       4.608  11.474  48.196  1.00  0.00     0.039 C 
ATOM     16  C   UNL     1       5.051  13.742  47.050  1.00  0.00     0.039 C 
BRANCH  13  17
ATOM     17  C   UNL     1       2.274  13.798  46.075  1.00  0.00     0.066 CG0
ATOM     18  G   UNL     1       1.415  14.629  46.997  1.00  0.00     0.000 G0
ENDBRANCH  13  17
ENDBRANCH  11  13
ENDBRANCH  10  11
ENDBRANCH   1  10
TORSDOF 0
ENDMDL
MODEL 5
REMARK VINA RESULT:    -3.692      1.888      4.922
REMARK INTER + INTRA:          -4.711
REMARK INTER:                  -6.803
REMARK INTRA:                   2.092
REMARK UNBOUND:                 0.491
REMARK SMILES CC1=CCC(=C(C)C)C(=O)CC(C)=CCC1
REMARK SMILES IDX 12 1 14 2 13 3 15 4 16 5 2 6 1 7 3 8 11 10 9 11 10 12 5 13
REMARK SMILES IDX 6 14 7 15 8 16 4 17
REMARK H PARENT
REMARK Flexibility Score: 60.00
ROOT
ATOM      1  C   UNL     1      -0.772  14.708  45.392  1.00  0.00    -0.070 C 
ATOM      2  C   UNL     1      -1.937  14.257  45.913  1.00  0.00    -0.027 C 
ATOM      3  C   UNL     1      -0.672  16.183  45.085  1.00  0.00     0.039 C 
ENDROOT
BRANCH   2   4
ATOM      4  C   UNL     1      -2.291  12.816  46.196  1.00  0.00     0.032 C 
BRANCH   4   5
ATOM      5  C   UNL     1      -1.332  11.825  45.509  1.00  0.00     0.034 C 
BRANCH   5   6
ATOM      6  C   UNL     1      -0.779  10.798  46.480  1.00  0.00    -0.077 C 
ATOM      7  C   UNL     1      -1.746  10.071  47.378  1.00  0.00     0.039 C 
ATOM      8  C   UNL     1       0.532  10.478  46.567  1.00  0.00    -0.023 CG0
ATOM      9  G   UNL     1       1.642  11.069  45.732  1.00  0.00     0.000 G0
ENDBRANCH   5   6
ENDBRANCH   4   5
ENDBRANCH   2   4
BRANCH   1  10
ATOM     10  C   UNL     1       0.403  13.809  45.044  1.00  0.00     0.111 C 
BRANCH  10  11
ATOM     11  C   UNL     1       1.288  13.562  46.241  1.00  0.00     0.163 C 
ATOM     12  O   UNL     1       1.235  14.381  47.197  1.00  0.00    -0.294 OA
BRANCH  11  13
ATOM     13  C   UNL     1       2.170  12.358  46.337  1.00  0.00    -0.002 C 
ATOM     14  C   UNL     1       3.417  12.423  46.894  1.00  0.00    -0.069 C 
ATOM     15  C   UNL     1       4.003  13.732  47.375  1.00  0.00     0.039 C 
ATOM     16  C   UNL     1       4.289  11.192  47.023  1.00  0.00     0.039 C 
BRANCH  13  17
ATOM     17  C   UNL     1       1.651  11.070  45.723  1.00  0.00     0.066 CG0
ATOM     18  G   UNL     1       0.542  10.506  46.578  1.00  0.00     0.000 G0
ENDBRANCH  13  17
ENDBRANCH  11  13
ENDBRANCH  10  11
ENDBRANCH   1  10
TORSDOF 0
ENDMDL
MODEL 6
REMARK VINA RESULT:    -3.621      1.761      4.123
REMARK INTER + INTRA:          -4.612
REMARK INTER:                  -5.539
REMARK INTRA:                   0.927
REMARK UNBOUND:                 0.491
REMARK SMILES CC1=CCC(=C(C)C)C(=O)CC(C)=CCC1
REMARK SMILES IDX 12 1 14 2 13 3 15 4 16 5 2 6 1 7 3 8 11 10 9 11 10 12 5 13
REMARK SMILES IDX 6 14 7 15 8 16 4 17
REMARK H PARENT
REMARK Flexibility Score: 60.00
ROOT
ATOM      1  C   UNL     1       0.915  11.051  46.448  1.00  0.00    -0.070 C 
ATOM      2  C   UNL     1       1.933  10.652  47.246  1.00  0.00    -0.027 C 
ATOM      3  C   UNL     1      -0.404  10.331  46.590  1.00  0.00     0.039 C 
ENDROOT
BRANCH   2   4
ATOM      4  C   UNL     1       3.356  11.157  47.201  1.00  0.00     0.032 C 
BRANCH   4   5
ATOM      5  C   UNL     1       3.566  12.417  48.061  1.00  0.00     0.034 C 
BRANCH   5   6
ATOM      6  C   UNL     1       3.756  13.663  47.215  1.00  0.00    -0.077 C 
ATOM      7  C   UNL     1       5.118  13.925  46.625  1.00  0.00     0.039 C 
ATOM      8  C   UNL     1       2.765  14.540  46.938  1.00  0.00    -0.023 CG0
ATOM      9  G   UNL     1       1.333  14.431  47.405  1.00  0.00     0.000 G0
ENDBRANCH   5   6
ENDBRANCH   4   5
ENDBRANCH   2   4
BRANCH   1  10
ATOM     10  C   UNL     1       1.048  12.128  45.384  1.00  0.00     0.111 C 
BRANCH  10  11
ATOM     11  C   UNL     1       0.025  13.222  45.569  1.00  0.00     0.163 C 
ATOM     12  O   UNL     1      -1.149  13.011  45.162  1.00  0.00    -0.294 OA
BRANCH  11  13
ATOM     13  C   UNL     1       0.357  14.505  46.262  1.00  0.00    -0.002 C 
ATOM     14  C   UNL     1      -0.133  15.705  45.826  1.00  0.00    -0.069 C 
ATOM     15  C   UNL     1      -0.976  15.809  44.575  1.00  0.00     0.039 C 
ATOM     16  C   UNL     1       0.176  16.995  46.555  1.00  0.00     0.039 C 
BRANCH  13  17
ATOM     17  C   UNL     1       1.323  14.430  47.431  1.00  0.00     0.066 CG0
ATOM     18  G   UNL     1       2.744  14.532  46.927  1.00  0.00     0.000 G0
ENDBRANCH  13  17
ENDBRANCH  11  13
ENDBRANCH  10  11
ENDBRANCH   1  10
TORSDOF 0
ENDMDL
MODEL 7
REMARK VINA RESULT:    -3.380      1.671      3.636
REMARK INTER + INTRA:          -4.272
REMARK INTER:                  -5.794
REMARK INTRA:                   1.523
REMARK UNBOUND:                 0.491
REMARK SMILES CC1=CCC(=C(C)C)C(=O)CC(C)=CCC1
REMARK SMILES IDX 12 1 14 2 13 3 15 4 16 5 2 6 1 7 3 8 11 10 9 11 10 12 5 13
REMARK SMILES IDX 6 14 7 15 8 16 4 17
REMARK H PARENT
REMARK Flexibility Score: 60.00
ROOT
ATOM      1  C   UNL     1       1.673  14.432  46.693  1.00  0.00    -0.070 C 
ATOM      2  C   UNL     1       2.898  14.367  47.265  1.00  0.00    -0.027 C 
ATOM      3  C   UNL     1       0.649  15.332  47.342  1.00  0.00     0.039 C 
ENDROOT
BRANCH   2   4
ATOM      4  C   UNL     1       4.032  13.460  46.849  1.00  0.00     0.032 C 
BRANCH   4   5
ATOM      5  C   UNL     1       3.920  12.052  47.464  1.00  0.00     0.034 C 
BRANCH   5   6
ATOM      6  C   UNL     1       3.326  11.048  46.494  1.00  0.00    -0.077 C 
ATOM      7  C   UNL     1       4.252  10.350  45.533  1.00  0.00     0.039 C 
ATOM      8  C   UNL     1       2.014  10.724  46.460  1.00  0.00    -0.023 CG0
ATOM      9  G   UNL     1       0.941  11.287  47.362  1.00  0.00     0.000 G0
ENDBRANCH   5   6
ENDBRANCH   4   5
ENDBRANCH   2   4
BRANCH   1  10
ATOM     10  C   UNL     1       1.258  13.606  45.486  1.00  0.00     0.111 C 
BRANCH  10  11
ATOM     11  C   UNL     1      -0.093  12.966  45.689  1.00  0.00     0.163 C 
ATOM     12  O   UNL     1      -1.082  13.464  45.088  1.00  0.00    -0.294 OA
BRANCH  11  13
ATOM     13  C   UNL     1      -0.271  11.742  46.532  1.00  0.00    -0.002 C 
ATOM     14  C   UNL     1      -1.470  11.090  46.609  1.00  0.00    -0.069 C 
ATOM     15  C   UNL     1      -2.703  11.614  45.907  1.00  0.00     0.039 C 
ATOM     16  C   UNL     1      -1.631   9.831  47.434  1.00  0.00     0.039 C 
BRANCH  13  17
ATOM     17  C   UNL     1       0.922  11.294  47.358  1.00  0.00     0.066 CG0
ATOM     18  G   UNL     1       1.991  10.734  46.450  1.00  0.00     0.000 G0
ENDBRANCH  13  17
ENDBRANCH  11  13
ENDBRANCH  10  11
ENDBRANCH   1  10
TORSDOF 0
ENDMDL
MODEL 8
REMARK VINA RESULT:    -3.197      1.809      3.944
REMARK INTER + INTRA:          -4.014
REMARK INTER:                  -5.730
REMARK INTRA:                   1.716
REMARK UNBOUND:                 0.491
REMARK SMILES CC1=CCC(=C(C)C)C(=O)CC(C)=CCC1
REMARK SMILES IDX 12 1 14 2 13 3 15 4 16 5 2 6 1 7 3 8 11 10 9 11 10 12 5 13
REMARK SMILES IDX 6 14 7 15 8 16 4 17
REMARK H PARENT
REMARK Flexibility Score: 60.00
ROOT
ATOM      1  C   UNL     1      -0.180  15.845  46.878  1.00  0.00    -0.070 C 
ATOM      2  C   UNL     1      -1.418  16.392  46.849  1.00  0.00    -0.027 C 
ATOM      3  C   UNL     1       0.619  15.998  48.150  1.00  0.00     0.039 C 
ENDROOT
BRANCH   2   4
ATOM      4  C   UNL     1      -2.342  16.450  45.656  1.00  0.00     0.032 C 
BRANCH   4   5
ATOM      5  C   UNL     1      -3.125  15.140  45.448  1.00  0.00     0.034 C 
BRANCH   5   6
ATOM      6  C   UNL     1      -2.474  14.243  44.412  1.00  0.00    -0.077 C 
ATOM      7  C   UNL     1      -2.710  14.546  42.955  1.00  0.00     0.039 C 
ATOM      8  C   UNL     1      -1.671  13.200  44.722  1.00  0.00    -0.023 CG0
ATOM      9  G   UNL     1      -1.289  12.763  46.116  1.00  0.00     0.000 G0
ENDBRANCH   5   6
ENDBRANCH   4   5
ENDBRANCH   2   4
BRANCH   1  10
ATOM     10  C   UNL     1       0.466  15.153  45.689  1.00  0.00     0.111 C 
BRANCH  10  11
ATOM     11  C   UNL     1       1.067  13.825  46.079  1.00  0.00     0.163 C 
ATOM     12  O   UNL     1       2.302  13.784  46.330  1.00  0.00    -0.294 OA
BRANCH  11  13
ATOM     13  C   UNL     1       0.234  12.591  46.223  1.00  0.00    -0.002 C 
ATOM     14  C   UNL     1       0.799  11.356  46.377  1.00  0.00    -0.069 C 
ATOM     15  C   UNL     1       2.298  11.159  46.336  1.00  0.00     0.039 C 
ATOM     16  C   UNL     1      -0.051  10.117  46.560  1.00  0.00     0.039 C 
BRANCH  13  17
ATOM     17  C   UNL     1      -1.271  12.758  46.116  1.00  0.00     0.066 CG0
ATOM     18  G   UNL     1      -1.640  13.200  44.720  1.00  0.00     0.000 G0
ENDBRANCH  13  17
ENDBRANCH  11  13
ENDBRANCH  10  11
ENDBRANCH   1  10
TORSDOF 0
ENDMDL
MODEL 9
REMARK VINA RESULT:    -2.756      1.794      3.642
REMARK INTER + INTRA:          -3.393
REMARK INTER:                  -4.022
REMARK INTRA:                   0.629
REMARK UNBOUND:                 0.491
REMARK SMILES CC1=CCC(=C(C)C)C(=O)CC(C)=CCC1
REMARK SMILES IDX 12 1 14 2 13 3 15 4 16 5 2 6 1 7 3 8 11 10 9 11 10 12 5 13
REMARK SMILES IDX 6 14 7 15 8 16 4 17
REMARK H PARENT
REMARK Flexibility Score: 60.00
ROOT
ATOM      1  C   UNL     1       3.097  13.984  47.006  1.00  0.00    -0.070 C 
ATOM      2  C   UNL     1       3.476  12.794  47.527  1.00  0.00    -0.027 C 
ATOM      3  C   UNL     1       4.172  14.847  46.390  1.00  0.00     0.039 C 
ENDROOT
BRANCH   2   4
ATOM      4  C   UNL     1       2.594  11.826  48.280  1.00  0.00     0.032 C 
BRANCH   4   5
ATOM      5  C   UNL     1       2.430  10.481  47.547  1.00  0.00     0.034 C 
BRANCH   5   6
ATOM      6  C   UNL     1       2.242  10.663  46.052  1.00  0.00    -0.077 C 
ATOM      7  C   UNL     1       3.307  10.128  45.129  1.00  0.00     0.039 C 
ATOM      8  C   UNL     1       1.160  11.255  45.498  1.00  0.00    -0.023 CG0
ATOM      9  G   UNL     1      -0.021  11.818  46.252  1.00  0.00     0.000 G0
ENDBRANCH   5   6
ENDBRANCH   4   5
ENDBRANCH   2   4
BRANCH   1  10
ATOM     10  C   UNL     1       1.676  14.519  47.066  1.00  0.00     0.111 C 
BRANCH  10  11
ATOM     11  C   UNL     1       0.901  14.180  45.817  1.00  0.00     0.163 C 
ATOM     12  O   UNL     1       1.304  14.655  44.721  1.00  0.00    -0.294 OA
BRANCH  11  13
ATOM     13  C   UNL     1      -0.281  13.264  45.844  1.00  0.00    -0.002 C 
ATOM     14  C   UNL     1      -1.546  13.714  45.584  1.00  0.00    -0.069 C 
ATOM     15  C   UNL     1      -1.829  15.177  45.328  1.00  0.00     0.039 C 
ATOM     16  C   UNL     1      -2.732  12.773  45.575  1.00  0.00     0.039 C 
BRANCH  13  17
ATOM     17  C   UNL     1      -0.028  11.821  46.245  1.00  0.00     0.066 CG0
ATOM     18  G   UNL     1       1.165  11.282  45.492  1.00  0.00     0.000 G0
ENDBRANCH  13  17
ENDBRANCH  11  13
ENDBRANCH  10  11
ENDBRANCH   1  10
TORSDOF 0
ENDMDL
