MODEL 1
REMARK VINA RESULT:    -3.874      0.000      0.000
REMARK INTER + INTRA:          -6.443
REMARK INTER:                  -5.913
REMARK INTRA:                  -0.531
REMARK UNBOUND:                -0.531
REMARK SMILES O=C([O-])CCCCCCCCC(=O)[O-]
REMARK SMILES IDX 7 1 6 2 5 3 4 4 2 5 1 6 3 7 8 8 9 9 10 10 11 11 12 12 13 13
REMARK SMILES IDX 14 14
REMARK H PARENT
REMARK Flexibility Score: inf
ROOT
ATOM      1  C   UNL     1     127.764 120.020 118.121  1.00  0.00     0.000 C 
ENDROOT
BRANCH   1   2
ATOM      2  C   UNL     1     129.030 120.884 118.099  1.00  0.00     0.000 C 
BRANCH   2   3
ATOM      3  C   UNL     1     129.440 121.298 119.517  1.00  0.00     0.006 C 
BRANCH   3   4
ATOM      4  C   UNL     1     130.937 121.611 119.588  1.00  0.00     0.053 C 
BRANCH   4   5
ATOM      5  C   UNL     1     131.196 122.717 120.559  1.00  0.00     0.041 C 
ATOM      6  O   UNL     1     132.378 123.045 120.845  1.00  0.00    -0.550 OA
ATOM      7  O   UNL     1     130.134 123.355 121.187  1.00  0.00    -0.550 OA
ENDBRANCH   4   5
ENDBRANCH   3   4
ENDBRANCH   2   3
ENDBRANCH   1   2
BRANCH   1   8
ATOM      8  C   UNL     1     126.953 120.264 119.399  1.00  0.00     0.000 C 
BRANCH   8   9
ATOM      9  C   UNL     1     125.585 120.876 119.074  1.00  0.00     0.000 C 
BRANCH   9  10
ATOM     10  C   UNL     1     125.227 120.670 117.598  1.00  0.00     0.006 C 
BRANCH  10  11
ATOM     11  C   UNL     1     124.608 121.938 117.000  1.00  0.00     0.053 C 
BRANCH  11  12
ATOM     12  C   UNL     1     123.260 122.193 117.595  1.00  0.00     0.041 C 
ATOM     13  O   UNL     1     122.376 121.298 117.570  1.00  0.00    -0.550 OA
ATOM     14  O   UNL     1     122.963 123.439 118.135  1.00  0.00    -0.550 OA
ENDBRANCH  11  12
ENDBRANCH  10  11
ENDBRANCH   9  10
ENDBRANCH   8   9
ENDBRANCH   1   8
TORSDOF 9
ENDMDL
MODEL 2
REMARK VINA RESULT:    -3.820      0.924      6.843
REMARK INTER + INTRA:          -6.360
REMARK INTER:                  -5.977
REMARK INTRA:                  -0.383
REMARK UNBOUND:                -0.531
REMARK SMILES O=C([O-])CCCCCCCCC(=O)[O-]
REMARK SMILES IDX 7 1 6 2 5 3 4 4 2 5 1 6 3 7 8 8 9 9 10 10 11 11 12 12 13 13
REMARK SMILES IDX 14 14
REMARK H PARENT
REMARK Flexibility Score: inf
ROOT
ATOM      1  C   UNL     1     127.378 119.609 118.058  1.00  0.00     0.000 C 
ENDROOT
BRANCH   1   2
ATOM      2  C   UNL     1     125.859 119.783 117.946  1.00  0.00     0.000 C 
BRANCH   2   3
ATOM      3  C   UNL     1     125.491 121.244 117.665  1.00  0.00     0.006 C 
BRANCH   3   4
ATOM      4  C   UNL     1     124.008 121.379 117.304  1.00  0.00     0.053 C 
BRANCH   4   5
ATOM      5  C   UNL     1     123.376 122.484 118.089  1.00  0.00     0.041 C 
ATOM      6  O   UNL     1     122.597 123.296 117.524  1.00  0.00    -0.550 OA
ATOM      7  O   UNL     1     123.685 122.649 119.433  1.00  0.00    -0.550 OA
ENDBRANCH   4   5
ENDBRANCH   3   4
ENDBRANCH   2   3
ENDBRANCH   1   2
BRANCH   1   8
ATOM      8  C   UNL     1     128.105 120.933 117.796  1.00  0.00     0.000 C 
BRANCH   8   9
ATOM      9  C   UNL     1     129.577 120.846 118.217  1.00  0.00     0.000 C 
BRANCH   9  10
ATOM     10  C   UNL     1     129.748 121.212 119.696  1.00  0.00     0.006 C 
BRANCH  10  11
ATOM     11  C   UNL     1     131.214 121.514 120.021  1.00  0.00     0.053 C 
BRANCH  11  12
ATOM     12  C   UNL     1     131.348 122.877 120.621  1.00  0.00     0.041 C 
ATOM     13  O   UNL     1     132.467 123.452 120.645  1.00  0.00    -0.550 OA
ATOM     14  O   UNL     1     130.246 123.494 121.199  1.00  0.00    -0.550 OA
ENDBRANCH  11  12
ENDBRANCH  10  11
ENDBRANCH   9  10
ENDBRANCH   8   9
ENDBRANCH   1   8
TORSDOF 9
ENDMDL
MODEL 3
REMARK VINA RESULT:    -3.784      1.024      1.431
REMARK INTER + INTRA:          -6.306
REMARK INTER:                  -5.903
REMARK INTRA:                  -0.402
REMARK UNBOUND:                -0.531
REMARK SMILES O=C([O-])CCCCCCCCC(=O)[O-]
REMARK SMILES IDX 7 1 6 2 5 3 4 4 2 5 1 6 3 7 8 8 9 9 10 10 11 11 12 12 13 13
REMARK SMILES IDX 14 14
REMARK H PARENT
REMARK Flexibility Score: inf
ROOT
ATOM      1  C   UNL     1     128.529 119.544 118.449  1.00  0.00     0.000 C 
ENDROOT
BRANCH   1   2
ATOM      2  C   UNL     1     129.272 120.801 117.982  1.00  0.00     0.000 C 
BRANCH   2   3
ATOM      3  C   UNL     1     130.501 121.073 118.857  1.00  0.00     0.006 C 
BRANCH   3   4
ATOM      4  C   UNL     1     130.088 121.542 120.255  1.00  0.00     0.053 C 
BRANCH   4   5
ATOM      5  C   UNL     1     130.950 122.678 120.704  1.00  0.00     0.041 C 
ATOM      6  O   UNL     1     130.431 123.784 121.010  1.00  0.00    -0.550 OA
ATOM      7  O   UNL     1     132.331 122.534 120.736  1.00  0.00    -0.550 OA
ENDBRANCH   4   5
ENDBRANCH   3   4
ENDBRANCH   2   3
ENDBRANCH   1   2
BRANCH   1   8
ATOM      8  C   UNL     1     127.120 119.481 117.848  1.00  0.00     0.000 C 
BRANCH   8   9
ATOM      9  C   UNL     1     126.505 120.882 117.740  1.00  0.00     0.000 C 
BRANCH   9  10
ATOM     10  C   UNL     1     124.979 120.824 117.878  1.00  0.00     0.006 C 
BRANCH  10  11
ATOM     11  C   UNL     1     124.321 122.035 117.209  1.00  0.00     0.053 C 
BRANCH  11  12
ATOM     12  C   UNL     1     123.433 122.749 118.178  1.00  0.00     0.041 C 
ATOM     13  O   UNL     1     122.520 123.508 117.761  1.00  0.00    -0.550 OA
ATOM     14  O   UNL     1     123.645 122.616 119.545  1.00  0.00    -0.550 OA
ENDBRANCH  11  12
ENDBRANCH  10  11
ENDBRANCH   9  10
ENDBRANCH   8   9
ENDBRANCH   1   8
TORSDOF 9
ENDMDL
MODEL 4
REMARK VINA RESULT:    -3.781     15.345     17.025
REMARK INTER + INTRA:          -6.302
REMARK INTER:                  -5.560
REMARK INTRA:                  -0.741
REMARK UNBOUND:                -0.531
REMARK SMILES O=C([O-])CCCCCCCCC(=O)[O-]
REMARK SMILES IDX 7 1 6 2 5 3 4 4 2 5 1 6 3 7 8 8 9 9 10 10 11 11 12 12 13 13
REMARK SMILES IDX 14 14
REMARK H PARENT
REMARK Flexibility Score: inf
ROOT
ATOM      1  C   UNL     1     132.125 126.449 135.407  1.00  0.00     0.000 C 
ENDROOT
BRANCH   1   2
ATOM      2  C   UNL     1     130.916 126.559 134.471  1.00  0.00     0.000 C 
BRANCH   2   3
ATOM      3  C   UNL     1     129.715 125.786 135.029  1.00  0.00     0.006 C 
BRANCH   3   4
ATOM      4  C   UNL     1     128.752 125.383 133.909  1.00  0.00     0.053 C 
BRANCH   4   5
ATOM      5  C   UNL     1     127.996 126.575 133.413  1.00  0.00     0.041 C 
ATOM      6  O   UNL     1     127.567 127.436 134.225  1.00  0.00    -0.550 OA
ATOM      7  O   UNL     1     127.722 126.710 132.058  1.00  0.00    -0.550 OA
ENDBRANCH   4   5
ENDBRANCH   3   4
ENDBRANCH   2   3
ENDBRANCH   1   2
BRANCH   1   8
ATOM      8  C   UNL     1     132.559 124.988 135.577  1.00  0.00     0.000 C 
BRANCH   8   9
ATOM      9  C   UNL     1     133.692 124.634 134.607  1.00  0.00     0.000 C 
BRANCH   9  10
ATOM     10  C   UNL     1     133.382 123.340 133.846  1.00  0.00     0.006 C 
BRANCH  10  11
ATOM     11  C   UNL     1     131.883 123.023 133.889  1.00  0.00     0.053 C 
BRANCH  11  12
ATOM     12  C   UNL     1     131.662 121.569 134.156  1.00  0.00     0.041 C 
ATOM     13  O   UNL     1     132.596 120.859 134.613  1.00  0.00    -0.550 OA
ATOM     14  O   UNL     1     130.438 120.984 133.855  1.00  0.00    -0.550 OA
ENDBRANCH  11  12
ENDBRANCH  10  11
ENDBRANCH   9  10
ENDBRANCH   8   9
ENDBRANCH   1   8
TORSDOF 9
ENDMDL
MODEL 5
REMARK VINA RESULT:    -3.698      1.641      7.374
REMARK INTER + INTRA:          -6.175
REMARK INTER:                  -5.845
REMARK INTRA:                  -0.330
REMARK UNBOUND:                -0.531
REMARK SMILES O=C([O-])CCCCCCCCC(=O)[O-]
REMARK SMILES IDX 7 1 6 2 5 3 4 4 2 5 1 6 3 7 8 8 9 9 10 10 11 11 12 12 13 13
REMARK SMILES IDX 14 14
REMARK H PARENT
REMARK Flexibility Score: inf
ROOT
ATOM      1  C   UNL     1     127.626 120.799 117.941  1.00  0.00     0.000 C 
ENDROOT
BRANCH   1   2
ATOM      2  C   UNL     1     126.238 120.732 118.588  1.00  0.00     0.000 C 
BRANCH   2   3
ATOM      3  C   UNL     1     125.143 120.566 117.528  1.00  0.00     0.006 C 
BRANCH   3   4
ATOM      4  C   UNL     1     124.647 121.927 117.031  1.00  0.00     0.053 C 
BRANCH   4   5
ATOM      5  C   UNL     1     123.302 122.237 117.606  1.00  0.00     0.041 C 
ATOM      6  O   UNL     1     123.040 123.400 118.010  1.00  0.00    -0.550 OA
ATOM      7  O   UNL     1     122.354 121.231 117.742  1.00  0.00    -0.550 OA
ENDBRANCH   4   5
ENDBRANCH   3   4
ENDBRANCH   2   3
ENDBRANCH   1   2
BRANCH   1   8
ATOM      8  C   UNL     1     128.708 120.300 118.906  1.00  0.00     0.000 C 
BRANCH   8   9
ATOM      9  C   UNL     1     129.980 121.149 118.793  1.00  0.00     0.000 C 
BRANCH   9  10
ATOM     10  C   UNL     1     130.331 121.796 120.138  1.00  0.00     0.006 C 
BRANCH  10  11
ATOM     11  C   UNL     1     131.836 121.710 120.413  1.00  0.00     0.053 C 
BRANCH  11  12
ATOM     12  C   UNL     1     132.298 120.288 120.357  1.00  0.00     0.041 C 
ATOM     13  O   UNL     1     131.825 119.436 121.154  1.00  0.00    -0.550 OA
ATOM     14  O   UNL     1     133.288 119.914 119.457  1.00  0.00    -0.550 OA
ENDBRANCH  11  12
ENDBRANCH  10  11
ENDBRANCH   9  10
ENDBRANCH   8   9
ENDBRANCH   1   8
TORSDOF 9
ENDMDL
MODEL 6
REMARK VINA RESULT:    -3.680      1.535      1.872
REMARK INTER + INTRA:          -6.147
REMARK INTER:                  -5.628
REMARK INTRA:                  -0.519
REMARK UNBOUND:                -0.531
REMARK SMILES O=C([O-])CCCCCCCCC(=O)[O-]
REMARK SMILES IDX 7 1 6 2 5 3 4 4 2 5 1 6 3 7 8 8 9 9 10 10 11 11 12 12 13 13
REMARK SMILES IDX 14 14
REMARK H PARENT
REMARK Flexibility Score: inf
ROOT
ATOM      1  C   UNL     1     128.202 120.920 119.388  1.00  0.00     0.000 C 
ENDROOT
BRANCH   1   2
ATOM      2  C   UNL     1     128.995 120.875 118.077  1.00  0.00     0.000 C 
BRANCH   2   3
ATOM      3  C   UNL     1     130.504 120.893 118.345  1.00  0.00     0.006 C 
BRANCH   3   4
ATOM      4  C   UNL     1     130.809 121.434 119.744  1.00  0.00     0.053 C 
BRANCH   4   5
ATOM      5  C   UNL     1     131.818 120.571 120.432  1.00  0.00     0.041 C 
ATOM      6  O   UNL     1     131.469 119.478 120.949  1.00  0.00    -0.550 OA
ATOM      7  O   UNL     1     133.135 120.997 120.547  1.00  0.00    -0.550 OA
ENDBRANCH   4   5
ENDBRANCH   3   4
ENDBRANCH   2   3
ENDBRANCH   1   2
BRANCH   1   8
ATOM      8  C   UNL     1     126.822 120.272 119.220  1.00  0.00     0.000 C 
BRANCH   8   9
ATOM      9  C   UNL     1     126.395 120.262 117.747  1.00  0.00     0.000 C 
BRANCH   9  10
ATOM     10  C   UNL     1     124.884 120.485 117.612  1.00  0.00     0.006 C 
BRANCH  10  11
ATOM     11  C   UNL     1     124.581 121.889 117.078  1.00  0.00     0.053 C 
BRANCH  11  12
ATOM     12  C   UNL     1     123.632 122.601 117.988  1.00  0.00     0.041 C 
ATOM     13  O   UNL     1     122.636 123.208 117.516  1.00  0.00    -0.550 OA
ATOM     14  O   UNL     1     123.875 122.637 119.356  1.00  0.00    -0.550 OA
ENDBRANCH  11  12
ENDBRANCH  10  11
ENDBRANCH   9  10
ENDBRANCH   8   9
ENDBRANCH   1   8
TORSDOF 9
ENDMDL
MODEL 7
REMARK VINA RESULT:    -3.678      2.037      2.839
REMARK INTER + INTRA:          -6.143
REMARK INTER:                  -5.591
REMARK INTRA:                  -0.552
REMARK UNBOUND:                -0.531
REMARK SMILES O=C([O-])CCCCCCCCC(=O)[O-]
REMARK SMILES IDX 7 1 6 2 5 3 4 4 2 5 1 6 3 7 8 8 9 9 10 10 11 11 12 12 13 13
REMARK SMILES IDX 14 14
REMARK H PARENT
REMARK Flexibility Score: inf
ROOT
ATOM      1  C   UNL     1     125.514 119.815 117.670  1.00  0.00     0.000 C 
ENDROOT
BRANCH   1   2
ATOM      2  C   UNL     1     126.580 120.903 117.839  1.00  0.00     0.000 C 
BRANCH   2   3
ATOM      3  C   UNL     1     127.954 120.289 118.131  1.00  0.00     0.006 C 
BRANCH   3   4
ATOM      4  C   UNL     1     128.689 121.076 119.220  1.00  0.00     0.053 C 
BRANCH   4   5
ATOM      5  C   UNL     1     130.147 121.170 118.905  1.00  0.00     0.041 C 
ATOM      6  O   UNL     1     130.912 121.846 119.642  1.00  0.00    -0.550 OA
ATOM      7  O   UNL     1     130.656 120.552 117.769  1.00  0.00    -0.550 OA
ENDBRANCH   4   5
ENDBRANCH   3   4
ENDBRANCH   2   3
ENDBRANCH   1   2
BRANCH   1   8
ATOM      8  C   UNL     1     124.186 120.414 117.190  1.00  0.00     0.000 C 
BRANCH   8   9
ATOM      9  C   UNL     1     124.284 121.939 117.066  1.00  0.00     0.000 C 
BRANCH   9  10
ATOM     10  C   UNL     1     123.160 122.628 117.849  1.00  0.00     0.006 C 
BRANCH  10  11
ATOM     11  C   UNL     1     123.502 122.714 119.340  1.00  0.00     0.053 C 
BRANCH  11  12
ATOM     12  C   UNL     1     122.494 121.966 120.152  1.00  0.00     0.041 C 
ATOM     13  O   UNL     1     121.754 121.105 119.608  1.00  0.00    -0.550 OA
ATOM     14  O   UNL     1     122.337 122.253 121.502  1.00  0.00    -0.550 OA
ENDBRANCH  11  12
ENDBRANCH  10  11
ENDBRANCH   9  10
ENDBRANCH   8   9
ENDBRANCH   1   8
TORSDOF 9
ENDMDL
MODEL 8
REMARK VINA RESULT:    -3.640      1.525      1.639
REMARK INTER + INTRA:          -6.086
REMARK INTER:                  -5.600
REMARK INTRA:                  -0.487
REMARK UNBOUND:                -0.531
REMARK SMILES O=C([O-])CCCCCCCCC(=O)[O-]
REMARK SMILES IDX 7 1 6 2 5 3 4 4 2 5 1 6 3 7 8 8 9 9 10 10 11 11 12 12 13 13
REMARK SMILES IDX 14 14
REMARK H PARENT
REMARK Flexibility Score: inf
ROOT
ATOM      1  C   UNL     1     128.121 120.813 117.988  1.00  0.00     0.000 C 
ENDROOT
BRANCH   1   2
ATOM      2  C   UNL     1     129.609 120.816 118.356  1.00  0.00     0.000 C 
BRANCH   2   3
ATOM      3  C   UNL     1     129.825 121.358 119.774  1.00  0.00     0.006 C 
BRANCH   3   4
ATOM      4  C   UNL     1     131.307 121.640 120.036  1.00  0.00     0.053 C 
BRANCH   4   5
ATOM      5  C   UNL     1     132.071 120.361 120.157  1.00  0.00     0.041 C 
ATOM      6  O   UNL     1     133.040 120.127 119.388  1.00  0.00    -0.550 OA
ATOM      7  O   UNL     1     131.684 119.404 121.086  1.00  0.00    -0.550 OA
ENDBRANCH   4   5
ENDBRANCH   3   4
ENDBRANCH   2   3
ENDBRANCH   1   2
BRANCH   1   8
ATOM      8  C   UNL     1     127.259 120.389 119.183  1.00  0.00     0.000 C 
BRANCH   8   9
ATOM      9  C   UNL     1     125.821 120.899 119.032  1.00  0.00     0.000 C 
BRANCH   9  10
ATOM     10  C   UNL     1     125.279 120.611 117.627  1.00  0.00     0.006 C 
BRANCH  10  11
ATOM     11  C   UNL     1     124.638 121.861 117.017  1.00  0.00     0.053 C 
BRANCH  11  12
ATOM     12  C   UNL     1     123.323 122.146 117.670  1.00  0.00     0.041 C 
ATOM     13  O   UNL     1     122.424 121.266 117.696  1.00  0.00    -0.550 OA
ATOM     14  O   UNL     1     123.071 123.402 118.208  1.00  0.00    -0.550 OA
ENDBRANCH  11  12
ENDBRANCH  10  11
ENDBRANCH   9  10
ENDBRANCH   8   9
ENDBRANCH   1   8
TORSDOF 9
ENDMDL
MODEL 9
REMARK VINA RESULT:    -3.485      2.036      6.504
REMARK INTER + INTRA:          -5.849
REMARK INTER:                  -5.360
REMARK INTRA:                  -0.490
REMARK UNBOUND:                -0.531
REMARK SMILES O=C([O-])CCCCCCCCC(=O)[O-]
REMARK SMILES IDX 7 1 6 2 5 3 4 4 2 5 1 6 3 7 8 8 9 9 10 10 11 11 12 12 13 13
REMARK SMILES IDX 14 14
REMARK H PARENT
REMARK Flexibility Score: inf
ROOT
ATOM      1  C   UNL     1     124.904 121.693 117.522  1.00  0.00     0.000 C 
ENDROOT
BRANCH   1   2
ATOM      2  C   UNL     1     123.528 122.238 117.123  1.00  0.00     0.000 C 
BRANCH   2   3
ATOM      3  C   UNL     1     122.854 122.951 118.301  1.00  0.00     0.006 C 
BRANCH   3   4
ATOM      4  C   UNL     1     123.566 122.631 119.618  1.00  0.00     0.053 C 
BRANCH   4   5
ATOM      5  C   UNL     1     122.622 121.986 120.582  1.00  0.00     0.041 C 
ATOM      6  O   UNL     1     121.814 121.106 120.184  1.00  0.00    -0.550 OA
ATOM      7  O   UNL     1     122.599 122.391 121.910  1.00  0.00    -0.550 OA
ENDBRANCH   4   5
ENDBRANCH   3   4
ENDBRANCH   2   3
ENDBRANCH   1   2
BRANCH   1   8
ATOM      8  C   UNL     1     124.914 120.160 117.510  1.00  0.00     0.000 C 
BRANCH   8   9
ATOM      9  C   UNL     1     126.289 119.616 117.914  1.00  0.00     0.000 C 
BRANCH   9  10
ATOM     10  C   UNL     1     127.314 120.750 118.042  1.00  0.00     0.006 C 
BRANCH  10  11
ATOM     11  C   UNL     1     128.739 120.196 118.133  1.00  0.00     0.053 C 
BRANCH  11  12
ATOM     12  C   UNL     1     129.580 121.058 119.019  1.00  0.00     0.041 C 
ATOM     13  O   UNL     1     130.804 121.216 118.773  1.00  0.00    -0.550 OA
ATOM     14  O   UNL     1     129.024 121.649 120.147  1.00  0.00    -0.550 OA
ENDBRANCH  11  12
ENDBRANCH  10  11
ENDBRANCH   9  10
ENDBRANCH   8   9
ENDBRANCH   1   8
TORSDOF 9
ENDMDL
