MODEL 1
REMARK VINA RESULT:    -3.714      0.000      0.000
REMARK INTER + INTRA:          -8.102
REMARK INTER:                  -6.537
REMARK INTRA:                  -1.564
REMARK UNBOUND:                -1.564
REMARK SMILES CCCCCCC=CCCCCCCCC(=O)[O-]
REMARK SMILES IDX 10 1 11 2 12 3 13 4 14 5 15 6 16 7 17 8 18 9 9 10 8 11 7 12
REMARK SMILES IDX 6 13 5 14 4 15 3 16 2 17 1 18
REMARK H PARENT
REMARK Flexibility Score: inf
ROOT
ATOM      1  C   UNL     1      59.564  27.646  49.728  1.00  0.00     0.004 C 
ENDROOT
BRANCH   1   2
ATOM      2  C   UNL     1      60.215  27.296  51.072  1.00  0.00     0.000 C 
BRANCH   2   3
ATOM      3  C   UNL     1      61.678  26.870  50.879  1.00  0.00     0.000 C 
BRANCH   3   4
ATOM      4  C   UNL     1      62.477  27.849  50.000  1.00  0.00     0.000 C 
BRANCH   4   5
ATOM      5  C   UNL     1      63.086  29.052  50.749  1.00  0.00     0.006 C 
BRANCH   5   6
ATOM      6  C   UNL     1      62.319  30.371  50.568  1.00  0.00     0.053 C 
BRANCH   6   7
ATOM      7  C   UNL     1      63.218  31.485  50.132  1.00  0.00     0.041 C 
ATOM      8  O   UNL     1      64.456  31.426  50.355  1.00  0.00    -0.550 OA
ATOM      9  O   UNL     1      62.684  32.605  49.506  1.00  0.00    -0.550 OA
ENDBRANCH   6   7
ENDBRANCH   5   6
ENDBRANCH   4   5
ENDBRANCH   3   4
ENDBRANCH   2   3
ENDBRANCH   1   2
BRANCH   1  10
ATOM     10  C   UNL     1      58.881  29.016  49.790  1.00  0.00     0.027 C 
BRANCH  10  11
ATOM     11  C   UNL     1      58.626  29.422  51.220  1.00  0.00    -0.031 C 
ATOM     12  C   UNL     1      57.478  29.966  51.667  1.00  0.00    -0.031 C 
BRANCH  12  13
ATOM     13  C   UNL     1      56.245  30.171  50.824  1.00  0.00     0.027 C 
BRANCH  13  14
ATOM     14  C   UNL     1      55.067  29.355  51.375  1.00  0.00     0.004 C 
BRANCH  14  15
ATOM     15  C   UNL     1      54.711  28.155  50.485  1.00  0.00     0.000 C 
BRANCH  15  16
ATOM     16  C   UNL     1      55.759  27.034  50.557  1.00  0.00    -0.000 C 
BRANCH  16  17
ATOM     17  C   UNL     1      55.114  25.665  50.316  1.00  0.00    -0.003 C 
ATOM     18  C   UNL     1      53.806  25.800  49.542  1.00  0.00     0.004 C 
ENDBRANCH  16  17
ENDBRANCH  15  16
ENDBRANCH  14  15
ENDBRANCH  13  14
ENDBRANCH  12  13
ENDBRANCH  10  11
ENDBRANCH   1  10
TORSDOF 13
ENDMDL
MODEL 2
REMARK VINA RESULT:    -3.662      3.496      6.580
REMARK INTER + INTRA:          -8.009
REMARK INTER:                  -5.924
REMARK INTRA:                  -2.085
REMARK UNBOUND:                -1.564
REMARK SMILES CCCCCCC=CCCCCCCCC(=O)[O-]
REMARK SMILES IDX 10 1 11 2 12 3 13 4 14 5 15 6 16 7 17 8 18 9 9 10 8 11 7 12
REMARK SMILES IDX 6 13 5 14 4 15 3 16 2 17 1 18
REMARK H PARENT
REMARK Flexibility Score: inf
ROOT
ATOM      1  C   UNL     1      53.552  28.087  51.529  1.00  0.00     0.004 C 
ENDROOT
BRANCH   1   2
ATOM      2  C   UNL     1      53.810  27.749  50.055  1.00  0.00     0.000 C 
BRANCH   2   3
ATOM      3  C   UNL     1      53.995  26.236  49.862  1.00  0.00     0.000 C 
BRANCH   3   4
ATOM      4  C   UNL     1      55.145  25.660  50.706  1.00  0.00     0.000 C 
BRANCH   4   5
ATOM      5  C   UNL     1      56.545  26.214  50.367  1.00  0.00     0.006 C 
BRANCH   5   6
ATOM      6  C   UNL     1      57.701  25.514  51.098  1.00  0.00     0.053 C 
BRANCH   6   7
ATOM      7  C   UNL     1      57.400  25.305  52.550  1.00  0.00     0.041 C 
ATOM      8  O   UNL     1      57.280  24.140  53.012  1.00  0.00    -0.550 OA
ATOM      9  O   UNL     1      57.220  26.400  53.387  1.00  0.00    -0.550 OA
ENDBRANCH   6   7
ENDBRANCH   5   6
ENDBRANCH   4   5
ENDBRANCH   3   4
ENDBRANCH   2   3
ENDBRANCH   1   2
BRANCH   1  10
ATOM     10  C   UNL     1      54.554  29.129  52.036  1.00  0.00     0.027 C 
BRANCH  10  11
ATOM     11  C   UNL     1      55.320  29.736  50.887  1.00  0.00    -0.031 C 
ATOM     12  C   UNL     1      56.630  30.047  50.922  1.00  0.00    -0.031 C 
BRANCH  12  13
ATOM     13  C   UNL     1      57.546  29.755  52.083  1.00  0.00     0.027 C 
BRANCH  13  14
ATOM     14  C   UNL     1      58.824  29.050  51.604  1.00  0.00     0.004 C 
BRANCH  14  15
ATOM     15  C   UNL     1      58.952  29.031  50.074  1.00  0.00     0.000 C 
BRANCH  15  16
ATOM     16  C   UNL     1      59.940  27.966  49.575  1.00  0.00    -0.000 C 
BRANCH  16  17
ATOM     17  C   UNL     1      61.060  27.738  50.596  1.00  0.00    -0.003 C 
ATOM     18  C   UNL     1      62.403  27.524  49.902  1.00  0.00     0.004 C 
ENDBRANCH  16  17
ENDBRANCH  15  16
ENDBRANCH  14  15
ENDBRANCH  13  14
ENDBRANCH  12  13
ENDBRANCH  10  11
ENDBRANCH   1  10
TORSDOF 13
ENDMDL
MODEL 3
REMARK VINA RESULT:    -3.647      3.390      6.725
REMARK INTER + INTRA:          -7.982
REMARK INTER:                  -6.274
REMARK INTRA:                  -1.708
REMARK UNBOUND:                -1.564
REMARK SMILES CCCCCCC=CCCCCCCCC(=O)[O-]
REMARK SMILES IDX 10 1 11 2 12 3 13 4 14 5 15 6 16 7 17 8 18 9 9 10 8 11 7 12
REMARK SMILES IDX 6 13 5 14 4 15 3 16 2 17 1 18
REMARK H PARENT
REMARK Flexibility Score: inf
ROOT
ATOM      1  C   UNL     1      55.049  25.865  49.977  1.00  0.00     0.004 C 
ENDROOT
BRANCH   1   2
ATOM      2  C   UNL     1      53.808  26.766  49.964  1.00  0.00     0.000 C 
BRANCH   2   3
ATOM      3  C   UNL     1      54.181  28.220  50.288  1.00  0.00     0.000 C 
BRANCH   3   4
ATOM      4  C   UNL     1      53.336  28.816  51.428  1.00  0.00     0.000 C 
BRANCH   4   5
ATOM      5  C   UNL     1      53.423  30.350  51.573  1.00  0.00     0.006 C 
BRANCH   5   6
ATOM      6  C   UNL     1      54.793  30.947  51.217  1.00  0.00     0.053 C 
BRANCH   6   7
ATOM      7  C   UNL     1      55.457  31.570  52.406  1.00  0.00     0.041 C 
ATOM      8  O   UNL     1      55.607  32.819  52.466  1.00  0.00    -0.550 OA
ATOM      9  O   UNL     1      55.938  30.768  53.433  1.00  0.00    -0.550 OA
ENDBRANCH   6   7
ENDBRANCH   5   6
ENDBRANCH   4   5
ENDBRANCH   3   4
ENDBRANCH   2   3
ENDBRANCH   1   2
BRANCH   1  10
ATOM     10  C   UNL     1      56.228  26.566  50.659  1.00  0.00     0.027 C 
BRANCH  10  11
ATOM     11  C   UNL     1      56.717  25.762  51.838  1.00  0.00    -0.031 C 
ATOM     12  C   UNL     1      57.897  25.114  51.883  1.00  0.00    -0.031 C 
BRANCH  12  13
ATOM     13  C   UNL     1      58.943  25.166  50.798  1.00  0.00     0.027 C 
BRANCH  13  14
ATOM     14  C   UNL     1      60.220  25.851  51.305  1.00  0.00     0.004 C 
BRANCH  14  15
ATOM     15  C   UNL     1      60.214  27.368  51.063  1.00  0.00     0.000 C 
BRANCH  15  16
ATOM     16  C   UNL     1      59.647  27.745  49.686  1.00  0.00    -0.000 C 
BRANCH  16  17
ATOM     17  C   UNL     1      59.037  29.151  49.712  1.00  0.00    -0.003 C 
ATOM     18  C   UNL     1      58.182  29.358  50.959  1.00  0.00     0.004 C 
ENDBRANCH  16  17
ENDBRANCH  15  16
ENDBRANCH  14  15
ENDBRANCH  13  14
ENDBRANCH  12  13
ENDBRANCH  10  11
ENDBRANCH   1  10
TORSDOF 13
ENDMDL
MODEL 4
REMARK VINA RESULT:    -3.610      1.538      3.346
REMARK INTER + INTRA:          -7.918
REMARK INTER:                  -5.981
REMARK INTRA:                  -1.937
REMARK UNBOUND:                -1.564
REMARK SMILES CCCCCCC=CCCCCCCCC(=O)[O-]
REMARK SMILES IDX 10 1 11 2 12 3 13 4 14 5 15 6 16 7 17 8 18 9 9 10 8 11 7 12
REMARK SMILES IDX 6 13 5 14 4 15 3 16 2 17 1 18
REMARK H PARENT
REMARK Flexibility Score: inf
ROOT
ATOM      1  C   UNL     1      58.092  26.245  51.803  1.00  0.00     0.004 C 
ENDROOT
BRANCH   1   2
ATOM      2  C   UNL     1      58.673  25.874  50.433  1.00  0.00     0.000 C 
BRANCH   2   3
ATOM      3  C   UNL     1      59.790  26.847  50.028  1.00  0.00     0.000 C 
BRANCH   3   4
ATOM      4  C   UNL     1      59.262  28.240  49.642  1.00  0.00     0.000 C 
BRANCH   4   5
ATOM      5  C   UNL     1      59.901  29.417  50.409  1.00  0.00     0.006 C 
BRANCH   5   6
ATOM      6  C   UNL     1      61.373  29.203  50.795  1.00  0.00     0.053 C 
BRANCH   6   7
ATOM      7  C   UNL     1      62.091  30.501  50.998  1.00  0.00     0.041 C 
ATOM      8  O   UNL     1      62.822  30.971  50.087  1.00  0.00    -0.550 OA
ATOM      9  O   UNL     1      61.978  31.175  52.207  1.00  0.00    -0.550 OA
ENDBRANCH   6   7
ENDBRANCH   5   6
ENDBRANCH   4   5
ENDBRANCH   3   4
ENDBRANCH   2   3
ENDBRANCH   1   2
BRANCH   1  10
ATOM     10  C   UNL     1      56.560  26.209  51.778  1.00  0.00     0.027 C 
BRANCH  10  11
ATOM     11  C   UNL     1      56.056  25.939  50.382  1.00  0.00    -0.031 C 
ATOM     12  C   UNL     1      54.803  26.195  49.960  1.00  0.00    -0.031 C 
BRANCH  12  13
ATOM     13  C   UNL     1      53.742  26.869  50.793  1.00  0.00     0.027 C 
BRANCH  13  14
ATOM     14  C   UNL     1      53.206  28.121  50.083  1.00  0.00     0.004 C 
BRANCH  14  15
ATOM     15  C   UNL     1      53.816  29.419  50.631  1.00  0.00     0.000 C 
BRANCH  15  16
ATOM     16  C   UNL     1      54.295  29.281  52.084  1.00  0.00    -0.000 C 
BRANCH  16  17
ATOM     17  C   UNL     1      55.728  29.802  52.241  1.00  0.00    -0.003 C 
ATOM     18  C   UNL     1      56.346  30.133  50.885  1.00  0.00     0.004 C 
ENDBRANCH  16  17
ENDBRANCH  15  16
ENDBRANCH  14  15
ENDBRANCH  13  14
ENDBRANCH  12  13
ENDBRANCH  10  11
ENDBRANCH   1  10
TORSDOF 13
ENDMDL
MODEL 5
REMARK VINA RESULT:    -3.608      3.498      6.397
REMARK INTER + INTRA:          -7.914
REMARK INTER:                  -5.366
REMARK INTRA:                  -2.548
REMARK UNBOUND:                -1.564
REMARK SMILES CCCCCCC=CCCCCCCCC(=O)[O-]
REMARK SMILES IDX 10 1 11 2 12 3 13 4 14 5 15 6 16 7 17 8 18 9 9 10 8 11 7 12
REMARK SMILES IDX 6 13 5 14 4 15 3 16 2 17 1 18
REMARK H PARENT
REMARK Flexibility Score: inf
ROOT
ATOM      1  C   UNL     1      56.009  26.503  52.460  1.00  0.00     0.004 C 
ENDROOT
BRANCH   1   2
ATOM      2  C   UNL     1      55.373  26.058  51.137  1.00  0.00     0.000 C 
BRANCH   2   3
ATOM      3  C   UNL     1      54.825  27.263  50.358  1.00  0.00     0.000 C 
BRANCH   3   4
ATOM      4  C   UNL     1      55.523  28.584  50.727  1.00  0.00     0.000 C 
BRANCH   4   5
ATOM      5  C   UNL     1      54.608  29.826  50.740  1.00  0.00     0.006 C 
BRANCH   5   6
ATOM      6  C   UNL     1      55.348  31.162  50.903  1.00  0.00     0.053 C 
BRANCH   6   7
ATOM      7  C   UNL     1      55.003  31.838  52.194  1.00  0.00     0.041 C 
ATOM      8  O   UNL     1      55.584  32.904  52.527  1.00  0.00    -0.550 OA
ATOM      9  O   UNL     1      54.061  31.272  53.045  1.00  0.00    -0.550 OA
ENDBRANCH   6   7
ENDBRANCH   5   6
ENDBRANCH   4   5
ENDBRANCH   3   4
ENDBRANCH   2   3
ENDBRANCH   1   2
BRANCH   1  10
ATOM     10  C   UNL     1      57.475  26.065  52.539  1.00  0.00     0.027 C 
BRANCH  10  11
ATOM     11  C   UNL     1      57.862  25.275  51.314  1.00  0.00    -0.031 C 
ATOM     12  C   UNL     1      58.797  25.658  50.423  1.00  0.00    -0.031 C 
BRANCH  12  13
ATOM     13  C   UNL     1      59.655  26.889  50.561  1.00  0.00     0.027 C 
BRANCH  13  14
ATOM     14  C   UNL     1      59.098  28.040  49.710  1.00  0.00     0.004 C 
BRANCH  14  15
ATOM     15  C   UNL     1      59.145  29.391  50.438  1.00  0.00     0.000 C 
BRANCH  15  16
ATOM     16  C   UNL     1      59.266  29.238  51.962  1.00  0.00    -0.000 C 
BRANCH  16  17
ATOM     17  C   UNL     1      58.403  30.277  52.687  1.00  0.00    -0.003 C 
ATOM     18  C   UNL     1      57.537  29.622  53.760  1.00  0.00     0.004 C 
ENDBRANCH  16  17
ENDBRANCH  15  16
ENDBRANCH  14  15
ENDBRANCH  13  14
ENDBRANCH  12  13
ENDBRANCH  10  11
ENDBRANCH   1  10
TORSDOF 13
ENDMDL
MODEL 6
REMARK VINA RESULT:    -3.599      1.305      2.243
REMARK INTER + INTRA:          -7.898
REMARK INTER:                  -6.096
REMARK INTRA:                  -1.802
REMARK UNBOUND:                -1.564
REMARK SMILES CCCCCCC=CCCCCCCCC(=O)[O-]
REMARK SMILES IDX 10 1 11 2 12 3 13 4 14 5 15 6 16 7 17 8 18 9 9 10 8 11 7 12
REMARK SMILES IDX 6 13 5 14 4 15 3 16 2 17 1 18
REMARK H PARENT
REMARK Flexibility Score: inf
ROOT
ATOM      1  C   UNL     1      59.130  29.301  51.219  1.00  0.00     0.004 C 
ENDROOT
BRANCH   1   2
ATOM      2  C   UNL     1      59.071  28.743  49.791  1.00  0.00     0.000 C 
BRANCH   2   3
ATOM      3  C   UNL     1      59.902  27.457  49.669  1.00  0.00     0.000 C 
BRANCH   3   4
ATOM      4  C   UNL     1      61.200  27.500  50.495  1.00  0.00     0.000 C 
BRANCH   4   5
ATOM      5  C   UNL     1      62.480  27.790  49.684  1.00  0.00     0.006 C 
BRANCH   5   6
ATOM      6  C   UNL     1      63.314  28.969  50.209  1.00  0.00     0.053 C 
BRANCH   6   7
ATOM      7  C   UNL     1      64.182  29.559  49.141  1.00  0.00     0.041 C 
ATOM      8  O   UNL     1      64.470  28.888  48.116  1.00  0.00    -0.550 OA
ATOM      9  O   UNL     1      64.697  30.840  49.294  1.00  0.00    -0.550 OA
ENDBRANCH   6   7
ENDBRANCH   5   6
ENDBRANCH   4   5
ENDBRANCH   3   4
ENDBRANCH   2   3
ENDBRANCH   1   2
BRANCH   1  10
ATOM     10  C   UNL     1      57.726  29.409  51.823  1.00  0.00     0.027 C 
BRANCH  10  11
ATOM     11  C   UNL     1      56.788  30.110  50.872  1.00  0.00    -0.031 C 
ATOM     12  C   UNL     1      55.445  30.034  50.931  1.00  0.00    -0.031 C 
BRANCH  12  13
ATOM     13  C   UNL     1      54.676  29.308  52.006  1.00  0.00     0.027 C 
BRANCH  13  14
ATOM     14  C   UNL     1      53.733  28.264  51.390  1.00  0.00     0.004 C 
BRANCH  14  15
ATOM     15  C   UNL     1      54.401  27.450  50.272  1.00  0.00     0.000 C 
BRANCH  15  16
ATOM     16  C   UNL     1      55.000  26.129  50.777  1.00  0.00    -0.000 C 
BRANCH  16  17
ATOM     17  C   UNL     1      56.500  26.055  50.470  1.00  0.00    -0.003 C 
ATOM     18  C   UNL     1      57.298  25.664  51.711  1.00  0.00     0.004 C 
ENDBRANCH  16  17
ENDBRANCH  15  16
ENDBRANCH  14  15
ENDBRANCH  13  14
ENDBRANCH  12  13
ENDBRANCH  10  11
ENDBRANCH   1  10
TORSDOF 13
ENDMDL
MODEL 7
REMARK VINA RESULT:    -3.592      1.979      4.419
REMARK INTER + INTRA:          -7.886
REMARK INTER:                  -5.557
REMARK INTRA:                  -2.328
REMARK UNBOUND:                -1.564
REMARK SMILES CCCCCCC=CCCCCCCCC(=O)[O-]
REMARK SMILES IDX 10 1 11 2 12 3 13 4 14 5 15 6 16 7 17 8 18 9 9 10 8 11 7 12
REMARK SMILES IDX 6 13 5 14 4 15 3 16 2 17 1 18
REMARK H PARENT
REMARK Flexibility Score: inf
ROOT
ATOM      1  C   UNL     1      56.467  25.946  50.603  1.00  0.00     0.004 C 
ENDROOT
BRANCH   1   2
ATOM      2  C   UNL     1      56.954  26.367  51.995  1.00  0.00     0.000 C 
BRANCH   2   3
ATOM      3  C   UNL     1      57.672  27.724  51.939  1.00  0.00     0.000 C 
BRANCH   3   4
ATOM      4  C   UNL     1      57.557  28.407  50.565  1.00  0.00     0.000 C 
BRANCH   4   5
ATOM      5  C   UNL     1      58.901  28.800  49.917  1.00  0.00     0.006 C 
BRANCH   5   6
ATOM      6  C   UNL     1      59.981  29.251  50.911  1.00  0.00     0.053 C 
BRANCH   6   7
ATOM      7  C   UNL     1      61.325  28.682  50.573  1.00  0.00     0.041 C 
ATOM      8  O   UNL     1      62.374  29.302  50.891  1.00  0.00    -0.550 OA
ATOM      9  O   UNL     1      61.416  27.482  49.879  1.00  0.00    -0.550 OA
ENDBRANCH   6   7
ENDBRANCH   5   6
ENDBRANCH   4   5
ENDBRANCH   3   4
ENDBRANCH   2   3
ENDBRANCH   1   2
BRANCH   1  10
ATOM     10  C   UNL     1      54.969  25.625  50.619  1.00  0.00     0.027 C 
BRANCH  10  11
ATOM     11  C   UNL     1      54.184  26.704  49.917  1.00  0.00    -0.031 C 
ATOM     12  C   UNL     1      53.584  27.738  50.538  1.00  0.00    -0.031 C 
BRANCH  12  13
ATOM     13  C   UNL     1      53.679  28.019  52.016  1.00  0.00     0.027 C 
BRANCH  13  14
ATOM     14  C   UNL     1      54.126  29.467  52.267  1.00  0.00     0.004 C 
BRANCH  14  15
ATOM     15  C   UNL     1      54.317  30.261  50.967  1.00  0.00     0.000 C 
BRANCH  15  16
ATOM     16  C   UNL     1      55.500  31.238  51.039  1.00  0.00    -0.000 C 
BRANCH  16  17
ATOM     17  C   UNL     1      55.815  31.612  52.491  1.00  0.00    -0.003 C 
ATOM     18  C   UNL     1      57.288  31.376  52.814  1.00  0.00     0.004 C 
ENDBRANCH  16  17
ENDBRANCH  15  16
ENDBRANCH  14  15
ENDBRANCH  13  14
ENDBRANCH  12  13
ENDBRANCH  10  11
ENDBRANCH   1  10
TORSDOF 13
ENDMDL
MODEL 8
REMARK VINA RESULT:    -3.522      3.545      5.499
REMARK INTER + INTRA:          -7.764
REMARK INTER:                  -5.526
REMARK INTRA:                  -2.238
REMARK UNBOUND:                -1.564
REMARK SMILES CCCCCCC=CCCCCCCCC(=O)[O-]
REMARK SMILES IDX 10 1 11 2 12 3 13 4 14 5 15 6 16 7 17 8 18 9 9 10 8 11 7 12
REMARK SMILES IDX 6 13 5 14 4 15 3 16 2 17 1 18
REMARK H PARENT
REMARK Flexibility Score: inf
ROOT
ATOM      1  C   UNL     1      59.662  27.640  49.640  1.00  0.00     0.004 C 
ENDROOT
BRANCH   1   2
ATOM      2  C   UNL     1      59.147  28.994  50.144  1.00  0.00     0.000 C 
BRANCH   2   3
ATOM      3  C   UNL     1      57.708  28.875  50.667  1.00  0.00     0.000 C 
BRANCH   3   4
ATOM      4  C   UNL     1      57.559  29.338  52.127  1.00  0.00     0.000 C 
BRANCH   4   5
ATOM      5  C   UNL     1      56.136  29.219  52.709  1.00  0.00     0.006 C 
BRANCH   5   6
ATOM      6  C   UNL     1      55.482  30.560  53.076  1.00  0.00     0.053 C 
BRANCH   6   7
ATOM      7  C   UNL     1      54.551  31.039  52.006  1.00  0.00     0.041 C 
ATOM      8  O   UNL     1      54.980  31.255  50.842  1.00  0.00    -0.550 OA
ATOM      9  O   UNL     1      53.215  31.278  52.303  1.00  0.00    -0.550 OA
ENDBRANCH   6   7
ENDBRANCH   5   6
ENDBRANCH   4   5
ENDBRANCH   3   4
ENDBRANCH   2   3
ENDBRANCH   1   2
BRANCH   1  10
ATOM     10  C   UNL     1      60.104  26.753  50.808  1.00  0.00     0.027 C 
BRANCH  10  11
ATOM     11  C   UNL     1      59.523  25.367  50.675  1.00  0.00    -0.031 C 
ATOM     12  C   UNL     1      58.544  24.873  51.457  1.00  0.00    -0.031 C 
BRANCH  12  13
ATOM     13  C   UNL     1      57.824  25.657  52.525  1.00  0.00     0.027 C 
BRANCH  13  14
ATOM     14  C   UNL     1      56.306  25.632  52.288  1.00  0.00     0.004 C 
BRANCH  14  15
ATOM     15  C   UNL     1      55.935  25.813  50.809  1.00  0.00     0.000 C 
BRANCH  15  16
ATOM     16  C   UNL     1      54.454  26.168  50.610  1.00  0.00    -0.000 C 
BRANCH  16  17
ATOM     17  C   UNL     1      54.298  27.610  50.114  1.00  0.00    -0.003 C 
ATOM     18  C   UNL     1      52.875  28.118  50.334  1.00  0.00     0.004 C 
ENDBRANCH  16  17
ENDBRANCH  15  16
ENDBRANCH  14  15
ENDBRANCH  13  14
ENDBRANCH  12  13
ENDBRANCH  10  11
ENDBRANCH   1  10
TORSDOF 13
ENDMDL
MODEL 9
REMARK VINA RESULT:    -3.497      1.389      2.012
REMARK INTER + INTRA:          -7.719
REMARK INTER:                  -5.456
REMARK INTRA:                  -2.263
REMARK UNBOUND:                -1.564
REMARK SMILES CCCCCCC=CCCCCCCCC(=O)[O-]
REMARK SMILES IDX 10 1 11 2 12 3 13 4 14 5 15 6 16 7 17 8 18 9 9 10 8 11 7 12
REMARK SMILES IDX 6 13 5 14 4 15 3 16 2 17 1 18
REMARK H PARENT
REMARK Flexibility Score: inf
ROOT
ATOM      1  C   UNL     1      60.752  26.610  50.971  1.00  0.00     0.004 C 
ENDROOT
BRANCH   1   2
ATOM      2  C   UNL     1      60.306  26.613  52.439  1.00  0.00     0.000 C 
BRANCH   2   3
ATOM      3  C   UNL     1      60.748  27.903  53.145  1.00  0.00     0.000 C 
BRANCH   3   4
ATOM      4  C   UNL     1      61.871  28.642  52.397  1.00  0.00     0.000 C 
BRANCH   4   5
ATOM      5  C   UNL     1      61.545  30.098  52.001  1.00  0.00     0.006 C 
BRANCH   5   6
ATOM      6  C   UNL     1      62.120  30.534  50.644  1.00  0.00     0.053 C 
BRANCH   6   7
ATOM      7  C   UNL     1      62.672  31.925  50.692  1.00  0.00     0.041 C 
ATOM      8  O   UNL     1      62.484  32.647  51.706  1.00  0.00    -0.550 OA
ATOM      9  O   UNL     1      63.368  32.434  49.603  1.00  0.00    -0.550 OA
ENDBRANCH   6   7
ENDBRANCH   5   6
ENDBRANCH   4   5
ENDBRANCH   3   4
ENDBRANCH   2   3
ENDBRANCH   1   2
BRANCH   1  10
ATOM     10  C   UNL     1      59.553  26.780  50.033  1.00  0.00     0.027 C 
BRANCH  10  11
ATOM     11  C   UNL     1      59.414  28.218  49.599  1.00  0.00    -0.031 C 
ATOM     12  C   UNL     1      58.503  29.079  50.091  1.00  0.00    -0.031 C 
BRANCH  12  13
ATOM     13  C   UNL     1      57.543  28.762  51.209  1.00  0.00     0.027 C 
BRANCH  13  14
ATOM     14  C   UNL     1      56.112  29.172  50.831  1.00  0.00     0.004 C 
BRANCH  14  15
ATOM     15  C   UNL     1      55.141  27.982  50.812  1.00  0.00     0.000 C 
BRANCH  15  16
ATOM     16  C   UNL     1      55.831  26.660  50.444  1.00  0.00    -0.000 C 
BRANCH  16  17
ATOM     17  C   UNL     1      55.580  25.594  51.516  1.00  0.00    -0.003 C 
ATOM     18  C   UNL     1      56.859  25.276  52.286  1.00  0.00     0.004 C 
ENDBRANCH  16  17
ENDBRANCH  15  16
ENDBRANCH  14  15
ENDBRANCH  13  14
ENDBRANCH  12  13
ENDBRANCH  10  11
ENDBRANCH   1  10
TORSDOF 13
ENDMDL
