MODEL 1
REMARK VINA RESULT:    -3.762      0.000      0.000
REMARK INTER + INTRA:          -4.469
REMARK INTER:                  -4.422
REMARK INTRA:                  -0.047
REMARK UNBOUND:                -0.047
REMARK SMILES CCCCC(=O)[O-]
REMARK SMILES IDX 4 1 5 2 6 3 7 4 3 5 2 6 1 7
REMARK H PARENT
REMARK Flexibility Score: inf
ROOT
ATOM      1  C   UNL     1      62.346 -28.118  -1.944  1.00  0.00     0.053 C 
ENDROOT
BRANCH   1   2
ATOM      2  C   UNL     1      62.419 -28.771  -0.597  1.00  0.00     0.041 C 
ATOM      3  O   UNL     1      63.536 -28.976  -0.051  1.00  0.00    -0.550 OA
ATOM      4  O   UNL     1      61.252 -29.121   0.070  1.00  0.00    -0.550 OA
ENDBRANCH   1   2
BRANCH   1   5
ATOM      5  C   UNL     1      63.449 -27.066  -2.126  1.00  0.00     0.006 C 
BRANCH   5   6
ATOM      6  C   UNL     1      62.981 -25.878  -2.978  1.00  0.00    -0.003 C 
ATOM      7  C   UNL     1      61.458 -25.817  -3.047  1.00  0.00     0.004 C 
ENDBRANCH   5   6
ENDBRANCH   1   5
TORSDOF 3
ENDMDL
MODEL 2
REMARK VINA RESULT:    -3.724      1.247      1.583
REMARK INTER + INTRA:          -4.425
REMARK INTER:                  -4.314
REMARK INTRA:                  -0.110
REMARK UNBOUND:                -0.047
REMARK SMILES CCCCC(=O)[O-]
REMARK SMILES IDX 4 1 5 2 6 3 7 4 3 5 2 6 1 7
REMARK H PARENT
REMARK Flexibility Score: inf
ROOT
ATOM      1  C   UNL     1      62.813 -29.149  -1.129  1.00  0.00     0.053 C 
ENDROOT
BRANCH   1   2
ATOM      2  C   UNL     1      61.393 -29.010  -0.674  1.00  0.00     0.041 C 
ATOM      3  O   UNL     1      61.107 -29.099   0.550  1.00  0.00    -0.550 OA
ATOM      4  O   UNL     1      60.389 -28.748  -1.597  1.00  0.00    -0.550 OA
ENDBRANCH   1   2
BRANCH   1   5
ATOM      5  C   UNL     1      63.499 -27.784  -1.276  1.00  0.00     0.006 C 
BRANCH   5   6
ATOM      6  C   UNL     1      63.384 -27.228  -2.703  1.00  0.00    -0.003 C 
ATOM      7  C   UNL     1      62.513 -25.975  -2.737  1.00  0.00     0.004 C 
ENDBRANCH   5   6
ENDBRANCH   1   5
TORSDOF 3
ENDMDL
MODEL 3
REMARK VINA RESULT:    -3.708      1.362      1.780
REMARK INTER + INTRA:          -4.405
REMARK INTER:                  -4.294
REMARK INTRA:                  -0.111
REMARK UNBOUND:                -0.047
REMARK SMILES CCCCC(=O)[O-]
REMARK SMILES IDX 4 1 5 2 6 3 7 4 3 5 2 6 1 7
REMARK H PARENT
REMARK Flexibility Score: inf
ROOT
ATOM      1  C   UNL     1      62.883 -28.906  -0.392  1.00  0.00     0.053 C 
ENDROOT
BRANCH   1   2
ATOM      2  C   UNL     1      61.397 -29.014  -0.238  1.00  0.00     0.041 C 
ATOM      3  O   UNL     1      60.654 -29.042  -1.255  1.00  0.00    -0.550 OA
ATOM      4  O   UNL     1      60.835 -29.116   1.028  1.00  0.00    -0.550 OA
ENDBRANCH   1   2
BRANCH   1   5
ATOM      5  C   UNL     1      63.281 -28.531  -1.826  1.00  0.00     0.006 C 
BRANCH   5   6
ATOM      6  C   UNL     1      63.671 -27.051  -1.951  1.00  0.00    -0.003 C 
ATOM      7  C   UNL     1      62.595 -26.260  -2.690  1.00  0.00     0.004 C 
ENDBRANCH   5   6
ENDBRANCH   1   5
TORSDOF 3
ENDMDL
MODEL 4
REMARK VINA RESULT:    -3.701      0.179      1.236
REMARK INTER + INTRA:          -4.397
REMARK INTER:                  -4.352
REMARK INTRA:                  -0.044
REMARK UNBOUND:                -0.047
REMARK SMILES CCCCC(=O)[O-]
REMARK SMILES IDX 4 1 5 2 6 3 7 4 3 5 2 6 1 7
REMARK H PARENT
REMARK Flexibility Score: inf
ROOT
ATOM      1  C   UNL     1      62.108 -28.030  -1.967  1.00  0.00     0.053 C 
ENDROOT
BRANCH   1   2
ATOM      2  C   UNL     1      62.237 -28.758  -0.664  1.00  0.00     0.041 C 
ATOM      3  O   UNL     1      61.213 -29.206  -0.084  1.00  0.00    -0.550 OA
ATOM      4  O   UNL     1      63.491 -28.972  -0.108  1.00  0.00    -0.550 OA
ENDBRANCH   1   2
BRANCH   1   5
ATOM      5  C   UNL     1      63.275 -27.060  -2.195  1.00  0.00     0.006 C 
BRANCH   5   6
ATOM      6  C   UNL     1      62.856 -25.832  -3.015  1.00  0.00    -0.003 C 
ATOM      7  C   UNL     1      61.338 -25.753  -3.151  1.00  0.00     0.004 C 
ENDBRANCH   5   6
ENDBRANCH   1   5
TORSDOF 3
ENDMDL
MODEL 5
REMARK VINA RESULT:    -3.654      2.857      3.780
REMARK INTER + INTRA:          -4.342
REMARK INTER:                  -4.305
REMARK INTRA:                  -0.038
REMARK UNBOUND:                -0.047
REMARK SMILES CCCCC(=O)[O-]
REMARK SMILES IDX 4 1 5 2 6 3 7 4 3 5 2 6 1 7
REMARK H PARENT
REMARK Flexibility Score: inf
ROOT
ATOM      1  C   UNL     1      61.897 -27.153  -2.376  1.00  0.00     0.053 C 
ENDROOT
BRANCH   1   2
ATOM      2  C   UNL     1      61.898 -25.885  -3.174  1.00  0.00     0.041 C 
ATOM      3  O   UNL     1      62.886 -25.593  -3.898  1.00  0.00    -0.550 OA
ATOM      4  O   UNL     1      60.794 -25.043  -3.144  1.00  0.00    -0.550 OA
ENDBRANCH   1   2
BRANCH   1   5
ATOM      5  C   UNL     1      63.321 -27.628  -2.061  1.00  0.00     0.006 C 
BRANCH   5   6
ATOM      6  C   UNL     1      63.345 -28.704  -0.966  1.00  0.00    -0.003 C 
ATOM      7  C   UNL     1      61.932 -29.045  -0.500  1.00  0.00     0.004 C 
ENDBRANCH   5   6
ENDBRANCH   1   5
TORSDOF 3
ENDMDL
MODEL 6
REMARK VINA RESULT:    -3.646      3.104      4.230
REMARK INTER + INTRA:          -4.333
REMARK INTER:                  -4.317
REMARK INTRA:                  -0.016
REMARK UNBOUND:                -0.047
REMARK SMILES CCCCC(=O)[O-]
REMARK SMILES IDX 4 1 5 2 6 3 7 4 3 5 2 6 1 7
REMARK H PARENT
REMARK Flexibility Score: inf
ROOT
ATOM      1  C   UNL     1      62.452 -25.916  -2.916  1.00  0.00     0.053 C 
ENDROOT
BRANCH   1   2
ATOM      2  C   UNL     1      61.169 -25.451  -3.533  1.00  0.00     0.041 C 
ATOM      3  O   UNL     1      60.246 -24.994  -2.808  1.00  0.00    -0.550 OA
ATOM      4  O   UNL     1      61.005 -25.491  -4.912  1.00  0.00    -0.550 OA
ENDBRANCH   1   2
BRANCH   1   5
ATOM      5  C   UNL     1      62.326 -27.334  -2.342  1.00  0.00     0.006 C 
BRANCH   5   6
ATOM      6  C   UNL     1      63.602 -27.780  -1.614  1.00  0.00    -0.003 C 
ATOM      7  C   UNL     1      63.289 -28.828  -0.549  1.00  0.00     0.004 C 
ENDBRANCH   5   6
ENDBRANCH   1   5
TORSDOF 3
ENDMDL
MODEL 7
REMARK VINA RESULT:    -3.619      3.091      4.161
REMARK INTER + INTRA:          -4.301
REMARK INTER:                  -4.285
REMARK INTRA:                  -0.016
REMARK UNBOUND:                -0.047
REMARK SMILES CCCCC(=O)[O-]
REMARK SMILES IDX 4 1 5 2 6 3 7 4 3 5 2 6 1 7
REMARK H PARENT
REMARK Flexibility Score: inf
ROOT
ATOM      1  C   UNL     1      62.459 -25.960  -3.069  1.00  0.00     0.053 C 
ENDROOT
BRANCH   1   2
ATOM      2  C   UNL     1      61.157 -25.452  -3.608  1.00  0.00     0.041 C 
ATOM      3  O   UNL     1      60.960 -25.404  -4.852  1.00  0.00    -0.550 OA
ATOM      4  O   UNL     1      60.147 -25.063  -2.737  1.00  0.00    -0.550 OA
ENDBRANCH   1   2
BRANCH   1   5
ATOM      5  C   UNL     1      62.282 -27.279  -2.306  1.00  0.00     0.006 C 
BRANCH   5   6
ATOM      6  C   UNL     1      63.575 -27.720  -1.605  1.00  0.00    -0.003 C 
ATOM      7  C   UNL     1      63.301 -28.835  -0.599  1.00  0.00     0.004 C 
ENDBRANCH   5   6
ENDBRANCH   1   5
TORSDOF 3
ENDMDL
MODEL 8
REMARK VINA RESULT:    -3.394      0.797      1.435
REMARK INTER + INTRA:          -4.036
REMARK INTER:                  -4.003
REMARK INTRA:                  -0.033
REMARK UNBOUND:                -0.047
REMARK SMILES CCCCC(=O)[O-]
REMARK SMILES IDX 4 1 5 2 6 3 7 4 3 5 2 6 1 7
REMARK H PARENT
REMARK Flexibility Score: inf
ROOT
ATOM      1  C   UNL     1      61.660 -27.685  -2.042  1.00  0.00     0.053 C 
ENDROOT
BRANCH   1   2
ATOM      2  C   UNL     1      62.176 -28.706  -1.074  1.00  0.00     0.041 C 
ATOM      3  O   UNL     1      61.391 -29.263  -0.262  1.00  0.00    -0.550 OA
ATOM      4  O   UNL     1      63.517 -29.067  -1.093  1.00  0.00    -0.550 OA
ENDBRANCH   1   2
BRANCH   1   5
ATOM      5  C   UNL     1      62.774 -26.747  -2.526  1.00  0.00     0.006 C 
BRANCH   5   6
ATOM      6  C   UNL     1      62.246 -25.661  -3.474  1.00  0.00    -0.003 C 
ATOM      7  C   UNL     1      60.764 -25.392  -3.230  1.00  0.00     0.004 C 
ENDBRANCH   5   6
ENDBRANCH   1   5
TORSDOF 3
ENDMDL
MODEL 9
REMARK VINA RESULT:    -3.364      2.448      3.751
REMARK INTER + INTRA:          -4.001
REMARK INTER:                  -3.978
REMARK INTRA:                  -0.023
REMARK UNBOUND:                -0.047
REMARK SMILES CCCCC(=O)[O-]
REMARK SMILES IDX 4 1 5 2 6 3 7 4 3 5 2 6 1 7
REMARK H PARENT
REMARK Flexibility Score: inf
ROOT
ATOM      1  C   UNL     1      61.523 -27.415  -2.219  1.00  0.00     0.053 C 
ENDROOT
BRANCH   1   2
ATOM      2  C   UNL     1      62.833 -26.712  -2.401  1.00  0.00     0.041 C 
ATOM      3  O   UNL     1      63.878 -27.171  -1.868  1.00  0.00    -0.550 OA
ATOM      4  O   UNL     1      62.906 -25.570  -3.187  1.00  0.00    -0.550 OA
ENDBRANCH   1   2
BRANCH   1   5
ATOM      5  C   UNL     1      61.646 -28.608  -1.261  1.00  0.00     0.006 C 
BRANCH   5   6
ATOM      6  C   UNL     1      60.313 -28.940  -0.575  1.00  0.00    -0.003 C 
ATOM      7  C   UNL     1      60.520 -29.252   0.905  1.00  0.00     0.004 C 
ENDBRANCH   5   6
ENDBRANCH   1   5
TORSDOF 3
ENDMDL
