MODEL 1
REMARK VINA RESULT:    -3.820      0.000      0.000
REMARK INTER + INTRA:          -6.103
REMARK INTER:                  -5.606
REMARK INTRA:                  -0.497
REMARK UNBOUND:                -0.497
REMARK SMILES O=C([O-])CCCCCCCC(=O)[O-]
REMARK SMILES IDX 7 1 6 2 5 3 4 4 2 5 1 6 3 7 8 8 9 9 10 10 11 11 12 12 13 13
REMARK H PARENT
REMARK Flexibility Score: inf
ROOT
ATOM      1  C   UNL     1     129.263 144.741 105.729  1.00  0.00     0.000 C 
ENDROOT
BRANCH   1   2
ATOM      2  C   UNL     1     130.248 145.922 105.758  1.00  0.00     0.000 C 
BRANCH   2   3
ATOM      3  C   UNL     1     131.209 145.860 106.957  1.00  0.00     0.006 C 
BRANCH   3   4
ATOM      4  C   UNL     1     132.478 146.693 106.742  1.00  0.00     0.053 C 
BRANCH   4   5
ATOM      5  C   UNL     1     133.253 146.801 108.019  1.00  0.00     0.041 C 
ATOM      6  O   UNL     1     132.652 146.984 109.110  1.00  0.00    -0.550 OA
ATOM      7  O   UNL     1     134.640 146.747 107.995  1.00  0.00    -0.550 OA
ENDBRANCH   4   5
ENDBRANCH   3   4
ENDBRANCH   2   3
ENDBRANCH   1   2
BRANCH   1   8
ATOM      8  C   UNL     1     127.827 145.178 105.393  1.00  0.00     0.000 C 
BRANCH   8   9
ATOM      9  C   UNL     1     127.034 145.616 106.634  1.00  0.00     0.006 C 
BRANCH   9  10
ATOM     10  C   UNL     1     127.260 144.648 107.799  1.00  0.00     0.053 C 
BRANCH  10  11
ATOM     11  C   UNL     1     127.518 145.401 109.066  1.00  0.00     0.041 C 
ATOM     12  O   UNL     1     126.879 145.117 110.112  1.00  0.00    -0.550 OA
ATOM     13  O   UNL     1     128.429 146.449 109.078  1.00  0.00    -0.550 OA
ENDBRANCH  10  11
ENDBRANCH   9  10
ENDBRANCH   8   9
ENDBRANCH   1   8
TORSDOF 8
ENDMDL
MODEL 2
REMARK VINA RESULT:    -3.812      2.802      5.139
REMARK INTER + INTRA:          -6.093
REMARK INTER:                  -5.558
REMARK INTRA:                  -0.534
REMARK UNBOUND:                -0.497
REMARK SMILES O=C([O-])CCCCCCCC(=O)[O-]
REMARK SMILES IDX 7 1 6 2 5 3 4 4 2 5 1 6 3 7 8 8 9 9 10 10 11 11 12 12 13 13
REMARK H PARENT
REMARK Flexibility Score: inf
ROOT
ATOM      1  C   UNL     1     127.995 145.298 105.778  1.00  0.00     0.000 C 
ENDROOT
BRANCH   1   2
ATOM      2  C   UNL     1     127.621 144.041 104.973  1.00  0.00     0.000 C 
BRANCH   2   3
ATOM      3  C   UNL     1     128.090 142.745 105.652  1.00  0.00     0.006 C 
BRANCH   3   4
ATOM      4  C   UNL     1     126.930 141.930 106.239  1.00  0.00     0.053 C 
BRANCH   4   5
ATOM      5  C   UNL     1     127.420 141.044 107.341  1.00  0.00     0.041 C 
ATOM      6  O   UNL     1     128.039 141.536 108.321  1.00  0.00    -0.550 OA
ATOM      7  O   UNL     1     127.235 139.670 107.261  1.00  0.00    -0.550 OA
ENDBRANCH   4   5
ENDBRANCH   3   4
ENDBRANCH   2   3
ENDBRANCH   1   2
BRANCH   1   8
ATOM      8  C   UNL     1     126.875 145.742 106.734  1.00  0.00     0.000 C 
BRANCH   8   9
ATOM      9  C   UNL     1     127.341 145.831 108.195  1.00  0.00     0.006 C 
BRANCH   9  10
ATOM     10  C   UNL     1     128.637 145.042 108.406  1.00  0.00     0.053 C 
BRANCH  10  11
ATOM     11  C   UNL     1     129.761 145.963 108.763  1.00  0.00     0.041 C 
ATOM     12  O   UNL     1     129.794 146.511 109.896  1.00  0.00    -0.550 OA
ATOM     13  O   UNL     1     130.743 146.256 107.827  1.00  0.00    -0.550 OA
ENDBRANCH  10  11
ENDBRANCH   9  10
ENDBRANCH   8   9
ENDBRANCH   1   8
TORSDOF 8
ENDMDL
MODEL 3
REMARK VINA RESULT:    -3.775      0.950      5.227
REMARK INTER + INTRA:          -6.038
REMARK INTER:                  -5.583
REMARK INTRA:                  -0.454
REMARK UNBOUND:                -0.497
REMARK SMILES O=C([O-])CCCCCCCC(=O)[O-]
REMARK SMILES IDX 7 1 6 2 5 3 4 4 2 5 1 6 3 7 8 8 9 9 10 10 11 11 12 12 13 13
REMARK H PARENT
REMARK Flexibility Score: inf
ROOT
ATOM      1  C   UNL     1     129.337 144.358 105.763  1.00  0.00     0.000 C 
ENDROOT
BRANCH   1   2
ATOM      2  C   UNL     1     128.363 145.530 105.551  1.00  0.00     0.000 C 
BRANCH   2   3
ATOM      3  C   UNL     1     127.136 145.451 106.473  1.00  0.00     0.006 C 
BRANCH   3   4
ATOM      4  C   UNL     1     127.420 145.986 107.883  1.00  0.00     0.053 C 
BRANCH   4   5
ATOM      5  C   UNL     1     127.150 144.928 108.906  1.00  0.00     0.041 C 
ATOM      6  O   UNL     1     126.875 145.248 110.092  1.00  0.00    -0.550 OA
ATOM      7  O   UNL     1     127.249 143.587 108.560  1.00  0.00    -0.550 OA
ENDBRANCH   4   5
ENDBRANCH   3   4
ENDBRANCH   2   3
ENDBRANCH   1   2
BRANCH   1   8
ATOM      8  C   UNL     1     130.702 144.815 106.304  1.00  0.00     0.000 C 
BRANCH   8   9
ATOM      9  C   UNL     1     130.924 146.328 106.156  1.00  0.00     0.006 C 
BRANCH   9  10
ATOM     10  C   UNL     1     132.418 146.662 106.126  1.00  0.00     0.053 C 
BRANCH  10  11
ATOM     11  C   UNL     1     132.979 146.688 107.513  1.00  0.00     0.041 C 
ATOM     12  O   UNL     1     132.207 146.740 108.506  1.00  0.00    -0.550 OA
ATOM     13  O   UNL     1     134.353 146.705 107.706  1.00  0.00    -0.550 OA
ENDBRANCH  10  11
ENDBRANCH   9  10
ENDBRANCH   8   9
ENDBRANCH   1   8
TORSDOF 8
ENDMDL
MODEL 4
REMARK VINA RESULT:    -3.756      1.241      1.740
REMARK INTER + INTRA:          -6.010
REMARK INTER:                  -5.372
REMARK INTRA:                  -0.638
REMARK UNBOUND:                -0.497
REMARK SMILES O=C([O-])CCCCCCCC(=O)[O-]
REMARK SMILES IDX 7 1 6 2 5 3 4 4 2 5 1 6 3 7 8 8 9 9 10 10 11 11 12 12 13 13
REMARK H PARENT
REMARK Flexibility Score: inf
ROOT
ATOM      1  C   UNL     1     128.318 145.503 105.633  1.00  0.00     0.000 C 
ENDROOT
BRANCH   1   2
ATOM      2  C   UNL     1     129.685 144.954 106.076  1.00  0.00     0.000 C 
BRANCH   2   3
ATOM      3  C   UNL     1     130.773 146.039 106.116  1.00  0.00     0.006 C 
BRANCH   3   4
ATOM      4  C   UNL     1     131.794 145.813 107.238  1.00  0.00     0.053 C 
BRANCH   4   5
ATOM      5  C   UNL     1     133.149 146.287 106.813  1.00  0.00     0.041 C 
ATOM      6  O   UNL     1     133.945 146.771 107.660  1.00  0.00    -0.550 OA
ATOM      7  O   UNL     1     133.512 146.239 105.474  1.00  0.00    -0.550 OA
ENDBRANCH   4   5
ENDBRANCH   3   4
ENDBRANCH   2   3
ENDBRANCH   1   2
BRANCH   1   8
ATOM      8  C   UNL     1     127.183 145.101 106.589  1.00  0.00     0.000 C 
BRANCH   8   9
ATOM      9  C   UNL     1     126.919 146.155 107.676  1.00  0.00     0.006 C 
BRANCH   9  10
ATOM     10  C   UNL     1     127.121 145.563 109.073  1.00  0.00     0.053 C 
BRANCH  10  11
ATOM     11  C   UNL     1     128.571 145.564 109.440  1.00  0.00     0.041 C 
ATOM     12  O   UNL     1     129.226 146.639 109.427  1.00  0.00    -0.550 OA
ATOM     13  O   UNL     1     129.211 144.371 109.747  1.00  0.00    -0.550 OA
ENDBRANCH  10  11
ENDBRANCH   9  10
ENDBRANCH   8   9
ENDBRANCH   1   8
TORSDOF 8
ENDMDL
MODEL 5
REMARK VINA RESULT:    -3.755      3.890      6.110
REMARK INTER + INTRA:          -6.008
REMARK INTER:                  -5.663
REMARK INTRA:                  -0.345
REMARK UNBOUND:                -0.497
REMARK SMILES O=C([O-])CCCCCCCC(=O)[O-]
REMARK SMILES IDX 7 1 6 2 5 3 4 4 2 5 1 6 3 7 8 8 9 9 10 10 11 11 12 12 13 13
REMARK H PARENT
REMARK Flexibility Score: inf
ROOT
ATOM      1  C   UNL     1     127.654 143.278 105.326  1.00  0.00     0.000 C 
ENDROOT
BRANCH   1   2
ATOM      2  C   UNL     1     127.242 143.013 106.784  1.00  0.00     0.000 C 
BRANCH   2   3
ATOM      3  C   UNL     1     127.162 141.514 107.112  1.00  0.00     0.006 C 
BRANCH   3   4
ATOM      4  C   UNL     1     128.075 140.663 106.220  1.00  0.00     0.053 C 
BRANCH   4   5
ATOM      5  C   UNL     1     127.681 139.221 106.297  1.00  0.00     0.041 C 
ATOM      6  O   UNL     1     127.290 138.728 107.387  1.00  0.00    -0.550 OA
ATOM      7  O   UNL     1     127.790 138.411 105.174  1.00  0.00    -0.550 OA
ENDBRANCH   4   5
ENDBRANCH   3   4
ENDBRANCH   2   3
ENDBRANCH   1   2
BRANCH   1   8
ATOM      8  C   UNL     1     127.641 144.773 104.970  1.00  0.00     0.000 C 
BRANCH   8   9
ATOM      9  C   UNL     1     128.350 145.641 106.022  1.00  0.00     0.006 C 
BRANCH   9  10
ATOM     10  C   UNL     1     129.867 145.440 105.965  1.00  0.00     0.053 C 
BRANCH  10  11
ATOM     11  C   UNL     1     130.520 146.026 107.178  1.00  0.00     0.041 C 
ATOM     12  O   UNL     1     129.917 146.027 108.282  1.00  0.00    -0.550 OA
ATOM     13  O   UNL     1     131.772 146.615 107.076  1.00  0.00    -0.550 OA
ENDBRANCH  10  11
ENDBRANCH   9  10
ENDBRANCH   8   9
ENDBRANCH   1   8
TORSDOF 8
ENDMDL
MODEL 6
REMARK VINA RESULT:    -3.738      2.036      2.962
REMARK INTER + INTRA:          -5.984
REMARK INTER:                  -5.184
REMARK INTRA:                  -0.801
REMARK UNBOUND:                -0.497
REMARK SMILES O=C([O-])CCCCCCCC(=O)[O-]
REMARK SMILES IDX 7 1 6 2 5 3 4 4 2 5 1 6 3 7 8 8 9 9 10 10 11 11 12 12 13 13
REMARK H PARENT
REMARK Flexibility Score: inf
ROOT
ATOM      1  C   UNL     1     128.114 143.085 105.395  1.00  0.00     0.000 C 
ENDROOT
BRANCH   1   2
ATOM      2  C   UNL     1     127.612 144.502 105.066  1.00  0.00     0.000 C 
BRANCH   2   3
ATOM      3  C   UNL     1     128.480 145.598 105.705  1.00  0.00     0.006 C 
BRANCH   3   4
ATOM      4  C   UNL     1     129.898 145.115 106.034  1.00  0.00     0.053 C 
BRANCH   4   5
ATOM      5  C   UNL     1     130.526 146.003 107.061  1.00  0.00     0.041 C 
ATOM      6  O   UNL     1     130.049 146.063 108.225  1.00  0.00    -0.550 OA
ATOM      7  O   UNL     1     131.610 146.801 106.719  1.00  0.00    -0.550 OA
ENDBRANCH   4   5
ENDBRANCH   3   4
ENDBRANCH   2   3
ENDBRANCH   1   2
BRANCH   1   8
ATOM      8  C   UNL     1     127.016 142.197 106.005  1.00  0.00     0.000 C 
BRANCH   8   9
ATOM      9  C   UNL     1     127.409 141.622 107.374  1.00  0.00     0.006 C 
BRANCH   9  10
ATOM     10  C   UNL     1     128.470 142.494 108.051  1.00  0.00     0.053 C 
BRANCH  10  11
ATOM     11  C   UNL     1     127.853 143.332 109.127  1.00  0.00     0.041 C 
ATOM     12  O   UNL     1     127.213 144.374 108.828  1.00  0.00    -0.550 OA
ATOM     13  O   UNL     1     128.027 142.989 110.461  1.00  0.00    -0.550 OA
ENDBRANCH  10  11
ENDBRANCH   9  10
ENDBRANCH   8   9
ENDBRANCH   1   8
TORSDOF 8
ENDMDL
MODEL 7
REMARK VINA RESULT:    -3.706      4.020      4.766
REMARK INTER + INTRA:          -5.937
REMARK INTER:                  -5.560
REMARK INTRA:                  -0.376
REMARK UNBOUND:                -0.497
REMARK SMILES O=C([O-])CCCCCCCC(=O)[O-]
REMARK SMILES IDX 7 1 6 2 5 3 4 4 2 5 1 6 3 7 8 8 9 9 10 10 11 11 12 12 13 13
REMARK H PARENT
REMARK Flexibility Score: inf
ROOT
ATOM      1  C   UNL     1     128.077 143.057 105.594  1.00  0.00     0.000 C 
ENDROOT
BRANCH   1   2
ATOM      2  C   UNL     1     127.727 144.434 105.005  1.00  0.00     0.000 C 
BRANCH   2   3
ATOM      3  C   UNL     1     128.475 145.581 105.703  1.00  0.00     0.006 C 
BRANCH   3   4
ATOM      4  C   UNL     1     129.934 145.229 106.023  1.00  0.00     0.053 C 
BRANCH   4   5
ATOM      5  C   UNL     1     130.376 145.924 107.272  1.00  0.00     0.041 C 
ATOM      6  O   UNL     1     129.572 146.081 108.229  1.00  0.00    -0.550 OA
ATOM      7  O   UNL     1     131.661 146.442 107.360  1.00  0.00    -0.550 OA
ENDBRANCH   4   5
ENDBRANCH   3   4
ENDBRANCH   2   3
ENDBRANCH   1   2
BRANCH   1   8
ATOM      8  C   UNL     1     127.246 142.720 106.843  1.00  0.00     0.000 C 
BRANCH   8   9
ATOM      9  C   UNL     1     127.370 141.247 107.261  1.00  0.00     0.006 C 
BRANCH   9  10
ATOM     10  C   UNL     1     128.160 140.447 106.221  1.00  0.00     0.053 C 
BRANCH  10  11
ATOM     11  C   UNL     1     127.742 139.010 106.235  1.00  0.00     0.041 C 
ATOM     12  O   UNL     1     127.268 138.500 107.284  1.00  0.00    -0.550 OA
ATOM     13  O   UNL     1     127.923 138.223 105.106  1.00  0.00    -0.550 OA
ENDBRANCH  10  11
ENDBRANCH   9  10
ENDBRANCH   8   9
ENDBRANCH   1   8
TORSDOF 8
ENDMDL
MODEL 8
REMARK VINA RESULT:    -3.672      2.030      2.320
REMARK INTER + INTRA:          -5.886
REMARK INTER:                  -5.470
REMARK INTRA:                  -0.416
REMARK UNBOUND:                -0.497
REMARK SMILES O=C([O-])CCCCCCCC(=O)[O-]
REMARK SMILES IDX 7 1 6 2 5 3 4 4 2 5 1 6 3 7 8 8 9 9 10 10 11 11 12 12 13 13
REMARK H PARENT
REMARK Flexibility Score: inf
ROOT
ATOM      1  C   UNL     1     128.547 145.631 105.749  1.00  0.00     0.000 C 
ENDROOT
BRANCH   1   2
ATOM      2  C   UNL     1     129.995 145.144 105.927  1.00  0.00     0.000 C 
BRANCH   2   3
ATOM      3  C   UNL     1     130.989 146.302 106.109  1.00  0.00     0.006 C 
BRANCH   3   4
ATOM      4  C   UNL     1     132.430 145.819 106.320  1.00  0.00     0.053 C 
BRANCH   4   5
ATOM      5  C   UNL     1     133.011 146.436 107.553  1.00  0.00     0.041 C 
ATOM      6  O   UNL     1     132.266 146.740 108.521  1.00  0.00    -0.550 OA
ATOM      7  O   UNL     1     134.370 146.717 107.614  1.00  0.00    -0.550 OA
ENDBRANCH   4   5
ENDBRANCH   3   4
ENDBRANCH   2   3
ENDBRANCH   1   2
BRANCH   1   8
ATOM      8  C   UNL     1     127.621 144.539 105.189  1.00  0.00     0.000 C 
BRANCH   8   9
ATOM      9  C   UNL     1     128.170 143.122 105.415  1.00  0.00     0.006 C 
BRANCH   9  10
ATOM     10  C   UNL     1     127.160 142.258 106.177  1.00  0.00     0.053 C 
BRANCH  10  11
ATOM     11  C   UNL     1     127.582 142.091 107.603  1.00  0.00     0.041 C 
ATOM     12  O   UNL     1     127.778 140.940 108.073  1.00  0.00    -0.550 OA
ATOM     13  O   UNL     1     127.710 143.202 108.425  1.00  0.00    -0.550 OA
ENDBRANCH  10  11
ENDBRANCH   9  10
ENDBRANCH   8   9
ENDBRANCH   1   8
TORSDOF 8
ENDMDL
MODEL 9
REMARK VINA RESULT:    -3.670      3.674      5.176
REMARK INTER + INTRA:          -5.884
REMARK INTER:                  -5.394
REMARK INTRA:                  -0.490
REMARK UNBOUND:                -0.497
REMARK SMILES O=C([O-])CCCCCCCC(=O)[O-]
REMARK SMILES IDX 7 1 6 2 5 3 4 4 2 5 1 6 3 7 8 8 9 9 10 10 11 11 12 12 13 13
REMARK H PARENT
REMARK Flexibility Score: inf
ROOT
ATOM      1  C   UNL     1     128.760 144.434 105.794  1.00  0.00     0.000 C 
ENDROOT
BRANCH   1   2
ATOM      2  C   UNL     1     127.879 145.690 105.674  1.00  0.00     0.000 C 
BRANCH   2   3
ATOM      3  C   UNL     1     126.896 145.836 106.847  1.00  0.00     0.006 C 
BRANCH   3   4
ATOM      4  C   UNL     1     127.606 146.041 108.191  1.00  0.00     0.053 C 
BRANCH   4   5
ATOM      5  C   UNL     1     127.256 144.937 109.139  1.00  0.00     0.041 C 
ATOM      6  O   UNL     1     127.262 143.741 108.748  1.00  0.00    -0.550 OA
ATOM      7  O   UNL     1     126.877 145.235 110.442  1.00  0.00    -0.550 OA
ENDBRANCH   4   5
ENDBRANCH   3   4
ENDBRANCH   2   3
ENDBRANCH   1   2
BRANCH   1   8
ATOM      8  C   UNL     1     128.032 143.157 105.345  1.00  0.00     0.000 C 
BRANCH   8   9
ATOM      9  C   UNL     1     128.474 141.913 106.130  1.00  0.00     0.006 C 
BRANCH   9  10
ATOM     10  C   UNL     1     127.272 141.037 106.493  1.00  0.00     0.053 C 
BRANCH  10  11
ATOM     11  C   UNL     1     127.644 140.045 107.550  1.00  0.00     0.041 C 
ATOM     12  O   UNL     1     127.253 138.852 107.462  1.00  0.00    -0.550 OA
ATOM     13  O   UNL     1     128.379 140.450 108.655  1.00  0.00    -0.550 OA
ENDBRANCH  10  11
ENDBRANCH   9  10
ENDBRANCH   8   9
ENDBRANCH   1   8
TORSDOF 8
ENDMDL
