MODEL 1
REMARK VINA RESULT:    -4.036      0.000      0.000
REMARK INTER + INTRA:          -8.092
REMARK INTER:                  -7.576
REMARK INTRA:                  -0.516
REMARK UNBOUND:                -0.516
REMARK SMILES O=C([O-])CCCCCCCCCCCCCCC(=O)[O-]
REMARK SMILES IDX 10 1 9 2 8 3 7 4 6 5 5 6 4 7 2 8 1 9 3 10 11 11 12 12 13 13
REMARK SMILES IDX 14 14 15 15 16 16 17 17 18 18 19 19 20 20
REMARK H PARENT
REMARK Flexibility Score: inf
ROOT
ATOM      1  C   UNL     1       1.305  16.013  22.721  1.00  0.00     0.000 C 
ENDROOT
BRANCH   1   2
ATOM      2  C   UNL     1       0.178  15.996  21.677  1.00  0.00     0.000 C 
BRANCH   2   3
ATOM      3  C   UNL     1      -1.099  16.697  22.167  1.00  0.00     0.000 C 
BRANCH   3   4
ATOM      4  C   UNL     1      -2.379  15.941  21.770  1.00  0.00     0.000 C 
BRANCH   4   5
ATOM      5  C   UNL     1      -3.528  16.162  22.768  1.00  0.00     0.000 C 
BRANCH   5   6
ATOM      6  C   UNL     1      -4.850  16.533  22.075  1.00  0.00     0.006 C 
BRANCH   6   7
ATOM      7  C   UNL     1      -5.415  15.372  21.245  1.00  0.00     0.053 C 
BRANCH   7   8
ATOM      8  C   UNL     1      -6.912  15.407  21.179  1.00  0.00     0.041 C 
ATOM      9  O   UNL     1      -7.587  14.437  21.615  1.00  0.00    -0.550 OA
ATOM     10  O   UNL     1      -7.559  16.496  20.611  1.00  0.00    -0.550 OA
ENDBRANCH   7   8
ENDBRANCH   6   7
ENDBRANCH   5   6
ENDBRANCH   4   5
ENDBRANCH   3   4
ENDBRANCH   2   3
ENDBRANCH   1   2
BRANCH   1  11
ATOM     11  C   UNL     1       2.676  16.145  22.047  1.00  0.00     0.000 C 
BRANCH  11  12
ATOM     12  C   UNL     1       3.801  15.710  22.998  1.00  0.00     0.000 C 
BRANCH  12  13
ATOM     13  C   UNL     1       4.523  14.440  22.519  1.00  0.00     0.000 C 
BRANCH  13  14
ATOM     14  C   UNL     1       6.017  14.681  22.238  1.00  0.00     0.000 C 
BRANCH  14  15
ATOM     15  C   UNL     1       6.303  16.110  21.751  1.00  0.00     0.000 C 
BRANCH  15  16
ATOM     16  C   UNL     1       7.649  16.652  22.258  1.00  0.00     0.006 C 
BRANCH  16  17
ATOM     17  C   UNL     1       8.548  17.064  21.089  1.00  0.00     0.053 C 
BRANCH  17  18
ATOM     18  C   UNL     1       9.620  16.045  20.867  1.00  0.00     0.041 C 
ATOM     19  O   UNL     1      10.191  15.960  19.747  1.00  0.00    -0.550 OA
ATOM     20  O   UNL     1       9.956  15.155  21.880  1.00  0.00    -0.550 OA
ENDBRANCH  17  18
ENDBRANCH  16  17
ENDBRANCH  15  16
ENDBRANCH  14  15
ENDBRANCH  13  14
ENDBRANCH  12  13
ENDBRANCH  11  12
ENDBRANCH   1  11
TORSDOF 15
ENDMDL
MODEL 2
REMARK VINA RESULT:    -3.986      1.772      3.682
REMARK INTER + INTRA:          -7.997
REMARK INTER:                  -7.392
REMARK INTRA:                  -0.605
REMARK UNBOUND:                -0.516
REMARK SMILES O=C([O-])CCCCCCCCCCCCCCC(=O)[O-]
REMARK SMILES IDX 10 1 9 2 8 3 7 4 6 5 5 6 4 7 2 8 1 9 3 10 11 11 12 12 13 13
REMARK SMILES IDX 14 14 15 15 16 16 17 17 18 18 19 19 20 20
REMARK H PARENT
REMARK Flexibility Score: inf
ROOT
ATOM      1  C   UNL     1       4.727  14.933  22.153  1.00  0.00     0.000 C 
ENDROOT
BRANCH   1   2
ATOM      2  C   UNL     1       3.737  15.660  23.076  1.00  0.00     0.000 C 
BRANCH   2   3
ATOM      3  C   UNL     1       2.588  16.332  22.308  1.00  0.00     0.000 C 
BRANCH   3   4
ATOM      4  C   UNL     1       1.207  15.992  22.894  1.00  0.00     0.000 C 
BRANCH   4   5
ATOM      5  C   UNL     1       0.101  15.977  21.825  1.00  0.00     0.000 C 
BRANCH   5   6
ATOM      6  C   UNL     1      -1.255  16.460  22.370  1.00  0.00     0.006 C 
BRANCH   6   7
ATOM      7  C   UNL     1      -2.432  15.950  21.527  1.00  0.00     0.053 C 
BRANCH   7   8
ATOM      8  C   UNL     1      -3.748  16.439  22.052  1.00  0.00     0.041 C 
ATOM      9  O   UNL     1      -4.060  17.654  21.944  1.00  0.00    -0.550 OA
ATOM     10  O   UNL     1      -4.616  15.559  22.687  1.00  0.00    -0.550 OA
ENDBRANCH   7   8
ENDBRANCH   6   7
ENDBRANCH   5   6
ENDBRANCH   4   5
ENDBRANCH   3   4
ENDBRANCH   2   3
ENDBRANCH   1   2
BRANCH   1  11
ATOM     11  C   UNL     1       6.176  15.258  22.537  1.00  0.00     0.000 C 
BRANCH  11  12
ATOM     12  C   UNL     1       6.762  16.335  21.613  1.00  0.00     0.000 C 
BRANCH  12  13
ATOM     13  C   UNL     1       8.282  16.499  21.782  1.00  0.00     0.000 C 
BRANCH  13  14
ATOM     14  C   UNL     1       8.869  17.565  20.841  1.00  0.00     0.000 C 
BRANCH  14  15
ATOM     15  C   UNL     1      10.274  17.198  20.336  1.00  0.00     0.000 C 
BRANCH  15  16
ATOM     16  C   UNL     1      10.691  15.771  20.723  1.00  0.00     0.006 C 
BRANCH  16  17
ATOM     17  C   UNL     1      10.789  14.876  19.484  1.00  0.00     0.053 C 
BRANCH  17  18
ATOM     18  C   UNL     1      10.212  13.525  19.765  1.00  0.00     0.041 C 
ATOM     19  O   UNL     1      10.514  12.543  19.037  1.00  0.00    -0.550 OA
ATOM     20  O   UNL     1       9.302  13.359  20.802  1.00  0.00    -0.550 OA
ENDBRANCH  17  18
ENDBRANCH  16  17
ENDBRANCH  15  16
ENDBRANCH  14  15
ENDBRANCH  13  14
ENDBRANCH  12  13
ENDBRANCH  11  12
ENDBRANCH   1  11
TORSDOF 15
ENDMDL
MODEL 3
REMARK VINA RESULT:    -3.984      1.051     12.401
REMARK INTER + INTRA:          -7.993
REMARK INTER:                  -7.512
REMARK INTRA:                  -0.481
REMARK UNBOUND:                -0.516
REMARK SMILES O=C([O-])CCCCCCCCCCCCCCC(=O)[O-]
REMARK SMILES IDX 10 1 9 2 8 3 7 4 6 5 5 6 4 7 2 8 1 9 3 10 11 11 12 12 13 13
REMARK SMILES IDX 14 14 15 15 16 16 17 17 18 18 19 19 20 20
REMARK H PARENT
REMARK Flexibility Score: inf
ROOT
ATOM      1  C   UNL     1       1.117  15.979  21.920  1.00  0.00     0.000 C 
ENDROOT
BRANCH   1   2
ATOM      2  C   UNL     1       2.329  16.346  22.788  1.00  0.00     0.000 C 
BRANCH   2   3
ATOM      3  C   UNL     1       3.594  15.559  22.410  1.00  0.00     0.000 C 
BRANCH   3   4
ATOM      4  C   UNL     1       4.637  16.427  21.685  1.00  0.00     0.000 C 
BRANCH   4   5
ATOM      5  C   UNL     1       6.005  15.734  21.572  1.00  0.00     0.000 C 
BRANCH   5   6
ATOM      6  C   UNL     1       7.019  16.254  22.605  1.00  0.00     0.006 C 
BRANCH   6   7
ATOM      7  C   UNL     1       8.451  15.797  22.292  1.00  0.00     0.053 C 
BRANCH   7   8
ATOM      8  C   UNL     1       9.019  16.511  21.103  1.00  0.00     0.041 C 
ATOM      9  O   UNL     1       8.756  17.727  20.911  1.00  0.00    -0.550 OA
ATOM     10  O   UNL     1       9.812  15.826  20.193  1.00  0.00    -0.550 OA
ENDBRANCH   7   8
ENDBRANCH   6   7
ENDBRANCH   5   6
ENDBRANCH   4   5
ENDBRANCH   3   4
ENDBRANCH   2   3
ENDBRANCH   1   2
BRANCH   1  11
ATOM     11  C   UNL     1      -0.190  16.442  22.577  1.00  0.00     0.000 C 
BRANCH  11  12
ATOM     12  C   UNL     1      -1.238  16.811  21.517  1.00  0.00     0.000 C 
BRANCH  12  13
ATOM     13  C   UNL     1      -2.547  16.020  21.677  1.00  0.00     0.000 C 
BRANCH  13  14
ATOM     14  C   UNL     1      -3.670  16.859  22.312  1.00  0.00     0.000 C 
BRANCH  14  15
ATOM     15  C   UNL     1      -4.959  16.051  22.534  1.00  0.00     0.000 C 
BRANCH  15  16
ATOM     16  C   UNL     1      -5.436  15.332  21.263  1.00  0.00     0.006 C 
BRANCH  16  17
ATOM     17  C   UNL     1      -6.742  14.575  21.521  1.00  0.00     0.053 C 
BRANCH  17  18
ATOM     18  C   UNL     1      -7.908  15.510  21.480  1.00  0.00     0.041 C 
ATOM     19  O   UNL     1      -8.903  15.316  22.228  1.00  0.00    -0.550 OA
ATOM     20  O   UNL     1      -7.921  16.568  20.579  1.00  0.00    -0.550 OA
ENDBRANCH  17  18
ENDBRANCH  16  17
ENDBRANCH  15  16
ENDBRANCH  14  15
ENDBRANCH  13  14
ENDBRANCH  12  13
ENDBRANCH  11  12
ENDBRANCH   1  11
TORSDOF 15
ENDMDL
MODEL 4
REMARK VINA RESULT:    -3.970      0.932     12.133
REMARK INTER + INTRA:          -7.968
REMARK INTER:                  -7.456
REMARK INTRA:                  -0.512
REMARK UNBOUND:                -0.516
REMARK SMILES O=C([O-])CCCCCCCCCCCCCCC(=O)[O-]
REMARK SMILES IDX 10 1 9 2 8 3 7 4 6 5 5 6 4 7 2 8 1 9 3 10 11 11 12 12 13 13
REMARK SMILES IDX 14 14 15 15 16 16 17 17 18 18 19 19 20 20
REMARK H PARENT
REMARK Flexibility Score: inf
ROOT
ATOM      1  C   UNL     1       2.028  16.062  21.993  1.00  0.00     0.000 C 
ENDROOT
BRANCH   1   2
ATOM      2  C   UNL     1       3.148  16.009  23.043  1.00  0.00     0.000 C 
BRANCH   2   3
ATOM      3  C   UNL     1       4.341  15.148  22.599  1.00  0.00     0.000 C 
BRANCH   3   4
ATOM      4  C   UNL     1       5.479  15.983  21.987  1.00  0.00     0.000 C 
BRANCH   4   5
ATOM      5  C   UNL     1       6.751  15.968  22.850  1.00  0.00     0.000 C 
BRANCH   5   6
ATOM      6  C   UNL     1       8.025  15.729  22.022  1.00  0.00     0.006 C 
BRANCH   6   7
ATOM      7  C   UNL     1       8.413  16.958  21.188  1.00  0.00     0.053 C 
BRANCH   7   8
ATOM      8  C   UNL     1       9.703  16.750  20.453  1.00  0.00     0.041 C 
ATOM      9  O   UNL     1      10.461  17.728  20.219  1.00  0.00    -0.550 OA
ATOM     10  O   UNL     1      10.053  15.485  20.002  1.00  0.00    -0.550 OA
ENDBRANCH   7   8
ENDBRANCH   6   7
ENDBRANCH   5   6
ENDBRANCH   4   5
ENDBRANCH   3   4
ENDBRANCH   2   3
ENDBRANCH   1   2
BRANCH   1  11
ATOM     11  C   UNL     1       0.647  16.028  22.660  1.00  0.00     0.000 C 
BRANCH  11  12
ATOM     12  C   UNL     1      -0.468  15.901  21.612  1.00  0.00     0.000 C 
BRANCH  12  13
ATOM     13  C   UNL     1      -1.366  17.148  21.548  1.00  0.00     0.000 C 
BRANCH  13  14
ATOM     14  C   UNL     1      -2.119  17.402  22.865  1.00  0.00     0.000 C 
BRANCH  14  15
ATOM     15  C   UNL     1      -3.255  16.394  23.100  1.00  0.00     0.000 C 
BRANCH  15  16
ATOM     16  C   UNL     1      -4.369  16.497  22.046  1.00  0.00     0.006 C 
BRANCH  16  17
ATOM     17  C   UNL     1      -5.728  16.134  22.650  1.00  0.00     0.053 C 
BRANCH  17  18
ATOM     18  C   UNL     1      -6.622  15.536  21.611  1.00  0.00     0.041 C 
ATOM     19  O   UNL     1      -6.700  14.285  21.485  1.00  0.00    -0.550 OA
ATOM     20  O   UNL     1      -7.333  16.360  20.746  1.00  0.00    -0.550 OA
ENDBRANCH  17  18
ENDBRANCH  16  17
ENDBRANCH  15  16
ENDBRANCH  14  15
ENDBRANCH  13  14
ENDBRANCH  12  13
ENDBRANCH  11  12
ENDBRANCH   1  11
TORSDOF 15
ENDMDL
MODEL 5
REMARK VINA RESULT:    -3.906      1.812     12.021
REMARK INTER + INTRA:          -7.847
REMARK INTER:                  -7.079
REMARK INTRA:                  -0.768
REMARK UNBOUND:                -0.516
REMARK SMILES O=C([O-])CCCCCCCCCCCCCCC(=O)[O-]
REMARK SMILES IDX 10 1 9 2 8 3 7 4 6 5 5 6 4 7 2 8 1 9 3 10 11 11 12 12 13 13
REMARK SMILES IDX 14 14 15 15 16 16 17 17 18 18 19 19 20 20
REMARK H PARENT
REMARK Flexibility Score: inf
ROOT
ATOM      1  C   UNL     1      -1.292  17.107  21.543  1.00  0.00     0.000 C 
ENDROOT
BRANCH   1   2
ATOM      2  C   UNL     1      -0.401  15.859  21.629  1.00  0.00     0.000 C 
BRANCH   2   3
ATOM      3  C   UNL     1       0.745  16.014  22.642  1.00  0.00     0.000 C 
BRANCH   3   4
ATOM      4  C   UNL     1       2.101  16.282  21.965  1.00  0.00     0.000 C 
BRANCH   4   5
ATOM      5  C   UNL     1       3.278  15.674  22.745  1.00  0.00     0.000 C 
BRANCH   5   6
ATOM      6  C   UNL     1       4.632  15.910  22.052  1.00  0.00     0.006 C 
BRANCH   6   7
ATOM      7  C   UNL     1       5.595  14.731  22.245  1.00  0.00     0.053 C 
BRANCH   7   8
ATOM      8  C   UNL     1       7.005  15.096  21.892  1.00  0.00     0.041 C 
ATOM      9  O   UNL     1       7.367  16.302  21.903  1.00  0.00    -0.550 OA
ATOM     10  O   UNL     1       7.908  14.110  21.521  1.00  0.00    -0.550 OA
ENDBRANCH   7   8
ENDBRANCH   6   7
ENDBRANCH   5   6
ENDBRANCH   4   5
ENDBRANCH   3   4
ENDBRANCH   2   3
ENDBRANCH   1   2
BRANCH   1  11
ATOM     11  C   UNL     1      -2.206  17.216  22.770  1.00  0.00     0.000 C 
BRANCH  11  12
ATOM     12  C   UNL     1      -3.682  17.283  22.353  1.00  0.00     0.000 C 
BRANCH  12  13
ATOM     13  C   UNL     1      -4.448  15.987  22.668  1.00  0.00     0.000 C 
BRANCH  13  14
ATOM     14  C   UNL     1      -5.011  15.313  21.406  1.00  0.00     0.000 C 
BRANCH  14  15
ATOM     15  C   UNL     1      -6.412  14.718  21.628  1.00  0.00     0.000 C 
BRANCH  15  16
ATOM     16  C   UNL     1      -7.407  15.739  22.199  1.00  0.00     0.006 C 
BRANCH  16  17
ATOM     17  C   UNL     1      -8.360  16.241  21.110  1.00  0.00     0.053 C 
BRANCH  17  18
ATOM     18  C   UNL     1      -7.959  17.606  20.649  1.00  0.00     0.041 C 
ATOM     19  O   UNL     1      -8.520  18.128  19.649  1.00  0.00    -0.550 OA
ATOM     20  O   UNL     1      -6.930  18.284  21.292  1.00  0.00    -0.550 OA
ENDBRANCH  17  18
ENDBRANCH  16  17
ENDBRANCH  15  16
ENDBRANCH  14  15
ENDBRANCH  13  14
ENDBRANCH  12  13
ENDBRANCH  11  12
ENDBRANCH   1  11
TORSDOF 15
ENDMDL
MODEL 6
REMARK VINA RESULT:    -3.857      1.268      2.055
REMARK INTER + INTRA:          -7.756
REMARK INTER:                  -7.168
REMARK INTRA:                  -0.588
REMARK UNBOUND:                -0.516
REMARK SMILES O=C([O-])CCCCCCCCCCCCCCC(=O)[O-]
REMARK SMILES IDX 10 1 9 2 8 3 7 4 6 5 5 6 4 7 2 8 1 9 3 10 11 11 12 12 13 13
REMARK SMILES IDX 14 14 15 15 16 16 17 17 18 18 19 19 20 20
REMARK H PARENT
REMARK Flexibility Score: inf
ROOT
ATOM      1  C   UNL     1      -0.507  15.304  21.259  1.00  0.00     0.000 C 
ENDROOT
BRANCH   1   2
ATOM      2  C   UNL     1      -2.012  15.601  21.170  1.00  0.00     0.000 C 
BRANCH   2   3
ATOM      3  C   UNL     1      -2.448  16.754  22.087  1.00  0.00     0.000 C 
BRANCH   3   4
ATOM      4  C   UNL     1      -3.952  16.720  22.408  1.00  0.00     0.000 C 
BRANCH   4   5
ATOM      5  C   UNL     1      -4.692  15.609  21.644  1.00  0.00     0.000 C 
BRANCH   5   6
ATOM      6  C   UNL     1      -6.161  15.469  22.079  1.00  0.00     0.006 C 
BRANCH   6   7
ATOM      7  C   UNL     1      -7.132  15.608  20.898  1.00  0.00     0.053 C 
BRANCH   7   8
ATOM      8  C   UNL     1      -7.886  16.903  20.943  1.00  0.00     0.041 C 
ATOM      9  O   UNL     1      -8.030  17.513  22.035  1.00  0.00    -0.550 OA
ATOM     10  O   UNL     1      -8.455  17.419  19.786  1.00  0.00    -0.550 OA
ENDBRANCH   7   8
ENDBRANCH   6   7
ENDBRANCH   5   6
ENDBRANCH   4   5
ENDBRANCH   3   4
ENDBRANCH   2   3
ENDBRANCH   1   2
BRANCH   1  11
ATOM     11  C   UNL     1       0.229  16.422  22.007  1.00  0.00     0.000 C 
BRANCH  11  12
ATOM     12  C   UNL     1       1.509  15.891  22.669  1.00  0.00     0.000 C 
BRANCH  12  13
ATOM     13  C   UNL     1       2.788  16.440  22.015  1.00  0.00     0.000 C 
BRANCH  13  14
ATOM     14  C   UNL     1       4.038  15.624  22.386  1.00  0.00     0.000 C 
BRANCH  14  15
ATOM     15  C   UNL     1       5.300  16.111  21.657  1.00  0.00     0.000 C 
BRANCH  15  16
ATOM     16  C   UNL     1       6.556  16.057  22.541  1.00  0.00     0.006 C 
BRANCH  16  17
ATOM     17  C   UNL     1       7.583  15.073  21.972  1.00  0.00     0.053 C 
BRANCH  17  18
ATOM     18  C   UNL     1       8.838  15.789  21.586  1.00  0.00     0.041 C 
ATOM     19  O   UNL     1       9.961  15.279  21.839  1.00  0.00    -0.550 OA
ATOM     20  O   UNL     1       8.770  17.043  20.990  1.00  0.00    -0.550 OA
ENDBRANCH  17  18
ENDBRANCH  16  17
ENDBRANCH  15  16
ENDBRANCH  14  15
ENDBRANCH  13  14
ENDBRANCH  12  13
ENDBRANCH  11  12
ENDBRANCH   1  11
TORSDOF 15
ENDMDL
MODEL 7
REMARK VINA RESULT:    -3.511      7.507     11.614
REMARK INTER + INTRA:          -7.106
REMARK INTER:                  -5.850
REMARK INTRA:                  -1.256
REMARK UNBOUND:                -0.516
REMARK SMILES O=C([O-])CCCCCCCCCCCCCCC(=O)[O-]
REMARK SMILES IDX 10 1 9 2 8 3 7 4 6 5 5 6 4 7 2 8 1 9 3 10 11 11 12 12 13 13
REMARK SMILES IDX 14 14 15 15 16 16 17 17 18 18 19 19 20 20
REMARK H PARENT
REMARK Flexibility Score: inf
ROOT
ATOM      1  C   UNL     1      10.168  13.261  19.202  1.00  0.00     0.000 C 
ENDROOT
BRANCH   1   2
ATOM      2  C   UNL     1      10.758  12.356  18.110  1.00  0.00     0.000 C 
BRANCH   2   3
ATOM      3  C   UNL     1      11.112  10.953  18.625  1.00  0.00     0.000 C 
BRANCH   3   4
ATOM      4  C   UNL     1       9.923   9.978  18.553  1.00  0.00     0.000 C 
BRANCH   4   5
ATOM      5  C   UNL     1      10.157   8.701  19.377  1.00  0.00     0.000 C 
BRANCH   5   6
ATOM      6  C   UNL     1      10.971   8.963  20.656  1.00  0.00     0.006 C 
BRANCH   6   7
ATOM      7  C   UNL     1      10.368   8.262  21.881  1.00  0.00     0.053 C 
BRANCH   7   8
ATOM      8  C   UNL     1       9.087   8.906  22.318  1.00  0.00     0.041 C 
ATOM      9  O   UNL     1       9.050  10.141  22.560  1.00  0.00    -0.550 OA
ATOM     10  O   UNL     1       7.944   8.137  22.490  1.00  0.00    -0.550 OA
ENDBRANCH   7   8
ENDBRANCH   6   7
ENDBRANCH   5   6
ENDBRANCH   4   5
ENDBRANCH   3   4
ENDBRANCH   2   3
ENDBRANCH   1   2
BRANCH   1  11
ATOM     11  C   UNL     1      11.125  13.376  20.396  1.00  0.00     0.000 C 
BRANCH  11  12
ATOM     12  C   UNL     1      11.120  14.800  20.971  1.00  0.00     0.000 C 
BRANCH  12  13
ATOM     13  C   UNL     1      10.432  15.813  20.041  1.00  0.00     0.000 C 
BRANCH  13  14
ATOM     14  C   UNL     1       9.932  17.059  20.791  1.00  0.00     0.000 C 
BRANCH  14  15
ATOM     15  C   UNL     1       8.444  16.967  21.165  1.00  0.00     0.000 C 
BRANCH  15  16
ATOM     16  C   UNL     1       8.160  15.877  22.210  1.00  0.00     0.006 C 
BRANCH  16  17
ATOM     17  C   UNL     1       7.410  14.699  21.582  1.00  0.00     0.053 C 
BRANCH  17  18
ATOM     18  C   UNL     1       6.121  14.454  22.299  1.00  0.00     0.041 C 
ATOM     19  O   UNL     1       6.022  13.501  23.116  1.00  0.00    -0.550 OA
ATOM     20  O   UNL     1       5.012  15.246  22.028  1.00  0.00    -0.550 OA
ENDBRANCH  17  18
ENDBRANCH  16  17
ENDBRANCH  15  16
ENDBRANCH  14  15
ENDBRANCH  13  14
ENDBRANCH  12  13
ENDBRANCH  11  12
ENDBRANCH   1  11
TORSDOF 15
ENDMDL
MODEL 8
REMARK VINA RESULT:    -3.463      1.469      2.357
REMARK INTER + INTRA:          -7.016
REMARK INTER:                  -6.449
REMARK INTRA:                  -0.567
REMARK UNBOUND:                -0.516
REMARK SMILES O=C([O-])CCCCCCCCCCCCCCC(=O)[O-]
REMARK SMILES IDX 10 1 9 2 8 3 7 4 6 5 5 6 4 7 2 8 1 9 3 10 11 11 12 12 13 13
REMARK SMILES IDX 14 14 15 15 16 16 17 17 18 18 19 19 20 20
REMARK H PARENT
REMARK Flexibility Score: inf
ROOT
ATOM      1  C   UNL     1       3.368  16.264  22.264  1.00  0.00     0.000 C 
ENDROOT
BRANCH   1   2
ATOM      2  C   UNL     1       2.005  16.088  22.951  1.00  0.00     0.000 C 
BRANCH   2   3
ATOM      3  C   UNL     1       0.841  16.001  21.951  1.00  0.00     0.000 C 
BRANCH   3   4
ATOM      4  C   UNL     1      -0.512  16.373  22.583  1.00  0.00     0.000 C 
BRANCH   4   5
ATOM      5  C   UNL     1      -1.691  16.161  21.620  1.00  0.00     0.000 C 
BRANCH   5   6
ATOM      6  C   UNL     1      -2.888  17.072  21.940  1.00  0.00     0.006 C 
BRANCH   6   7
ATOM      7  C   UNL     1      -3.837  16.442  22.969  1.00  0.00     0.053 C 
BRANCH   7   8
ATOM      8  C   UNL     1      -5.079  15.902  22.327  1.00  0.00     0.041 C 
ATOM      9  O   UNL     1      -5.006  15.271  21.240  1.00  0.00    -0.550 OA
ATOM     10  O   UNL     1      -6.319  16.123  22.912  1.00  0.00    -0.550 OA
ENDBRANCH   7   8
ENDBRANCH   6   7
ENDBRANCH   5   6
ENDBRANCH   4   5
ENDBRANCH   3   4
ENDBRANCH   2   3
ENDBRANCH   1   2
BRANCH   1  11
ATOM     11  C   UNL     1       4.314  15.111  22.619  1.00  0.00     0.000 C 
BRANCH  11  12
ATOM     12  C   UNL     1       5.668  15.641  23.113  1.00  0.00     0.000 C 
BRANCH  12  13
ATOM     13  C   UNL     1       6.747  15.626  22.017  1.00  0.00     0.000 C 
BRANCH  13  14
ATOM     14  C   UNL     1       7.160  14.200  21.615  1.00  0.00     0.000 C 
BRANCH  14  15
ATOM     15  C   UNL     1       8.433  13.727  22.336  1.00  0.00     0.000 C 
BRANCH  15  16
ATOM     16  C   UNL     1       9.642  13.617  21.395  1.00  0.00     0.006 C 
BRANCH  16  17
ATOM     17  C   UNL     1      10.488  14.893  21.441  1.00  0.00     0.053 C 
BRANCH  17  18
ATOM     18  C   UNL     1      10.379  15.642  20.151  1.00  0.00     0.041 C 
ATOM     19  O   UNL     1      10.757  15.109  19.074  1.00  0.00    -0.550 OA
ATOM     20  O   UNL     1       9.906  16.949  20.143  1.00  0.00    -0.550 OA
ENDBRANCH  17  18
ENDBRANCH  16  17
ENDBRANCH  15  16
ENDBRANCH  14  15
ENDBRANCH  13  14
ENDBRANCH  12  13
ENDBRANCH  11  12
ENDBRANCH   1  11
TORSDOF 15
ENDMDL
MODEL 9
REMARK VINA RESULT:    -3.425      1.503     12.007
REMARK INTER + INTRA:          -6.944
REMARK INTER:                  -6.391
REMARK INTRA:                  -0.553
REMARK UNBOUND:                -0.516
REMARK SMILES O=C([O-])CCCCCCCCCCCCCCC(=O)[O-]
REMARK SMILES IDX 10 1 9 2 8 3 7 4 6 5 5 6 4 7 2 8 1 9 3 10 11 11 12 12 13 13
REMARK SMILES IDX 14 14 15 15 16 16 17 17 18 18 19 19 20 20
REMARK H PARENT
REMARK Flexibility Score: inf
ROOT
ATOM      1  C   UNL     1       5.315  15.871  22.135  1.00  0.00     0.000 C 
ENDROOT
BRANCH   1   2
ATOM      2  C   UNL     1       6.547  15.549  22.994  1.00  0.00     0.000 C 
BRANCH   2   3
ATOM      3  C   UNL     1       6.968  14.074  22.904  1.00  0.00     0.000 C 
BRANCH   3   4
ATOM      4  C   UNL     1       7.771  13.765  21.628  1.00  0.00     0.000 C 
BRANCH   4   5
ATOM      5  C   UNL     1       9.095  13.041  21.925  1.00  0.00     0.000 C 
BRANCH   5   6
ATOM      6  C   UNL     1      10.326  13.854  21.489  1.00  0.00     0.006 C 
BRANCH   6   7
ATOM      7  C   UNL     1      10.069  15.367  21.544  1.00  0.00     0.053 C 
BRANCH   7   8
ATOM      8  C   UNL     1      10.302  16.022  20.216  1.00  0.00     0.041 C 
ATOM      9  O   UNL     1      10.670  15.334  19.227  1.00  0.00    -0.550 OA
ATOM     10  O   UNL     1      10.141  17.394  20.078  1.00  0.00    -0.550 OA
ENDBRANCH   7   8
ENDBRANCH   6   7
ENDBRANCH   5   6
ENDBRANCH   4   5
ENDBRANCH   3   4
ENDBRANCH   2   3
ENDBRANCH   1   2
BRANCH   1  11
ATOM     11  C   UNL     1       4.020  15.649  22.926  1.00  0.00     0.000 C 
BRANCH  11  12
ATOM     12  C   UNL     1       2.803  16.172  22.148  1.00  0.00     0.000 C 
BRANCH  12  13
ATOM     13  C   UNL     1       1.495  16.059  22.948  1.00  0.00     0.000 C 
BRANCH  13  14
ATOM     14  C   UNL     1       0.247  16.166  22.055  1.00  0.00     0.000 C 
BRANCH  14  15
ATOM     15  C   UNL     1      -1.004  16.602  22.836  1.00  0.00     0.000 C 
BRANCH  15  16
ATOM     16  C   UNL     1      -2.277  16.585  21.977  1.00  0.00     0.006 C 
BRANCH  16  17
ATOM     17  C   UNL     1      -3.523  16.401  22.849  1.00  0.00     0.053 C 
BRANCH  17  18
ATOM     18  C   UNL     1      -4.757  16.383  22.005  1.00  0.00     0.041 C 
ATOM     19  O   UNL     1      -5.166  15.303  21.502  1.00  0.00    -0.550 OA
ATOM     20  O   UNL     1      -5.430  17.568  21.731  1.00  0.00    -0.550 OA
ENDBRANCH  17  18
ENDBRANCH  16  17
ENDBRANCH  15  16
ENDBRANCH  14  15
ENDBRANCH  13  14
ENDBRANCH  12  13
ENDBRANCH  11  12
ENDBRANCH   1  11
TORSDOF 15
ENDMDL
