MODEL 1
REMARK VINA RESULT:    -3.787      0.000      0.000
REMARK INTER + INTRA:          -5.559
REMARK INTER:                  -5.336
REMARK INTRA:                  -0.223
REMARK UNBOUND:                -0.223
REMARK SMILES CC1=CCC(=C(C)C)CCC(C)=CCC1
REMARK SMILES IDX 5 1 6 2 7 3 8 4 9 5 10 6 11 7 12 8 13 9 4 11 3 12 2 13 1 14
REMARK SMILES IDX 15 15 14 16
REMARK H PARENT
REMARK Flexibility Score: 60.00
ROOT
ATOM      1  C   UNL     1     138.551 133.185 136.854  1.00  0.00    -0.067 C 
ATOM      2  C   UNL     1     138.190 133.779 138.039  1.00  0.00    -0.077 C 
ATOM      3  C   UNL     1     139.007 134.902 138.649  1.00  0.00     0.039 C 
ATOM      4  C   UNL     1     136.983 133.301 138.819  1.00  0.00     0.039 C 
ENDROOT
BRANCH   1   5
ATOM      5  C   UNL     1     139.783 133.647 136.067  1.00  0.00     0.035 C 
BRANCH   5   6
ATOM      6  C   UNL     1     139.574 134.978 135.307  1.00  0.00     0.035 C 
BRANCH   6   7
ATOM      7  C   UNL     1     139.874 134.943 133.811  1.00  0.00    -0.077 C 
ATOM      8  C   UNL     1     141.257 135.347 133.353  1.00  0.00     0.039 C 
ATOM      9  C   UNL     1     138.959 134.683 132.840  1.00  0.00    -0.028 CG0
ATOM     10  G   UNL     1     137.584 134.090 133.024  1.00  0.00     0.000 G0
ENDBRANCH   6   7
ENDBRANCH   5   6
ENDBRANCH   1   5
BRANCH   1  11
ATOM     11  C   UNL     1     137.882 131.889 136.400  1.00  0.00     0.058 C 
BRANCH  11  12
ATOM     12  C   UNL     1     136.584 132.035 135.627  1.00  0.00    -0.024 C 
ATOM     13  C   UNL     1     136.433 132.243 134.294  1.00  0.00    -0.077 C 
ATOM     14  C   UNL     1     135.030 132.235 133.740  1.00  0.00     0.039 C 
BRANCH  13  15
ATOM     15  C   UNL     1     137.577 132.600 133.366  1.00  0.00     0.034 C 
BRANCH  15  16
ATOM     16  C   UNL     1     137.593 134.090 132.998  1.00  0.00     0.032 CG0
ATOM     17  G   UNL     1     138.975 134.672 132.838  1.00  0.00     0.000 G0
ENDBRANCH  15  16
ENDBRANCH  13  15
ENDBRANCH  11  12
ENDBRANCH   1  11
TORSDOF 0
ENDMDL
MODEL 2
REMARK VINA RESULT:    -3.755      3.704      5.120
REMARK INTER + INTRA:          -5.515
REMARK INTER:                  -5.104
REMARK INTRA:                  -0.411
REMARK UNBOUND:                -0.223
REMARK SMILES CC1=CCC(=C(C)C)CCC(C)=CCC1
REMARK SMILES IDX 5 1 6 2 7 3 8 4 9 5 10 6 11 7 12 8 13 9 4 11 3 12 2 13 1 14
REMARK SMILES IDX 15 15 14 16
REMARK H PARENT
REMARK Flexibility Score: 60.00
ROOT
ATOM      1  C   UNL     1     133.511 134.110 136.865  1.00  0.00    -0.067 C 
ATOM      2  C   UNL     1     133.882 134.427 138.149  1.00  0.00    -0.077 C 
ATOM      3  C   UNL     1     135.044 133.736 138.838  1.00  0.00     0.039 C 
ATOM      4  C   UNL     1     133.109 135.449 138.958  1.00  0.00     0.039 C 
ENDROOT
BRANCH   1   5
ATOM      5  C   UNL     1     134.273 133.062 136.045  1.00  0.00     0.035 C 
BRANCH   5   6
ATOM      6  C   UNL     1     135.228 133.670 134.990  1.00  0.00     0.035 C 
BRANCH   6   7
ATOM      7  C   UNL     1     135.128 133.080 133.587  1.00  0.00    -0.077 C 
ATOM      8  C   UNL     1     135.717 131.709 133.347  1.00  0.00     0.039 C 
ATOM      9  C   UNL     1     134.648 133.739 132.498  1.00  0.00    -0.028 CG0
ATOM     10  G   UNL     1     133.854 135.021 132.492  1.00  0.00     0.000 G0
ENDBRANCH   6   7
ENDBRANCH   5   6
ENDBRANCH   1   5
BRANCH   1  11
ATOM     11  C   UNL     1     132.186 134.610 136.293  1.00  0.00     0.058 C 
BRANCH  11  12
ATOM     12  C   UNL     1     132.237 135.913 135.516  1.00  0.00    -0.024 C 
ATOM     13  C   UNL     1     132.267 136.072 134.168  1.00  0.00    -0.077 C 
ATOM     14  C   UNL     1     132.194 137.480 133.629  1.00  0.00     0.039 C 
BRANCH  13  15
ATOM     15  C   UNL     1     132.491 134.934 133.194  1.00  0.00     0.034 C 
BRANCH  15  16
ATOM     16  C   UNL     1     133.850 135.023 132.487  1.00  0.00     0.032 CG0
ATOM     17  G   UNL     1     134.643 133.740 132.508  1.00  0.00     0.000 G0
ENDBRANCH  15  16
ENDBRANCH  13  15
ENDBRANCH  11  12
ENDBRANCH   1  11
TORSDOF 0
ENDMDL
MODEL 3
REMARK VINA RESULT:    -3.706      2.808      5.426
REMARK INTER + INTRA:          -5.445
REMARK INTER:                  -5.033
REMARK INTRA:                  -0.412
REMARK UNBOUND:                -0.223
REMARK SMILES CC1=CCC(=C(C)C)CCC(C)=CCC1
REMARK SMILES IDX 5 1 6 2 7 3 8 4 9 5 10 6 11 7 12 8 13 9 4 11 3 12 2 13 1 14
REMARK SMILES IDX 15 15 14 16
REMARK H PARENT
REMARK Flexibility Score: 60.00
ROOT
ATOM      1  C   UNL     1     133.807 133.424 136.075  1.00  0.00    -0.067 C 
ATOM      2  C   UNL     1     132.818 134.214 135.541  1.00  0.00    -0.077 C 
ATOM      3  C   UNL     1     131.895 135.039 136.417  1.00  0.00     0.039 C 
ATOM      4  C   UNL     1     132.570 134.255 134.047  1.00  0.00     0.039 C 
ENDROOT
BRANCH   1   5
ATOM      5  C   UNL     1     134.053 133.359 137.587  1.00  0.00     0.035 C 
BRANCH   5   6
ATOM      6  C   UNL     1     135.260 134.204 138.059  1.00  0.00     0.035 C 
BRANCH   6   7
ATOM      7  C   UNL     1     136.228 133.507 139.010  1.00  0.00    -0.077 C 
ATOM      8  C   UNL     1     135.796 133.310 140.445  1.00  0.00     0.039 C 
ATOM      9  C   UNL     1     137.501 133.145 138.698  1.00  0.00    -0.028 CG0
ATOM     10  G   UNL     1     138.109 133.067 137.320  1.00  0.00     0.000 G0
ENDBRANCH   6   7
ENDBRANCH   5   6
ENDBRANCH   1   5
BRANCH   1  11
ATOM     11  C   UNL     1     134.537 132.401 135.208  1.00  0.00     0.058 C 
BRANCH  11  12
ATOM     12  C   UNL     1     135.845 132.855 134.586  1.00  0.00    -0.024 C 
ATOM     13  C   UNL     1     137.103 132.618 135.039  1.00  0.00    -0.077 C 
ATOM     14  C   UNL     1     138.254 133.076 134.177  1.00  0.00     0.039 C 
BRANCH  13  15
ATOM     15  C   UNL     1     137.407 132.035 136.404  1.00  0.00     0.034 C 
BRANCH  15  16
ATOM     16  C   UNL     1     138.117 133.036 137.326  1.00  0.00     0.032 CG0
ATOM     17  G   UNL     1     137.506 133.151 138.700  1.00  0.00     0.000 G0
ENDBRANCH  15  16
ENDBRANCH  13  15
ENDBRANCH  11  12
ENDBRANCH   1  11
TORSDOF 0
ENDMDL
MODEL 4
REMARK VINA RESULT:    -3.680      6.123      7.425
REMARK INTER + INTRA:          -5.408
REMARK INTER:                  -4.999
REMARK INTRA:                  -0.410
REMARK UNBOUND:                -0.223
REMARK SMILES CC1=CCC(=C(C)C)CCC(C)=CCC1
REMARK SMILES IDX 5 1 6 2 7 3 8 4 9 5 10 6 11 7 12 8 13 9 4 11 3 12 2 13 1 14
REMARK SMILES IDX 15 15 14 16
REMARK H PARENT
REMARK Flexibility Score: 60.00
ROOT
ATOM      1  C   UNL     1     133.988 139.113 136.443  1.00  0.00    -0.067 C 
ATOM      2  C   UNL     1     134.356 138.655 137.685  1.00  0.00    -0.077 C 
ATOM      3  C   UNL     1     133.689 137.451 138.321  1.00  0.00     0.039 C 
ATOM      4  C   UNL     1     135.414 139.370 138.501  1.00  0.00     0.039 C 
ENDROOT
BRANCH   1   5
ATOM      5  C   UNL     1     132.905 138.410 135.617  1.00  0.00     0.035 C 
BRANCH   5   6
ATOM      6  C   UNL     1     133.462 137.393 134.593  1.00  0.00     0.035 C 
BRANCH   6   7
ATOM      7  C   UNL     1     132.989 137.572 133.154  1.00  0.00    -0.077 C 
ATOM      8  C   UNL     1     131.618 137.054 132.785  1.00  0.00     0.039 C 
ATOM      9  C   UNL     1     133.751 138.064 132.140  1.00  0.00    -0.028 CG0
ATOM     10  G   UNL     1     135.061 138.801 132.265  1.00  0.00     0.000 G0
ENDBRANCH   6   7
ENDBRANCH   5   6
ENDBRANCH   1   5
BRANCH   1  11
ATOM     11  C   UNL     1     134.471 140.472 135.941  1.00  0.00     0.058 C 
BRANCH  11  12
ATOM     12  C   UNL     1     135.812 140.491 135.231  1.00  0.00    -0.024 C 
ATOM     13  C   UNL     1     136.039 140.475 133.892  1.00  0.00    -0.077 C 
ATOM     14  C   UNL     1     137.467 140.621 133.425  1.00  0.00     0.039 C 
BRANCH  13  15
ATOM     15  C   UNL     1     134.964 140.197 132.862  1.00  0.00     0.034 C 
BRANCH  15  16
ATOM     16  C   UNL     1     135.078 138.792 132.256  1.00  0.00     0.032 CG0
ATOM     17  G   UNL     1     133.762 138.064 132.132  1.00  0.00     0.000 G0
ENDBRANCH  15  16
ENDBRANCH  13  15
ENDBRANCH  11  12
ENDBRANCH   1  11
TORSDOF 0
ENDMDL
MODEL 5
REMARK VINA RESULT:    -3.594      5.678      7.439
REMARK INTER + INTRA:          -5.288
REMARK INTER:                  -4.909
REMARK INTRA:                  -0.379
REMARK UNBOUND:                -0.223
REMARK SMILES CC1=CCC(=C(C)C)CCC(C)=CCC1
REMARK SMILES IDX 5 1 6 2 7 3 8 4 9 5 10 6 11 7 12 8 13 9 4 11 3 12 2 13 1 14
REMARK SMILES IDX 15 15 14 16
REMARK H PARENT
REMARK Flexibility Score: 60.00
ROOT
ATOM      1  C   UNL     1     138.230 139.446 135.179  1.00  0.00    -0.067 C 
ATOM      2  C   UNL     1     138.765 138.717 134.146  1.00  0.00    -0.077 C 
ATOM      3  C   UNL     1     139.980 137.830 134.341  1.00  0.00     0.039 C 
ATOM      4  C   UNL     1     138.194 138.807 132.745  1.00  0.00     0.039 C 
ENDROOT
BRANCH   1   5
ATOM      5  C   UNL     1     138.812 139.379 136.595  1.00  0.00     0.035 C 
BRANCH   5   6
ATOM      6  C   UNL     1     138.092 138.368 137.518  1.00  0.00     0.035 C 
BRANCH   6   7
ATOM      7  C   UNL     1     137.484 138.948 138.792  1.00  0.00    -0.077 C 
ATOM      8  C   UNL     1     138.401 139.205 139.965  1.00  0.00     0.039 C 
ATOM      9  C   UNL     1     136.155 139.149 138.999  1.00  0.00    -0.028 CG0
ATOM     10  G   UNL     1     135.064 139.143 137.957  1.00  0.00     0.000 G0
ENDBRANCH   6   7
ENDBRANCH   5   6
ENDBRANCH   1   5
BRANCH   1  11
ATOM     11  C   UNL     1     137.191 140.532 134.906  1.00  0.00     0.058 C 
BRANCH  11  12
ATOM     12  C   UNL     1     135.758 140.064 134.728  1.00  0.00    -0.024 C 
ATOM     13  C   UNL     1     134.757 140.093 135.644  1.00  0.00    -0.077 C 
ATOM     14  C   UNL     1     133.380 139.679 135.188  1.00  0.00     0.039 C 
BRANCH  13  15
ATOM     15  C   UNL     1     134.973 140.398 137.113  1.00  0.00     0.034 C 
BRANCH  15  16
ATOM     16  C   UNL     1     135.052 139.129 137.972  1.00  0.00     0.032 CG0
ATOM     17  G   UNL     1     136.150 139.150 139.006  1.00  0.00     0.000 G0
ENDBRANCH  15  16
ENDBRANCH  13  15
ENDBRANCH  11  12
ENDBRANCH   1  11
TORSDOF 0
ENDMDL
MODEL 6
REMARK VINA RESULT:    -3.556      3.937      5.441
REMARK INTER + INTRA:          -5.233
REMARK INTER:                  -4.953
REMARK INTRA:                  -0.280
REMARK UNBOUND:                -0.223
REMARK SMILES CC1=CCC(=C(C)C)CCC(C)=CCC1
REMARK SMILES IDX 5 1 6 2 7 3 8 4 9 5 10 6 11 7 12 8 13 9 4 11 3 12 2 13 1 14
REMARK SMILES IDX 15 15 14 16
REMARK H PARENT
REMARK Flexibility Score: 60.00
ROOT
ATOM      1  C   UNL     1     139.022 138.835 136.347  1.00  0.00    -0.067 C 
ATOM      2  C   UNL     1     138.731 138.365 137.605  1.00  0.00    -0.077 C 
ATOM      3  C   UNL     1     137.534 138.869 138.388  1.00  0.00     0.039 C 
ATOM      4  C   UNL     1     139.630 137.356 138.291  1.00  0.00     0.039 C 
ENDROOT
BRANCH   1   5
ATOM      5  C   UNL     1     138.131 139.872 135.652  1.00  0.00     0.035 C 
BRANCH   5   6
ATOM      6  C   UNL     1     137.111 139.256 134.665  1.00  0.00     0.035 C 
BRANCH   6   7
ATOM      7  C   UNL     1     137.335 139.579 133.191  1.00  0.00    -0.077 C 
ATOM      8  C   UNL     1     136.864 140.920 132.678  1.00  0.00     0.039 C 
ATOM      9  C   UNL     1     137.827 138.709 132.270  1.00  0.00    -0.028 CG0
ATOM     10  G   UNL     1     138.523 137.399 132.540  1.00  0.00     0.000 G0
ENDBRANCH   6   7
ENDBRANCH   5   6
ENDBRANCH   1   5
BRANCH   1  11
ATOM     11  C   UNL     1     140.367 138.526 135.694  1.00  0.00     0.058 C 
BRANCH  11  12
ATOM     12  C   UNL     1     140.564 137.106 135.196  1.00  0.00    -0.024 C 
ATOM     13  C   UNL     1     140.525 136.666 133.912  1.00  0.00    -0.077 C 
ATOM     14  C   UNL     1     140.871 135.219 133.658  1.00  0.00     0.039 C 
BRANCH  13  15
ATOM     15  C   UNL     1     140.038 137.509 132.751  1.00  0.00     0.034 C 
BRANCH  15  16
ATOM     16  C   UNL     1     138.524 137.389 132.530  1.00  0.00     0.032 CG0
ATOM     17  G   UNL     1     137.832 138.703 132.268  1.00  0.00     0.000 G0
ENDBRANCH  15  16
ENDBRANCH  13  15
ENDBRANCH  11  12
ENDBRANCH   1  11
TORSDOF 0
ENDMDL
MODEL 7
REMARK VINA RESULT:    -3.536      2.663      5.075
REMARK INTER + INTRA:          -5.205
REMARK INTER:                  -4.946
REMARK INTRA:                  -0.259
REMARK UNBOUND:                -0.223
REMARK SMILES CC1=CCC(=C(C)C)CCC(C)=CCC1
REMARK SMILES IDX 5 1 6 2 7 3 8 4 9 5 10 6 11 7 12 8 13 9 4 11 3 12 2 13 1 14
REMARK SMILES IDX 15 15 14 16
REMARK H PARENT
REMARK Flexibility Score: 60.00
ROOT
ATOM      1  C   UNL     1     140.282 137.082 135.342  1.00  0.00    -0.067 C 
ATOM      2  C   UNL     1     139.675 137.984 134.502  1.00  0.00    -0.077 C 
ATOM      3  C   UNL     1     138.850 139.140 135.033  1.00  0.00     0.039 C 
ATOM      4  C   UNL     1     139.760 137.831 132.996  1.00  0.00     0.039 C 
ENDROOT
BRANCH   1   5
ATOM      5  C   UNL     1     140.185 137.215 136.866  1.00  0.00     0.035 C 
BRANCH   5   6
ATOM      6  C   UNL     1     138.845 136.713 137.452  1.00  0.00     0.035 C 
BRANCH   6   7
ATOM      7  C   UNL     1     138.952 135.817 138.682  1.00  0.00    -0.077 C 
ATOM      8  C   UNL     1     139.157 136.476 140.027  1.00  0.00     0.039 C 
ATOM      9  C   UNL     1     138.989 134.458 138.654  1.00  0.00    -0.028 CG0
ATOM     10  G   UNL     1     138.635 133.565 137.492  1.00  0.00     0.000 G0
ENDBRANCH   6   7
ENDBRANCH   5   6
ENDBRANCH   1   5
BRANCH   1  11
ATOM     11  C   UNL     1     140.870 135.784 134.794  1.00  0.00     0.058 C 
BRANCH  11  12
ATOM     12  C   UNL     1     139.875 134.738 134.326  1.00  0.00    -0.024 C 
ATOM     13  C   UNL     1     139.303 133.752 135.063  1.00  0.00    -0.077 C 
ATOM     14  C   UNL     1     138.247 132.905 134.397  1.00  0.00     0.039 C 
BRANCH  13  15
ATOM     15  C   UNL     1     139.751 133.383 136.463  1.00  0.00     0.034 C 
BRANCH  15  16
ATOM     16  C   UNL     1     138.631 133.540 137.500  1.00  0.00     0.032 CG0
ATOM     17  G   UNL     1     138.981 134.445 138.655  1.00  0.00     0.000 G0
ENDBRANCH  15  16
ENDBRANCH  13  15
ENDBRANCH  11  12
ENDBRANCH   1  11
TORSDOF 0
ENDMDL
MODEL 8
REMARK VINA RESULT:    -3.498      5.787      6.578
REMARK INTER + INTRA:          -5.153
REMARK INTER:                  -4.794
REMARK INTRA:                  -0.359
REMARK UNBOUND:                -0.223
REMARK SMILES CC1=CCC(=C(C)C)CCC(C)=CCC1
REMARK SMILES IDX 5 1 6 2 7 3 8 4 9 5 10 6 11 7 12 8 13 9 4 11 3 12 2 13 1 14
REMARK SMILES IDX 15 15 14 16
REMARK H PARENT
REMARK Flexibility Score: 60.00
ROOT
ATOM      1  C   UNL     1     133.737 137.359 139.383  1.00  0.00    -0.067 C 
ATOM      2  C   UNL     1     133.204 137.555 140.634  1.00  0.00    -0.077 C 
ATOM      3  C   UNL     1     133.182 138.924 141.286  1.00  0.00     0.039 C 
ATOM      4  C   UNL     1     132.661 136.395 141.444  1.00  0.00     0.039 C 
ENDROOT
BRANCH   1   5
ATOM      5  C   UNL     1     134.309 138.521 138.563  1.00  0.00     0.035 C 
BRANCH   5   6
ATOM      6  C   UNL     1     133.374 139.003 137.429  1.00  0.00     0.035 C 
BRANCH   6   7
ATOM      7  C   UNL     1     134.047 139.293 136.091  1.00  0.00    -0.077 C 
ATOM      8  C   UNL     1     134.858 140.562 135.962  1.00  0.00     0.039 C 
ATOM      9  C   UNL     1     133.885 138.553 134.962  1.00  0.00    -0.028 CG0
ATOM     10  G   UNL     1     133.287 137.172 134.860  1.00  0.00     0.000 G0
ENDBRANCH   6   7
ENDBRANCH   5   6
ENDBRANCH   1   5
BRANCH   1  11
ATOM     11  C   UNL     1     133.999 135.947 138.863  1.00  0.00     0.058 C 
BRANCH  11  12
ATOM     12  C   UNL     1     132.948 135.366 137.934  1.00  0.00    -0.024 C 
ATOM     13  C   UNL     1     132.967 135.340 136.577  1.00  0.00    -0.077 C 
ATOM     14  C   UNL     1     131.857 134.595 135.877  1.00  0.00     0.039 C 
BRANCH  13  15
ATOM     15  C   UNL     1     133.962 136.113 135.736  1.00  0.00     0.034 C 
BRANCH  15  16
ATOM     16  C   UNL     1     133.289 137.166 134.846  1.00  0.00     0.032 CG0
ATOM     17  G   UNL     1     133.901 138.541 134.943  1.00  0.00     0.000 G0
ENDBRANCH  15  16
ENDBRANCH  13  15
ENDBRANCH  11  12
ENDBRANCH   1  11
TORSDOF 0
ENDMDL
MODEL 9
REMARK VINA RESULT:    -3.479      5.776      7.457
REMARK INTER + INTRA:          -5.125
REMARK INTER:                  -4.888
REMARK INTRA:                  -0.237
REMARK UNBOUND:                -0.223
REMARK SMILES CC1=CCC(=C(C)C)CCC(C)=CCC1
REMARK SMILES IDX 5 1 6 2 7 3 8 4 9 5 10 6 11 7 12 8 13 9 4 11 3 12 2 13 1 14
REMARK SMILES IDX 15 15 14 16
REMARK H PARENT
REMARK Flexibility Score: 60.00
ROOT
ATOM      1  C   UNL     1     133.404 138.843 135.645  1.00  0.00    -0.067 C 
ATOM      2  C   UNL     1     134.342 139.483 134.872  1.00  0.00    -0.077 C 
ATOM      3  C   UNL     1     135.301 140.502 135.460  1.00  0.00     0.039 C 
ATOM      4  C   UNL     1     134.427 139.237 133.379  1.00  0.00     0.039 C 
ENDROOT
BRANCH   1   5
ATOM      5  C   UNL     1     133.297 139.100 137.153  1.00  0.00     0.035 C 
BRANCH   5   6
ATOM      6  C   UNL     1     134.320 138.303 137.996  1.00  0.00     0.035 C 
BRANCH   6   7
ATOM      7  C   UNL     1     133.731 137.312 138.995  1.00  0.00    -0.077 C 
ATOM      8  C   UNL     1     133.432 137.803 140.392  1.00  0.00     0.039 C 
ATOM      9  C   UNL     1     133.555 135.984 138.762  1.00  0.00    -0.028 CG0
ATOM     10  G   UNL     1     133.604 135.283 137.427  1.00  0.00     0.000 G0
ENDBRANCH   6   7
ENDBRANCH   5   6
ENDBRANCH   1   5
BRANCH   1  11
ATOM     11  C   UNL     1     132.281 138.037 134.996  1.00  0.00     0.058 C 
BRANCH  11  12
ATOM     12  C   UNL     1     132.656 136.666 134.465  1.00  0.00    -0.024 C 
ATOM     13  C   UNL     1     132.584 135.477 135.117  1.00  0.00    -0.077 C 
ATOM     14  C   UNL     1     132.902 134.229 134.332  1.00  0.00     0.039 C 
BRANCH  13  15
ATOM     15  C   UNL     1     132.324 135.351 136.604  1.00  0.00     0.034 C 
BRANCH  15  16
ATOM     16  C   UNL     1     133.619 135.277 137.424  1.00  0.00     0.032 CG0
ATOM     17  G   UNL     1     133.545 135.972 138.761  1.00  0.00     0.000 G0
ENDBRANCH  15  16
ENDBRANCH  13  15
ENDBRANCH  11  12
ENDBRANCH   1  11
TORSDOF 0
ENDMDL
