MODEL 1
REMARK VINA RESULT:    -3.043      0.000      0.000
REMARK INTER + INTRA:          -3.043
REMARK INTER:                  -3.043
REMARK INTRA:                   0.000
REMARK UNBOUND:                 0.000
REMARK SMILES CC1=CC(=O)[C@H]2C[C@@H]1C2(C)C
REMARK SMILES IDX 1 1 2 2 3 3 4 4 5 5 6 6 7 7 8 8 9 9 10 10 11 11
REMARK H PARENT
REMARK Flexibility Score: inf
ROOT
ATOM      1  C   UNL     1      11.073  21.499  22.229  1.00  0.00     0.040 C 
ATOM      2  C   UNL     1      10.167  22.307  23.102  1.00  0.00    -0.066 C 
ATOM      3  C   UNL     1       9.369  23.295  22.607  1.00  0.00     0.047 C 
ATOM      4  C   UNL     1       8.517  24.021  23.603  1.00  0.00     0.159 C 
ATOM      5  O   UNL     1       7.770  24.980  23.278  1.00  0.00    -0.295 OA
ATOM      6  C   UNL     1       8.618  23.513  25.043  1.00  0.00     0.067 C 
ATOM      7  C   UNL     1       8.538  21.977  24.907  1.00  0.00     0.021 C 
ATOM      8  C   UNL     1      10.055  22.013  24.612  1.00  0.00     0.022 C 
ATOM      9  C   UNL     1      10.120  23.350  25.407  1.00  0.00    -0.019 C 
ATOM     10  C   UNL     1      11.119  24.442  24.927  1.00  0.00     0.012 C 
ATOM     11  C   UNL     1      10.339  23.124  26.924  1.00  0.00     0.012 C 
ENDROOT
TORSDOF 0
ENDMDL
MODEL 2
REMARK VINA RESULT:    -3.008      1.578      3.040
REMARK INTER + INTRA:          -3.008
REMARK INTER:                  -3.008
REMARK INTRA:                   0.000
REMARK UNBOUND:                 0.000
REMARK SMILES CC1=CC(=O)[C@H]2C[C@@H]1C2(C)C
REMARK SMILES IDX 1 1 2 2 3 3 4 4 5 5 6 6 7 7 8 8 9 9 10 10 11 11
REMARK H PARENT
REMARK Flexibility Score: inf
ROOT
ATOM      1  C   UNL     1       8.173  25.836  24.111  1.00  0.00     0.040 C 
ATOM      2  C   UNL     1       8.848  24.591  23.630  1.00  0.00    -0.066 C 
ATOM      3  C   UNL     1       8.441  23.929  22.511  1.00  0.00     0.047 C 
ATOM      4  C   UNL     1       9.213  22.694  22.154  1.00  0.00     0.159 C 
ATOM      5  O   UNL     1       8.910  21.973  21.169  1.00  0.00    -0.295 OA
ATOM      6  C   UNL     1      10.397  22.376  23.069  1.00  0.00     0.067 C 
ATOM      7  C   UNL     1      11.114  23.732  23.245  1.00  0.00     0.021 C 
ATOM      8  C   UNL     1      10.086  24.031  24.360  1.00  0.00     0.022 C 
ATOM      9  C   UNL     1       9.926  22.494  24.547  1.00  0.00    -0.019 C 
ATOM     10  C   UNL     1       8.521  21.942  24.920  1.00  0.00     0.012 C 
ATOM     11  C   UNL     1      10.959  21.910  25.543  1.00  0.00     0.012 C 
ENDROOT
TORSDOF 0
ENDMDL
MODEL 3
REMARK VINA RESULT:    -2.754     20.836     21.970
REMARK INTER + INTRA:          -2.754
REMARK INTER:                  -2.754
REMARK INTRA:                   0.000
REMARK UNBOUND:                 0.000
REMARK SMILES CC1=CC(=O)[C@H]2C[C@@H]1C2(C)C
REMARK SMILES IDX 1 1 2 2 3 3 4 4 5 5 6 6 7 7 8 8 9 9 10 10 11 11
REMARK H PARENT
REMARK Flexibility Score: inf
ROOT
ATOM      1  C   UNL     1      -6.872  25.844  11.187  1.00  0.00     0.040 C 
ATOM      2  C   UNL     1      -6.033  25.258  10.097  1.00  0.00    -0.066 C 
ATOM      3  C   UNL     1      -4.932  25.892   9.604  1.00  0.00     0.047 C 
ATOM      4  C   UNL     1      -4.192  25.183   8.511  1.00  0.00     0.159 C 
ATOM      5  O   UNL     1      -3.185  25.684   7.946  1.00  0.00    -0.295 OA
ATOM      6  C   UNL     1      -4.744  23.808   8.133  1.00  0.00     0.067 C 
ATOM      7  C   UNL     1      -4.999  23.117   9.490  1.00  0.00     0.021 C 
ATOM      8  C   UNL     1      -6.352  23.865   9.516  1.00  0.00     0.022 C 
ATOM      9  C   UNL     1      -6.286  23.923   7.962  1.00  0.00    -0.019 C 
ATOM     10  C   UNL     1      -6.858  25.181   7.250  1.00  0.00     0.012 C 
ATOM     11  C   UNL     1      -6.901  22.666   7.298  1.00  0.00     0.012 C 
ENDROOT
TORSDOF 0
ENDMDL
MODEL 4
REMARK VINA RESULT:    -2.705      1.976      2.815
REMARK INTER + INTRA:          -2.705
REMARK INTER:                  -2.705
REMARK INTRA:                   0.000
REMARK UNBOUND:                 0.000
REMARK SMILES CC1=CC(=O)[C@H]2C[C@@H]1C2(C)C
REMARK SMILES IDX 1 1 2 2 3 3 4 4 5 5 6 6 7 7 8 8 9 9 10 10 11 11
REMARK H PARENT
REMARK Flexibility Score: inf
ROOT
ATOM      1  C   UNL     1      10.515  21.404  19.825  1.00  0.00     0.040 C 
ATOM      2  C   UNL     1      10.239  22.501  20.803  1.00  0.00    -0.066 C 
ATOM      3  C   UNL     1      10.924  23.679  20.789  1.00  0.00     0.047 C 
ATOM      4  C   UNL     1      10.538  24.684  21.832  1.00  0.00     0.159 C 
ATOM      5  O   UNL     1      11.125  25.791  21.949  1.00  0.00    -0.295 OA
ATOM      6  C   UNL     1       9.381  24.269  22.742  1.00  0.00     0.067 C 
ATOM      7  C   UNL     1       8.326  23.693  21.772  1.00  0.00     0.021 C 
ATOM      8  C   UNL     1       9.111  22.364  21.847  1.00  0.00     0.022 C 
ATOM      9  C   UNL     1       9.636  22.818  23.240  1.00  0.00    -0.019 C 
ATOM     10  C   UNL     1      11.085  22.421  23.644  1.00  0.00     0.012 C 
ATOM     11  C   UNL     1       8.682  22.413  24.391  1.00  0.00     0.012 C 
ENDROOT
TORSDOF 0
ENDMDL
MODEL 5
REMARK VINA RESULT:    -2.639     20.402     21.794
REMARK INTER + INTRA:          -2.639
REMARK INTER:                  -2.639
REMARK INTRA:                   0.000
REMARK UNBOUND:                 0.000
REMARK SMILES CC1=CC(=O)[C@H]2C[C@@H]1C2(C)C
REMARK SMILES IDX 1 1 2 2 3 3 4 4 5 5 6 6 7 7 8 8 9 9 10 10 11 11
REMARK H PARENT
REMARK Flexibility Score: inf
ROOT
ATOM      1  C   UNL     1      -6.893  22.374   7.194  1.00  0.00     0.040 C 
ATOM      2  C   UNL     1      -6.127  23.317   8.067  1.00  0.00    -0.066 C 
ATOM      3  C   UNL     1      -6.671  23.885   9.179  1.00  0.00     0.047 C 
ATOM      4  C   UNL     1      -5.782  24.810   9.954  1.00  0.00     0.159 C 
ATOM      5  O   UNL     1      -6.181  25.428  10.975  1.00  0.00    -0.295 OA
ATOM      6  C   UNL     1      -4.356  24.949   9.417  1.00  0.00     0.067 C 
ATOM      7  C   UNL     1      -3.920  23.497   9.125  1.00  0.00     0.021 C 
ATOM      8  C   UNL     1      -4.649  23.644   7.769  1.00  0.00     0.022 C 
ATOM      9  C   UNL     1      -4.426  25.180   7.881  1.00  0.00    -0.019 C 
ATOM     10  C   UNL     1      -5.529  26.125   7.326  1.00  0.00     0.012 C 
ATOM     11  C   UNL     1      -3.064  25.623   7.289  1.00  0.00     0.012 C 
ENDROOT
TORSDOF 0
ENDMDL
MODEL 6
REMARK VINA RESULT:    -2.589      1.543      3.523
REMARK INTER + INTRA:          -2.589
REMARK INTER:                  -2.589
REMARK INTRA:                   0.000
REMARK UNBOUND:                 0.000
REMARK SMILES CC1=CC(=O)[C@H]2C[C@@H]1C2(C)C
REMARK SMILES IDX 1 1 2 2 3 3 4 4 5 5 6 6 7 7 8 8 9 9 10 10 11 11
REMARK H PARENT
REMARK Flexibility Score: inf
ROOT
ATOM      1  C   UNL     1      10.497  21.640  24.760  1.00  0.00     0.040 C 
ATOM      2  C   UNL     1      10.067  22.690  23.786  1.00  0.00    -0.066 C 
ATOM      3  C   UNL     1       8.880  23.348  23.902  1.00  0.00     0.047 C 
ATOM      4  C   UNL     1       8.584  24.374  22.850  1.00  0.00     0.159 C 
ATOM      5  O   UNL     1       7.504  25.018  22.823  1.00  0.00    -0.295 OA
ATOM      6  C   UNL     1       9.690  24.584  21.813  1.00  0.00     0.067 C 
ATOM      7  C   UNL     1      10.984  24.664  22.652  1.00  0.00     0.021 C 
ATOM      8  C   UNL     1      10.990  23.118  22.626  1.00  0.00     0.022 C 
ATOM      9  C   UNL     1      10.166  23.193  21.308  1.00  0.00    -0.019 C 
ATOM     10  C   UNL     1       9.095  22.095  21.049  1.00  0.00     0.012 C 
ATOM     11  C   UNL     1      11.068  23.298  20.054  1.00  0.00     0.012 C 
ENDROOT
TORSDOF 0
ENDMDL
MODEL 7
REMARK VINA RESULT:    -2.572     20.897     21.903
REMARK INTER + INTRA:          -2.572
REMARK INTER:                  -2.572
REMARK INTRA:                   0.000
REMARK UNBOUND:                 0.000
REMARK SMILES CC1=CC(=O)[C@H]2C[C@@H]1C2(C)C
REMARK SMILES IDX 1 1 2 2 3 3 4 4 5 5 6 6 7 7 8 8 9 9 10 10 11 11
REMARK H PARENT
REMARK Flexibility Score: inf
ROOT
ATOM      1  C   UNL     1      -2.885  25.373   7.201  1.00  0.00     0.040 C 
ATOM      2  C   UNL     1      -4.073  24.618   7.705  1.00  0.00    -0.066 C 
ATOM      3  C   UNL     1      -4.857  23.864   6.885  1.00  0.00     0.047 C 
ATOM      4  C   UNL     1      -6.015  23.166   7.533  1.00  0.00     0.159 C 
ATOM      5  O   UNL     1      -6.836  22.474   6.877  1.00  0.00    -0.295 OA
ATOM      6  C   UNL     1      -6.126  23.352   9.048  1.00  0.00     0.067 C 
ATOM      7  C   UNL     1      -4.685  23.135   9.561  1.00  0.00     0.021 C 
ATOM      8  C   UNL     1      -4.430  24.618   9.206  1.00  0.00     0.022 C 
ATOM      9  C   UNL     1      -5.958  24.862   9.375  1.00  0.00    -0.019 C 
ATOM     10  C   UNL     1      -6.643  25.901   8.441  1.00  0.00     0.012 C 
ATOM     11  C   UNL     1      -6.343  25.195  10.838  1.00  0.00     0.012 C 
ENDROOT
TORSDOF 0
ENDMDL
MODEL 8
REMARK VINA RESULT:    -2.525      2.574      4.111
REMARK INTER + INTRA:          -2.525
REMARK INTER:                  -2.525
REMARK INTRA:                   0.000
REMARK UNBOUND:                 0.000
REMARK SMILES CC1=CC(=O)[C@H]2C[C@@H]1C2(C)C
REMARK SMILES IDX 1 1 2 2 3 3 4 4 5 5 6 6 7 7 8 8 9 9 10 10 11 11
REMARK H PARENT
REMARK Flexibility Score: inf
ROOT
ATOM      1  C   UNL     1       5.980  25.033  20.709  1.00  0.00     0.040 C 
ATOM      2  C   UNL     1       7.420  24.949  21.107  1.00  0.00    -0.066 C 
ATOM      3  C   UNL     1       8.432  25.260  20.250  1.00  0.00     0.047 C 
ATOM      4  C   UNL     1       9.824  25.126  20.790  1.00  0.00     0.159 C 
ATOM      5  O   UNL     1      10.843  25.343  20.085  1.00  0.00    -0.295 OA
ATOM      6  C   UNL     1       9.917  24.708  22.259  1.00  0.00     0.067 C 
ATOM      7  C   UNL     1       8.876  25.599  22.972  1.00  0.00     0.021 C 
ATOM      8  C   UNL     1       7.820  24.554  22.544  1.00  0.00     0.022 C 
ATOM      9  C   UNL     1       8.965  23.501  22.492  1.00  0.00    -0.019 C 
ATOM     10  C   UNL     1       8.896  22.394  21.403  1.00  0.00     0.012 C 
ATOM     11  C   UNL     1       9.202  22.820  23.863  1.00  0.00     0.012 C 
ENDROOT
TORSDOF 0
ENDMDL
MODEL 9
REMARK VINA RESULT:    -2.508      2.399      3.921
REMARK INTER + INTRA:          -2.508
REMARK INTER:                  -2.508
REMARK INTRA:                   0.000
REMARK UNBOUND:                 0.000
REMARK SMILES CC1=CC(=O)[C@H]2C[C@@H]1C2(C)C
REMARK SMILES IDX 1 1 2 2 3 3 4 4 5 5 6 6 7 7 8 8 9 9 10 10 11 11
REMARK H PARENT
REMARK Flexibility Score: inf
ROOT
ATOM      1  C   UNL     1       6.925  24.643  21.113  1.00  0.00     0.040 C 
ATOM      2  C   UNL     1       8.254  24.270  21.689  1.00  0.00    -0.066 C 
ATOM      3  C   UNL     1       8.992  25.136  22.438  1.00  0.00     0.047 C 
ATOM      4  C   UNL     1      10.306  24.621  22.945  1.00  0.00     0.159 C 
ATOM      5  O   UNL     1      11.097  25.337  23.613  1.00  0.00    -0.295 OA
ATOM      6  C   UNL     1      10.615  23.164  22.597  1.00  0.00     0.067 C 
ATOM      7  C   UNL     1       9.301  22.415  22.906  1.00  0.00     0.021 C 
ATOM      8  C   UNL     1       8.826  22.849  21.501  1.00  0.00     0.022 C 
ATOM      9  C   UNL     1      10.323  22.944  21.086  1.00  0.00    -0.019 C 
ATOM     10  C   UNL     1      10.738  24.057  20.083  1.00  0.00     0.012 C 
ATOM     11  C   UNL     1      10.878  21.593  20.569  1.00  0.00     0.012 C 
ENDROOT
TORSDOF 0
ENDMDL
