MODEL 1
REMARK VINA RESULT:    -4.903      0.000      0.000
REMARK INTER + INTRA:         -16.458
REMARK INTER:                 -12.355
REMARK INTRA:                  -4.103
REMARK UNBOUND:                -4.103
REMARK SMILES CCCCCCCCCCCCCCCCCCCCCCCCCCCC(=O)[O-]
REMARK SMILES IDX 15 1 16 2 17 3 18 4 19 5 20 6 21 7 22 8 23 9 24 10 25 11
REMARK SMILES IDX 26 12 27 13 28 14 29 15 30 16 14 17 13 18 12 19 11 20 10 21
REMARK SMILES IDX 9 22 8 23 7 24 6 25 5 26 4 27 3 28 2 29 1 30
REMARK H PARENT
REMARK Flexibility Score: inf
ROOT
ATOM      1  C   UNL     1     -49.386  10.535 -29.503  1.00  0.00     0.000 C 
ENDROOT
BRANCH   1   2
ATOM      2  C   UNL     1     -48.676  11.899 -29.429  1.00  0.00     0.000 C 
BRANCH   2   3
ATOM      3  C   UNL     1     -49.517  13.098 -29.913  1.00  0.00     0.000 C 
BRANCH   3   4
ATOM      4  C   UNL     1     -49.640  13.230 -31.442  1.00  0.00     0.000 C 
BRANCH   4   5
ATOM      5  C   UNL     1     -51.100  13.340 -31.909  1.00  0.00     0.000 C 
BRANCH   5   6
ATOM      6  C   UNL     1     -51.926  12.092 -31.563  1.00  0.00     0.000 C 
BRANCH   6   7
ATOM      7  C   UNL     1     -53.123  12.412 -30.650  1.00  0.00     0.000 C 
BRANCH   7   8
ATOM      8  C   UNL     1     -52.795  12.211 -29.162  1.00  0.00     0.000 C 
BRANCH   8   9
ATOM      9  C   UNL     1     -53.417  13.295 -28.267  1.00  0.00     0.000 C 
BRANCH   9  10
ATOM     10  C   UNL     1     -53.210  14.715 -28.824  1.00  0.00     0.000 C 
BRANCH  10  11
ATOM     11  C   UNL     1     -52.430  15.640 -27.866  1.00  0.00     0.000 C 
BRANCH  11  12
ATOM     12  C   UNL     1     -52.215  17.041 -28.460  1.00  0.00     0.006 C 
BRANCH  12  13
ATOM     13  C   UNL     1     -52.650  17.089 -29.928  1.00  0.00     0.053 C 
BRANCH  13  14
ATOM     14  C   UNL     1     -51.518  17.530 -30.802  1.00  0.00     0.041 C 
ATOM     15  O   UNL     1     -51.531  18.677 -31.323  1.00  0.00    -0.550 OA
ATOM     16  O   UNL     1     -50.462  16.664 -31.066  1.00  0.00    -0.550 OA
ENDBRANCH  13  14
ENDBRANCH  12  13
ENDBRANCH  11  12
ENDBRANCH  10  11
ENDBRANCH   9  10
ENDBRANCH   8   9
ENDBRANCH   7   8
ENDBRANCH   6   7
ENDBRANCH   5   6
ENDBRANCH   4   5
ENDBRANCH   3   4
ENDBRANCH   2   3
ENDBRANCH   1   2
BRANCH   1  17
ATOM     17  C   UNL     1     -48.846   9.644 -30.631  1.00  0.00     0.000 C 
BRANCH  17  18
ATOM     18  C   UNL     1     -47.368   9.297 -30.399  1.00  0.00     0.000 C 
BRANCH  18  19
ATOM     19  C   UNL     1     -47.080   7.795 -30.560  1.00  0.00     0.000 C 
BRANCH  19  20
ATOM     20  C   UNL     1     -48.363   6.954 -30.650  1.00  0.00     0.000 C 
BRANCH  20  21
ATOM     21  C   UNL     1     -48.385   6.121 -31.941  1.00  0.00     0.000 C 
BRANCH  21  22
ATOM     22  C   UNL     1     -48.661   6.967 -33.198  1.00  0.00    -0.000 C 
BRANCH  22  23
ATOM     23  C   UNL     1     -50.109   7.464 -33.356  1.00  0.00    -0.000 C 
BRANCH  23  24
ATOM     24  C   UNL     1     -51.039   6.418 -33.994  1.00  0.00    -0.000 C 
BRANCH  24  25
ATOM     25  C   UNL     1     -52.288   7.040 -34.647  1.00  0.00    -0.000 C 
BRANCH  25  26
ATOM     26  C   UNL     1     -53.640   6.564 -34.082  1.00  0.00    -0.000 C 
BRANCH  26  27
ATOM     27  C   UNL     1     -53.602   6.314 -32.566  1.00  0.00    -0.000 C 
BRANCH  27  28
ATOM     28  C   UNL     1     -54.124   7.509 -31.748  1.00  0.00    -0.000 C 
BRANCH  28  29
ATOM     29  C   UNL     1     -53.043   8.485 -31.252  1.00  0.00    -0.003 C 
ATOM     30  C   UNL     1     -52.005   7.821 -30.348  1.00  0.00     0.004 C 
ENDBRANCH  28  29
ENDBRANCH  27  28
ENDBRANCH  26  27
ENDBRANCH  25  26
ENDBRANCH  24  25
ENDBRANCH  23  24
ENDBRANCH  22  23
ENDBRANCH  21  22
ENDBRANCH  20  21
ENDBRANCH  19  20
ENDBRANCH  18  19
ENDBRANCH  17  18
ENDBRANCH   1  17
TORSDOF 26
ENDMDL
MODEL 2
REMARK VINA RESULT:    -4.885      0.819      3.223
REMARK INTER + INTRA:         -16.413
REMARK INTER:                 -12.148
REMARK INTRA:                  -4.265
REMARK UNBOUND:                -4.103
REMARK SMILES CCCCCCCCCCCCCCCCCCCCCCCCCCCC(=O)[O-]
REMARK SMILES IDX 15 1 16 2 17 3 18 4 19 5 20 6 21 7 22 8 23 9 24 10 25 11
REMARK SMILES IDX 26 12 27 13 28 14 29 15 30 16 14 17 13 18 12 19 11 20 10 21
REMARK SMILES IDX 9 22 8 23 7 24 6 25 5 26 4 27 3 28 2 29 1 30
REMARK H PARENT
REMARK Flexibility Score: inf
ROOT
ATOM      1  C   UNL     1     -50.250  10.431 -29.648  1.00  0.00     0.000 C 
ENDROOT
BRANCH   1   2
ATOM      2  C   UNL     1     -49.006  11.291 -29.935  1.00  0.00     0.000 C 
BRANCH   2   3
ATOM      3  C   UNL     1     -49.222  12.812 -29.811  1.00  0.00     0.000 C 
BRANCH   3   4
ATOM      4  C   UNL     1     -49.579  13.528 -31.126  1.00  0.00     0.000 C 
BRANCH   4   5
ATOM      5  C   UNL     1     -51.026  14.047 -31.142  1.00  0.00     0.000 C 
BRANCH   5   6
ATOM      6  C   UNL     1     -52.028  12.987 -31.623  1.00  0.00     0.000 C 
BRANCH   6   7
ATOM      7  C   UNL     1     -53.264  12.889 -30.712  1.00  0.00     0.000 C 
BRANCH   7   8
ATOM      8  C   UNL     1     -52.898  12.955 -29.220  1.00  0.00     0.000 C 
BRANCH   8   9
ATOM      9  C   UNL     1     -53.739  13.987 -28.450  1.00  0.00     0.000 C 
BRANCH   9  10
ATOM     10  C   UNL     1     -52.885  15.114 -27.843  1.00  0.00     0.000 C 
BRANCH  10  11
ATOM     11  C   UNL     1     -53.633  16.461 -27.741  1.00  0.00     0.000 C 
BRANCH  11  12
ATOM     12  C   UNL     1     -53.084  17.505 -28.725  1.00  0.00     0.006 C 
BRANCH  12  13
ATOM     13  C   UNL     1     -51.646  17.172 -29.135  1.00  0.00     0.053 C 
BRANCH  13  14
ATOM     14  C   UNL     1     -51.348  17.705 -30.502  1.00  0.00     0.041 C 
ATOM     15  O   UNL     1     -52.196  18.419 -31.100  1.00  0.00    -0.550 OA
ATOM     16  O   UNL     1     -50.147  17.389 -31.127  1.00  0.00    -0.550 OA
ENDBRANCH  13  14
ENDBRANCH  12  13
ENDBRANCH  11  12
ENDBRANCH  10  11
ENDBRANCH   9  10
ENDBRANCH   8   9
ENDBRANCH   7   8
ENDBRANCH   6   7
ENDBRANCH   5   6
ENDBRANCH   4   5
ENDBRANCH   3   4
ENDBRANCH   2   3
ENDBRANCH   1   2
BRANCH   1  17
ATOM     17  C   UNL     1     -50.768   9.700 -30.895  1.00  0.00     0.000 C 
BRANCH  17  18
ATOM     18  C   UNL     1     -52.227   9.257 -30.708  1.00  0.00     0.000 C 
BRANCH  18  19
ATOM     19  C   UNL     1     -52.373   7.731 -30.594  1.00  0.00     0.000 C 
BRANCH  19  20
ATOM     20  C   UNL     1     -53.725   7.226 -31.120  1.00  0.00     0.000 C 
BRANCH  20  21
ATOM     21  C   UNL     1     -53.528   6.189 -32.237  1.00  0.00     0.000 C 
BRANCH  21  22
ATOM     22  C   UNL     1     -53.777   6.765 -33.644  1.00  0.00    -0.000 C 
BRANCH  22  23
ATOM     23  C   UNL     1     -52.522   6.934 -34.520  1.00  0.00    -0.000 C 
BRANCH  23  24
ATOM     24  C   UNL     1     -51.256   6.337 -33.880  1.00  0.00    -0.000 C 
BRANCH  24  25
ATOM     25  C   UNL     1     -50.189   7.397 -33.552  1.00  0.00    -0.000 C 
BRANCH  25  26
ATOM     26  C   UNL     1     -48.883   6.857 -32.940  1.00  0.00    -0.000 C 
BRANCH  26  27
ATOM     27  C   UNL     1     -49.096   6.166 -31.583  1.00  0.00    -0.000 C 
BRANCH  27  28
ATOM     28  C   UNL     1     -48.545   6.984 -30.401  1.00  0.00    -0.000 C 
BRANCH  28  29
ATOM     29  C   UNL     1     -47.011   7.101 -30.345  1.00  0.00    -0.003 C 
ATOM     30  C   UNL     1     -46.522   8.547 -30.282  1.00  0.00     0.004 C 
ENDBRANCH  28  29
ENDBRANCH  27  28
ENDBRANCH  26  27
ENDBRANCH  25  26
ENDBRANCH  24  25
ENDBRANCH  23  24
ENDBRANCH  22  23
ENDBRANCH  21  22
ENDBRANCH  20  21
ENDBRANCH  19  20
ENDBRANCH  18  19
ENDBRANCH  17  18
ENDBRANCH   1  17
TORSDOF 26
ENDMDL
MODEL 3
REMARK VINA RESULT:    -4.853      2.646      5.879
REMARK INTER + INTRA:         -16.332
REMARK INTER:                 -11.950
REMARK INTRA:                  -4.382
REMARK UNBOUND:                -4.103
REMARK SMILES CCCCCCCCCCCCCCCCCCCCCCCCCCCC(=O)[O-]
REMARK SMILES IDX 15 1 16 2 17 3 18 4 19 5 20 6 21 7 22 8 23 9 24 10 25 11
REMARK SMILES IDX 26 12 27 13 28 14 29 15 30 16 14 17 13 18 12 19 11 20 10 21
REMARK SMILES IDX 9 22 8 23 7 24 6 25 5 26 4 27 3 28 2 29 1 30
REMARK H PARENT
REMARK Flexibility Score: inf
ROOT
ATOM      1  C   UNL     1     -52.214  14.877 -28.350  1.00  0.00     0.000 C 
ENDROOT
BRANCH   1   2
ATOM      2  C   UNL     1     -52.780  16.216 -27.842  1.00  0.00     0.000 C 
BRANCH   2   3
ATOM      3  C   UNL     1     -52.293  17.462 -28.608  1.00  0.00     0.000 C 
BRANCH   3   4
ATOM      4  C   UNL     1     -52.918  17.654 -30.001  1.00  0.00     0.000 C 
BRANCH   4   5
ATOM      5  C   UNL     1     -51.893  18.118 -31.049  1.00  0.00     0.000 C 
BRANCH   5   6
ATOM      6  C   UNL     1     -50.618  17.262 -31.046  1.00  0.00     0.000 C 
BRANCH   6   7
ATOM      7  C   UNL     1     -50.787  15.950 -31.835  1.00  0.00     0.000 C 
BRANCH   7   8
ATOM      8  C   UNL     1     -49.842  14.844 -31.339  1.00  0.00     0.000 C 
BRANCH   8   9
ATOM      9  C   UNL     1     -50.431  13.436 -31.527  1.00  0.00     0.000 C 
BRANCH   9  10
ATOM     10  C   UNL     1     -49.462  12.324 -31.087  1.00  0.00     0.000 C 
BRANCH  10  11
ATOM     11  C   UNL     1     -48.954  12.492 -29.639  1.00  0.00     0.000 C 
BRANCH  11  12
ATOM     12  C   UNL     1     -48.488  11.161 -29.029  1.00  0.00     0.006 C 
BRANCH  12  13
ATOM     13  C   UNL     1     -48.775   9.992 -29.977  1.00  0.00     0.053 C 
BRANCH  13  14
ATOM     14  C   UNL     1     -47.591   9.082 -30.068  1.00  0.00     0.041 C 
ATOM     15  O   UNL     1     -46.440   9.559 -30.255  1.00  0.00    -0.550 OA
ATOM     16  O   UNL     1     -47.760   7.704 -29.978  1.00  0.00    -0.550 OA
ENDBRANCH  13  14
ENDBRANCH  12  13
ENDBRANCH  11  12
ENDBRANCH  10  11
ENDBRANCH   9  10
ENDBRANCH   8   9
ENDBRANCH   7   8
ENDBRANCH   6   7
ENDBRANCH   5   6
ENDBRANCH   4   5
ENDBRANCH   3   4
ENDBRANCH   2   3
ENDBRANCH   1   2
BRANCH   1  17
ATOM     17  C   UNL     1     -53.252  14.046 -29.118  1.00  0.00     0.000 C 
BRANCH  17  18
ATOM     18  C   UNL     1     -53.409  12.650 -28.497  1.00  0.00     0.000 C 
BRANCH  18  19
ATOM     19  C   UNL     1     -52.512  11.599 -29.170  1.00  0.00     0.000 C 
BRANCH  19  20
ATOM     20  C   UNL     1     -53.007  11.209 -30.571  1.00  0.00     0.000 C 
BRANCH  20  21
ATOM     21  C   UNL     1     -52.431   9.850 -31.000  1.00  0.00     0.000 C 
BRANCH  21  22
ATOM     22  C   UNL     1     -53.399   8.679 -30.746  1.00  0.00    -0.000 C 
BRANCH  22  23
ATOM     23  C   UNL     1     -52.732   7.323 -30.449  1.00  0.00    -0.000 C 
BRANCH  23  24
ATOM     24  C   UNL     1     -51.201   7.360 -30.599  1.00  0.00    -0.000 C 
BRANCH  24  25
ATOM     25  C   UNL     1     -50.655   6.226 -31.487  1.00  0.00    -0.000 C 
BRANCH  25  26
ATOM     26  C   UNL     1     -49.943   6.677 -32.776  1.00  0.00    -0.000 C 
BRANCH  26  27
ATOM     27  C   UNL     1     -50.837   6.578 -34.023  1.00  0.00    -0.000 C 
BRANCH  27  28
ATOM     28  C   UNL     1     -51.983   7.607 -34.021  1.00  0.00    -0.000 C 
BRANCH  28  29
ATOM     29  C   UNL     1     -53.348   7.067 -34.482  1.00  0.00    -0.003 C 
ATOM     30  C   UNL     1     -53.832   5.875 -33.656  1.00  0.00     0.004 C 
ENDBRANCH  28  29
ENDBRANCH  27  28
ENDBRANCH  26  27
ENDBRANCH  25  26
ENDBRANCH  24  25
ENDBRANCH  23  24
ENDBRANCH  22  23
ENDBRANCH  21  22
ENDBRANCH  20  21
ENDBRANCH  19  20
ENDBRANCH  18  19
ENDBRANCH  17  18
ENDBRANCH   1  17
TORSDOF 26
ENDMDL
MODEL 4
REMARK VINA RESULT:    -4.835      2.663      8.702
REMARK INTER + INTRA:         -16.287
REMARK INTER:                 -11.893
REMARK INTRA:                  -4.394
REMARK UNBOUND:                -4.103
REMARK SMILES CCCCCCCCCCCCCCCCCCCCCCCCCCCC(=O)[O-]
REMARK SMILES IDX 15 1 16 2 17 3 18 4 19 5 20 6 21 7 22 8 23 9 24 10 25 11
REMARK SMILES IDX 26 12 27 13 28 14 29 15 30 16 14 17 13 18 12 19 11 20 10 21
REMARK SMILES IDX 9 22 8 23 7 24 6 25 5 26 4 27 3 28 2 29 1 30
REMARK H PARENT
REMARK Flexibility Score: inf
ROOT
ATOM      1  C   UNL     1     -49.230  11.437 -29.625  1.00  0.00     0.000 C 
ENDROOT
BRANCH   1   2
ATOM      2  C   UNL     1     -49.583  10.656 -30.905  1.00  0.00     0.000 C 
BRANCH   2   3
ATOM      3  C   UNL     1     -50.374   9.352 -30.675  1.00  0.00     0.000 C 
BRANCH   3   4
ATOM      4  C   UNL     1     -51.901   9.523 -30.596  1.00  0.00     0.000 C 
BRANCH   4   5
ATOM      5  C   UNL     1     -52.661   8.318 -31.174  1.00  0.00     0.000 C 
BRANCH   5   6
ATOM      6  C   UNL     1     -52.144   6.979 -30.630  1.00  0.00     0.000 C 
BRANCH   6   7
ATOM      7  C   UNL     1     -51.616   6.055 -31.743  1.00  0.00     0.000 C 
BRANCH   7   8
ATOM      8  C   UNL     1     -51.877   6.624 -33.147  1.00  0.00     0.000 C 
BRANCH   8   9
ATOM      9  C   UNL     1     -50.640   6.543 -34.057  1.00  0.00     0.000 C 
BRANCH   9  10
ATOM     10  C   UNL     1     -49.507   7.481 -33.604  1.00  0.00     0.000 C 
BRANCH  10  11
ATOM     11  C   UNL     1     -48.133   6.784 -33.514  1.00  0.00     0.000 C 
BRANCH  11  12
ATOM     12  C   UNL     1     -47.504   6.919 -32.119  1.00  0.00     0.006 C 
BRANCH  12  13
ATOM     13  C   UNL     1     -46.991   8.342 -31.882  1.00  0.00     0.053 C 
BRANCH  13  14
ATOM     14  C   UNL     1     -46.492   8.500 -30.480  1.00  0.00     0.041 C 
ATOM     15  O   UNL     1     -46.249   9.647 -30.021  1.00  0.00    -0.550 OA
ATOM     16  O   UNL     1     -46.267   7.378 -29.689  1.00  0.00    -0.550 OA
ENDBRANCH  13  14
ENDBRANCH  12  13
ENDBRANCH  11  12
ENDBRANCH  10  11
ENDBRANCH   9  10
ENDBRANCH   8   9
ENDBRANCH   7   8
ENDBRANCH   6   7
ENDBRANCH   5   6
ENDBRANCH   4   5
ENDBRANCH   3   4
ENDBRANCH   2   3
ENDBRANCH   1   2
BRANCH   1  17
ATOM     17  C   UNL     1     -49.471  12.946 -29.765  1.00  0.00     0.000 C 
BRANCH  17  18
ATOM     18  C   UNL     1     -49.623  13.347 -31.240  1.00  0.00     0.000 C 
BRANCH  18  19
ATOM     19  C   UNL     1     -50.974  14.018 -31.536  1.00  0.00     0.000 C 
BRANCH  19  20
ATOM     20  C   UNL     1     -52.132  13.011 -31.600  1.00  0.00     0.000 C 
BRANCH  20  21
ATOM     21  C   UNL     1     -53.308  13.469 -30.724  1.00  0.00     0.000 C 
BRANCH  21  22
ATOM     22  C   UNL     1     -53.207  12.972 -29.270  1.00  0.00    -0.000 C 
BRANCH  22  23
ATOM     23  C   UNL     1     -53.321  14.063 -28.189  1.00  0.00    -0.000 C 
BRANCH  23  24
ATOM     24  C   UNL     1     -52.180  15.093 -28.251  1.00  0.00    -0.000 C 
BRANCH  24  25
ATOM     25  C   UNL     1     -52.473  16.366 -27.435  1.00  0.00    -0.000 C 
BRANCH  25  26
ATOM     26  C   UNL     1     -53.791  17.085 -27.776  1.00  0.00    -0.000 C 
BRANCH  26  27
ATOM     27  C   UNL     1     -53.633  18.133 -28.890  1.00  0.00    -0.000 C 
BRANCH  27  28
ATOM     28  C   UNL     1     -54.023  17.594 -30.279  1.00  0.00    -0.000 C 
BRANCH  28  29
ATOM     29  C   UNL     1     -52.845  17.147 -31.162  1.00  0.00    -0.003 C 
ATOM     30  C   UNL     1     -51.537  17.861 -30.823  1.00  0.00     0.004 C 
ENDBRANCH  28  29
ENDBRANCH  27  28
ENDBRANCH  26  27
ENDBRANCH  25  26
ENDBRANCH  24  25
ENDBRANCH  23  24
ENDBRANCH  22  23
ENDBRANCH  21  22
ENDBRANCH  20  21
ENDBRANCH  19  20
ENDBRANCH  18  19
ENDBRANCH  17  18
ENDBRANCH   1  17
TORSDOF 26
ENDMDL
MODEL 5
REMARK VINA RESULT:    -4.818      2.763      8.586
REMARK INTER + INTRA:         -16.244
REMARK INTER:                 -11.976
REMARK INTRA:                  -4.268
REMARK UNBOUND:                -4.103
REMARK SMILES CCCCCCCCCCCCCCCCCCCCCCCCCCCC(=O)[O-]
REMARK SMILES IDX 15 1 16 2 17 3 18 4 19 5 20 6 21 7 22 8 23 9 24 10 25 11
REMARK SMILES IDX 26 12 27 13 28 14 29 15 30 16 14 17 13 18 12 19 11 20 10 21
REMARK SMILES IDX 9 22 8 23 7 24 6 25 5 26 4 27 3 28 2 29 1 30
REMARK H PARENT
REMARK Flexibility Score: inf
ROOT
ATOM      1  C   UNL     1     -53.609  12.551 -31.162  1.00  0.00     0.000 C 
ENDROOT
BRANCH   1   2
ATOM      2  C   UNL     1     -52.875  11.455 -30.368  1.00  0.00     0.000 C 
BRANCH   2   3
ATOM      3  C   UNL     1     -52.178  10.382 -31.230  1.00  0.00     0.000 C 
BRANCH   3   4
ATOM      4  C   UNL     1     -52.343   8.937 -30.726  1.00  0.00     0.000 C 
BRANCH   4   5
ATOM      5  C   UNL     1     -53.689   8.319 -31.139  1.00  0.00     0.000 C 
BRANCH   5   6
ATOM      6  C   UNL     1     -53.712   6.792 -30.974  1.00  0.00     0.000 C 
BRANCH   6   7
ATOM      7  C   UNL     1     -53.740   6.054 -32.325  1.00  0.00     0.000 C 
BRANCH   7   8
ATOM      8  C   UNL     1     -53.915   7.014 -33.512  1.00  0.00     0.000 C 
BRANCH   8   9
ATOM      9  C   UNL     1     -52.662   7.091 -34.400  1.00  0.00     0.000 C 
BRANCH   9  10
ATOM     10  C   UNL     1     -51.511   6.211 -33.880  1.00  0.00     0.000 C 
BRANCH  10  11
ATOM     11  C   UNL     1     -50.153   6.943 -33.833  1.00  0.00     0.000 C 
BRANCH  11  12
ATOM     12  C   UNL     1     -49.488   6.842 -32.452  1.00  0.00     0.006 C 
BRANCH  12  13
ATOM     13  C   UNL     1     -48.884   8.186 -32.032  1.00  0.00     0.053 C 
BRANCH  13  14
ATOM     14  C   UNL     1     -47.557   7.988 -31.371  1.00  0.00     0.041 C 
ATOM     15  O   UNL     1     -46.599   8.764 -31.630  1.00  0.00    -0.550 OA
ATOM     16  O   UNL     1     -47.368   6.929 -30.490  1.00  0.00    -0.550 OA
ENDBRANCH  13  14
ENDBRANCH  12  13
ENDBRANCH  11  12
ENDBRANCH  10  11
ENDBRANCH   9  10
ENDBRANCH   8   9
ENDBRANCH   7   8
ENDBRANCH   6   7
ENDBRANCH   5   6
ENDBRANCH   4   5
ENDBRANCH   3   4
ENDBRANCH   2   3
ENDBRANCH   1   2
BRANCH   1  17
ATOM     17  C   UNL     1     -53.809  13.839 -30.351  1.00  0.00     0.000 C 
BRANCH  17  18
ATOM     18  C   UNL     1     -52.912  13.851 -29.104  1.00  0.00     0.000 C 
BRANCH  18  19
ATOM     19  C   UNL     1     -53.500  14.690 -27.959  1.00  0.00     0.000 C 
BRANCH  19  20
ATOM     20  C   UNL     1     -52.587  15.856 -27.551  1.00  0.00     0.000 C 
BRANCH  20  21
ATOM     21  C   UNL     1     -52.814  17.076 -28.456  1.00  0.00     0.000 C 
BRANCH  21  22
ATOM     22  C   UNL     1     -51.552  17.493 -29.234  1.00  0.00    -0.000 C 
BRANCH  22  23
ATOM     23  C   UNL     1     -51.559  17.152 -30.736  1.00  0.00    -0.000 C 
BRANCH  23  24
ATOM     24  C   UNL     1     -50.354  16.295 -31.165  1.00  0.00    -0.000 C 
BRANCH  24  25
ATOM     25  C   UNL     1     -50.702  15.273 -32.263  1.00  0.00    -0.000 C 
BRANCH  25  26
ATOM     26  C   UNL     1     -50.406  13.802 -31.918  1.00  0.00    -0.000 C 
BRANCH  26  27
ATOM     27  C   UNL     1     -49.177  13.633 -31.010  1.00  0.00    -0.000 C 
BRANCH  27  28
ATOM     28  C   UNL     1     -49.474  12.805 -29.747  1.00  0.00    -0.000 C 
BRANCH  28  29
ATOM     29  C   UNL     1     -48.455  11.695 -29.436  1.00  0.00    -0.003 C 
ATOM     30  C   UNL     1     -49.110  10.363 -29.073  1.00  0.00     0.004 C 
ENDBRANCH  28  29
ENDBRANCH  27  28
ENDBRANCH  26  27
ENDBRANCH  25  26
ENDBRANCH  24  25
ENDBRANCH  23  24
ENDBRANCH  22  23
ENDBRANCH  21  22
ENDBRANCH  20  21
ENDBRANCH  19  20
ENDBRANCH  18  19
ENDBRANCH  17  18
ENDBRANCH   1  17
TORSDOF 26
ENDMDL
MODEL 6
REMARK VINA RESULT:    -4.690      2.682      8.590
REMARK INTER + INTRA:         -15.921
REMARK INTER:                 -11.385
REMARK INTRA:                  -4.536
REMARK UNBOUND:                -4.103
REMARK SMILES CCCCCCCCCCCCCCCCCCCCCCCCCCCC(=O)[O-]
REMARK SMILES IDX 15 1 16 2 17 3 18 4 19 5 20 6 21 7 22 8 23 9 24 10 25 11
REMARK SMILES IDX 26 12 27 13 28 14 29 15 30 16 14 17 13 18 12 19 11 20 10 21
REMARK SMILES IDX 9 22 8 23 7 24 6 25 5 26 4 27 3 28 2 29 1 30
REMARK H PARENT
REMARK Flexibility Score: inf
ROOT
ATOM      1  C   UNL     1     -51.679  10.016 -29.752  1.00  0.00     0.000 C 
ENDROOT
BRANCH   1   2
ATOM      2  C   UNL     1     -52.600   9.947 -30.983  1.00  0.00     0.000 C 
BRANCH   2   3
ATOM      3  C   UNL     1     -53.472   8.678 -31.074  1.00  0.00     0.000 C 
BRANCH   3   4
ATOM      4  C   UNL     1     -52.801   7.391 -30.560  1.00  0.00     0.000 C 
BRANCH   4   5
ATOM      5  C   UNL     1     -52.705   6.303 -31.642  1.00  0.00     0.000 C 
BRANCH   5   6
ATOM      6  C   UNL     1     -53.335   6.738 -32.974  1.00  0.00     0.000 C 
BRANCH   6   7
ATOM      7  C   UNL     1     -52.359   6.610 -34.157  1.00  0.00     0.000 C 
BRANCH   7   8
ATOM      8  C   UNL     1     -50.901   6.868 -33.743  1.00  0.00     0.000 C 
BRANCH   8   9
ATOM      9  C   UNL     1     -50.609   8.359 -33.510  1.00  0.00     0.000 C 
BRANCH   9  10
ATOM     10  C   UNL     1     -49.311   8.593 -32.715  1.00  0.00     0.000 C 
BRANCH  10  11
ATOM     11  C   UNL     1     -48.832   7.343 -31.947  1.00  0.00     0.000 C 
BRANCH  11  12
ATOM     12  C   UNL     1     -48.985   7.504 -30.426  1.00  0.00     0.006 C 
BRANCH  12  13
ATOM     13  C   UNL     1     -48.266   8.762 -29.931  1.00  0.00     0.053 C 
BRANCH  13  14
ATOM     14  C   UNL     1     -46.782   8.571 -29.959  1.00  0.00     0.041 C 
ATOM     15  O   UNL     1     -46.031   9.507 -30.345  1.00  0.00    -0.550 OA
ATOM     16  O   UNL     1     -46.229   7.350 -29.589  1.00  0.00    -0.550 OA
ENDBRANCH  13  14
ENDBRANCH  12  13
ENDBRANCH  11  12
ENDBRANCH  10  11
ENDBRANCH   9  10
ENDBRANCH   8   9
ENDBRANCH   7   8
ENDBRANCH   6   7
ENDBRANCH   5   6
ENDBRANCH   4   5
ENDBRANCH   3   4
ENDBRANCH   2   3
ENDBRANCH   1   2
BRANCH   1  17
ATOM     17  C   UNL     1     -51.945  11.250 -28.879  1.00  0.00     0.000 C 
BRANCH  17  18
ATOM     18  C   UNL     1     -53.046  12.130 -29.489  1.00  0.00     0.000 C 
BRANCH  18  19
ATOM     19  C   UNL     1     -53.536  13.220 -28.522  1.00  0.00     0.000 C 
BRANCH  19  20
ATOM     20  C   UNL     1     -53.169  14.636 -28.992  1.00  0.00     0.000 C 
BRANCH  20  21
ATOM     21  C   UNL     1     -52.526  15.444 -27.855  1.00  0.00     0.000 C 
BRANCH  21  22
ATOM     22  C   UNL     1     -52.261  16.913 -28.235  1.00  0.00    -0.000 C 
BRANCH  22  23
ATOM     23  C   UNL     1     -53.061  17.438 -29.442  1.00  0.00    -0.000 C 
BRANCH  23  24
ATOM     24  C   UNL     1     -52.176  18.112 -30.504  1.00  0.00    -0.000 C 
BRANCH  24  25
ATOM     25  C   UNL     1     -50.887  17.325 -30.803  1.00  0.00    -0.000 C 
BRANCH  25  26
ATOM     26  C   UNL     1     -51.054  16.101 -31.724  1.00  0.00    -0.000 C 
BRANCH  26  27
ATOM     27  C   UNL     1     -49.991  15.017 -31.482  1.00  0.00    -0.000 C 
BRANCH  27  28
ATOM     28  C   UNL     1     -50.532  13.591 -31.691  1.00  0.00    -0.000 C 
BRANCH  28  29
ATOM     29  C   UNL     1     -49.590  12.461 -31.240  1.00  0.00    -0.003 C 
ATOM     30  C   UNL     1     -48.867  12.770 -29.930  1.00  0.00     0.004 C 
ENDBRANCH  28  29
ENDBRANCH  27  28
ENDBRANCH  26  27
ENDBRANCH  25  26
ENDBRANCH  24  25
ENDBRANCH  23  24
ENDBRANCH  22  23
ENDBRANCH  21  22
ENDBRANCH  20  21
ENDBRANCH  19  20
ENDBRANCH  18  19
ENDBRANCH  17  18
ENDBRANCH   1  17
TORSDOF 26
ENDMDL
MODEL 7
REMARK VINA RESULT:    -4.663      1.013      2.259
REMARK INTER + INTRA:         -15.853
REMARK INTER:                 -11.814
REMARK INTRA:                  -4.040
REMARK UNBOUND:                -4.103
REMARK SMILES CCCCCCCCCCCCCCCCCCCCCCCCCCCC(=O)[O-]
REMARK SMILES IDX 15 1 16 2 17 3 18 4 19 5 20 6 21 7 22 8 23 9 24 10 25 11
REMARK SMILES IDX 26 12 27 13 28 14 29 15 30 16 14 17 13 18 12 19 11 20 10 21
REMARK SMILES IDX 9 22 8 23 7 24 6 25 5 26 4 27 3 28 2 29 1 30
REMARK H PARENT
REMARK Flexibility Score: inf
ROOT
ATOM      1  C   UNL     1     -47.510   9.228 -30.569  1.00  0.00     0.000 C 
ENDROOT
BRANCH   1   2
ATOM      2  C   UNL     1     -47.707  10.137 -29.342  1.00  0.00     0.000 C 
BRANCH   2   3
ATOM      3  C   UNL     1     -49.079  10.837 -29.263  1.00  0.00     0.000 C 
BRANCH   3   4
ATOM      4  C   UNL     1     -49.332  11.894 -30.353  1.00  0.00     0.000 C 
BRANCH   4   5
ATOM      5  C   UNL     1     -50.045  13.142 -29.809  1.00  0.00     0.000 C 
BRANCH   5   6
ATOM      6  C   UNL     1     -51.521  13.210 -30.230  1.00  0.00     0.000 C 
BRANCH   6   7
ATOM      7  C   UNL     1     -52.456  12.535 -29.210  1.00  0.00     0.000 C 
BRANCH   7   8
ATOM      8  C   UNL     1     -53.900  13.053 -29.309  1.00  0.00     0.000 C 
BRANCH   8   9
ATOM      9  C   UNL     1     -53.975  14.588 -29.364  1.00  0.00     0.000 C 
BRANCH   9  10
ATOM     10  C   UNL     1     -54.019  15.231 -27.967  1.00  0.00     0.000 C 
BRANCH  10  11
ATOM     11  C   UNL     1     -52.727  15.992 -27.602  1.00  0.00     0.000 C 
BRANCH  11  12
ATOM     12  C   UNL     1     -51.995  16.521 -28.845  1.00  0.00     0.006 C 
BRANCH  12  13
ATOM     13  C   UNL     1     -52.714  17.741 -29.429  1.00  0.00     0.053 C 
BRANCH  13  14
ATOM     14  C   UNL     1     -52.117  18.128 -30.746  1.00  0.00     0.041 C 
ATOM     15  O   UNL     1     -51.089  17.537 -31.172  1.00  0.00    -0.550 OA
ATOM     16  O   UNL     1     -52.677  19.161 -31.490  1.00  0.00    -0.550 OA
ENDBRANCH  13  14
ENDBRANCH  12  13
ENDBRANCH  11  12
ENDBRANCH  10  11
ENDBRANCH   9  10
ENDBRANCH   8   9
ENDBRANCH   7   8
ENDBRANCH   6   7
ENDBRANCH   5   6
ENDBRANCH   4   5
ENDBRANCH   3   4
ENDBRANCH   2   3
ENDBRANCH   1   2
BRANCH   1  17
ATOM     17  C   UNL     1     -46.963   7.842 -30.199  1.00  0.00     0.000 C 
BRANCH  17  18
ATOM     18  C   UNL     1     -47.006   6.893 -31.406  1.00  0.00     0.000 C 
BRANCH  18  19
ATOM     19  C   UNL     1     -47.943   7.391 -32.518  1.00  0.00     0.000 C 
BRANCH  19  20
ATOM     20  C   UNL     1     -49.104   6.424 -32.790  1.00  0.00     0.000 C 
BRANCH  20  21
ATOM     21  C   UNL     1     -50.072   7.005 -33.832  1.00  0.00     0.000 C 
BRANCH  21  22
ATOM     22  C   UNL     1     -51.407   6.239 -33.908  1.00  0.00    -0.000 C 
BRANCH  22  23
ATOM     23  C   UNL     1     -52.567   6.998 -34.577  1.00  0.00    -0.000 C 
BRANCH  23  24
ATOM     24  C   UNL     1     -53.921   6.759 -33.886  1.00  0.00    -0.000 C 
BRANCH  24  25
ATOM     25  C   UNL     1     -53.778   6.260 -32.436  1.00  0.00    -0.000 C 
BRANCH  25  26
ATOM     26  C   UNL     1     -53.714   7.358 -31.359  1.00  0.00    -0.000 C 
BRANCH  26  27
ATOM     27  C   UNL     1     -52.437   7.287 -30.504  1.00  0.00    -0.000 C 
BRANCH  27  28
ATOM     28  C   UNL     1     -51.462   8.444 -30.789  1.00  0.00    -0.000 C 
BRANCH  28  29
ATOM     29  C   UNL     1     -52.097   9.695 -31.421  1.00  0.00    -0.003 C 
ATOM     30  C   UNL     1     -51.457  10.085 -32.753  1.00  0.00     0.004 C 
ENDBRANCH  28  29
ENDBRANCH  27  28
ENDBRANCH  26  27
ENDBRANCH  25  26
ENDBRANCH  24  25
ENDBRANCH  23  24
ENDBRANCH  22  23
ENDBRANCH  21  22
ENDBRANCH  20  21
ENDBRANCH  19  20
ENDBRANCH  18  19
ENDBRANCH  17  18
ENDBRANCH   1  17
TORSDOF 26
ENDMDL
MODEL 8
REMARK VINA RESULT:    -4.639      2.038      5.167
REMARK INTER + INTRA:         -15.793
REMARK INTER:                 -11.944
REMARK INTRA:                  -3.849
REMARK UNBOUND:                -4.103
REMARK SMILES CCCCCCCCCCCCCCCCCCCCCCCCCCCC(=O)[O-]
REMARK SMILES IDX 15 1 16 2 17 3 18 4 19 5 20 6 21 7 22 8 23 9 24 10 25 11
REMARK SMILES IDX 26 12 27 13 28 14 29 15 30 16 14 17 13 18 12 19 11 20 10 21
REMARK SMILES IDX 9 22 8 23 7 24 6 25 5 26 4 27 3 28 2 29 1 30
REMARK H PARENT
REMARK Flexibility Score: inf
ROOT
ATOM      1  C   UNL     1     -52.641  11.408 -29.783  1.00  0.00     0.000 C 
ENDROOT
BRANCH   1   2
ATOM      2  C   UNL     1     -53.791  12.430 -29.839  1.00  0.00     0.000 C 
BRANCH   2   3
ATOM      3  C   UNL     1     -53.905  13.353 -28.609  1.00  0.00     0.000 C 
BRANCH   3   4
ATOM      4  C   UNL     1     -53.600  14.837 -28.880  1.00  0.00     0.000 C 
BRANCH   4   5
ATOM      5  C   UNL     1     -52.313  15.311 -28.185  1.00  0.00     0.000 C 
BRANCH   5   6
ATOM      6  C   UNL     1     -52.018  16.796 -28.440  1.00  0.00     0.000 C 
BRANCH   6   7
ATOM      7  C   UNL     1     -52.416  17.241 -29.859  1.00  0.00     0.000 C 
BRANCH   7   8
ATOM      8  C   UNL     1     -51.199  17.627 -30.715  1.00  0.00     0.000 C 
BRANCH   8   9
ATOM      9  C   UNL     1     -50.344  16.411 -31.110  1.00  0.00     0.000 C 
BRANCH   9  10
ATOM     10  C   UNL     1     -51.117  15.398 -31.972  1.00  0.00     0.000 C 
BRANCH  10  11
ATOM     11  C   UNL     1     -50.878  13.931 -31.555  1.00  0.00     0.000 C 
BRANCH  11  12
ATOM     12  C   UNL     1     -49.401  13.652 -31.237  1.00  0.00     0.006 C 
BRANCH  12  13
ATOM     13  C   UNL     1     -49.251  12.959 -29.879  1.00  0.00     0.053 C 
BRANCH  13  14
ATOM     14  C   UNL     1     -49.185  11.473 -30.047  1.00  0.00     0.041 C 
ATOM     15  O   UNL     1     -49.073  10.727 -29.038  1.00  0.00    -0.550 OA
ATOM     16  O   UNL     1     -49.217  10.913 -31.320  1.00  0.00    -0.550 OA
ENDBRANCH  13  14
ENDBRANCH  12  13
ENDBRANCH  11  12
ENDBRANCH  10  11
ENDBRANCH   9  10
ENDBRANCH   8   9
ENDBRANCH   7   8
ENDBRANCH   6   7
ENDBRANCH   5   6
ENDBRANCH   4   5
ENDBRANCH   3   4
ENDBRANCH   2   3
ENDBRANCH   1   2
BRANCH   1  17
ATOM     17  C   UNL     1     -52.635  10.454 -30.985  1.00  0.00     0.000 C 
BRANCH  17  18
ATOM     18  C   UNL     1     -52.635   8.988 -30.526  1.00  0.00     0.000 C 
BRANCH  18  19
ATOM     19  C   UNL     1     -53.766   8.167 -31.166  1.00  0.00     0.000 C 
BRANCH  19  20
ATOM     20  C   UNL     1     -53.485   6.657 -31.145  1.00  0.00     0.000 C 
BRANCH  20  21
ATOM     21  C   UNL     1     -53.680   6.042 -32.539  1.00  0.00     0.000 C 
BRANCH  21  22
ATOM     22  C   UNL     1     -53.805   7.100 -33.652  1.00  0.00    -0.000 C 
BRANCH  22  23
ATOM     23  C   UNL     1     -52.707   7.056 -34.732  1.00  0.00    -0.000 C 
BRANCH  23  24
ATOM     24  C   UNL     1     -51.347   6.583 -34.189  1.00  0.00    -0.000 C 
BRANCH  24  25
ATOM     25  C   UNL     1     -50.583   7.688 -33.435  1.00  0.00    -0.000 C 
BRANCH  25  26
ATOM     26  C   UNL     1     -49.916   7.253 -32.117  1.00  0.00    -0.000 C 
BRANCH  26  27
ATOM     27  C   UNL     1     -48.442   6.850 -32.293  1.00  0.00    -0.000 C 
BRANCH  27  28
ATOM     28  C   UNL     1     -47.540   8.036 -32.681  1.00  0.00    -0.000 C 
BRANCH  28  29
ATOM     29  C   UNL     1     -46.676   8.601 -31.540  1.00  0.00    -0.003 C 
ATOM     30  C   UNL     1     -47.036   8.023 -30.172  1.00  0.00     0.004 C 
ENDBRANCH  28  29
ENDBRANCH  27  28
ENDBRANCH  26  27
ENDBRANCH  25  26
ENDBRANCH  24  25
ENDBRANCH  23  24
ENDBRANCH  22  23
ENDBRANCH  21  22
ENDBRANCH  20  21
ENDBRANCH  19  20
ENDBRANCH  18  19
ENDBRANCH  17  18
ENDBRANCH   1  17
TORSDOF 26
ENDMDL
MODEL 9
REMARK VINA RESULT:    -4.619      2.826      8.834
REMARK INTER + INTRA:         -15.743
REMARK INTER:                 -11.834
REMARK INTRA:                  -3.908
REMARK UNBOUND:                -4.103
REMARK SMILES CCCCCCCCCCCCCCCCCCCCCCCCCCCC(=O)[O-]
REMARK SMILES IDX 15 1 16 2 17 3 18 4 19 5 20 6 21 7 22 8 23 9 24 10 25 11
REMARK SMILES IDX 26 12 27 13 28 14 29 15 30 16 14 17 13 18 12 19 11 20 10 21
REMARK SMILES IDX 9 22 8 23 7 24 6 25 5 26 4 27 3 28 2 29 1 30
REMARK H PARENT
REMARK Flexibility Score: inf
ROOT
ATOM      1  C   UNL     1     -49.652  11.976 -31.129  1.00  0.00     0.000 C 
ENDROOT
BRANCH   1   2
ATOM      2  C   UNL     1     -49.464  12.182 -29.615  1.00  0.00     0.000 C 
BRANCH   2   3
ATOM      3  C   UNL     1     -48.709  11.048 -28.892  1.00  0.00     0.000 C 
BRANCH   3   4
ATOM      4  C   UNL     1     -47.559  10.418 -29.697  1.00  0.00     0.000 C 
BRANCH   4   5
ATOM      5  C   UNL     1     -47.880   8.990 -30.165  1.00  0.00     0.000 C 
BRANCH   5   6
ATOM      6  C   UNL     1     -46.859   8.458 -31.182  1.00  0.00     0.000 C 
BRANCH   6   7
ATOM      7  C   UNL     1     -47.508   8.081 -32.526  1.00  0.00     0.000 C 
BRANCH   7   8
ATOM      8  C   UNL     1     -48.763   8.917 -32.825  1.00  0.00     0.000 C 
BRANCH   8   9
ATOM      9  C   UNL     1     -50.056   8.087 -32.760  1.00  0.00     0.000 C 
BRANCH   9  10
ATOM     10  C   UNL     1     -50.076   6.940 -33.785  1.00  0.00     0.000 C 
BRANCH  10  11
ATOM     11  C   UNL     1     -51.465   6.284 -33.942  1.00  0.00     0.000 C 
BRANCH  11  12
ATOM     12  C   UNL     1     -52.549   7.305 -34.323  1.00  0.00     0.006 C 
BRANCH  12  13
ATOM     13  C   UNL     1     -53.881   6.971 -33.645  1.00  0.00     0.053 C 
BRANCH  13  14
ATOM     14  C   UNL     1     -53.793   7.192 -32.167  1.00  0.00     0.041 C 
ATOM     15  O   UNL     1     -53.392   8.297 -31.716  1.00  0.00    -0.550 OA
ATOM     16  O   UNL     1     -54.125   6.167 -31.288  1.00  0.00    -0.550 OA
ENDBRANCH  13  14
ENDBRANCH  12  13
ENDBRANCH  11  12
ENDBRANCH  10  11
ENDBRANCH   9  10
ENDBRANCH   8   9
ENDBRANCH   7   8
ENDBRANCH   6   7
ENDBRANCH   5   6
ENDBRANCH   4   5
ENDBRANCH   3   4
ENDBRANCH   2   3
ENDBRANCH   1   2
BRANCH   1  17
ATOM     17  C   UNL     1     -51.061  11.485 -31.492  1.00  0.00     0.000 C 
BRANCH  17  18
ATOM     18  C   UNL     1     -52.011  11.600 -30.291  1.00  0.00     0.000 C 
BRANCH  18  19
ATOM     19  C   UNL     1     -53.431  12.027 -30.698  1.00  0.00     0.000 C 
BRANCH  19  20
ATOM     20  C   UNL     1     -53.768  13.458 -30.254  1.00  0.00     0.000 C 
BRANCH  20  21
ATOM     21  C   UNL     1     -53.472  13.655 -28.759  1.00  0.00     0.000 C 
BRANCH  21  22
ATOM     22  C   UNL     1     -52.299  14.619 -28.499  1.00  0.00    -0.000 C 
BRANCH  22  23
ATOM     23  C   UNL     1     -52.576  15.736 -27.476  1.00  0.00    -0.000 C 
BRANCH  23  24
ATOM     24  C   UNL     1     -53.752  16.643 -27.879  1.00  0.00    -0.000 C 
BRANCH  24  25
ATOM     25  C   UNL     1     -53.335  17.787 -28.822  1.00  0.00    -0.000 C 
BRANCH  25  26
ATOM     26  C   UNL     1     -53.613  17.549 -30.318  1.00  0.00    -0.000 C 
BRANCH  26  27
ATOM     27  C   UNL     1     -52.391  17.830 -31.208  1.00  0.00    -0.000 C 
BRANCH  27  28
ATOM     28  C   UNL     1     -51.055  17.532 -30.502  1.00  0.00    -0.000 C 
BRANCH  28  29
ATOM     29  C   UNL     1     -50.259  16.350 -31.080  1.00  0.00    -0.003 C 
ATOM     30  C   UNL     1     -51.115  15.404 -31.921  1.00  0.00     0.004 C 
ENDBRANCH  28  29
ENDBRANCH  27  28
ENDBRANCH  26  27
ENDBRANCH  25  26
ENDBRANCH  24  25
ENDBRANCH  23  24
ENDBRANCH  22  23
ENDBRANCH  21  22
ENDBRANCH  20  21
ENDBRANCH  19  20
ENDBRANCH  18  19
ENDBRANCH  17  18
ENDBRANCH   1  17
TORSDOF 26
ENDMDL
