MODEL 1
REMARK VINA RESULT:    -4.665      0.000      0.000
REMARK INTER + INTRA:         -10.954
REMARK INTER:                  -8.755
REMARK INTRA:                  -2.199
REMARK UNBOUND:                -2.199
REMARK SMILES O=C([O-])CCCCCCCCCCCCCCC(=O)[O-]
REMARK SMILES IDX 10 1 9 2 8 3 7 4 6 5 5 6 4 7 2 8 1 9 3 10 11 11 12 12 13 13
REMARK SMILES IDX 14 14 15 15 16 16 17 17 18 18 19 19 20 20
REMARK H PARENT
REMARK Flexibility Score: inf
ROOT
ATOM      1  C   UNL     1       8.427  -7.882  27.402  1.00  0.00     0.000 C 
ENDROOT
BRANCH   1   2
ATOM      2  C   UNL     1       7.028  -8.523  27.465  1.00  0.00     0.000 C 
BRANCH   2   3
ATOM      3  C   UNL     1       6.467  -8.726  28.884  1.00  0.00     0.000 C 
BRANCH   3   4
ATOM      4  C   UNL     1       5.142  -7.986  29.118  1.00  0.00     0.000 C 
BRANCH   4   5
ATOM      5  C   UNL     1       4.735  -8.041  30.595  1.00  0.00     0.000 C 
BRANCH   5   6
ATOM      6  C   UNL     1       5.924  -7.706  31.507  1.00  0.00     0.006 C 
BRANCH   6   7
ATOM      7  C   UNL     1       5.876  -6.260  32.018  1.00  0.00     0.053 C 
BRANCH   7   8
ATOM      8  C   UNL     1       7.247  -5.724  32.291  1.00  0.00     0.041 C 
ATOM      9  O   UNL     1       8.265  -6.350  31.895  1.00  0.00    -0.550 OA
ATOM     10  O   UNL     1       7.401  -4.514  32.956  1.00  0.00    -0.550 OA
ENDBRANCH   7   8
ENDBRANCH   6   7
ENDBRANCH   5   6
ENDBRANCH   4   5
ENDBRANCH   3   4
ENDBRANCH   2   3
ENDBRANCH   1   2
BRANCH   1  11
ATOM     11  C   UNL     1       8.690  -6.902  28.560  1.00  0.00     0.000 C 
BRANCH  11  12
ATOM     12  C   UNL     1       8.441  -5.439  28.158  1.00  0.00     0.000 C 
BRANCH  12  13
ATOM     13  C   UNL     1       7.103  -4.902  28.694  1.00  0.00     0.000 C 
BRANCH  13  14
ATOM     14  C   UNL     1       6.002  -4.851  27.619  1.00  0.00     0.000 C 
BRANCH  14  15
ATOM     15  C   UNL     1       6.508  -4.913  26.166  1.00  0.00     0.000 C 
BRANCH  15  16
ATOM     16  C   UNL     1       5.720  -5.909  25.298  1.00  0.00     0.006 C 
BRANCH  16  17
ATOM     17  C   UNL     1       5.181  -5.260  24.017  1.00  0.00     0.053 C 
BRANCH  17  18
ATOM     18  C   UNL     1       3.751  -5.631  23.768  1.00  0.00     0.041 C 
ATOM     19  O   UNL     1       3.374  -6.826  23.895  1.00  0.00    -0.550 OA
ATOM     20  O   UNL     1       2.827  -4.651  23.428  1.00  0.00    -0.550 OA
ENDBRANCH  17  18
ENDBRANCH  16  17
ENDBRANCH  15  16
ENDBRANCH  14  15
ENDBRANCH  13  14
ENDBRANCH  12  13
ENDBRANCH  11  12
ENDBRANCH   1  11
TORSDOF 15
ENDMDL
MODEL 2
REMARK VINA RESULT:    -4.608      0.985      6.430
REMARK INTER + INTRA:         -10.848
REMARK INTER:                  -8.705
REMARK INTRA:                  -2.143
REMARK UNBOUND:                -2.199
REMARK SMILES O=C([O-])CCCCCCCCCCCCCCC(=O)[O-]
REMARK SMILES IDX 10 1 9 2 8 3 7 4 6 5 5 6 4 7 2 8 1 9 3 10 11 11 12 12 13 13
REMARK SMILES IDX 14 14 15 15 16 16 17 17 18 18 19 19 20 20
REMARK H PARENT
REMARK Flexibility Score: inf
ROOT
ATOM      1  C   UNL     1       8.632  -8.028  27.405  1.00  0.00     0.000 C 
ENDROOT
BRANCH   1   2
ATOM      2  C   UNL     1       8.507  -7.077  28.609  1.00  0.00     0.000 C 
BRANCH   2   3
ATOM      3  C   UNL     1       9.017  -5.645  28.365  1.00  0.00     0.000 C 
BRANCH   3   4
ATOM      4  C   UNL     1       7.888  -4.650  28.058  1.00  0.00     0.000 C 
BRANCH   4   5
ATOM      5  C   UNL     1       6.558  -5.128  28.652  1.00  0.00     0.000 C 
BRANCH   5   6
ATOM      6  C   UNL     1       5.571  -5.525  27.545  1.00  0.00     0.006 C 
BRANCH   6   7
ATOM      7  C   UNL     1       6.140  -5.279  26.142  1.00  0.00     0.053 C 
BRANCH   7   8
ATOM      8  C   UNL     1       5.246  -5.835  25.076  1.00  0.00     0.041 C 
ATOM      9  O   UNL     1       4.841  -7.026  25.144  1.00  0.00    -0.550 OA
ATOM     10  O   UNL     1       4.834  -5.028  24.024  1.00  0.00    -0.550 OA
ENDBRANCH   7   8
ENDBRANCH   6   7
ENDBRANCH   5   6
ENDBRANCH   4   5
ENDBRANCH   3   4
ENDBRANCH   2   3
ENDBRANCH   1   2
BRANCH   1  11
ATOM     11  C   UNL     1       7.824  -9.327  27.581  1.00  0.00     0.000 C 
BRANCH  11  12
ATOM     12  C   UNL     1       6.330  -9.060  27.826  1.00  0.00     0.000 C 
BRANCH  12  13
ATOM     13  C   UNL     1       5.890  -9.449  29.248  1.00  0.00     0.000 C 
BRANCH  13  14
ATOM     14  C   UNL     1       4.557  -8.799  29.663  1.00  0.00     0.000 C 
BRANCH  14  15
ATOM     15  C   UNL     1       4.603  -8.002  30.980  1.00  0.00     0.000 C 
BRANCH  15  16
ATOM     16  C   UNL     1       6.008  -7.464  31.306  1.00  0.00     0.006 C 
BRANCH  16  17
ATOM     17  C   UNL     1       5.959  -6.248  32.240  1.00  0.00     0.053 C 
BRANCH  17  18
ATOM     18  C   UNL     1       7.313  -5.630  32.413  1.00  0.00     0.041 C 
ATOM     19  O   UNL     1       7.431  -4.507  32.970  1.00  0.00    -0.550 OA
ATOM     20  O   UNL     1       8.447  -6.310  31.989  1.00  0.00    -0.550 OA
ENDBRANCH  17  18
ENDBRANCH  16  17
ENDBRANCH  15  16
ENDBRANCH  14  15
ENDBRANCH  13  14
ENDBRANCH  12  13
ENDBRANCH  11  12
ENDBRANCH   1  11
TORSDOF 15
ENDMDL
MODEL 3
REMARK VINA RESULT:    -4.484      2.996      5.477
REMARK INTER + INTRA:         -10.615
REMARK INTER:                  -8.834
REMARK INTRA:                  -1.781
REMARK UNBOUND:                -2.199
REMARK SMILES O=C([O-])CCCCCCCCCCCCCCC(=O)[O-]
REMARK SMILES IDX 10 1 9 2 8 3 7 4 6 5 5 6 4 7 2 8 1 9 3 10 11 11 12 12 13 13
REMARK SMILES IDX 14 14 15 15 16 16 17 17 18 18 19 19 20 20
REMARK H PARENT
REMARK Flexibility Score: inf
ROOT
ATOM      1  C   UNL     1       5.536  -7.944  31.310  1.00  0.00     0.000 C 
ENDROOT
BRANCH   1   2
ATOM      2  C   UNL     1       5.456  -6.643  32.130  1.00  0.00     0.000 C 
BRANCH   2   3
ATOM      3  C   UNL     1       6.622  -5.662  31.911  1.00  0.00     0.000 C 
BRANCH   3   4
ATOM      4  C   UNL     1       7.966  -6.369  31.679  1.00  0.00     0.000 C 
BRANCH   4   5
ATOM      5  C   UNL     1       8.345  -6.354  30.194  1.00  0.00     0.000 C 
BRANCH   5   6
ATOM      6  C   UNL     1       7.472  -5.360  29.413  1.00  0.00     0.006 C 
BRANCH   6   7
ATOM      7  C   UNL     1       8.193  -4.795  28.182  1.00  0.00     0.053 C 
BRANCH   7   8
ATOM      8  C   UNL     1       7.234  -4.174  27.214  1.00  0.00     0.041 C 
ATOM      9  O   UNL     1       7.205  -2.925  27.060  1.00  0.00    -0.550 OA
ATOM     10  O   UNL     1       6.391  -4.980  26.458  1.00  0.00    -0.550 OA
ENDBRANCH   7   8
ENDBRANCH   6   7
ENDBRANCH   5   6
ENDBRANCH   4   5
ENDBRANCH   3   4
ENDBRANCH   2   3
ENDBRANCH   1   2
BRANCH   1  11
ATOM     11  C   UNL     1       4.327  -8.140  30.378  1.00  0.00     0.000 C 
BRANCH  11  12
ATOM     12  C   UNL     1       4.653  -9.042  29.176  1.00  0.00     0.000 C 
BRANCH  12  13
ATOM     13  C   UNL     1       5.989  -9.787  29.346  1.00  0.00     0.000 C 
BRANCH  13  14
ATOM     14  C   UNL     1       6.806  -9.860  28.044  1.00  0.00     0.000 C 
BRANCH  14  15
ATOM     15  C   UNL     1       7.195  -8.497  27.442  1.00  0.00     0.000 C 
BRANCH  15  16
ATOM     16  C   UNL     1       8.699  -8.384  27.136  1.00  0.00     0.006 C 
BRANCH  16  17
ATOM     17  C   UNL     1       9.299  -9.721  26.683  1.00  0.00     0.053 C 
BRANCH  17  18
ATOM     18  C   UNL     1       9.468  -9.776  25.195  1.00  0.00     0.041 C 
ATOM     19  O   UNL     1      10.604  -9.606  24.679  1.00  0.00    -0.550 OA
ATOM     20  O   UNL     1       8.376 -10.046  24.381  1.00  0.00    -0.550 OA
ENDBRANCH  17  18
ENDBRANCH  16  17
ENDBRANCH  15  16
ENDBRANCH  14  15
ENDBRANCH  13  14
ENDBRANCH  12  13
ENDBRANCH  11  12
ENDBRANCH   1  11
TORSDOF 15
ENDMDL
MODEL 4
REMARK VINA RESULT:    -4.394      2.612      5.648
REMARK INTER + INTRA:         -10.446
REMARK INTER:                  -8.207
REMARK INTRA:                  -2.239
REMARK UNBOUND:                -2.199
REMARK SMILES O=C([O-])CCCCCCCCCCCCCCC(=O)[O-]
REMARK SMILES IDX 10 1 9 2 8 3 7 4 6 5 5 6 4 7 2 8 1 9 3 10 11 11 12 12 13 13
REMARK SMILES IDX 14 14 15 15 16 16 17 17 18 18 19 19 20 20
REMARK H PARENT
REMARK Flexibility Score: inf
ROOT
ATOM      1  C   UNL     1       6.471  -5.758  33.041  1.00  0.00     0.000 C 
ENDROOT
BRANCH   1   2
ATOM      2  C   UNL     1       7.524  -5.279  32.025  1.00  0.00     0.000 C 
BRANCH   2   3
ATOM      3  C   UNL     1       8.267  -6.400  31.277  1.00  0.00     0.000 C 
BRANCH   3   4
ATOM      4  C   UNL     1       7.932  -6.446  29.778  1.00  0.00     0.000 C 
BRANCH   4   5
ATOM      5  C   UNL     1       7.253  -5.148  29.328  1.00  0.00     0.000 C 
BRANCH   5   6
ATOM      6  C   UNL     1       6.098  -5.438  28.358  1.00  0.00     0.006 C 
BRANCH   6   7
ATOM      7  C   UNL     1       6.596  -5.869  26.973  1.00  0.00     0.053 C 
BRANCH   7   8
ATOM      8  C   UNL     1       6.628  -4.719  26.014  1.00  0.00     0.041 C 
ATOM      9  O   UNL     1       7.164  -3.629  26.346  1.00  0.00    -0.550 OA
ATOM     10  O   UNL     1       6.094  -4.862  24.739  1.00  0.00    -0.550 OA
ENDBRANCH   7   8
ENDBRANCH   6   7
ENDBRANCH   5   6
ENDBRANCH   4   5
ENDBRANCH   3   4
ENDBRANCH   2   3
ENDBRANCH   1   2
BRANCH   1  11
ATOM     11  C   UNL     1       5.135  -6.145  32.381  1.00  0.00     0.000 C 
BRANCH  11  12
ATOM     12  C   UNL     1       5.068  -7.638  32.023  1.00  0.00     0.000 C 
BRANCH  12  13
ATOM     13  C   UNL     1       4.545  -7.877  30.596  1.00  0.00     0.000 C 
BRANCH  13  14
ATOM     14  C   UNL     1       5.346  -8.950  29.835  1.00  0.00     0.000 C 
BRANCH  14  15
ATOM     15  C   UNL     1       4.696  -9.441  28.527  1.00  0.00     0.000 C 
BRANCH  15  16
ATOM     16  C   UNL     1       5.701  -9.563  27.368  1.00  0.00     0.006 C 
BRANCH  16  17
ATOM     17  C   UNL     1       7.136  -9.772  27.866  1.00  0.00     0.053 C 
BRANCH  17  18
ATOM     18  C   UNL     1       8.144  -9.337  26.847  1.00  0.00     0.041 C 
ATOM     19  O   UNL     1       9.002  -8.461  27.135  1.00  0.00    -0.550 OA
ATOM     20  O   UNL     1       8.157  -9.923  25.588  1.00  0.00    -0.550 OA
ENDBRANCH  17  18
ENDBRANCH  16  17
ENDBRANCH  15  16
ENDBRANCH  14  15
ENDBRANCH  13  14
ENDBRANCH  12  13
ENDBRANCH  11  12
ENDBRANCH   1  11
TORSDOF 15
ENDMDL
MODEL 5
REMARK VINA RESULT:    -4.332      1.545      2.785
REMARK INTER + INTRA:         -10.330
REMARK INTER:                  -8.229
REMARK INTRA:                  -2.102
REMARK UNBOUND:                -2.199
REMARK SMILES O=C([O-])CCCCCCCCCCCCCCC(=O)[O-]
REMARK SMILES IDX 10 1 9 2 8 3 7 4 6 5 5 6 4 7 2 8 1 9 3 10 11 11 12 12 13 13
REMARK SMILES IDX 14 14 15 15 16 16 17 17 18 18 19 19 20 20
REMARK H PARENT
REMARK Flexibility Score: inf
ROOT
ATOM      1  C   UNL     1       6.377  -9.385  26.704  1.00  0.00     0.000 C 
ENDROOT
BRANCH   1   2
ATOM      2  C   UNL     1       5.241 -10.119  27.440  1.00  0.00     0.000 C 
BRANCH   2   3
ATOM      3  C   UNL     1       5.355 -10.123  28.975  1.00  0.00     0.000 C 
BRANCH   3   4
ATOM      4  C   UNL     1       5.080  -8.748  29.602  1.00  0.00     0.000 C 
BRANCH   4   5
ATOM      5  C   UNL     1       6.277  -8.275  30.434  1.00  0.00     0.000 C 
BRANCH   5   6
ATOM      6  C   UNL     1       5.812  -7.595  31.731  1.00  0.00     0.006 C 
BRANCH   6   7
ATOM      7  C   UNL     1       5.980  -6.071  31.682  1.00  0.00     0.053 C 
BRANCH   7   8
ATOM      8  C   UNL     1       7.310  -5.643  32.222  1.00  0.00     0.041 C 
ATOM      9  O   UNL     1       7.419  -4.562  32.858  1.00  0.00    -0.550 OA
ATOM     10  O   UNL     1       8.424  -6.455  32.050  1.00  0.00    -0.550 OA
ENDBRANCH   7   8
ENDBRANCH   6   7
ENDBRANCH   5   6
ENDBRANCH   4   5
ENDBRANCH   3   4
ENDBRANCH   2   3
ENDBRANCH   1   2
BRANCH   1  11
ATOM     11  C   UNL     1       7.745 -10.069  26.881  1.00  0.00     0.000 C 
BRANCH  11  12
ATOM     12  C   UNL     1       8.772  -9.156  27.571  1.00  0.00     0.000 C 
BRANCH  12  13
ATOM     13  C   UNL     1       8.467  -7.663  27.359  1.00  0.00     0.000 C 
BRANCH  13  14
ATOM     14  C   UNL     1       8.933  -6.782  28.533  1.00  0.00     0.000 C 
BRANCH  14  15
ATOM     15  C   UNL     1       8.218  -5.423  28.650  1.00  0.00     0.000 C 
BRANCH  15  16
ATOM     16  C   UNL     1       6.756  -5.471  28.172  1.00  0.00     0.006 C 
BRANCH  16  17
ATOM     17  C   UNL     1       6.461  -4.406  27.107  1.00  0.00     0.053 C 
BRANCH  17  18
ATOM     18  C   UNL     1       6.204  -5.023  25.766  1.00  0.00     0.041 C 
ATOM     19  O   UNL     1       6.626  -4.464  24.719  1.00  0.00    -0.550 OA
ATOM     20  O   UNL     1       5.526  -6.232  25.675  1.00  0.00    -0.550 OA
ENDBRANCH  17  18
ENDBRANCH  16  17
ENDBRANCH  15  16
ENDBRANCH  14  15
ENDBRANCH  13  14
ENDBRANCH  12  13
ENDBRANCH  11  12
ENDBRANCH   1  11
TORSDOF 15
ENDMDL
MODEL 6
REMARK VINA RESULT:    -4.280      2.233      4.427
REMARK INTER + INTRA:         -10.232
REMARK INTER:                  -7.842
REMARK INTRA:                  -2.391
REMARK UNBOUND:                -2.199
REMARK SMILES O=C([O-])CCCCCCCCCCCCCCC(=O)[O-]
REMARK SMILES IDX 10 1 9 2 8 3 7 4 6 5 5 6 4 7 2 8 1 9 3 10 11 11 12 12 13 13
REMARK SMILES IDX 14 14 15 15 16 16 17 17 18 18 19 19 20 20
REMARK H PARENT
REMARK Flexibility Score: inf
ROOT
ATOM      1  C   UNL     1       6.008  -7.978  31.290  1.00  0.00     0.000 C 
ENDROOT
BRANCH   1   2
ATOM      2  C   UNL     1       6.301  -6.642  31.997  1.00  0.00     0.000 C 
BRANCH   2   3
ATOM      3  C   UNL     1       7.168  -5.655  31.195  1.00  0.00     0.000 C 
BRANCH   3   4
ATOM      4  C   UNL     1       8.111  -6.354  30.204  1.00  0.00     0.000 C 
BRANCH   4   5
ATOM      5  C   UNL     1       7.827  -5.905  28.766  1.00  0.00     0.000 C 
BRANCH   5   6
ATOM      6  C   UNL     1       6.463  -5.206  28.666  1.00  0.00     0.006 C 
BRANCH   6   7
ATOM      7  C   UNL     1       6.067  -4.908  27.215  1.00  0.00     0.053 C 
BRANCH   7   8
ATOM      8  C   UNL     1       6.915  -3.825  26.620  1.00  0.00     0.041 C 
ATOM      9  O   UNL     1       7.257  -3.879  25.410  1.00  0.00    -0.550 OA
ATOM     10  O   UNL     1       7.300  -2.739  27.396  1.00  0.00    -0.550 OA
ENDBRANCH   7   8
ENDBRANCH   6   7
ENDBRANCH   5   6
ENDBRANCH   4   5
ENDBRANCH   3   4
ENDBRANCH   2   3
ENDBRANCH   1   2
BRANCH   1  11
ATOM     11  C   UNL     1       4.681  -7.963  30.508  1.00  0.00     0.000 C 
BRANCH  11  12
ATOM     12  C   UNL     1       4.663  -8.991  29.365  1.00  0.00     0.000 C 
BRANCH  12  13
ATOM     13  C   UNL     1       6.012  -9.713  29.203  1.00  0.00     0.000 C 
BRANCH  13  14
ATOM     14  C   UNL     1       6.699  -9.409  27.859  1.00  0.00     0.000 C 
BRANCH  14  15
ATOM     15  C   UNL     1       5.879  -8.534  26.893  1.00  0.00     0.000 C 
BRANCH  15  16
ATOM     16  C   UNL     1       6.292  -8.717  25.422  1.00  0.00     0.006 C 
BRANCH  16  17
ATOM     17  C   UNL     1       6.300  -7.389  24.654  1.00  0.00     0.053 C 
BRANCH  17  18
ATOM     18  C   UNL     1       4.919  -6.976  24.249  1.00  0.00     0.041 C 
ATOM     19  O   UNL     1       4.648  -5.760  24.063  1.00  0.00    -0.550 OA
ATOM     20  O   UNL     1       3.938  -7.937  24.044  1.00  0.00    -0.550 OA
ENDBRANCH  17  18
ENDBRANCH  16  17
ENDBRANCH  15  16
ENDBRANCH  14  15
ENDBRANCH  13  14
ENDBRANCH  12  13
ENDBRANCH  11  12
ENDBRANCH   1  11
TORSDOF 15
ENDMDL
MODEL 7
REMARK VINA RESULT:    -4.278      3.008      4.293
REMARK INTER + INTRA:         -10.228
REMARK INTER:                  -7.683
REMARK INTRA:                  -2.545
REMARK UNBOUND:                -2.199
REMARK SMILES O=C([O-])CCCCCCCCCCCCCCC(=O)[O-]
REMARK SMILES IDX 10 1 9 2 8 3 7 4 6 5 5 6 4 7 2 8 1 9 3 10 11 11 12 12 13 13
REMARK SMILES IDX 14 14 15 15 16 16 17 17 18 18 19 19 20 20
REMARK H PARENT
REMARK Flexibility Score: inf
ROOT
ATOM      1  C   UNL     1       7.926  -8.422  26.075  1.00  0.00     0.000 C 
ENDROOT
BRANCH   1   2
ATOM      2  C   UNL     1       7.897  -9.155  27.428  1.00  0.00     0.000 C 
BRANCH   2   3
ATOM      3  C   UNL     1       6.540  -9.780  27.802  1.00  0.00     0.000 C 
BRANCH   3   4
ATOM      4  C   UNL     1       6.152  -9.539  29.269  1.00  0.00     0.000 C 
BRANCH   4   5
ATOM      5  C   UNL     1       4.643  -9.312  29.407  1.00  0.00     0.000 C 
BRANCH   5   6
ATOM      6  C   UNL     1       4.348  -8.082  30.278  1.00  0.00     0.006 C 
BRANCH   6   7
ATOM      7  C   UNL     1       5.399  -7.883  31.378  1.00  0.00     0.053 C 
BRANCH   7   8
ATOM      8  C   UNL     1       4.913  -6.951  32.445  1.00  0.00     0.041 C 
ATOM      9  O   UNL     1       3.791  -7.135  32.987  1.00  0.00    -0.550 OA
ATOM     10  O   UNL     1       5.714  -5.896  32.864  1.00  0.00    -0.550 OA
ENDBRANCH   7   8
ENDBRANCH   6   7
ENDBRANCH   5   6
ENDBRANCH   4   5
ENDBRANCH   3   4
ENDBRANCH   2   3
ENDBRANCH   1   2
BRANCH   1  11
ATOM     11  C   UNL     1       6.632  -8.611  25.262  1.00  0.00     0.000 C 
BRANCH  11  12
ATOM     12  C   UNL     1       5.873  -7.291  25.052  1.00  0.00     0.000 C 
BRANCH  12  13
ATOM     13  C   UNL     1       4.797  -7.055  26.126  1.00  0.00     0.000 C 
BRANCH  13  14
ATOM     14  C   UNL     1       5.272  -6.128  27.260  1.00  0.00     0.000 C 
BRANCH  14  15
ATOM     15  C   UNL     1       6.402  -5.156  26.874  1.00  0.00     0.000 C 
BRANCH  15  16
ATOM     16  C   UNL     1       7.287  -4.761  28.070  1.00  0.00     0.006 C 
BRANCH  16  17
ATOM     17  C   UNL     1       7.075  -5.684  29.276  1.00  0.00     0.053 C 
BRANCH  17  18
ATOM     18  C   UNL     1       8.373  -6.222  29.796  1.00  0.00     0.041 C 
ATOM     19  O   UNL     1       9.332  -6.435  29.009  1.00  0.00    -0.550 OA
ATOM     20  O   UNL     1       8.533  -6.457  31.156  1.00  0.00    -0.550 OA
ENDBRANCH  17  18
ENDBRANCH  16  17
ENDBRANCH  15  16
ENDBRANCH  14  15
ENDBRANCH  13  14
ENDBRANCH  12  13
ENDBRANCH  11  12
ENDBRANCH   1  11
TORSDOF 15
ENDMDL
MODEL 8
REMARK VINA RESULT:    -4.239      2.266      6.140
REMARK INTER + INTRA:         -10.155
REMARK INTER:                  -8.003
REMARK INTRA:                  -2.151
REMARK UNBOUND:                -2.199
REMARK SMILES O=C([O-])CCCCCCCCCCCCCCC(=O)[O-]
REMARK SMILES IDX 10 1 9 2 8 3 7 4 6 5 5 6 4 7 2 8 1 9 3 10 11 11 12 12 13 13
REMARK SMILES IDX 14 14 15 15 16 16 17 17 18 18 19 19 20 20
REMARK H PARENT
REMARK Flexibility Score: inf
ROOT
ATOM      1  C   UNL     1       7.884  -6.258  30.736  1.00  0.00     0.000 C 
ENDROOT
BRANCH   1   2
ATOM      2  C   UNL     1       7.868  -5.704  29.299  1.00  0.00     0.000 C 
BRANCH   2   3
ATOM      3  C   UNL     1       6.478  -5.307  28.770  1.00  0.00     0.000 C 
BRANCH   3   4
ATOM      4  C   UNL     1       6.542  -4.283  27.627  1.00  0.00     0.000 C 
BRANCH   4   5
ATOM      5  C   UNL     1       6.953  -4.953  26.311  1.00  0.00     0.000 C 
BRANCH   5   6
ATOM      6  C   UNL     1       5.720  -5.346  25.484  1.00  0.00     0.006 C 
BRANCH   6   7
ATOM      7  C   UNL     1       6.046  -5.501  23.993  1.00  0.00     0.053 C 
BRANCH   7   8
ATOM      8  C   UNL     1       5.034  -6.355  23.292  1.00  0.00     0.041 C 
ATOM      9  O   UNL     1       4.672  -6.076  22.118  1.00  0.00    -0.550 OA
ATOM     10  O   UNL     1       4.514  -7.478  23.923  1.00  0.00    -0.550 OA
ENDBRANCH   7   8
ENDBRANCH   6   7
ENDBRANCH   5   6
ENDBRANCH   4   5
ENDBRANCH   3   4
ENDBRANCH   2   3
ENDBRANCH   1   2
BRANCH   1  11
ATOM     11  C   UNL     1       6.822  -5.608  31.641  1.00  0.00     0.000 C 
BRANCH  11  12
ATOM     12  C   UNL     1       5.767  -6.616  32.125  1.00  0.00     0.000 C 
BRANCH  12  13
ATOM     13  C   UNL     1       5.882  -7.974  31.412  1.00  0.00     0.000 C 
BRANCH  13  14
ATOM     14  C   UNL     1       4.739  -8.226  30.410  1.00  0.00     0.000 C 
BRANCH  14  15
ATOM     15  C   UNL     1       5.030  -9.302  29.348  1.00  0.00     0.000 C 
BRANCH  15  16
ATOM     16  C   UNL     1       6.362  -9.073  28.611  1.00  0.00     0.006 C 
BRANCH  16  17
ATOM     17  C   UNL     1       6.150  -8.628  27.158  1.00  0.00     0.053 C 
BRANCH  17  18
ATOM     18  C   UNL     1       7.445  -8.554  26.408  1.00  0.00     0.041 C 
ATOM     19  O   UNL     1       7.453  -8.602  25.150  1.00  0.00    -0.550 OA
ATOM     20  O   UNL     1       8.640  -8.400  27.099  1.00  0.00    -0.550 OA
ENDBRANCH  17  18
ENDBRANCH  16  17
ENDBRANCH  15  16
ENDBRANCH  14  15
ENDBRANCH  13  14
ENDBRANCH  12  13
ENDBRANCH  11  12
ENDBRANCH   1  11
TORSDOF 15
ENDMDL
MODEL 9
REMARK VINA RESULT:    -4.238      2.756      5.341
REMARK INTER + INTRA:         -10.154
REMARK INTER:                  -8.054
REMARK INTRA:                  -2.099
REMARK UNBOUND:                -2.199
REMARK SMILES O=C([O-])CCCCCCCCCCCCCCC(=O)[O-]
REMARK SMILES IDX 10 1 9 2 8 3 7 4 6 5 5 6 4 7 2 8 1 9 3 10 11 11 12 12 13 13
REMARK SMILES IDX 14 14 15 15 16 16 17 17 18 18 19 19 20 20
REMARK H PARENT
REMARK Flexibility Score: inf
ROOT
ATOM      1  C   UNL     1       5.239  -7.469  32.208  1.00  0.00     0.000 C 
ENDROOT
BRANCH   1   2
ATOM      2  C   UNL     1       4.891  -7.800  30.746  1.00  0.00     0.000 C 
BRANCH   2   3
ATOM      3  C   UNL     1       5.756  -8.898  30.101  1.00  0.00     0.000 C 
BRANCH   3   4
ATOM      4  C   UNL     1       5.927  -8.716  28.586  1.00  0.00     0.000 C 
BRANCH   4   5
ATOM      5  C   UNL     1       5.058  -7.564  28.070  1.00  0.00     0.000 C 
BRANCH   5   6
ATOM      6  C   UNL     1       4.898  -7.635  26.544  1.00  0.00     0.006 C 
BRANCH   6   7
ATOM      7  C   UNL     1       6.210  -7.999  25.838  1.00  0.00     0.053 C 
BRANCH   7   8
ATOM      8  C   UNL     1       6.082  -7.905  24.348  1.00  0.00     0.041 C 
ATOM      9  O   UNL     1       5.000  -7.528  23.826  1.00  0.00    -0.550 OA
ATOM     10  O   UNL     1       7.169  -8.204  23.537  1.00  0.00    -0.550 OA
ENDBRANCH   7   8
ENDBRANCH   6   7
ENDBRANCH   5   6
ENDBRANCH   4   5
ENDBRANCH   3   4
ENDBRANCH   2   3
ENDBRANCH   1   2
BRANCH   1  11
ATOM     11  C   UNL     1       5.258  -5.956  32.492  1.00  0.00     0.000 C 
BRANCH  11  12
ATOM     12  C   UNL     1       6.682  -5.419  32.718  1.00  0.00     0.000 C 
BRANCH  12  13
ATOM     13  C   UNL     1       7.708  -6.061  31.769  1.00  0.00     0.000 C 
BRANCH  13  14
ATOM     14  C   UNL     1       7.646  -5.488  30.341  1.00  0.00     0.000 C 
BRANCH  14  15
ATOM     15  C   UNL     1       8.571  -6.178  29.322  1.00  0.00     0.000 C 
BRANCH  15  16
ATOM     16  C   UNL     1       8.435  -5.601  27.902  1.00  0.00     0.006 C 
BRANCH  16  17
ATOM     17  C   UNL     1       7.214  -4.683  27.765  1.00  0.00     0.053 C 
BRANCH  17  18
ATOM     18  C   UNL     1       7.133  -4.071  26.400  1.00  0.00     0.041 C 
ATOM     19  O   UNL     1       6.397  -4.584  25.517  1.00  0.00    -0.550 OA
ATOM     20  O   UNL     1       7.846  -2.914  26.114  1.00  0.00    -0.550 OA
ENDBRANCH  17  18
ENDBRANCH  16  17
ENDBRANCH  15  16
ENDBRANCH  14  15
ENDBRANCH  13  14
ENDBRANCH  12  13
ENDBRANCH  11  12
ENDBRANCH   1  11
TORSDOF 15
ENDMDL
