MODEL 1
REMARK VINA RESULT:    -6.527      0.000      0.000
REMARK INTER + INTRA:         -10.942
REMARK INTER:                  -9.389
REMARK INTRA:                  -1.553
REMARK UNBOUND:                -1.553
REMARK SMILES O=c1c(O[C@H]2O[C@@H](CO)[C@@H](O)[C@@H](O)[C@@H]2O)c(-c2ccc(O)cc2)oc2cc(O)cc(O)c12
REMARK SMILES IDX 4 1 3 2 16 3 24 4 2 5 25 6 1 7 32 8 26 9 30 10 27 11 29 12
REMARK SMILES IDX 17 13 18 14 19 15 20 16 23 17 22 18 21 19 31 21 28 23 5 25
REMARK SMILES IDX 14 26 6 27 12 28 7 29 10 30 15 31 13 33 8 35 9 36 11 38
REMARK H PARENT 21 20 31 22 28 24 15 32 13 34 9 37 11 39
REMARK Flexibility Score: inf
ROOT
ATOM      1  O   UNL     1     -14.984  38.416  -2.409  1.00  0.00    -0.454 OA
ENDROOT
BRANCH   1   2
ATOM      2  C   UNL     1     -13.806  38.566  -3.152  1.00  0.00     0.214 A 
ATOM      3  C   UNL     1     -12.863  37.527  -3.269  1.00  0.00     0.180 A 
ATOM      4  O   UNL     1     -11.797  37.691  -4.043  1.00  0.00    -0.452 OA
ATOM      5  C   UNL     1     -13.554  39.783  -3.796  1.00  0.00     0.239 A 
ATOM      6  C   UNL     1     -11.544  38.809  -4.712  1.00  0.00     0.146 A 
ATOM      7  O   UNL     1     -14.341  40.743  -3.588  1.00  0.00    -0.285 OA
ATOM      8  C   UNL     1     -12.427  39.918  -4.640  1.00  0.00     0.111 A 
ATOM      9  C   UNL     1     -10.377  38.878  -5.477  1.00  0.00     0.094 A 
ATOM     10  C   UNL     1     -12.115  41.086  -5.399  1.00  0.00     0.134 A 
ATOM     11  C   UNL     1     -10.054  40.041  -6.171  1.00  0.00     0.123 A 
ATOM     12  C   UNL     1     -10.919  41.138  -6.126  1.00  0.00     0.093 A 
BRANCH   3  13
ATOM     13  C   UNL     1     -12.997  36.249  -2.534  1.00  0.00     0.021 A 
ATOM     14  C   UNL     1     -12.784  36.222  -1.146  1.00  0.00     0.016 A 
ATOM     15  C   UNL     1     -12.915  35.025  -0.435  1.00  0.00     0.047 A 
ATOM     16  C   UNL     1     -13.277  33.848  -1.098  1.00  0.00     0.115 A 
ATOM     17  C   UNL     1     -13.384  35.069  -3.192  1.00  0.00     0.016 A 
ATOM     18  C   UNL     1     -13.514  33.874  -2.478  1.00  0.00     0.047 A 
BRANCH  16  19
ATOM     19  O   UNL     1     -13.401  32.663  -0.377  1.00  0.00    -0.508 OA
ATOM     20  H   UNL     1     -14.309  32.273  -0.153  1.00  0.00     0.293 HD
ENDBRANCH  16  19
ENDBRANCH   3  13
BRANCH  10  21
ATOM     21  O   UNL     1     -12.951  42.203  -5.499  1.00  0.00    -0.507 OA
ATOM     22  H   UNL     1     -13.878  42.198  -5.895  1.00  0.00     0.293 HD
ENDBRANCH  10  21
BRANCH  11  23
ATOM     23  O   UNL     1      -8.875  40.097  -6.910  1.00  0.00    -0.508 OA
ATOM     24  H   UNL     1      -8.726  39.500  -7.716  1.00  0.00     0.293 HD
ENDBRANCH  11  23
ENDBRANCH   1   2
BRANCH   1  25
ATOM     25  C   UNL     1     -16.146  37.754  -2.918  1.00  0.00     0.339 C 
ATOM     26  C   UNL     1     -17.255  38.762  -3.271  1.00  0.00     0.214 C 
ATOM     27  O   UNL     1     -16.589  36.740  -2.026  1.00  0.00    -0.332 OA
ATOM     28  C   UNL     1     -17.872  39.374  -2.002  1.00  0.00     0.180 C 
ATOM     29  C   UNL     1     -17.119  37.234  -0.802  1.00  0.00     0.179 C 
ATOM     30  C   UNL     1     -18.259  38.263  -1.013  1.00  0.00     0.177 C 
BRANCH  26  31
ATOM     31  O   UNL     1     -18.249  38.103  -4.015  1.00  0.00    -0.384 OA
ATOM     32  H   UNL     1     -18.920  37.767  -3.366  1.00  0.00     0.211 HD
ENDBRANCH  26  31
BRANCH  28  33
ATOM     33  O   UNL     1     -16.978  40.275  -1.401  1.00  0.00    -0.387 OA
ATOM     34  H   UNL     1     -16.066  40.014  -1.695  1.00  0.00     0.211 HD
ENDBRANCH  28  33
BRANCH  29  35
ATOM     35  C   UNL     1     -16.006  37.671   0.182  1.00  0.00     0.191 C 
BRANCH  35  36
ATOM     36  O   UNL     1     -16.425  37.518   1.512  1.00  0.00    -0.394 OA
ATOM     37  H   UNL     1     -17.417  37.455   1.495  1.00  0.00     0.210 HD
ENDBRANCH  35  36
ENDBRANCH  29  35
BRANCH  30  38
ATOM     38  O   UNL     1     -18.662  38.813   0.215  1.00  0.00    -0.387 OA
ATOM     39  H   UNL     1     -17.969  39.474   0.476  1.00  0.00     0.211 HD
ENDBRANCH  30  38
ENDBRANCH   1  25
TORSDOF 11
ENDMDL
MODEL 2
REMARK VINA RESULT:    -6.402      2.136      6.731
REMARK INTER + INTRA:         -10.762
REMARK INTER:                  -9.136
REMARK INTRA:                  -1.626
REMARK UNBOUND:                -1.553
REMARK SMILES O=c1c(O[C@H]2O[C@@H](CO)[C@@H](O)[C@@H](O)[C@@H]2O)c(-c2ccc(O)cc2)oc2cc(O)cc(O)c12
REMARK SMILES IDX 4 1 3 2 16 3 24 4 2 5 25 6 1 7 32 8 26 9 30 10 27 11 29 12
REMARK SMILES IDX 17 13 18 14 19 15 20 16 23 17 22 18 21 19 31 21 28 23 5 25
REMARK SMILES IDX 14 26 6 27 12 28 7 29 10 30 15 31 13 33 8 35 9 36 11 38
REMARK H PARENT 21 20 31 22 28 24 15 32 13 34 9 37 11 39
REMARK Flexibility Score: inf
ROOT
ATOM      1  O   UNL     1     -14.361  38.202  -2.007  1.00  0.00    -0.454 OA
ENDROOT
BRANCH   1   2
ATOM      2  C   UNL     1     -15.183  37.490  -1.123  1.00  0.00     0.214 A 
ATOM      3  C   UNL     1     -14.916  36.151  -0.773  1.00  0.00     0.180 A 
ATOM      4  O   UNL     1     -15.682  35.541   0.123  1.00  0.00    -0.452 OA
ATOM      5  C   UNL     1     -16.304  38.122  -0.572  1.00  0.00     0.239 A 
ATOM      6  C   UNL     1     -16.724  36.118   0.709  1.00  0.00     0.146 A 
ATOM      7  O   UNL     1     -16.601  39.274  -0.981  1.00  0.00    -0.285 OA
ATOM      8  C   UNL     1     -17.082  37.458   0.406  1.00  0.00     0.111 A 
ATOM      9  C   UNL     1     -17.474  35.371   1.620  1.00  0.00     0.094 A 
ATOM     10  C   UNL     1     -18.199  38.033   1.083  1.00  0.00     0.134 A 
ATOM     11  C   UNL     1     -18.594  35.924   2.236  1.00  0.00     0.123 A 
ATOM     12  C   UNL     1     -18.954  37.246   1.963  1.00  0.00     0.093 A 
BRANCH   3  13
ATOM     13  C   UNL     1     -13.819  35.376  -1.393  1.00  0.00     0.021 A 
ATOM     14  C   UNL     1     -12.734  34.956  -0.605  1.00  0.00     0.016 A 
ATOM     15  C   UNL     1     -11.693  34.216  -1.172  1.00  0.00     0.047 A 
ATOM     16  C   UNL     1     -11.731  33.872  -2.527  1.00  0.00     0.115 A 
ATOM     17  C   UNL     1     -13.864  35.006  -2.748  1.00  0.00     0.016 A 
ATOM     18  C   UNL     1     -12.821  34.267  -3.314  1.00  0.00     0.047 A 
BRANCH  16  19
ATOM     19  O   UNL     1     -10.686  33.136  -3.079  1.00  0.00    -0.508 OA
ATOM     20  H   UNL     1      -9.984  32.694  -2.497  1.00  0.00     0.293 HD
ENDBRANCH  16  19
ENDBRANCH   3  13
BRANCH  10  21
ATOM     21  O   UNL     1     -18.591  39.370   0.955  1.00  0.00    -0.507 OA
ATOM     22  H   UNL     1     -19.517  39.679   0.705  1.00  0.00     0.293 HD
ENDBRANCH  10  21
BRANCH  11  23
ATOM     23  O   UNL     1     -19.340  35.154   3.125  1.00  0.00    -0.508 OA
ATOM     24  H   UNL     1     -19.351  35.353   4.118  1.00  0.00     0.293 HD
ENDBRANCH  11  23
ENDBRANCH   1   2
BRANCH   1  25
ATOM     25  C   UNL     1     -13.108  38.771  -1.615  1.00  0.00     0.339 C 
ATOM     26  C   UNL     1     -13.271  40.240  -1.186  1.00  0.00     0.214 C 
ATOM     27  O   UNL     1     -12.130  38.601  -2.632  1.00  0.00    -0.332 OA
ATOM     28  C   UNL     1     -13.570  41.142  -2.396  1.00  0.00     0.180 C 
ATOM     29  C   UNL     1     -12.376  39.362  -3.809  1.00  0.00     0.179 C 
ATOM     30  C   UNL     1     -12.554  40.875  -3.518  1.00  0.00     0.177 C 
BRANCH  26  31
ATOM     31  O   UNL     1     -12.088  40.663  -0.556  1.00  0.00    -0.384 OA
ATOM     32  H   UNL     1     -12.335  41.411   0.049  1.00  0.00     0.211 HD
ENDBRANCH  26  31
BRANCH  28  33
ATOM     33  O   UNL     1     -14.879  40.931  -2.859  1.00  0.00    -0.387 OA
ATOM     34  H   UNL     1     -14.830  40.212  -3.542  1.00  0.00     0.211 HD
ENDBRANCH  28  33
BRANCH  29  35
ATOM     35  C   UNL     1     -13.471  38.725  -4.698  1.00  0.00     0.191 C 
BRANCH  35  36
ATOM     36  O   UNL     1     -13.385  39.199  -6.016  1.00  0.00    -0.394 OA
ATOM     37  H   UNL     1     -14.031  38.669  -6.553  1.00  0.00     0.210 HD
ENDBRANCH  35  36
ENDBRANCH  29  35
BRANCH  30  38
ATOM     38  O   UNL     1     -12.918  41.562  -4.688  1.00  0.00    -0.387 OA
ATOM     39  H   UNL     1     -13.360  42.404  -4.402  1.00  0.00     0.211 HD
ENDBRANCH  30  38
ENDBRANCH   1  25
TORSDOF 11
ENDMDL
MODEL 3
REMARK VINA RESULT:    -6.367      3.331      5.455
REMARK INTER + INTRA:         -10.712
REMARK INTER:                 -10.195
REMARK INTRA:                  -0.518
REMARK UNBOUND:                -1.553
REMARK SMILES O=c1c(O[C@H]2O[C@@H](CO)[C@@H](O)[C@@H](O)[C@@H]2O)c(-c2ccc(O)cc2)oc2cc(O)cc(O)c12
REMARK SMILES IDX 4 1 3 2 16 3 24 4 2 5 25 6 1 7 32 8 26 9 30 10 27 11 29 12
REMARK SMILES IDX 17 13 18 14 19 15 20 16 23 17 22 18 21 19 31 21 28 23 5 25
REMARK SMILES IDX 14 26 6 27 12 28 7 29 10 30 15 31 13 33 8 35 9 36 11 38
REMARK H PARENT 21 20 31 22 28 24 15 32 13 34 9 37 11 39
REMARK Flexibility Score: inf
ROOT
ATOM      1  O   UNL     1     -15.243  37.042   0.491  1.00  0.00    -0.454 OA
ENDROOT
BRANCH   1   2
ATOM      2  C   UNL     1     -14.398  36.607  -0.539  1.00  0.00     0.214 A 
ATOM      3  C   UNL     1     -14.777  36.682  -1.894  1.00  0.00     0.180 A 
ATOM      4  O   UNL     1     -13.915  36.324  -2.838  1.00  0.00    -0.452 OA
ATOM      5  C   UNL     1     -13.143  36.079  -0.217  1.00  0.00     0.239 A 
ATOM      6  C   UNL     1     -12.696  35.866  -2.580  1.00  0.00     0.146 A 
ATOM      7  O   UNL     1     -12.861  35.906   0.997  1.00  0.00    -0.285 OA
ATOM      8  C   UNL     1     -12.233  35.737  -1.245  1.00  0.00     0.111 A 
ATOM      9  C   UNL     1     -11.883  35.496  -3.654  1.00  0.00     0.094 A 
ATOM     10  C   UNL     1     -10.905  35.260  -1.030  1.00  0.00     0.134 A 
ATOM     11  C   UNL     1     -10.608  34.981  -3.431  1.00  0.00     0.123 A 
ATOM     12  C   UNL     1     -10.128  34.861  -2.125  1.00  0.00     0.093 A 
BRANCH   3  13
ATOM     13  C   UNL     1     -16.125  37.123  -2.315  1.00  0.00     0.021 A 
ATOM     14  C   UNL     1     -16.502  38.465  -2.142  1.00  0.00     0.016 A 
ATOM     15  C   UNL     1     -17.769  38.900  -2.542  1.00  0.00     0.047 A 
ATOM     16  C   UNL     1     -18.667  38.005  -3.134  1.00  0.00     0.115 A 
ATOM     17  C   UNL     1     -17.022  36.234  -2.933  1.00  0.00     0.016 A 
ATOM     18  C   UNL     1     -18.288  36.671  -3.331  1.00  0.00     0.047 A 
BRANCH  16  19
ATOM     19  O   UNL     1     -19.926  38.453  -3.525  1.00  0.00    -0.508 OA
ATOM     20  H   UNL     1     -20.097  38.799  -4.462  1.00  0.00     0.293 HD
ENDBRANCH  16  19
ENDBRANCH   3  13
BRANCH  10  21
ATOM     21  O   UNL     1     -10.292  35.186   0.226  1.00  0.00    -0.507 OA
ATOM     22  H   UNL     1      -9.785  35.937   0.667  1.00  0.00     0.293 HD
ENDBRANCH  10  21
BRANCH  11  23
ATOM     23  O   UNL     1      -9.822  34.598  -4.515  1.00  0.00    -0.508 OA
ATOM     24  H   UNL     1      -9.941  35.016  -5.430  1.00  0.00     0.293 HD
ENDBRANCH  11  23
ENDBRANCH   1   2
BRANCH   1  25
ATOM     25  C   UNL     1     -15.298  36.407   1.771  1.00  0.00     0.339 C 
ATOM     26  C   UNL     1     -16.093  35.090   1.710  1.00  0.00     0.214 C 
ATOM     27  O   UNL     1     -15.788  37.298   2.763  1.00  0.00    -0.332 OA
ATOM     28  C   UNL     1     -17.596  35.359   1.516  1.00  0.00     0.180 C 
ATOM     29  C   UNL     1     -17.162  37.639   2.611  1.00  0.00     0.179 C 
ATOM     30  C   UNL     1     -18.084  36.395   2.541  1.00  0.00     0.177 C 
BRANCH  26  31
ATOM     31  O   UNL     1     -15.885  34.376   2.902  1.00  0.00    -0.384 OA
ATOM     32  H   UNL     1     -14.972  34.604   3.219  1.00  0.00     0.211 HD
ENDBRANCH  26  31
BRANCH  28  33
ATOM     33  O   UNL     1     -17.855  35.802   0.209  1.00  0.00    -0.387 OA
ATOM     34  H   UNL     1     -18.842  35.839   0.109  1.00  0.00     0.211 HD
ENDBRANCH  28  33
BRANCH  29  35
ATOM     35  C   UNL     1     -17.382  38.691   1.498  1.00  0.00     0.191 C 
BRANCH  35  36
ATOM     36  O   UNL     1     -18.634  39.309   1.633  1.00  0.00    -0.394 OA
ATOM     37  H   UNL     1     -19.220  38.927   0.926  1.00  0.00     0.210 HD
ENDBRANCH  35  36
ENDBRANCH  29  35
BRANCH  30  38
ATOM     38  O   UNL     1     -19.407  36.777   2.265  1.00  0.00    -0.387 OA
ATOM     39  H   UNL     1     -19.365  37.480   1.566  1.00  0.00     0.211 HD
ENDBRANCH  30  38
ENDBRANCH   1  25
TORSDOF 11
ENDMDL
MODEL 4
REMARK VINA RESULT:    -6.348      1.944      4.829
REMARK INTER + INTRA:         -10.685
REMARK INTER:                  -9.200
REMARK INTRA:                  -1.485
REMARK UNBOUND:                -1.553
REMARK SMILES O=c1c(O[C@H]2O[C@@H](CO)[C@@H](O)[C@@H](O)[C@@H]2O)c(-c2ccc(O)cc2)oc2cc(O)cc(O)c12
REMARK SMILES IDX 4 1 3 2 16 3 24 4 2 5 25 6 1 7 32 8 26 9 30 10 27 11 29 12
REMARK SMILES IDX 17 13 18 14 19 15 20 16 23 17 22 18 21 19 31 21 28 23 5 25
REMARK SMILES IDX 14 26 6 27 12 28 7 29 10 30 15 31 13 33 8 35 9 36 11 38
REMARK H PARENT 21 20 31 22 28 24 15 32 13 34 9 37 11 39
REMARK Flexibility Score: inf
ROOT
ATOM      1  O   UNL     1     -14.106  36.556  -0.968  1.00  0.00    -0.454 OA
ENDROOT
BRANCH   1   2
ATOM      2  C   UNL     1     -13.589  37.213  -2.092  1.00  0.00     0.214 A 
ATOM      3  C   UNL     1     -14.360  38.122  -2.843  1.00  0.00     0.180 A 
ATOM      4  O   UNL     1     -13.805  38.774  -3.857  1.00  0.00    -0.452 OA
ATOM      5  C   UNL     1     -12.269  36.961  -2.485  1.00  0.00     0.239 A 
ATOM      6  C   UNL     1     -12.543  38.605  -4.232  1.00  0.00     0.146 A 
ATOM      7  O   UNL     1     -11.628  36.062  -1.882  1.00  0.00    -0.285 OA
ATOM      8  C   UNL     1     -11.694  37.696  -3.548  1.00  0.00     0.111 A 
ATOM      9  C   UNL     1     -12.072  39.329  -5.330  1.00  0.00     0.094 A 
ATOM     10  C   UNL     1     -10.340  37.572  -3.983  1.00  0.00     0.134 A 
ATOM     11  C   UNL     1     -10.765  39.160  -5.781  1.00  0.00     0.123 A 
ATOM     12  C   UNL     1      -9.909  38.282  -5.111  1.00  0.00     0.093 A 
BRANCH   3  13
ATOM     13  C   UNL     1     -15.794  38.363  -2.563  1.00  0.00     0.021 A 
ATOM     14  C   UNL     1     -16.163  39.344  -1.629  1.00  0.00     0.016 A 
ATOM     15  C   UNL     1     -17.513  39.590  -1.360  1.00  0.00     0.047 A 
ATOM     16  C   UNL     1     -18.507  38.871  -2.031  1.00  0.00     0.115 A 
ATOM     17  C   UNL     1     -16.797  37.660  -3.253  1.00  0.00     0.016 A 
ATOM     18  C   UNL     1     -18.146  37.907  -2.981  1.00  0.00     0.047 A 
BRANCH  16  19
ATOM     19  O   UNL     1     -19.847  39.125  -1.750  1.00  0.00    -0.508 OA
ATOM     20  H   UNL     1     -20.136  39.962  -1.258  1.00  0.00     0.293 HD
ENDBRANCH  16  19
ENDBRANCH   3  13
BRANCH  10  21
ATOM     21  O   UNL     1      -9.376  36.794  -3.333  1.00  0.00    -0.507 OA
ATOM     22  H   UNL     1      -9.259  35.800  -3.452  1.00  0.00     0.293 HD
ENDBRANCH  10  21
BRANCH  11  23
ATOM     23  O   UNL     1     -10.322  39.875  -6.890  1.00  0.00    -0.508 OA
ATOM     24  H   UNL     1      -9.693  40.664  -6.796  1.00  0.00     0.293 HD
ENDBRANCH  11  23
ENDBRANCH   1   2
BRANCH   1  25
ATOM     25  C   UNL     1     -13.741  36.902   0.372  1.00  0.00     0.339 C 
ATOM     26  C   UNL     1     -13.075  35.718   1.095  1.00  0.00     0.214 C 
ATOM     27  O   UNL     1     -14.854  37.425   1.085  1.00  0.00    -0.332 OA
ATOM     28  C   UNL     1     -14.098  34.613   1.409  1.00  0.00     0.180 C 
ATOM     29  C   UNL     1     -15.871  36.468   1.359  1.00  0.00     0.179 C 
ATOM     30  C   UNL     1     -15.332  35.216   2.097  1.00  0.00     0.177 C 
BRANCH  26  31
ATOM     31  O   UNL     1     -12.492  36.182   2.286  1.00  0.00    -0.384 OA
ATOM     32  H   UNL     1     -13.040  36.949   2.596  1.00  0.00     0.211 HD
ENDBRANCH  26  31
BRANCH  28  33
ATOM     33  O   UNL     1     -14.472  33.936   0.236  1.00  0.00    -0.387 OA
ATOM     34  H   UNL     1     -14.178  32.994   0.342  1.00  0.00     0.211 HD
ENDBRANCH  28  33
BRANCH  29  35
ATOM     35  C   UNL     1     -16.749  36.179   0.118  1.00  0.00     0.191 C 
BRANCH  35  36
ATOM     36  O   UNL     1     -18.030  35.750   0.500  1.00  0.00    -0.394 OA
ATOM     37  H   UNL     1     -18.679  36.252  -0.061  1.00  0.00     0.210 HD
ENDBRANCH  35  36
ENDBRANCH  29  35
BRANCH  30  38
ATOM     38  O   UNL     1     -16.344  34.250   2.233  1.00  0.00    -0.387 OA
ATOM     39  H   UNL     1     -16.403  33.771   1.365  1.00  0.00     0.211 HD
ENDBRANCH  30  38
ENDBRANCH   1  25
TORSDOF 11
ENDMDL
MODEL 5
REMARK VINA RESULT:    -6.321      1.657      4.855
REMARK INTER + INTRA:         -10.646
REMARK INTER:                  -9.526
REMARK INTRA:                  -1.120
REMARK UNBOUND:                -1.553
REMARK SMILES O=c1c(O[C@H]2O[C@@H](CO)[C@@H](O)[C@@H](O)[C@@H]2O)c(-c2ccc(O)cc2)oc2cc(O)cc(O)c12
REMARK SMILES IDX 4 1 3 2 16 3 24 4 2 5 25 6 1 7 32 8 26 9 30 10 27 11 29 12
REMARK SMILES IDX 17 13 18 14 19 15 20 16 23 17 22 18 21 19 31 21 28 23 5 25
REMARK SMILES IDX 14 26 6 27 12 28 7 29 10 30 15 31 13 33 8 35 9 36 11 38
REMARK H PARENT 21 20 31 22 28 24 15 32 13 34 9 37 11 39
REMARK Flexibility Score: inf
ROOT
ATOM      1  O   UNL     1     -14.226  36.460  -2.640  1.00  0.00    -0.454 OA
ENDROOT
BRANCH   1   2
ATOM      2  C   UNL     1     -13.786  37.554  -3.399  1.00  0.00     0.214 A 
ATOM      3  C   UNL     1     -14.603  38.679  -3.623  1.00  0.00     0.180 A 
ATOM      4  O   UNL     1     -14.118  39.721  -4.288  1.00  0.00    -0.452 OA
ATOM      5  C   UNL     1     -12.502  37.529  -3.954  1.00  0.00     0.239 A 
ATOM      6  C   UNL     1     -12.889  39.762  -4.787  1.00  0.00     0.146 A 
ATOM      7  O   UNL     1     -11.826  36.473  -3.849  1.00  0.00    -0.285 OA
ATOM      8  C   UNL     1     -12.000  38.667  -4.628  1.00  0.00     0.111 A 
ATOM      9  C   UNL     1     -12.494  40.902  -5.491  1.00  0.00     0.094 A 
ATOM     10  C   UNL     1     -10.683  38.776  -5.169  1.00  0.00     0.134 A 
ATOM     11  C   UNL     1     -11.225  40.977  -6.060  1.00  0.00     0.123 A 
ATOM     12  C   UNL     1     -10.330  39.916  -5.902  1.00  0.00     0.093 A 
BRANCH   3  13
ATOM     13  C   UNL     1     -16.009  38.740  -3.166  1.00  0.00     0.021 A 
ATOM     14  C   UNL     1     -16.368  39.629  -2.140  1.00  0.00     0.016 A 
ATOM     15  C   UNL     1     -17.694  39.705  -1.702  1.00  0.00     0.047 A 
ATOM     16  C   UNL     1     -18.678  38.908  -2.295  1.00  0.00     0.115 A 
ATOM     17  C   UNL     1     -17.006  37.959  -3.775  1.00  0.00     0.016 A 
ATOM     18  C   UNL     1     -18.331  38.036  -3.335  1.00  0.00     0.047 A 
BRANCH  16  19
ATOM     19  O   UNL     1     -19.993  38.992  -1.847  1.00  0.00    -0.508 OA
ATOM     20  H   UNL     1     -20.250  39.586  -1.068  1.00  0.00     0.293 HD
ENDBRANCH  16  19
ENDBRANCH   3  13
BRANCH  10  21
ATOM     21  O   UNL     1      -9.681  37.817  -4.992  1.00  0.00    -0.507 OA
ATOM     22  H   UNL     1      -9.762  36.844  -5.241  1.00  0.00     0.293 HD
ENDBRANCH  10  21
BRANCH  11  23
ATOM     23  O   UNL     1     -10.858  42.115  -6.776  1.00  0.00    -0.508 OA
ATOM     24  H   UNL     1     -11.213  42.291  -7.709  1.00  0.00     0.293 HD
ENDBRANCH  11  23
ENDBRANCH   1   2
BRANCH   1  25
ATOM     25  C   UNL     1     -14.786  36.598  -1.331  1.00  0.00     0.339 C 
ATOM     26  C   UNL     1     -13.774  37.218  -0.350  1.00  0.00     0.214 C 
ATOM     27  O   UNL     1     -15.313  35.362  -0.868  1.00  0.00    -0.332 OA
ATOM     28  C   UNL     1     -12.645  36.227  -0.019  1.00  0.00     0.180 C 
ATOM     29  C   UNL     1     -14.324  34.374  -0.597  1.00  0.00     0.179 C 
ATOM     30  C   UNL     1     -13.237  34.869   0.391  1.00  0.00     0.177 C 
BRANCH  26  31
ATOM     31  O   UNL     1     -14.448  37.586   0.827  1.00  0.00    -0.384 OA
ATOM     32  H   UNL     1     -15.185  38.195   0.558  1.00  0.00     0.211 HD
ENDBRANCH  26  31
BRANCH  28  33
ATOM     33  O   UNL     1     -11.782  36.075  -1.116  1.00  0.00    -0.387 OA
ATOM     34  H   UNL     1     -11.575  36.988  -1.448  1.00  0.00     0.211 HD
ENDBRANCH  28  33
BRANCH  29  35
ATOM     35  C   UNL     1     -13.793  33.711  -1.890  1.00  0.00     0.191 C 
BRANCH  35  36
ATOM     36  O   UNL     1     -13.254  32.444  -1.618  1.00  0.00    -0.394 OA
ATOM     37  H   UNL     1     -12.793  32.512  -0.741  1.00  0.00     0.210 HD
ENDBRANCH  35  36
ENDBRANCH  29  35
BRANCH  30  38
ATOM     38  O   UNL     1     -12.221  33.909   0.528  1.00  0.00    -0.387 OA
ATOM     39  H   UNL     1     -12.290  33.303  -0.255  1.00  0.00     0.211 HD
ENDBRANCH  30  38
ENDBRANCH   1  25
TORSDOF 11
ENDMDL
MODEL 6
REMARK VINA RESULT:    -6.270      1.634      4.647
REMARK INTER + INTRA:         -10.573
REMARK INTER:                  -8.841
REMARK INTRA:                  -1.731
REMARK UNBOUND:                -1.553
REMARK SMILES O=c1c(O[C@H]2O[C@@H](CO)[C@@H](O)[C@@H](O)[C@@H]2O)c(-c2ccc(O)cc2)oc2cc(O)cc(O)c12
REMARK SMILES IDX 4 1 3 2 16 3 24 4 2 5 25 6 1 7 32 8 26 9 30 10 27 11 29 12
REMARK SMILES IDX 17 13 18 14 19 15 20 16 23 17 22 18 21 19 31 21 28 23 5 25
REMARK SMILES IDX 14 26 6 27 12 28 7 29 10 30 15 31 13 33 8 35 9 36 11 38
REMARK H PARENT 21 20 31 22 28 24 15 32 13 34 9 37 11 39
REMARK Flexibility Score: inf
ROOT
ATOM      1  O   UNL     1     -13.383  36.891  -2.444  1.00  0.00    -0.454 OA
ENDROOT
BRANCH   1   2
ATOM      2  C   UNL     1     -13.133  38.010  -3.250  1.00  0.00     0.214 A 
ATOM      3  C   UNL     1     -14.045  39.080  -3.340  1.00  0.00     0.180 A 
ATOM      4  O   UNL     1     -13.732  40.151  -4.060  1.00  0.00    -0.452 OA
ATOM      5  C   UNL     1     -11.948  38.067  -3.992  1.00  0.00     0.239 A 
ATOM      6  C   UNL     1     -12.597  40.270  -4.738  1.00  0.00     0.146 A 
ATOM      7  O   UNL     1     -11.198  37.057  -3.999  1.00  0.00    -0.285 OA
ATOM      8  C   UNL     1     -11.626  39.234  -4.723  1.00  0.00     0.111 A 
ATOM      9  C   UNL     1     -12.385  41.433  -5.482  1.00  0.00     0.094 A 
ATOM     10  C   UNL     1     -10.415  39.428  -5.454  1.00  0.00     0.134 A 
ATOM     11  C   UNL     1     -11.223  41.589  -6.235  1.00  0.00     0.123 A 
ATOM     12  C   UNL     1     -10.248  40.588  -6.221  1.00  0.00     0.093 A 
BRANCH   3  13
ATOM     13  C   UNL     1     -15.368  39.051  -2.677  1.00  0.00     0.021 A 
ATOM     14  C   UNL     1     -16.489  38.586  -3.384  1.00  0.00     0.016 A 
ATOM     15  C   UNL     1     -17.744  38.544  -2.770  1.00  0.00     0.047 A 
ATOM     16  C   UNL     1     -17.891  38.950  -1.440  1.00  0.00     0.115 A 
ATOM     17  C   UNL     1     -15.516  39.435  -1.333  1.00  0.00     0.016 A 
ATOM     18  C   UNL     1     -16.772  39.393  -0.721  1.00  0.00     0.047 A 
BRANCH  16  19
ATOM     19  O   UNL     1     -19.147  38.905  -0.842  1.00  0.00    -0.508 OA
ATOM     20  H   UNL     1     -19.425  38.131  -0.250  1.00  0.00     0.293 HD
ENDBRANCH  16  19
ENDBRANCH   3  13
BRANCH  10  21
ATOM     21  O   UNL     1      -9.338  38.535  -5.437  1.00  0.00    -0.507 OA
ATOM     22  H   UNL     1      -8.952  38.110  -4.608  1.00  0.00     0.293 HD
ENDBRANCH  10  21
BRANCH  11  23
ATOM     23  O   UNL     1     -11.041  42.747  -6.987  1.00  0.00    -0.508 OA
ATOM     24  H   UNL     1     -10.719  43.609  -6.564  1.00  0.00     0.293 HD
ENDBRANCH  11  23
ENDBRANCH   1   2
BRANCH   1  25
ATOM     25  C   UNL     1     -14.099  35.742  -2.909  1.00  0.00     0.339 C 
ATOM     26  C   UNL     1     -15.382  35.512  -2.090  1.00  0.00     0.214 C 
ATOM     27  O   UNL     1     -13.258  34.597  -2.945  1.00  0.00    -0.332 OA
ATOM     28  C   UNL     1     -15.052  35.024  -0.669  1.00  0.00     0.180 C 
ATOM     29  C   UNL     1     -12.864  34.124  -1.663  1.00  0.00     0.179 C 
ATOM     30  C   UNL     1     -14.070  33.844  -0.730  1.00  0.00     0.177 C 
BRANCH  26  31
ATOM     31  O   UNL     1     -16.178  34.561  -2.749  1.00  0.00    -0.384 OA
ATOM     32  H   UNL     1     -16.150  34.782  -3.717  1.00  0.00     0.211 HD
ENDBRANCH  26  31
BRANCH  28  33
ATOM     33  O   UNL     1     -14.517  36.068   0.102  1.00  0.00    -0.387 OA
ATOM     34  H   UNL     1     -14.224  35.669   0.963  1.00  0.00     0.211 HD
ENDBRANCH  28  33
BRANCH  29  35
ATOM     35  C   UNL     1     -11.735  34.985  -1.046  1.00  0.00     0.191 C 
BRANCH  35  36
ATOM     36  O   UNL     1     -10.733  35.250  -1.992  1.00  0.00    -0.394 OA
ATOM     37  H   UNL     1     -10.221  36.032  -1.655  1.00  0.00     0.210 HD
ENDBRANCH  35  36
ENDBRANCH  29  35
BRANCH  30  38
ATOM     38  O   UNL     1     -13.628  33.501   0.559  1.00  0.00    -0.387 OA
ATOM     39  H   UNL     1     -13.180  34.305   0.933  1.00  0.00     0.211 HD
ENDBRANCH  30  38
ENDBRANCH   1  25
TORSDOF 11
ENDMDL
MODEL 7
REMARK VINA RESULT:    -6.182      2.820      4.560
REMARK INTER + INTRA:         -10.445
REMARK INTER:                  -9.469
REMARK INTRA:                  -0.976
REMARK UNBOUND:                -1.553
REMARK SMILES O=c1c(O[C@H]2O[C@@H](CO)[C@@H](O)[C@@H](O)[C@@H]2O)c(-c2ccc(O)cc2)oc2cc(O)cc(O)c12
REMARK SMILES IDX 4 1 3 2 16 3 24 4 2 5 25 6 1 7 32 8 26 9 30 10 27 11 29 12
REMARK SMILES IDX 17 13 18 14 19 15 20 16 23 17 22 18 21 19 31 21 28 23 5 25
REMARK SMILES IDX 14 26 6 27 12 28 7 29 10 30 15 31 13 33 8 35 9 36 11 38
REMARK H PARENT 21 20 31 22 28 24 15 32 13 34 9 37 11 39
REMARK Flexibility Score: inf
ROOT
ATOM      1  O   UNL     1     -15.610  37.814   0.709  1.00  0.00    -0.454 OA
ENDROOT
BRANCH   1   2
ATOM      2  C   UNL     1     -14.631  38.290  -0.173  1.00  0.00     0.214 A 
ATOM      3  C   UNL     1     -14.686  38.032  -1.557  1.00  0.00     0.180 A 
ATOM      4  O   UNL     1     -13.775  38.565  -2.362  1.00  0.00    -0.452 OA
ATOM      5  C   UNL     1     -13.563  39.041   0.332  1.00  0.00     0.239 A 
ATOM      6  C   UNL     1     -12.775  39.325  -1.933  1.00  0.00     0.146 A 
ATOM      7  O   UNL     1     -13.458  39.166   1.580  1.00  0.00    -0.285 OA
ATOM      8  C   UNL     1     -12.626  39.624  -0.553  1.00  0.00     0.111 A 
ATOM      9  C   UNL     1     -11.860  39.813  -2.869  1.00  0.00     0.094 A 
ATOM     10  C   UNL     1     -11.544  40.466  -0.153  1.00  0.00     0.134 A 
ATOM     11  C   UNL     1     -10.777  40.588  -2.462  1.00  0.00     0.123 A 
ATOM     12  C   UNL     1     -10.622  40.907  -1.110  1.00  0.00     0.093 A 
BRANCH   3  13
ATOM     13  C   UNL     1     -15.717  37.156  -2.157  1.00  0.00     0.021 A 
ATOM     14  C   UNL     1     -15.488  35.774  -2.246  1.00  0.00     0.016 A 
ATOM     15  C   UNL     1     -16.455  34.932  -2.803  1.00  0.00     0.047 A 
ATOM     16  C   UNL     1     -17.667  35.458  -3.262  1.00  0.00     0.115 A 
ATOM     17  C   UNL     1     -16.947  37.677  -2.597  1.00  0.00     0.016 A 
ATOM     18  C   UNL     1     -17.912  36.833  -3.155  1.00  0.00     0.047 A 
BRANCH  16  19
ATOM     19  O   UNL     1     -18.620  34.608  -3.817  1.00  0.00    -0.508 OA
ATOM     20  H   UNL     1     -19.600  34.675  -3.567  1.00  0.00     0.293 HD
ENDBRANCH  16  19
ENDBRANCH   3  13
BRANCH  10  21
ATOM     21  O   UNL     1     -11.347  40.920   1.155  1.00  0.00    -0.507 OA
ATOM     22  H   UNL     1     -11.428  41.880   1.452  1.00  0.00     0.293 HD
ENDBRANCH  10  21
BRANCH  11  23
ATOM     23  O   UNL     1      -9.865  41.046  -3.409  1.00  0.00    -0.508 OA
ATOM     24  H   UNL     1      -9.615  42.026  -3.474  1.00  0.00     0.293 HD
ENDBRANCH  11  23
ENDBRANCH   1   2
BRANCH   1  25
ATOM     25  C   UNL     1     -15.316  36.919   1.787  1.00  0.00     0.339 C 
ATOM     26  C   UNL     1     -15.770  35.484   1.463  1.00  0.00     0.214 C 
ATOM     27  O   UNL     1     -15.853  37.402   3.011  1.00  0.00    -0.332 OA
ATOM     28  C   UNL     1     -17.304  35.371   1.476  1.00  0.00     0.180 C 
ATOM     29  C   UNL     1     -17.275  37.382   3.071  1.00  0.00     0.179 C 
ATOM     30  C   UNL     1     -17.868  35.982   2.768  1.00  0.00     0.177 C 
BRANCH  26  31
ATOM     31  O   UNL     1     -15.218  34.608   2.413  1.00  0.00    -0.384 OA
ATOM     32  H   UNL     1     -14.247  34.810   2.462  1.00  0.00     0.211 HD
ENDBRANCH  26  31
BRANCH  28  33
ATOM     33  O   UNL     1     -17.857  36.005   0.351  1.00  0.00    -0.387 OA
ATOM     34  H   UNL     1     -18.808  36.192   0.566  1.00  0.00     0.211 HD
ENDBRANCH  28  33
BRANCH  29  35
ATOM     35  C   UNL     1     -17.908  38.554   2.283  1.00  0.00     0.191 C 
BRANCH  35  36
ATOM     36  O   UNL     1     -19.097  38.152   1.655  1.00  0.00    -0.394 OA
ATOM     37  H   UNL     1     -19.669  38.960   1.581  1.00  0.00     0.210 HD
ENDBRANCH  35  36
ENDBRANCH  29  35
BRANCH  30  38
ATOM     38  O   UNL     1     -19.271  36.041   2.715  1.00  0.00    -0.387 OA
ATOM     39  H   UNL     1     -19.588  35.138   2.455  1.00  0.00     0.211 HD
ENDBRANCH  30  38
ENDBRANCH   1  25
TORSDOF 11
ENDMDL
MODEL 8
REMARK VINA RESULT:    -6.097      1.734      2.811
REMARK INTER + INTRA:         -10.324
REMARK INTER:                  -8.709
REMARK INTRA:                  -1.615
REMARK UNBOUND:                -1.553
REMARK SMILES O=c1c(O[C@H]2O[C@@H](CO)[C@@H](O)[C@@H](O)[C@@H]2O)c(-c2ccc(O)cc2)oc2cc(O)cc(O)c12
REMARK SMILES IDX 4 1 3 2 16 3 24 4 2 5 25 6 1 7 32 8 26 9 30 10 27 11 29 12
REMARK SMILES IDX 17 13 18 14 19 15 20 16 23 17 22 18 21 19 31 21 28 23 5 25
REMARK SMILES IDX 14 26 6 27 12 28 7 29 10 30 15 31 13 33 8 35 9 36 11 38
REMARK H PARENT 21 20 31 22 28 24 15 32 13 34 9 37 11 39
REMARK Flexibility Score: inf
ROOT
ATOM      1  O   UNL     1     -14.093  38.119  -2.694  1.00  0.00    -0.454 OA
ENDROOT
BRANCH   1   2
ATOM      2  C   UNL     1     -13.183  38.766  -3.541  1.00  0.00     0.214 A 
ATOM      3  C   UNL     1     -12.070  38.097  -4.087  1.00  0.00     0.180 A 
ATOM      4  O   UNL     1     -11.276  38.731  -4.940  1.00  0.00    -0.452 OA
ATOM      5  C   UNL     1     -13.380  40.116  -3.853  1.00  0.00     0.239 A 
ATOM      6  C   UNL     1     -11.454  39.995  -5.305  1.00  0.00     0.146 A 
ATOM      7  O   UNL     1     -14.306  40.735  -3.268  1.00  0.00    -0.285 OA
ATOM      8  C   UNL     1     -12.538  40.756  -4.792  1.00  0.00     0.111 A 
ATOM      9  C   UNL     1     -10.540  40.568  -6.192  1.00  0.00     0.094 A 
ATOM     10  C   UNL     1     -12.691  42.104  -5.236  1.00  0.00     0.134 A 
ATOM     11  C   UNL     1     -10.669  41.900  -6.578  1.00  0.00     0.123 A 
ATOM     12  C   UNL     1     -11.737  42.661  -6.096  1.00  0.00     0.093 A 
BRANCH   3  13
ATOM     13  C   UNL     1     -11.727  36.704  -3.722  1.00  0.00     0.021 A 
ATOM     14  C   UNL     1     -10.543  36.443  -3.013  1.00  0.00     0.016 A 
ATOM     15  C   UNL     1     -10.209  35.134  -2.653  1.00  0.00     0.047 A 
ATOM     16  C   UNL     1     -11.060  34.074  -2.984  1.00  0.00     0.115 A 
ATOM     17  C   UNL     1     -12.591  35.638  -4.030  1.00  0.00     0.016 A 
ATOM     18  C   UNL     1     -12.253  34.330  -3.671  1.00  0.00     0.047 A 
BRANCH  16  19
ATOM     19  O   UNL     1     -10.713  32.775  -2.622  1.00  0.00    -0.508 OA
ATOM     20  H   UNL     1     -11.286  31.982  -2.882  1.00  0.00     0.293 HD
ENDBRANCH  16  19
ENDBRANCH   3  13
BRANCH  10  21
ATOM     21  O   UNL     1     -13.770  42.925  -4.890  1.00  0.00    -0.507 OA
ATOM     22  H   UNL     1     -14.231  43.567  -5.516  1.00  0.00     0.293 HD
ENDBRANCH  10  21
BRANCH  11  23
ATOM     23  O   UNL     1      -9.734  42.458  -7.447  1.00  0.00    -0.508 OA
ATOM     24  H   UNL     1      -8.931  41.931  -7.770  1.00  0.00     0.293 HD
ENDBRANCH  11  23
ENDBRANCH   1   2
BRANCH   1  25
ATOM     25  C   UNL     1     -13.928  38.062  -1.274  1.00  0.00     0.339 C 
ATOM     26  C   UNL     1     -13.849  36.608  -0.777  1.00  0.00     0.214 C 
ATOM     27  O   UNL     1     -14.936  38.814  -0.612  1.00  0.00    -0.332 OA
ATOM     28  C   UNL     1     -15.216  35.910  -0.882  1.00  0.00     0.180 C 
ATOM     29  C   UNL     1     -16.242  38.257  -0.719  1.00  0.00     0.179 C 
ATOM     30  C   UNL     1     -16.305  36.784  -0.241  1.00  0.00     0.177 C 
BRANCH  26  31
ATOM     31  O   UNL     1     -13.413  36.607   0.560  1.00  0.00    -0.384 OA
ATOM     32  H   UNL     1     -12.716  37.310   0.636  1.00  0.00     0.211 HD
ENDBRANCH  26  31
BRANCH  28  33
ATOM     33  O   UNL     1     -15.531  35.638  -2.223  1.00  0.00    -0.387 OA
ATOM     34  H   UNL     1     -14.673  35.463  -2.690  1.00  0.00     0.211 HD
ENDBRANCH  28  33
BRANCH  29  35
ATOM     35  C   UNL     1     -16.883  38.534  -2.100  1.00  0.00     0.191 C 
BRANCH  35  36
ATOM     36  O   UNL     1     -16.765  39.889  -2.444  1.00  0.00    -0.394 OA
ATOM     37  H   UNL     1     -17.259  40.404  -1.754  1.00  0.00     0.210 HD
ENDBRANCH  35  36
ENDBRANCH  29  35
BRANCH  30  38
ATOM     38  O   UNL     1     -17.579  36.241  -0.482  1.00  0.00    -0.387 OA
ATOM     39  H   UNL     1     -17.900  35.866   0.379  1.00  0.00     0.211 HD
ENDBRANCH  30  38
ENDBRANCH   1  25
TORSDOF 11
ENDMDL
MODEL 9
REMARK VINA RESULT:    -6.074      2.898      6.805
REMARK INTER + INTRA:         -10.290
REMARK INTER:                  -8.596
REMARK INTRA:                  -1.694
REMARK UNBOUND:                -1.553
REMARK SMILES O=c1c(O[C@H]2O[C@@H](CO)[C@@H](O)[C@@H](O)[C@@H]2O)c(-c2ccc(O)cc2)oc2cc(O)cc(O)c12
REMARK SMILES IDX 4 1 3 2 16 3 24 4 2 5 25 6 1 7 32 8 26 9 30 10 27 11 29 12
REMARK SMILES IDX 17 13 18 14 19 15 20 16 23 17 22 18 21 19 31 21 28 23 5 25
REMARK SMILES IDX 14 26 6 27 12 28 7 29 10 30 15 31 13 33 8 35 9 36 11 38
REMARK H PARENT 21 20 31 22 28 24 15 32 13 34 9 37 11 39
REMARK Flexibility Score: inf
ROOT
ATOM      1  O   UNL     1     -13.096  36.496  -1.295  1.00  0.00    -0.454 OA
ENDROOT
BRANCH   1   2
ATOM      2  C   UNL     1     -14.244  37.299  -1.242  1.00  0.00     0.214 A 
ATOM      3  C   UNL     1     -14.293  38.476  -0.470  1.00  0.00     0.180 A 
ATOM      4  O   UNL     1     -15.376  39.242  -0.507  1.00  0.00    -0.452 OA
ATOM      5  C   UNL     1     -15.377  36.923  -1.972  1.00  0.00     0.239 A 
ATOM      6  C   UNL     1     -16.453  38.951  -1.226  1.00  0.00     0.146 A 
ATOM      7  O   UNL     1     -15.365  35.811  -2.562  1.00  0.00    -0.285 OA
ATOM      8  C   UNL     1     -16.504  37.775  -2.020  1.00  0.00     0.111 A 
ATOM      9  C   UNL     1     -17.546  39.819  -1.170  1.00  0.00     0.094 A 
ATOM     10  C   UNL     1     -17.681  37.525  -2.789  1.00  0.00     0.134 A 
ATOM     11  C   UNL     1     -18.710  39.538  -1.881  1.00  0.00     0.123 A 
ATOM     12  C   UNL     1     -18.774  38.394  -2.682  1.00  0.00     0.093 A 
BRANCH   3  13
ATOM     13  C   UNL     1     -13.181  38.888   0.417  1.00  0.00     0.021 A 
ATOM     14  C   UNL     1     -12.305  39.905   0.004  1.00  0.00     0.016 A 
ATOM     15  C   UNL     1     -11.255  40.312   0.833  1.00  0.00     0.047 A 
ATOM     16  C   UNL     1     -11.078  39.719   2.088  1.00  0.00     0.115 A 
ATOM     17  C   UNL     1     -13.014  38.313   1.688  1.00  0.00     0.016 A 
ATOM     18  C   UNL     1     -11.963  38.721   2.515  1.00  0.00     0.047 A 
BRANCH  16  19
ATOM     19  O   UNL     1     -10.027  40.133   2.901  1.00  0.00    -0.508 OA
ATOM     20  H   UNL     1      -9.064  40.083   2.589  1.00  0.00     0.293 HD
ENDBRANCH  16  19
ENDBRANCH   3  13
BRANCH  10  21
ATOM     21  O   UNL     1     -17.818  36.463  -3.690  1.00  0.00    -0.507 OA
ATOM     22  H   UNL     1     -17.058  36.027  -4.188  1.00  0.00     0.293 HD
ENDBRANCH  10  21
BRANCH  11  23
ATOM     23  O   UNL     1     -19.796  40.405  -1.794  1.00  0.00    -0.508 OA
ATOM     24  H   UNL     1     -20.723  40.127  -2.096  1.00  0.00     0.293 HD
ENDBRANCH  11  23
ENDBRANCH   1   2
BRANCH   1  25
ATOM     25  C   UNL     1     -11.916  36.874  -2.010  1.00  0.00     0.339 C 
ATOM     26  C   UNL     1     -12.004  36.466  -3.492  1.00  0.00     0.214 C 
ATOM     27  O   UNL     1     -10.750  36.374  -1.371  1.00  0.00    -0.332 OA
ATOM     28  C   UNL     1     -11.897  34.940  -3.654  1.00  0.00     0.180 C 
ATOM     29  C   UNL     1     -10.616  34.958  -1.430  1.00  0.00     0.179 C 
ATOM     30  C   UNL     1     -10.681  34.410  -2.879  1.00  0.00     0.177 C 
BRANCH  26  31
ATOM     31  O   UNL     1     -10.965  37.096  -4.199  1.00  0.00    -0.384 OA
ATOM     32  H   UNL     1     -11.323  37.962  -4.527  1.00  0.00     0.211 HD
ENDBRANCH  26  31
BRANCH  28  33
ATOM     33  O   UNL     1     -13.073  34.312  -3.212  1.00  0.00    -0.387 OA
ATOM     34  H   UNL     1     -13.005  34.239  -2.224  1.00  0.00     0.211 HD
ENDBRANCH  28  33
BRANCH  29  35
ATOM     35  C   UNL     1     -11.533  34.243  -0.409  1.00  0.00     0.191 C 
BRANCH  35  36
ATOM     36  O   UNL     1     -11.601  34.962   0.794  1.00  0.00    -0.394 OA
ATOM     37  H   UNL     1     -11.961  34.340   1.480  1.00  0.00     0.210 HD
ENDBRANCH  35  36
ENDBRANCH  29  35
BRANCH  30  38
ATOM     38  O   UNL     1     -10.672  33.005  -2.876  1.00  0.00    -0.387 OA
ATOM     39  H   UNL     1     -11.058  32.712  -3.742  1.00  0.00     0.211 HD
ENDBRANCH  30  38
ENDBRANCH   1  25
TORSDOF 11
ENDMDL
