MODEL 1
REMARK VINA RESULT:    -4.288      0.000      0.000
REMARK INTER + INTRA:          -6.202
REMARK INTER:                  -5.291
REMARK INTRA:                  -0.911
REMARK UNBOUND:                -0.911
REMARK SMILES C=CC(=C)CCC=C(C)C
REMARK SMILES IDX 5 1 6 2 7 3 9 4 8 5 10 6 3 7 4 8 2 9 1 10
REMARK H PARENT
REMARK Flexibility Score: inf
ROOT
ATOM      1  C   UNL     1     143.501 145.432 133.806  1.00  0.00     0.039 C 
ENDROOT
BRANCH   1   2
ATOM      2  C   UNL     1     143.519 146.493 132.699  1.00  0.00     0.032 C 
BRANCH   2   3
ATOM      3  C   UNL     1     144.807 147.276 132.729  1.00  0.00    -0.028 C 
ATOM      4  C   UNL     1     145.684 146.224 130.632  1.00  0.00     0.039 C 
ATOM      5  C   UNL     1     145.775 147.189 131.788  1.00  0.00    -0.080 C 
ATOM      6  C   UNL     1     147.012 148.042 131.902  1.00  0.00     0.039 C 
ENDBRANCH   2   3
ENDBRANCH   1   2
BRANCH   1   7
ATOM      7  C   UNL     1     144.330 144.230 133.411  1.00  0.00    -0.055 C 
ATOM      8  C   UNL     1     143.935 143.481 132.375  1.00  0.00     0.012 C 
BRANCH   7   9
ATOM      9  C   UNL     1     145.595 143.876 134.106  1.00  0.00    -0.005 C 
ATOM     10  C   UNL     1     146.803 144.273 133.702  1.00  0.00     0.009 C 
ENDBRANCH   7   9
ENDBRANCH   1   7
TORSDOF 4
ENDMDL
MODEL 2
REMARK VINA RESULT:    -4.282      1.343      3.979
REMARK INTER + INTRA:          -6.195
REMARK INTER:                  -5.289
REMARK INTRA:                  -0.906
REMARK UNBOUND:                -0.911
REMARK SMILES C=CC(=C)CCC=C(C)C
REMARK SMILES IDX 5 1 6 2 7 3 9 4 8 5 10 6 3 7 4 8 2 9 1 10
REMARK H PARENT
REMARK Flexibility Score: inf
ROOT
ATOM      1  C   UNL     1     147.331 145.398 133.634  1.00  0.00     0.039 C 
ENDROOT
BRANCH   1   2
ATOM      2  C   UNL     1     147.208 144.346 132.526  1.00  0.00     0.032 C 
BRANCH   2   3
ATOM      3  C   UNL     1     145.915 143.582 132.653  1.00  0.00    -0.028 C 
ATOM      4  C   UNL     1     144.916 144.614 130.601  1.00  0.00     0.039 C 
ATOM      5  C   UNL     1     144.889 143.668 131.776  1.00  0.00    -0.080 C 
ATOM      6  C   UNL     1     143.652 142.834 131.985  1.00  0.00     0.039 C 
ENDBRANCH   2   3
ENDBRANCH   1   2
BRANCH   1   7
ATOM      7  C   UNL     1     146.456 146.596 133.336  1.00  0.00    -0.055 C 
ATOM      8  C   UNL     1     146.767 147.386 132.301  1.00  0.00     0.012 C 
BRANCH   7   9
ATOM      9  C   UNL     1     145.234 146.903 134.125  1.00  0.00    -0.005 C 
ATOM     10  C   UNL     1     144.002 146.551 133.757  1.00  0.00     0.009 C 
ENDBRANCH   7   9
ENDBRANCH   1   7
TORSDOF 4
ENDMDL
MODEL 3
REMARK VINA RESULT:    -4.275      1.119      1.894
REMARK INTER + INTRA:          -6.185
REMARK INTER:                  -5.307
REMARK INTRA:                  -0.879
REMARK UNBOUND:                -0.911
REMARK SMILES C=CC(=C)CCC=C(C)C
REMARK SMILES IDX 5 1 6 2 7 3 9 4 8 5 10 6 3 7 4 8 2 9 1 10
REMARK H PARENT
REMARK Flexibility Score: inf
ROOT
ATOM      1  C   UNL     1     143.499 145.377 133.548  1.00  0.00     0.039 C 
ENDROOT
BRANCH   1   2
ATOM      2  C   UNL     1     144.440 146.493 134.017  1.00  0.00     0.032 C 
BRANCH   2   3
ATOM      3  C   UNL     1     144.983 147.265 132.841  1.00  0.00    -0.028 C 
ATOM      4  C   UNL     1     147.235 146.173 132.959  1.00  0.00     0.039 C 
ATOM      5  C   UNL     1     146.227 147.106 132.335  1.00  0.00    -0.080 C 
ATOM      6  C   UNL     1     146.656 147.911 131.135  1.00  0.00     0.039 C 
ENDBRANCH   2   3
ENDBRANCH   1   2
BRANCH   1   7
ATOM      7  C   UNL     1     144.281 144.136 133.178  1.00  0.00    -0.055 C 
ATOM      8  C   UNL     1     145.008 143.521 134.118  1.00  0.00     0.012 C 
BRANCH   7   9
ATOM      9  C   UNL     1     144.235 143.546 131.814  1.00  0.00    -0.005 C 
ATOM     10  C   UNL     1     144.832 144.083 130.749  1.00  0.00     0.009 C 
ENDBRANCH   7   9
ENDBRANCH   1   7
TORSDOF 4
ENDMDL
MODEL 4
REMARK VINA RESULT:    -4.272      1.402      2.991
REMARK INTER + INTRA:          -6.181
REMARK INTER:                  -5.272
REMARK INTRA:                  -0.910
REMARK UNBOUND:                -0.911
REMARK SMILES C=CC(=C)CCC=C(C)C
REMARK SMILES IDX 5 1 6 2 7 3 9 4 8 5 10 6 3 7 4 8 2 9 1 10
REMARK H PARENT
REMARK Flexibility Score: inf
ROOT
ATOM      1  C   UNL     1     145.383 143.460 133.662  1.00  0.00     0.039 C 
ENDROOT
BRANCH   1   2
ATOM      2  C   UNL     1     144.252 144.448 133.969  1.00  0.00     0.032 C 
BRANCH   2   3
ATOM      3  C   UNL     1     143.619 144.951 132.696  1.00  0.00    -0.028 C 
ATOM      4  C   UNL     1     144.570 147.255 132.943  1.00  0.00     0.039 C 
ATOM      5  C   UNL     1     143.782 146.201 132.206  1.00  0.00    -0.080 C 
ATOM      6  C   UNL     1     143.125 146.588 130.906  1.00  0.00     0.039 C 
ENDBRANCH   2   3
ENDBRANCH   1   2
BRANCH   1   7
ATOM      7  C   UNL     1     146.638 144.193 133.241  1.00  0.00    -0.055 C 
ATOM      8  C   UNL     1     147.246 144.997 134.122  1.00  0.00     0.012 C 
BRANCH   7   9
ATOM      9  C   UNL     1     147.247 144.017 131.897  1.00  0.00    -0.005 C 
ATOM     10  C   UNL     1     146.818 144.637 130.797  1.00  0.00     0.009 C 
ENDBRANCH   7   9
ENDBRANCH   1   7
TORSDOF 4
ENDMDL
MODEL 5
REMARK VINA RESULT:    -4.235      1.256      3.171
REMARK INTER + INTRA:          -6.136
REMARK INTER:                  -5.304
REMARK INTRA:                  -0.832
REMARK UNBOUND:                -0.911
REMARK SMILES C=CC(=C)CCC=C(C)C
REMARK SMILES IDX 5 1 6 2 7 3 9 4 8 5 10 6 3 7 4 8 2 9 1 10
REMARK H PARENT
REMARK Flexibility Score: inf
ROOT
ATOM      1  C   UNL     1     144.857 147.263 133.656  1.00  0.00     0.039 C 
ENDROOT
BRANCH   1   2
ATOM      2  C   UNL     1     143.841 146.784 132.612  1.00  0.00     0.032 C 
BRANCH   2   3
ATOM      3  C   UNL     1     143.682 145.286 132.669  1.00  0.00    -0.028 C 
ATOM      4  C   UNL     1     144.922 144.912 130.525  1.00  0.00     0.039 C 
ATOM      5  C   UNL     1     144.192 144.430 131.753  1.00  0.00    -0.080 C 
ATOM      6  C   UNL     1     143.997 142.946 131.924  1.00  0.00     0.039 C 
ENDBRANCH   2   3
ENDBRANCH   1   2
BRANCH   1   7
ATOM      7  C   UNL     1     146.261 146.855 133.266  1.00  0.00    -0.055 C 
ATOM      8  C   UNL     1     146.901 147.554 132.322  1.00  0.00     0.012 C 
BRANCH   7   9
ATOM      9  C   UNL     1     146.973 145.731 133.929  1.00  0.00    -0.005 C 
ATOM     10  C   UNL     1     147.575 144.740 133.271  1.00  0.00     0.009 C 
ENDBRANCH   7   9
ENDBRANCH   1   7
TORSDOF 4
ENDMDL
MODEL 6
REMARK VINA RESULT:    -4.183      0.865      2.423
REMARK INTER + INTRA:          -6.072
REMARK INTER:                  -5.238
REMARK INTRA:                  -0.834
REMARK UNBOUND:                -0.911
REMARK SMILES C=CC(=C)CCC=C(C)C
REMARK SMILES IDX 5 1 6 2 7 3 9 4 8 5 10 6 3 7 4 8 2 9 1 10
REMARK H PARENT
REMARK Flexibility Score: inf
ROOT
ATOM      1  C   UNL     1     145.708 143.552 133.888  1.00  0.00     0.039 C 
ENDROOT
BRANCH   1   2
ATOM      2  C   UNL     1     146.847 143.980 132.954  1.00  0.00     0.032 C 
BRANCH   2   3
ATOM      3  C   UNL     1     147.042 145.475 132.998  1.00  0.00    -0.028 C 
ATOM      4  C   UNL     1     146.045 145.833 130.728  1.00  0.00     0.039 C 
ATOM      5  C   UNL     1     146.655 146.323 132.018  1.00  0.00    -0.080 C 
ATOM      6  C   UNL     1     146.873 147.805 132.179  1.00  0.00     0.039 C 
ENDBRANCH   2   3
ENDBRANCH   1   2
BRANCH   1   7
ATOM      7  C   UNL     1     144.367 143.967 133.323  1.00  0.00    -0.055 C 
ATOM      8  C   UNL     1     143.840 143.261 132.316  1.00  0.00     0.012 C 
BRANCH   7   9
ATOM      9  C   UNL     1     143.590 145.106 133.879  1.00  0.00    -0.005 C 
ATOM     10  C   UNL     1     143.209 146.167 133.166  1.00  0.00     0.009 C 
ENDBRANCH   7   9
ENDBRANCH   1   7
TORSDOF 4
ENDMDL
MODEL 7
REMARK VINA RESULT:    -4.175      1.103      3.771
REMARK INTER + INTRA:          -6.062
REMARK INTER:                  -5.232
REMARK INTRA:                  -0.829
REMARK UNBOUND:                -0.911
REMARK SMILES C=CC(=C)CCC=C(C)C
REMARK SMILES IDX 5 1 6 2 7 3 9 4 8 5 10 6 3 7 4 8 2 9 1 10
REMARK H PARENT
REMARK Flexibility Score: inf
ROOT
ATOM      1  C   UNL     1     144.142 147.038 133.410  1.00  0.00     0.039 C 
ENDROOT
BRANCH   1   2
ATOM      2  C   UNL     1     143.568 145.661 133.767  1.00  0.00     0.032 C 
BRANCH   2   3
ATOM      3  C   UNL     1     143.457 144.793 132.539  1.00  0.00    -0.028 C 
ATOM      4  C   UNL     1     145.162 143.147 133.352  1.00  0.00     0.039 C 
ATOM      5  C   UNL     1     144.143 143.642 132.355  1.00  0.00    -0.080 C 
ATOM      6  C   UNL     1     143.932 142.836 131.100  1.00  0.00     0.039 C 
ENDBRANCH   2   3
ENDBRANCH   1   2
BRANCH   1   7
ATOM      7  C   UNL     1     145.596 146.924 133.004  1.00  0.00    -0.055 C 
ATOM      8  C   UNL     1     146.485 146.468 133.894  1.00  0.00     0.012 C 
BRANCH   7   9
ATOM      9  C   UNL     1     146.065 147.259 131.634  1.00  0.00    -0.005 C 
ATOM     10  C   UNL     1     146.027 146.411 130.606  1.00  0.00     0.009 C 
ENDBRANCH   7   9
ENDBRANCH   1   7
TORSDOF 4
ENDMDL
MODEL 8
REMARK VINA RESULT:    -4.166      1.470      2.932
REMARK INTER + INTRA:          -6.051
REMARK INTER:                  -5.194
REMARK INTRA:                  -0.857
REMARK UNBOUND:                -0.911
REMARK SMILES C=CC(=C)CCC=C(C)C
REMARK SMILES IDX 5 1 6 2 7 3 9 4 8 5 10 6 3 7 4 8 2 9 1 10
REMARK H PARENT
REMARK Flexibility Score: inf
ROOT
ATOM      1  C   UNL     1     143.878 144.964 133.952  1.00  0.00     0.039 C 
ENDROOT
BRANCH   1   2
ATOM      2  C   UNL     1     144.040 143.956 132.809  1.00  0.00     0.032 C 
BRANCH   2   3
ATOM      3  C   UNL     1     145.493 143.800 132.435  1.00  0.00    -0.028 C 
ATOM      4  C   UNL     1     145.238 145.049 130.278  1.00  0.00     0.039 C 
ATOM      5  C   UNL     1     146.051 144.316 131.315  1.00  0.00    -0.080 C 
ATOM      6  C   UNL     1     147.523 144.124 131.055  1.00  0.00     0.039 C 
ENDBRANCH   2   3
ENDBRANCH   1   2
BRANCH   1   7
ATOM      7  C   UNL     1     144.130 146.374 133.464  1.00  0.00    -0.055 C 
ATOM      8  C   UNL     1     143.227 146.957 132.667  1.00  0.00     0.012 C 
BRANCH   7   9
ATOM      9  C   UNL     1     145.326 147.154 133.877  1.00  0.00    -0.005 C 
ATOM     10  C   UNL     1     146.282 147.553 133.037  1.00  0.00     0.009 C 
ENDBRANCH   7   9
ENDBRANCH   1   7
TORSDOF 4
ENDMDL
