MODEL 1
REMARK VINA RESULT:    -3.930      0.000      0.000
REMARK INTER + INTRA:          -3.930
REMARK INTER:                  -3.930
REMARK INTRA:                   0.000
REMARK UNBOUND:                 0.000
REMARK SMILES CC1(C)O[C@]2(C)CC[C@H]1CC2
REMARK SMILES IDX 1 1 2 2 9 3 8 4 7 5 5 6 4 7 11 8 10 9 6 10 3 11
REMARK H PARENT
REMARK Flexibility Score: inf
ROOT
ATOM      1  C   UNL     1      -3.511  81.705  -7.308  1.00  0.00     0.042 C 
ATOM      2  C   UNL     1      -3.800  82.658  -8.489  1.00  0.00     0.066 C 
ATOM      3  C   UNL     1      -5.340  82.981  -8.582  1.00  0.00     0.021 C 
ATOM      4  C   UNL     1      -5.563  83.975  -9.747  1.00  0.00     0.009 C 
ATOM      5  C   UNL     1      -4.604  85.179  -9.577  1.00  0.00     0.035 C 
ATOM      6  C   UNL     1      -3.807  85.034  -8.250  1.00  0.00     0.066 C 
ATOM      7  O   UNL     1      -3.016  83.846  -8.305  1.00  0.00    -0.369 OA
ATOM      8  C   UNL     1      -4.811  84.925  -7.065  1.00  0.00     0.035 C 
ATOM      9  C   UNL     1      -5.763  83.727  -7.295  1.00  0.00     0.009 C 
ATOM     10  C   UNL     1      -2.878  86.236  -8.052  1.00  0.00     0.042 C 
ATOM     11  C   UNL     1      -3.310  81.954  -9.774  1.00  0.00     0.042 C 
ENDROOT
TORSDOF 0
ENDMDL
MODEL 2
REMARK VINA RESULT:    -3.755      1.372      3.032
REMARK INTER + INTRA:          -3.755
REMARK INTER:                  -3.755
REMARK INTRA:                   0.000
REMARK UNBOUND:                 0.000
REMARK SMILES CC1(C)O[C@]2(C)CC[C@H]1CC2
REMARK SMILES IDX 1 1 2 2 9 3 8 4 7 5 5 6 4 7 11 8 10 9 6 10 3 11
REMARK H PARENT
REMARK Flexibility Score: inf
ROOT
ATOM      1  C   UNL     1      -4.027  81.503  -6.592  1.00  0.00     0.042 C 
ATOM      2  C   UNL     1      -4.234  82.950  -7.090  1.00  0.00     0.066 C 
ATOM      3  C   UNL     1      -3.125  83.344  -8.140  1.00  0.00     0.021 C 
ATOM      4  C   UNL     1      -3.411  84.780  -8.640  1.00  0.00     0.009 C 
ATOM      5  C   UNL     1      -4.883  84.870  -9.110  1.00  0.00     0.035 C 
ATOM      6  C   UNL     1      -5.555  83.471  -9.011  1.00  0.00     0.066 C 
ATOM      7  O   UNL     1      -5.553  83.046  -7.648  1.00  0.00    -0.369 OA
ATOM      8  C   UNL     1      -4.738  82.457  -9.864  1.00  0.00     0.035 C 
ATOM      9  C   UNL     1      -3.270  82.423  -9.374  1.00  0.00     0.009 C 
ATOM     10  C   UNL     1      -7.003  83.538  -9.506  1.00  0.00     0.042 C 
ATOM     11  C   UNL     1      -4.168  83.873  -5.853  1.00  0.00     0.042 C 
ENDROOT
TORSDOF 0
ENDMDL
MODEL 3
REMARK VINA RESULT:    -3.749      7.546      8.702
REMARK INTER + INTRA:          -3.749
REMARK INTER:                  -3.749
REMARK INTRA:                   0.000
REMARK UNBOUND:                 0.000
REMARK SMILES CC1(C)O[C@]2(C)CC[C@H]1CC2
REMARK SMILES IDX 1 1 2 2 9 3 8 4 7 5 5 6 4 7 11 8 10 9 6 10 3 11
REMARK H PARENT
REMARK Flexibility Score: inf
ROOT
ATOM      1  C   UNL     1     -11.277  82.529  -7.193  1.00  0.00     0.042 C 
ATOM      2  C   UNL     1     -11.529  82.372  -8.708  1.00  0.00     0.066 C 
ATOM      3  C   UNL     1     -12.589  81.237  -8.983  1.00  0.00     0.021 C 
ATOM      4  C   UNL     1     -12.839  81.159 -10.508  1.00  0.00     0.009 C 
ATOM      5  C   UNL     1     -13.174  82.573 -11.041  1.00  0.00     0.035 C 
ATOM      6  C   UNL     1     -13.239  83.580  -9.858  1.00  0.00     0.066 C 
ATOM      7  O   UNL     1     -11.961  83.640  -9.222  1.00  0.00    -0.369 OA
ATOM      8  C   UNL     1     -14.298  83.086  -8.830  1.00  0.00     0.035 C 
ATOM      9  C   UNL     1     -13.936  81.660  -8.349  1.00  0.00     0.009 C 
ATOM     10  C   UNL     1     -13.603  84.978 -10.367  1.00  0.00     0.042 C 
ATOM     11  C   UNL     1     -10.174  82.024  -9.364  1.00  0.00     0.042 C 
ENDROOT
TORSDOF 0
ENDMDL
MODEL 4
REMARK VINA RESULT:    -3.649      0.969      3.295
REMARK INTER + INTRA:          -3.649
REMARK INTER:                  -3.649
REMARK INTRA:                   0.000
REMARK UNBOUND:                 0.000
REMARK SMILES CC1(C)O[C@]2(C)CC[C@H]1CC2
REMARK SMILES IDX 1 1 2 2 9 3 8 4 7 5 5 6 4 7 11 8 10 9 6 10 3 11
REMARK H PARENT
REMARK Flexibility Score: inf
ROOT
ATOM      1  C   UNL     1      -4.689  86.152  -8.934  1.00  0.00     0.042 C 
ATOM      2  C   UNL     1      -4.375  84.914  -8.065  1.00  0.00     0.066 C 
ATOM      3  C   UNL     1      -5.705  84.203  -7.605  1.00  0.00     0.021 C 
ATOM      4  C   UNL     1      -5.331  82.947  -6.783  1.00  0.00     0.009 C 
ATOM      5  C   UNL     1      -4.324  82.093  -7.591  1.00  0.00     0.035 C 
ATOM      6  C   UNL     1      -4.097  82.731  -8.992  1.00  0.00     0.066 C 
ATOM      7  O   UNL     1      -3.537  84.034  -8.828  1.00  0.00    -0.369 OA
ATOM      8  C   UNL     1      -5.466  82.851  -9.721  1.00  0.00     0.035 C 
ATOM      9  C   UNL     1      -6.445  83.688  -8.862  1.00  0.00     0.009 C 
ATOM     10  C   UNL     1      -3.128  81.877  -9.816  1.00  0.00     0.042 C 
ATOM     11  C   UNL     1      -3.568  85.407  -6.843  1.00  0.00     0.042 C 
ENDROOT
TORSDOF 0
ENDMDL
MODEL 5
REMARK VINA RESULT:    -3.648      7.881      9.272
REMARK INTER + INTRA:          -3.648
REMARK INTER:                  -3.648
REMARK INTRA:                   0.000
REMARK UNBOUND:                 0.000
REMARK SMILES CC1(C)O[C@]2(C)CC[C@H]1CC2
REMARK SMILES IDX 1 1 2 2 9 3 8 4 7 5 5 6 4 7 11 8 10 9 6 10 3 11
REMARK H PARENT
REMARK Flexibility Score: inf
ROOT
ATOM      1  C   UNL     1     -12.760  80.245  -7.259  1.00  0.00     0.042 C 
ATOM      2  C   UNL     1     -13.377  81.314  -8.186  1.00  0.00     0.066 C 
ATOM      3  C   UNL     1     -12.633  82.694  -8.020  1.00  0.00     0.021 C 
ATOM      4  C   UNL     1     -13.258  83.710  -9.005  1.00  0.00     0.009 C 
ATOM      5  C   UNL     1     -13.280  83.094 -10.425  1.00  0.00     0.035 C 
ATOM      6  C   UNL     1     -12.585  81.702 -10.405  1.00  0.00     0.066 C 
ATOM      7  O   UNL     1     -13.307  80.830  -9.535  1.00  0.00    -0.369 OA
ATOM      8  C   UNL     1     -11.132  81.869  -9.872  1.00  0.00     0.035 C 
ATOM      9  C   UNL     1     -11.162  82.514  -8.465  1.00  0.00     0.009 C 
ATOM     10  C   UNL     1     -12.569  81.094 -11.812  1.00  0.00     0.042 C 
ATOM     11  C   UNL     1     -14.868  81.448  -7.802  1.00  0.00     0.042 C 
ENDROOT
TORSDOF 0
ENDMDL
MODEL 6
REMARK VINA RESULT:    -3.615      1.266      3.033
REMARK INTER + INTRA:          -3.615
REMARK INTER:                  -3.615
REMARK INTRA:                   0.000
REMARK UNBOUND:                 0.000
REMARK SMILES CC1(C)O[C@]2(C)CC[C@H]1CC2
REMARK SMILES IDX 1 1 2 2 9 3 8 4 7 5 5 6 4 7 11 8 10 9 6 10 3 11
REMARK H PARENT
REMARK Flexibility Score: inf
ROOT
ATOM      1  C   UNL     1      -7.308  83.535  -9.391  1.00  0.00     0.042 C 
ATOM      2  C   UNL     1      -5.927  84.222  -9.324  1.00  0.00     0.066 C 
ATOM      3  C   UNL     1      -5.610  84.697  -7.853  1.00  0.00     0.021 C 
ATOM      4  C   UNL     1      -4.198  85.330  -7.836  1.00  0.00     0.009 C 
ATOM      5  C   UNL     1      -3.193  84.349  -8.486  1.00  0.00     0.035 C 
ATOM      6  C   UNL     1      -3.916  83.022  -8.855  1.00  0.00     0.066 C 
ATOM      7  O   UNL     1      -4.943  83.296  -9.808  1.00  0.00    -0.369 OA
ATOM      8  C   UNL     1      -4.558  82.422  -7.570  1.00  0.00     0.035 C 
ATOM      9  C   UNL     1      -5.531  83.448  -6.943  1.00  0.00     0.009 C 
ATOM     10  C   UNL     1      -2.925  82.028  -9.469  1.00  0.00     0.042 C 
ATOM     11  C   UNL     1      -5.968  85.427 -10.290  1.00  0.00     0.042 C 
ENDROOT
TORSDOF 0
ENDMDL
MODEL 7
REMARK VINA RESULT:    -3.567      1.220      2.968
REMARK INTER + INTRA:          -3.567
REMARK INTER:                  -3.567
REMARK INTRA:                   0.000
REMARK UNBOUND:                 0.000
REMARK SMILES CC1(C)O[C@]2(C)CC[C@H]1CC2
REMARK SMILES IDX 1 1 2 2 9 3 8 4 7 5 5 6 4 7 11 8 10 9 6 10 3 11
REMARK H PARENT
REMARK Flexibility Score: inf
ROOT
ATOM      1  C   UNL     1      -5.407  84.678  -5.993  1.00  0.00     0.042 C 
ATOM      2  C   UNL     1      -5.729  83.920  -7.299  1.00  0.00     0.066 C 
ATOM      3  C   UNL     1      -5.692  84.897  -8.536  1.00  0.00     0.021 C 
ATOM      4  C   UNL     1      -5.971  84.076  -9.818  1.00  0.00     0.009 C 
ATOM      5  C   UNL     1      -5.016  82.859  -9.860  1.00  0.00     0.035 C 
ATOM      6  C   UNL     1      -4.036  82.916  -8.653  1.00  0.00     0.066 C 
ATOM      7  O   UNL     1      -4.784  82.849  -7.438  1.00  0.00    -0.369 OA
ATOM      8  C   UNL     1      -3.256  84.262  -8.698  1.00  0.00     0.035 C 
ATOM      9  C   UNL     1      -4.253  85.446  -8.683  1.00  0.00     0.009 C 
ATOM     10  C   UNL     1      -3.062  81.735  -8.700  1.00  0.00     0.042 C 
ATOM     11  C   UNL     1      -7.135  83.300  -7.134  1.00  0.00     0.042 C 
ENDROOT
TORSDOF 0
ENDMDL
MODEL 8
REMARK VINA RESULT:    -3.565      1.262      2.526
REMARK INTER + INTRA:          -3.565
REMARK INTER:                  -3.565
REMARK INTRA:                   0.000
REMARK UNBOUND:                 0.000
REMARK SMILES CC1(C)O[C@]2(C)CC[C@H]1CC2
REMARK SMILES IDX 1 1 2 2 9 3 8 4 7 5 5 6 4 7 11 8 10 9 6 10 3 11
REMARK H PARENT
REMARK Flexibility Score: inf
ROOT
ATOM      1  C   UNL     1      -7.191  83.440  -7.605  1.00  0.00     0.042 C 
ATOM      2  C   UNL     1      -5.647  83.438  -7.600  1.00  0.00     0.066 C 
ATOM      3  C   UNL     1      -5.085  82.882  -8.964  1.00  0.00     0.021 C 
ATOM      4  C   UNL     1      -3.540  82.951  -8.922  1.00  0.00     0.009 C 
ATOM      5  C   UNL     1      -3.105  84.380  -8.516  1.00  0.00     0.035 C 
ATOM      6  C   UNL     1      -4.358  85.292  -8.378  1.00  0.00     0.066 C 
ATOM      7  O   UNL     1      -5.200  84.778  -7.346  1.00  0.00    -0.369 OA
ATOM      8  C   UNL     1      -5.139  85.287  -9.724  1.00  0.00     0.035 C 
ATOM      9  C   UNL     1      -5.526  83.836 -10.100  1.00  0.00     0.009 C 
ATOM     10  C   UNL     1      -3.940  86.719  -8.010  1.00  0.00     0.042 C 
ATOM     11  C   UNL     1      -5.195  82.549  -6.420  1.00  0.00     0.042 C 
ENDROOT
TORSDOF 0
ENDMDL
MODEL 9
REMARK VINA RESULT:    -3.494      7.215      8.695
REMARK INTER + INTRA:          -3.494
REMARK INTER:                  -3.494
REMARK INTRA:                   0.000
REMARK UNBOUND:                 0.000
REMARK SMILES CC1(C)O[C@]2(C)CC[C@H]1CC2
REMARK SMILES IDX 1 1 2 2 9 3 8 4 7 5 5 6 4 7 11 8 10 9 6 10 3 11
REMARK H PARENT
REMARK Flexibility Score: inf
ROOT
ATOM      1  C   UNL     1     -10.366  84.080  -8.951  1.00  0.00     0.042 C 
ATOM      2  C   UNL     1     -11.185  82.806  -8.651  1.00  0.00     0.066 C 
ATOM      3  C   UNL     1     -12.609  83.178  -8.085  1.00  0.00     0.021 C 
ATOM      4  C   UNL     1     -13.400  81.868  -7.850  1.00  0.00     0.009 C 
ATOM      5  C   UNL     1     -13.361  81.013  -9.139  1.00  0.00     0.035 C 
ATOM      6  C   UNL     1     -12.622  81.791 -10.266  1.00  0.00     0.066 C 
ATOM      7  O   UNL     1     -11.276  82.038  -9.859  1.00  0.00    -0.369 OA
ATOM      8  C   UNL     1     -13.343  83.151 -10.498  1.00  0.00     0.035 C 
ATOM      9  C   UNL     1     -13.382  83.956  -9.176  1.00  0.00     0.009 C 
ATOM     10  C   UNL     1     -12.606  80.970 -11.559  1.00  0.00     0.042 C 
ATOM     11  C   UNL     1     -10.385  81.982  -7.618  1.00  0.00     0.042 C 
ENDROOT
TORSDOF 0
ENDMDL
