MODEL 1
REMARK VINA RESULT:    -4.321      0.000      0.000
REMARK INTER + INTRA:          -5.872
REMARK INTER:                  -6.090
REMARK INTRA:                   0.217
REMARK UNBOUND:                 0.217
REMARK SMILES CC1=CCC(=C(C)C)C(=O)CC(C)=CCC1
REMARK SMILES IDX 12 1 14 2 13 3 15 4 16 5 2 6 1 7 3 8 11 10 9 11 10 12 5 13
REMARK SMILES IDX 6 14 7 15 8 16 4 17
REMARK H PARENT
REMARK Flexibility Score: 60.00
ROOT
ATOM      1  C   UNL     1     100.697 118.144 124.765  1.00  0.00    -0.070 C 
ATOM      2  C   UNL     1     101.477 117.759 125.809  1.00  0.00    -0.027 C 
ATOM      3  C   UNL     1     100.252 119.587 124.745  1.00  0.00     0.039 C 
ENDROOT
BRANCH   2   4
ATOM      4  C   UNL     1     101.956 116.364 126.131  1.00  0.00     0.032 C 
BRANCH   4   5
ATOM      5  C   UNL     1     103.131 115.873 125.269  1.00  0.00     0.034 C 
BRANCH   5   6
ATOM      6  C   UNL     1     102.877 114.604 124.474  1.00  0.00    -0.077 C 
ATOM      7  C   UNL     1     102.660 113.311 125.220  1.00  0.00     0.039 C 
ATOM      8  C   UNL     1     102.744 114.582 123.125  1.00  0.00    -0.023 CG0
ATOM      9  G   UNL     1     103.064 115.723 122.197  1.00  0.00     0.000 G0
ENDBRANCH   5   6
ENDBRANCH   4   5
ENDBRANCH   2   4
BRANCH   1  10
ATOM     10  C   UNL     1     100.337 117.281 123.559  1.00  0.00     0.111 C 
BRANCH  10  11
ATOM     11  C   UNL     1     101.191 117.477 122.337  1.00  0.00     0.163 C 
ATOM     12  O   UNL     1     101.505 118.643 121.974  1.00  0.00    -0.294 OA
BRANCH  11  13
ATOM     13  C   UNL     1     101.765 116.308 121.623  1.00  0.00    -0.002 C 
ATOM     14  C   UNL     1     101.166 115.844 120.492  1.00  0.00    -0.069 C 
ATOM     15  C   UNL     1     101.736 114.685 119.710  1.00  0.00     0.039 C 
ATOM     16  C   UNL     1      99.908 116.498 119.963  1.00  0.00     0.039 C 
BRANCH  13  17
ATOM     17  C   UNL     1     103.054 115.716 122.176  1.00  0.00     0.066 CG0
ATOM     18  G   UNL     1     102.739 114.582 123.115  1.00  0.00     0.000 G0
ENDBRANCH  13  17
ENDBRANCH  11  13
ENDBRANCH  10  11
ENDBRANCH   1  10
TORSDOF 0
ENDMDL
MODEL 2
REMARK VINA RESULT:    -4.145      2.009      3.830
REMARK INTER + INTRA:          -5.624
REMARK INTER:                  -5.871
REMARK INTRA:                   0.246
REMARK UNBOUND:                 0.217
REMARK SMILES CC1=CCC(=C(C)C)C(=O)CC(C)=CCC1
REMARK SMILES IDX 12 1 14 2 13 3 15 4 16 5 2 6 1 7 3 8 11 10 9 11 10 12 5 13
REMARK SMILES IDX 6 14 7 15 8 16 4 17
REMARK H PARENT
REMARK Flexibility Score: 60.00
ROOT
ATOM      1  C   UNL     1     102.471 116.448 125.749  1.00  0.00    -0.070 C 
ATOM      2  C   UNL     1     101.614 117.328 126.330  1.00  0.00    -0.027 C 
ATOM      3  C   UNL     1     103.025 115.356 126.633  1.00  0.00     0.039 C 
ENDROOT
BRANCH   2   4
ATOM      4  C   UNL     1     101.014 118.568 125.712  1.00  0.00     0.032 C 
BRANCH   4   5
ATOM      5  C   UNL     1      99.966 118.298 124.619  1.00  0.00     0.034 C 
BRANCH   5   6
ATOM      6  C   UNL     1     100.181 119.032 123.306  1.00  0.00    -0.077 C 
ATOM      7  C   UNL     1     100.265 120.538 123.323  1.00  0.00     0.039 C 
ATOM      8  C   UNL     1     100.392 118.402 122.125  1.00  0.00    -0.023 CG0
ATOM      9  G   UNL     1     100.205 116.929 121.875  1.00  0.00     0.000 G0
ENDBRANCH   5   6
ENDBRANCH   4   5
ENDBRANCH   2   4
BRANCH   1  10
ATOM     10  C   UNL     1     102.821 116.396 124.265  1.00  0.00     0.111 C 
BRANCH  10  11
ATOM     11  C   UNL     1     101.844 115.662 123.388  1.00  0.00     0.163 C 
ATOM     12  O   UNL     1     101.221 114.666 123.844  1.00  0.00    -0.294 OA
BRANCH  11  13
ATOM     13  C   UNL     1     101.521 116.171 122.031  1.00  0.00    -0.002 C 
ATOM     14  C   UNL     1     102.363 115.914 120.992  1.00  0.00    -0.069 C 
ATOM     15  C   UNL     1     102.056 116.375 119.588  1.00  0.00     0.039 C 
ATOM     16  C   UNL     1     103.638 115.128 121.211  1.00  0.00     0.039 C 
BRANCH  13  17
ATOM     17  C   UNL     1     100.207 116.919 121.860  1.00  0.00     0.066 CG0
ATOM     18  G   UNL     1     100.413 118.389 122.110  1.00  0.00     0.000 G0
ENDBRANCH  13  17
ENDBRANCH  11  13
ENDBRANCH  10  11
ENDBRANCH   1  10
TORSDOF 0
ENDMDL
MODEL 3
REMARK VINA RESULT:    -4.124      1.609      3.718
REMARK INTER + INTRA:          -5.595
REMARK INTER:                  -5.700
REMARK INTRA:                   0.105
REMARK UNBOUND:                 0.217
REMARK SMILES CC1=CCC(=C(C)C)C(=O)CC(C)=CCC1
REMARK SMILES IDX 12 1 14 2 13 3 15 4 16 5 2 6 1 7 3 8 11 10 9 11 10 12 5 13
REMARK SMILES IDX 6 14 7 15 8 16 4 17
REMARK H PARENT
REMARK Flexibility Score: 60.00
ROOT
ATOM      1  C   UNL     1      99.904 117.665 121.618  1.00  0.00    -0.070 C 
ATOM      2  C   UNL     1      99.831 118.838 122.299  1.00  0.00    -0.027 C 
ATOM      3  C   UNL     1      99.834 117.749 120.111  1.00  0.00     0.039 C 
ENDROOT
BRANCH   2   4
ATOM      4  C   UNL     1      99.758 119.027 123.795  1.00  0.00     0.032 C 
BRANCH   4   5
ATOM      5  C   UNL     1     101.096 118.846 124.532  1.00  0.00     0.034 C 
BRANCH   5   6
ATOM      6  C   UNL     1     101.094 117.826 125.657  1.00  0.00    -0.077 C 
ATOM      7  C   UNL     1     100.245 118.092 126.876  1.00  0.00     0.039 C 
ATOM      8  C   UNL     1     101.747 116.640 125.591  1.00  0.00    -0.023 CG0
ATOM      9  G   UNL     1     102.751 116.253 124.539  1.00  0.00     0.000 G0
ENDBRANCH   5   6
ENDBRANCH   4   5
ENDBRANCH   2   4
BRANCH   1  10
ATOM     10  C   UNL     1     100.171 116.294 122.233  1.00  0.00     0.111 C 
BRANCH  10  11
ATOM     11  C   UNL     1     101.614 115.877 122.297  1.00  0.00     0.163 C 
ATOM     12  O   UNL     1     102.381 116.127 121.328  1.00  0.00    -0.294 OA
BRANCH  11  13
ATOM     13  C   UNL     1     102.170 115.278 123.537  1.00  0.00    -0.002 C 
ATOM     14  C   UNL     1     102.175 113.926 123.694  1.00  0.00    -0.069 C 
ATOM     15  C   UNL     1     102.767 113.270 124.918  1.00  0.00     0.039 C 
ATOM     16  C   UNL     1     101.601 113.024 122.623  1.00  0.00     0.039 C 
BRANCH  13  17
ATOM     17  C   UNL     1     102.773 116.228 124.562  1.00  0.00     0.066 CG0
ATOM     18  G   UNL     1     101.730 116.625 125.573  1.00  0.00     0.000 G0
ENDBRANCH  13  17
ENDBRANCH  11  13
ENDBRANCH  10  11
ENDBRANCH   1  10
TORSDOF 0
ENDMDL
MODEL 4
REMARK VINA RESULT:    -4.060      1.722      3.672
REMARK INTER + INTRA:          -5.505
REMARK INTER:                  -5.925
REMARK INTRA:                   0.420
REMARK UNBOUND:                 0.217
REMARK SMILES CC1=CCC(=C(C)C)C(=O)CC(C)=CCC1
REMARK SMILES IDX 12 1 14 2 13 3 15 4 16 5 2 6 1 7 3 8 11 10 9 11 10 12 5 13
REMARK SMILES IDX 6 14 7 15 8 16 4 17
REMARK H PARENT
REMARK Flexibility Score: 60.00
ROOT
ATOM      1  C   UNL     1     100.599 118.032 124.766  1.00  0.00    -0.070 C 
ATOM      2  C   UNL     1     100.119 119.115 124.101  1.00  0.00    -0.027 C 
ATOM      3  C   UNL     1     101.070 118.260 126.183  1.00  0.00     0.039 C 
ENDROOT
BRANCH   2   4
ATOM      4  C   UNL     1      99.699 119.190 122.652  1.00  0.00     0.032 C 
BRANCH   4   5
ATOM      5  C   UNL     1     100.803 118.832 121.644  1.00  0.00     0.034 C 
BRANCH   5   6
ATOM      6  C   UNL     1     100.477 117.699 120.687  1.00  0.00    -0.077 C 
ATOM      7  C   UNL     1      99.236 117.802 119.836  1.00  0.00     0.039 C 
ATOM      8  C   UNL     1     101.290 116.633 120.487  1.00  0.00    -0.023 CG0
ATOM      9  G   UNL     1     102.486 116.276 121.330  1.00  0.00     0.000 G0
ENDBRANCH   5   6
ENDBRANCH   4   5
ENDBRANCH   2   4
BRANCH   1  10
ATOM     10  C   UNL     1     100.589 116.596 124.252  1.00  0.00     0.111 C 
BRANCH  10  11
ATOM     11  C   UNL     1     101.922 116.046 123.825  1.00  0.00     0.163 C 
ATOM     12  O   UNL     1     102.890 116.056 124.632  1.00  0.00    -0.294 OA
BRANCH  11  13
ATOM     13  C   UNL     1     102.076 115.386 122.503  1.00  0.00    -0.002 C 
ATOM     14  C   UNL     1     101.795 114.060 122.371  1.00  0.00    -0.069 C 
ATOM     15  C   UNL     1     101.897 113.356 121.039  1.00  0.00     0.039 C 
ATOM     16  C   UNL     1     101.343 113.246 123.563  1.00  0.00     0.039 C 
BRANCH  13  17
ATOM     17  C   UNL     1     102.492 116.261 121.330  1.00  0.00     0.066 CG0
ATOM     18  G   UNL     1     101.287 116.623 120.503  1.00  0.00     0.000 G0
ENDBRANCH  13  17
ENDBRANCH  11  13
ENDBRANCH  10  11
ENDBRANCH   1  10
TORSDOF 0
ENDMDL
MODEL 5
REMARK VINA RESULT:    -3.903      1.627      4.112
REMARK INTER + INTRA:          -5.283
REMARK INTER:                  -5.748
REMARK INTRA:                   0.465
REMARK UNBOUND:                 0.217
REMARK SMILES CC1=CCC(=C(C)C)C(=O)CC(C)=CCC1
REMARK SMILES IDX 12 1 14 2 13 3 15 4 16 5 2 6 1 7 3 8 11 10 9 11 10 12 5 13
REMARK SMILES IDX 6 14 7 15 8 16 4 17
REMARK H PARENT
REMARK Flexibility Score: 60.00
ROOT
ATOM      1  C   UNL     1     101.067 118.029 120.971  1.00  0.00    -0.070 C 
ATOM      2  C   UNL     1     101.834 117.301 120.117  1.00  0.00    -0.027 C 
ATOM      3  C   UNL     1      99.684 118.402 120.491  1.00  0.00     0.039 C 
ENDROOT
BRANCH   2   4
ATOM      4  C   UNL     1     103.279 116.901 120.296  1.00  0.00     0.032 C 
BRANCH   4   5
ATOM      5  C   UNL     1     103.508 115.393 120.496  1.00  0.00     0.034 C 
BRANCH   5   6
ATOM      6  C   UNL     1     102.481 114.681 121.359  1.00  0.00    -0.077 C 
ATOM      7  C   UNL     1     101.551 113.687 120.709  1.00  0.00     0.039 C 
ATOM      8  C   UNL     1     102.411 114.822 122.705  1.00  0.00    -0.023 CG0
ATOM      9  G   UNL     1     103.142 115.859 123.514  1.00  0.00     0.000 G0
ENDBRANCH   5   6
ENDBRANCH   4   5
ENDBRANCH   2   4
BRANCH   1  10
ATOM     10  C   UNL     1     101.435 118.393 122.406  1.00  0.00     0.111 C 
BRANCH  10  11
ATOM     11  C   UNL     1     101.068 117.378 123.452  1.00  0.00     0.163 C 
ATOM     12  O   UNL     1      99.870 117.003 123.566  1.00  0.00    -0.294 OA
BRANCH  11  13
ATOM     13  C   UNL     1     102.121 116.728 124.273  1.00  0.00    -0.002 C 
ATOM     14  C   UNL     1     102.119 116.882 125.626  1.00  0.00    -0.069 C 
ATOM     15  C   UNL     1     103.144 116.206 126.504  1.00  0.00     0.039 C 
ATOM     16  C   UNL     1     101.061 117.726 126.302  1.00  0.00     0.039 C 
BRANCH  13  17
ATOM     17  C   UNL     1     103.135 115.856 123.545  1.00  0.00     0.066 CG0
ATOM     18  G   UNL     1     102.424 114.830 122.704  1.00  0.00     0.000 G0
ENDBRANCH  13  17
ENDBRANCH  11  13
ENDBRANCH  10  11
ENDBRANCH   1  10
TORSDOF 0
ENDMDL
MODEL 6
REMARK VINA RESULT:    -3.885      1.872      5.264
REMARK INTER + INTRA:          -5.258
REMARK INTER:                  -5.766
REMARK INTRA:                   0.508
REMARK UNBOUND:                 0.217
REMARK SMILES CC1=CCC(=C(C)C)C(=O)CC(C)=CCC1
REMARK SMILES IDX 12 1 14 2 13 3 15 4 16 5 2 6 1 7 3 8 11 10 9 11 10 12 5 13
REMARK SMILES IDX 6 14 7 15 8 16 4 17
REMARK H PARENT
REMARK Flexibility Score: 60.00
ROOT
ATOM      1  C   UNL     1     101.691 114.594 120.788  1.00  0.00    -0.070 C 
ATOM      2  C   UNL     1     101.012 115.414 119.943  1.00  0.00    -0.027 C 
ATOM      3  C   UNL     1     102.744 113.705 120.170  1.00  0.00     0.039 C 
ENDROOT
BRANCH   2   4
ATOM      4  C   UNL     1      99.841 116.307 120.276  1.00  0.00     0.032 C 
BRANCH   4   5
ATOM      5  C   UNL     1     100.157 117.812 120.264  1.00  0.00     0.034 C 
BRANCH   5   6
ATOM      6  C   UNL     1     101.548 118.195 120.739  1.00  0.00    -0.077 C 
ATOM      7  C   UNL     1     102.574 118.614 119.715  1.00  0.00     0.039 C 
ATOM      8  C   UNL     1     101.896 118.269 122.046  1.00  0.00    -0.023 CG0
ATOM      9  G   UNL     1     101.074 117.759 123.200  1.00  0.00     0.000 G0
ENDBRANCH   5   6
ENDBRANCH   4   5
ENDBRANCH   2   4
BRANCH   1  10
ATOM     10  C   UNL     1     101.565 114.582 122.308  1.00  0.00     0.111 C 
BRANCH  10  11
ATOM     11  C   UNL     1     102.433 115.566 123.043  1.00  0.00     0.163 C 
ATOM     12  O   UNL     1     103.680 115.563 122.854  1.00  0.00    -0.294 OA
BRANCH  11  13
ATOM     13  C   UNL     1     101.824 116.617 123.898  1.00  0.00    -0.002 C 
ATOM     14  C   UNL     1     101.989 116.572 125.248  1.00  0.00    -0.069 C 
ATOM     15  C   UNL     1     101.423 117.640 126.154  1.00  0.00     0.039 C 
ATOM     16  C   UNL     1     102.774 115.449 125.891  1.00  0.00     0.039 C 
BRANCH  13  17
ATOM     17  C   UNL     1     101.081 117.745 123.196  1.00  0.00     0.066 CG0
ATOM     18  G   UNL     1     101.906 118.271 122.051  1.00  0.00     0.000 G0
ENDBRANCH  13  17
ENDBRANCH  11  13
ENDBRANCH  10  11
ENDBRANCH   1  10
TORSDOF 0
ENDMDL
MODEL 7
REMARK VINA RESULT:    -3.777      1.516      2.382
REMARK INTER + INTRA:          -5.105
REMARK INTER:                  -5.414
REMARK INTRA:                   0.309
REMARK UNBOUND:                 0.217
REMARK SMILES CC1=CCC(=C(C)C)C(=O)CC(C)=CCC1
REMARK SMILES IDX 12 1 14 2 13 3 15 4 16 5 2 6 1 7 3 8 11 10 9 11 10 12 5 13
REMARK SMILES IDX 6 14 7 15 8 16 4 17
REMARK H PARENT
REMARK Flexibility Score: 60.00
ROOT
ATOM      1  C   UNL     1     101.678 116.068 124.678  1.00  0.00    -0.070 C 
ATOM      2  C   UNL     1     102.474 115.010 124.982  1.00  0.00    -0.027 C 
ATOM      3  C   UNL     1     101.801 117.286 125.563  1.00  0.00     0.039 C 
ENDROOT
BRANCH   2   4
ATOM      4  C   UNL     1     102.468 113.643 124.341  1.00  0.00     0.032 C 
BRANCH   4   5
ATOM      5  C   UNL     1     103.133 113.580 122.955  1.00  0.00     0.034 C 
BRANCH   5   6
ATOM      6  C   UNL     1     102.231 113.146 121.812  1.00  0.00    -0.077 C 
ATOM      7  C   UNL     1     101.690 111.738 121.810  1.00  0.00     0.039 C 
ATOM      8  C   UNL     1     101.810 113.984 120.834  1.00  0.00    -0.023 CG0
ATOM      9  G   UNL     1     102.345 115.368 120.580  1.00  0.00     0.000 G0
ENDBRANCH   5   6
ENDBRANCH   4   5
ENDBRANCH   2   4
BRANCH   1  10
ATOM     10  C   UNL     1     100.767 116.174 123.458  1.00  0.00     0.111 C 
BRANCH  10  11
ATOM     11  C   UNL     1     101.310 116.975 122.307  1.00  0.00     0.163 C 
ATOM     12  O   UNL     1     101.880 118.078 122.526  1.00  0.00    -0.294 OA
BRANCH  11  13
ATOM     13  C   UNL     1     101.284 116.424 120.928  1.00  0.00    -0.002 C 
ATOM     14  C   UNL     1     100.373 116.887 120.030  1.00  0.00    -0.069 C 
ATOM     15  C   UNL     1     100.335 116.387 118.605  1.00  0.00     0.039 C 
ATOM     16  C   UNL     1      99.370 117.949 120.427  1.00  0.00     0.039 C 
BRANCH  13  17
ATOM     17  C   UNL     1     102.341 115.389 120.570  1.00  0.00     0.066 CG0
ATOM     18  G   UNL     1     101.815 114.002 120.832  1.00  0.00     0.000 G0
ENDBRANCH  13  17
ENDBRANCH  11  13
ENDBRANCH  10  11
ENDBRANCH   1  10
TORSDOF 0
ENDMDL
MODEL 8
REMARK VINA RESULT:    -3.708      7.288     10.624
REMARK INTER + INTRA:          -5.009
REMARK INTER:                  -5.248
REMARK INTRA:                   0.240
REMARK UNBOUND:                 0.217
REMARK SMILES CC1=CCC(=C(C)C)C(=O)CC(C)=CCC1
REMARK SMILES IDX 12 1 14 2 13 3 15 4 16 5 2 6 1 7 3 8 11 10 9 11 10 12 5 13
REMARK SMILES IDX 6 14 7 15 8 16 4 17
REMARK H PARENT
REMARK Flexibility Score: 60.00
ROOT
ATOM      1  C   UNL     1     100.758 106.391 117.018  1.00  0.00    -0.070 C 
ATOM      2  C   UNL     1     100.286 106.564 115.756  1.00  0.00    -0.027 C 
ATOM      3  C   UNL     1     101.341 105.037 117.345  1.00  0.00     0.039 C 
ENDROOT
BRANCH   2   4
ATOM      4  C   UNL     1      99.553 107.765 115.207  1.00  0.00     0.032 C 
BRANCH   4   5
ATOM      5  C   UNL     1     100.438 108.996 114.949  1.00  0.00     0.034 C 
BRANCH   5   6
ATOM      6  C   UNL     1      99.924 110.307 115.518  1.00  0.00    -0.077 C 
ATOM      7  C   UNL     1      98.593 110.831 115.041  1.00  0.00     0.039 C 
ATOM      8  C   UNL     1     100.555 110.992 116.502  1.00  0.00    -0.023 CG0
ATOM      9  G   UNL     1     101.947 110.716 117.005  1.00  0.00     0.000 G0
ENDBRANCH   5   6
ENDBRANCH   4   5
ENDBRANCH   2   4
BRANCH   1  10
ATOM     10  C   UNL     1     100.859 107.476 118.086  1.00  0.00     0.111 C 
BRANCH  10  11
ATOM     11  C   UNL     1     102.061 108.373 117.994  1.00  0.00     0.163 C 
ATOM     12  O   UNL     1     103.167 107.900 117.617  1.00  0.00    -0.294 OA
BRANCH  11  13
ATOM     13  C   UNL     1     101.931 109.834 118.229  1.00  0.00    -0.002 C 
ATOM     14  C   UNL     1     101.852 110.311 119.502  1.00  0.00    -0.069 C 
ATOM     15  C   UNL     1     101.760 111.790 119.791  1.00  0.00     0.039 C 
ATOM     16  C   UNL     1     101.877 109.365 120.682  1.00  0.00     0.039 C 
BRANCH  13  17
ATOM     17  C   UNL     1     101.953 110.743 117.009  1.00  0.00     0.066 CG0
ATOM     18  G   UNL     1     100.551 110.969 116.509  1.00  0.00     0.000 G0
ENDBRANCH  13  17
ENDBRANCH  11  13
ENDBRANCH  10  11
ENDBRANCH   1  10
TORSDOF 0
ENDMDL
MODEL 9
REMARK VINA RESULT:    -3.656      1.479      3.986
REMARK INTER + INTRA:          -4.935
REMARK INTER:                  -5.372
REMARK INTRA:                   0.437
REMARK UNBOUND:                 0.217
REMARK SMILES CC1=CCC(=C(C)C)C(=O)CC(C)=CCC1
REMARK SMILES IDX 12 1 14 2 13 3 15 4 16 5 2 6 1 7 3 8 11 10 9 11 10 12 5 13
REMARK SMILES IDX 6 14 7 15 8 16 4 17
REMARK H PARENT
REMARK Flexibility Score: 60.00
ROOT
ATOM      1  C   UNL     1     102.356 116.342 120.418  1.00  0.00    -0.070 C 
ATOM      2  C   UNL     1     103.188 115.296 120.665  1.00  0.00    -0.027 C 
ATOM      3  C   UNL     1     101.624 116.329 119.097  1.00  0.00     0.039 C 
ENDROOT
BRANCH   2   4
ATOM      4  C   UNL     1     104.118 115.122 121.841  1.00  0.00     0.032 C 
BRANCH   4   5
ATOM      5  C   UNL     1     103.795 113.921 122.745  1.00  0.00     0.034 C 
BRANCH   5   6
ATOM      6  C   UNL     1     102.341 113.788 123.166  1.00  0.00    -0.077 C 
ATOM      7  C   UNL     1     101.575 112.557 122.749  1.00  0.00     0.039 C 
ATOM      8  C   UNL     1     101.715 114.675 123.976  1.00  0.00    -0.023 CG0
ATOM      9  G   UNL     1     102.252 116.023 124.376  1.00  0.00     0.000 G0
ENDBRANCH   5   6
ENDBRANCH   4   5
ENDBRANCH   2   4
BRANCH   1  10
ATOM     10  C   UNL     1     102.010 117.454 121.403  1.00  0.00     0.111 C 
BRANCH  10  11
ATOM     11  C   UNL     1     100.962 117.117 122.426  1.00  0.00     0.163 C 
ATOM     12  O   UNL     1      99.822 116.731 122.050  1.00  0.00    -0.294 OA
BRANCH  11  13
ATOM     13  C   UNL     1     101.294 117.122 123.874  1.00  0.00    -0.002 C 
ATOM     14  C   UNL     1     100.724 118.045 124.697  1.00  0.00    -0.069 C 
ATOM     15  C   UNL     1     101.000 118.062 126.182  1.00  0.00     0.039 C 
ATOM     16  C   UNL     1      99.768 119.081 124.148  1.00  0.00     0.039 C 
BRANCH  13  17
ATOM     17  C   UNL     1     102.228 116.032 124.380  1.00  0.00     0.066 CG0
ATOM     18  G   UNL     1     101.723 114.680 123.952  1.00  0.00     0.000 G0
ENDBRANCH  13  17
ENDBRANCH  11  13
ENDBRANCH  10  11
ENDBRANCH   1  10
TORSDOF 0
ENDMDL
