MODEL 1
REMARK VINA RESULT:    25.175      0.000      0.000
REMARK INTER + INTRA:          27.382
REMARK INTER:                  27.382
REMARK INTRA:                   0.000
REMARK UNBOUND:                 0.000
REMARK SMILES Cc1cc(O)c2c(c1)C(=O)c1cc(O)cc(O)c1C2=O
REMARK SMILES IDX 1 1 2 2 8 3 7 4 6 5 4 6 3 7 19 8 20 9 18 10 11 11 9 12 10 13
REMARK SMILES IDX 12 14 13 15 15 16 16 17 5 18 17 20 14 22
REMARK H PARENT 5 19 17 21 14 23
REMARK Flexibility Score: inf
ROOT
ATOM      1  C   UNL     1      -1.243  -1.867 -17.263  1.00  0.00     0.044 C 
ATOM      2  C   UNL     1      -1.242  -2.319 -15.832  1.00  0.00    -0.047 A 
ATOM      3  C   UNL     1      -0.802  -3.606 -15.500  1.00  0.00     0.016 A 
ATOM      4  C   UNL     1      -0.832  -4.053 -14.167  1.00  0.00     0.038 A 
ATOM      5  C   UNL     1      -1.314  -3.199 -13.153  1.00  0.00     0.076 A 
ATOM      6  C   UNL     1      -1.782  -1.911 -13.495  1.00  0.00     0.127 A 
ATOM      7  C   UNL     1      -1.746  -1.484 -14.829  1.00  0.00     0.050 A 
ATOM      8  C   UNL     1      -1.301  -3.672 -11.743  1.00  0.00     0.201 C 
ATOM      9  O   UNL     1      -1.374  -2.831 -10.808  1.00  0.00    -0.288 OA
ATOM     10  C   UNL     1      -1.084  -5.114 -11.438  1.00  0.00     0.076 A 
ATOM     11  C   UNL     1      -0.543  -5.941 -12.452  1.00  0.00     0.041 A 
ATOM     12  C   UNL     1      -0.359  -5.412 -13.824  1.00  0.00     0.194 C 
ATOM     13  O   UNL     1       0.188  -6.130 -14.707  1.00  0.00    -0.289 OA
ATOM     14  C   UNL     1      -0.191  -7.269 -12.156  1.00  0.00     0.059 A 
ATOM     15  C   UNL     1      -0.383  -7.787 -10.874  1.00  0.00     0.120 A 
ATOM     16  C   UNL     1      -0.959  -6.992  -9.885  1.00  0.00     0.093 A 
ATOM     17  C   UNL     1      -1.344  -5.676 -10.159  1.00  0.00     0.131 A 
ENDROOT
BRANCH   6  18
ATOM     18  O   UNL     1      -2.295  -1.056 -12.519  1.00  0.00    -0.507 OA
ATOM     19  H   UNL     1      -1.796  -0.226 -12.221  1.00  0.00     0.293 HD
ENDBRANCH   6  18
BRANCH  17  20
ATOM     20  O   UNL     1      -2.011  -4.984  -9.145  1.00  0.00    -0.507 OA
ATOM     21  H   UNL     1      -1.929  -5.209  -8.164  1.00  0.00     0.293 HD
ENDBRANCH  17  20
BRANCH  15  22
ATOM     22  O   UNL     1      -0.018  -9.098 -10.575  1.00  0.00    -0.508 OA
ATOM     23  H   UNL     1       0.703  -9.580 -11.098  1.00  0.00     0.293 HD
ENDBRANCH  15  22
TORSDOF 3
ENDMDL
