MODEL 1
REMARK VINA RESULT:    -2.940      0.000      0.000
REMARK INTER + INTRA:         -10.275
REMARK INTER:                  -7.752
REMARK INTRA:                  -2.523
REMARK UNBOUND:                -2.523
REMARK SMILES CCCCCCCCCCCCCCCCCCCCCCCCCCCCCC(=O)[O-]
REMARK SMILES IDX 16 1 17 2 18 3 19 4 20 5 21 6 22 7 23 8 24 9 25 10 26 11
REMARK SMILES IDX 27 12 28 13 29 14 30 15 31 16 32 17 15 18 14 19 13 20 12 21
REMARK SMILES IDX 11 22 10 23 9 24 8 25 7 26 6 27 5 28 4 29 3 30 2 31 1 32
REMARK H PARENT
REMARK Flexibility Score: inf
ROOT
ATOM      1  C   UNL     1       2.005  43.396   8.750  1.00  0.00     0.000 C 
ENDROOT
BRANCH   1   2
ATOM      2  C   UNL     1       1.112  44.652   8.781  1.00  0.00     0.000 C 
BRANCH   2   3
ATOM      3  C   UNL     1       0.221  44.802   7.534  1.00  0.00     0.000 C 
BRANCH   3   4
ATOM      4  C   UNL     1      -0.935  45.794   7.757  1.00  0.00     0.000 C 
BRANCH   4   5
ATOM      5  C   UNL     1      -0.496  47.042   8.553  1.00  0.00     0.000 C 
BRANCH   5   6
ATOM      6  C   UNL     1       0.085  48.172   7.680  1.00  0.00     0.000 C 
BRANCH   6   7
ATOM      7  C   UNL     1      -0.521  49.565   7.921  1.00  0.00     0.000 C 
BRANCH   7   8
ATOM      8  C   UNL     1       0.418  50.706   7.489  1.00  0.00     0.000 C 
BRANCH   8   9
ATOM      9  C   UNL     1       1.560  50.942   8.491  1.00  0.00     0.000 C 
BRANCH   9  10
ATOM     10  C   UNL     1       2.921  51.120   7.804  1.00  0.00     0.000 C 
BRANCH  10  11
ATOM     11  C   UNL     1       3.294  49.869   6.996  1.00  0.00     0.000 C 
BRANCH  11  12
ATOM     12  C   UNL     1       4.260  48.934   7.747  1.00  0.00     0.000 C 
BRANCH  12  13
ATOM     13  C   UNL     1       3.664  47.572   8.152  1.00  0.00     0.006 C 
BRANCH  13  14
ATOM     14  C   UNL     1       3.600  47.374   9.673  1.00  0.00     0.053 C 
BRANCH  14  15
ATOM     15  C   UNL     1       4.940  46.976  10.210  1.00  0.00     0.041 C 
ATOM     16  O   UNL     1       5.020  46.208  11.206  1.00  0.00    -0.550 OA
ATOM     17  O   UNL     1       6.101  47.436   9.600  1.00  0.00    -0.550 OA
ENDBRANCH  14  15
ENDBRANCH  13  14
ENDBRANCH  12  13
ENDBRANCH  11  12
ENDBRANCH  10  11
ENDBRANCH   9  10
ENDBRANCH   8   9
ENDBRANCH   7   8
ENDBRANCH   6   7
ENDBRANCH   5   6
ENDBRANCH   4   5
ENDBRANCH   3   4
ENDBRANCH   2   3
ENDBRANCH   1   2
BRANCH   1  18
ATOM     18  C   UNL     1       3.461  43.711   9.136  1.00  0.00     0.000 C 
BRANCH  18  19
ATOM     19  C   UNL     1       4.003  42.781  10.236  1.00  0.00     0.000 C 
BRANCH  19  20
ATOM     20  C   UNL     1       4.438  43.491  11.536  1.00  0.00     0.000 C 
BRANCH  20  21
ATOM     21  C   UNL     1       3.398  43.480  12.677  1.00  0.00     0.000 C 
BRANCH  21  22
ATOM     22  C   UNL     1       1.963  43.849  12.255  1.00  0.00     0.000 C 
BRANCH  22  23
ATOM     23  C   UNL     1       0.953  42.722  12.530  1.00  0.00     0.000 C 
BRANCH  23  24
ATOM     24  C   UNL     1      -0.238  43.190  13.383  1.00  0.00    -0.000 C 
BRANCH  24  25
ATOM     25  C   UNL     1      -1.025  42.021  13.998  1.00  0.00    -0.000 C 
BRANCH  25  26
ATOM     26  C   UNL     1      -0.159  41.140  14.916  1.00  0.00    -0.000 C 
BRANCH  26  27
ATOM     27  C   UNL     1      -0.313  39.621  14.700  1.00  0.00    -0.000 C 
BRANCH  27  28
ATOM     28  C   UNL     1      -0.905  39.209  13.338  1.00  0.00    -0.000 C 
BRANCH  28  29
ATOM     29  C   UNL     1      -0.673  37.737  12.948  1.00  0.00    -0.000 C 
BRANCH  29  30
ATOM     30  C   UNL     1       0.772  37.461  12.499  1.00  0.00    -0.000 C 
BRANCH  30  31
ATOM     31  C   UNL     1       0.957  36.033  11.961  1.00  0.00    -0.003 C 
ATOM     32  C   UNL     1      -0.300  35.178  12.116  1.00  0.00     0.004 C 
ENDBRANCH  30  31
ENDBRANCH  29  30
ENDBRANCH  28  29
ENDBRANCH  27  28
ENDBRANCH  26  27
ENDBRANCH  25  26
ENDBRANCH  24  25
ENDBRANCH  23  24
ENDBRANCH  22  23
ENDBRANCH  21  22
ENDBRANCH  20  21
ENDBRANCH  19  20
ENDBRANCH  18  19
ENDBRANCH   1  18
TORSDOF 28
ENDMDL
MODEL 2
REMARK VINA RESULT:    -2.882      3.107     10.176
REMARK INTER + INTRA:         -10.123
REMARK INTER:                  -8.015
REMARK INTRA:                  -2.108
REMARK UNBOUND:                -2.523
REMARK SMILES CCCCCCCCCCCCCCCCCCCCCCCCCCCCCC(=O)[O-]
REMARK SMILES IDX 16 1 17 2 18 3 19 4 20 5 21 6 22 7 23 8 24 9 25 10 26 11
REMARK SMILES IDX 27 12 28 13 29 14 30 15 31 16 32 17 15 18 14 19 13 20 12 21
REMARK SMILES IDX 11 22 10 23 9 24 8 25 7 26 6 27 5 28 4 29 3 30 2 31 1 32
REMARK H PARENT
REMARK Flexibility Score: inf
ROOT
ATOM      1  C   UNL     1       0.967  45.871   8.043  1.00  0.00     0.000 C 
ENDROOT
BRANCH   1   2
ATOM      2  C   UNL     1       1.155  45.586   9.546  1.00  0.00     0.000 C 
BRANCH   2   3
ATOM      3  C   UNL     1       1.316  44.089   9.870  1.00  0.00     0.000 C 
BRANCH   3   4
ATOM      4  C   UNL     1       2.699  43.548   9.464  1.00  0.00     0.000 C 
BRANCH   4   5
ATOM      5  C   UNL     1       3.845  44.509   9.848  1.00  0.00     0.000 C 
BRANCH   5   6
ATOM      6  C   UNL     1       4.097  44.611  11.366  1.00  0.00     0.000 C 
BRANCH   6   7
ATOM      7  C   UNL     1       3.623  43.405  12.192  1.00  0.00     0.000 C 
BRANCH   7   8
ATOM      8  C   UNL     1       2.158  43.535  12.650  1.00  0.00     0.000 C 
BRANCH   8   9
ATOM      9  C   UNL     1       1.476  42.170  12.839  1.00  0.00     0.000 C 
BRANCH   9  10
ATOM     10  C   UNL     1       0.254  42.243  13.766  1.00  0.00     0.000 C 
BRANCH  10  11
ATOM     11  C   UNL     1       0.019  40.899  14.469  1.00  0.00     0.000 C 
BRANCH  11  12
ATOM     12  C   UNL     1      -0.547  39.819  13.527  1.00  0.00     0.000 C 
BRANCH  12  13
ATOM     13  C   UNL     1       0.168  38.456  13.595  1.00  0.00     0.006 C 
BRANCH  13  14
ATOM     14  C   UNL     1      -0.511  37.380  12.736  1.00  0.00     0.053 C 
BRANCH  14  15
ATOM     15  C   UNL     1       0.511  36.496  12.093  1.00  0.00     0.041 C 
ATOM     16  O   UNL     1       1.700  36.896  11.959  1.00  0.00    -0.550 OA
ATOM     17  O   UNL     1       0.160  35.224  11.657  1.00  0.00    -0.550 OA
ENDBRANCH  14  15
ENDBRANCH  13  14
ENDBRANCH  12  13
ENDBRANCH  11  12
ENDBRANCH  10  11
ENDBRANCH   9  10
ENDBRANCH   8   9
ENDBRANCH   7   8
ENDBRANCH   6   7
ENDBRANCH   5   6
ENDBRANCH   4   5
ENDBRANCH   3   4
ENDBRANCH   2   3
ENDBRANCH   1   2
BRANCH   1  18
ATOM     18  C   UNL     1      -0.511  45.794   7.619  1.00  0.00     0.000 C 
BRANCH  18  19
ATOM     19  C   UNL     1      -1.063  47.143   7.124  1.00  0.00     0.000 C 
BRANCH  19  20
ATOM     20  C   UNL     1      -0.104  48.341   7.289  1.00  0.00     0.000 C 
BRANCH  20  21
ATOM     21  C   UNL     1      -0.782  49.720   7.426  1.00  0.00     0.000 C 
BRANCH  21  22
ATOM     22  C   UNL     1       0.181  50.899   7.661  1.00  0.00     0.000 C 
BRANCH  22  23
ATOM     23  C   UNL     1       1.537  50.455   8.237  1.00  0.00     0.000 C 
BRANCH  23  24
ATOM     24  C   UNL     1       2.725  50.929   7.382  1.00  0.00    -0.000 C 
BRANCH  24  25
ATOM     25  C   UNL     1       4.027  50.176   7.706  1.00  0.00    -0.000 C 
BRANCH  25  26
ATOM     26  C   UNL     1       3.937  48.672   7.391  1.00  0.00    -0.000 C 
BRANCH  26  27
ATOM     27  C   UNL     1       4.053  47.740   8.613  1.00  0.00    -0.000 C 
BRANCH  27  28
ATOM     28  C   UNL     1       5.273  47.995   9.520  1.00  0.00    -0.000 C 
BRANCH  28  29
ATOM     29  C   UNL     1       6.597  47.395   9.011  1.00  0.00    -0.000 C 
BRANCH  29  30
ATOM     30  C   UNL     1       7.831  48.170   9.503  1.00  0.00    -0.000 C 
BRANCH  30  31
ATOM     31  C   UNL     1       7.518  49.645   9.799  1.00  0.00    -0.003 C 
ATOM     32  C   UNL     1       7.855  50.566   8.626  1.00  0.00     0.004 C 
ENDBRANCH  30  31
ENDBRANCH  29  30
ENDBRANCH  28  29
ENDBRANCH  27  28
ENDBRANCH  26  27
ENDBRANCH  25  26
ENDBRANCH  24  25
ENDBRANCH  23  24
ENDBRANCH  22  23
ENDBRANCH  21  22
ENDBRANCH  20  21
ENDBRANCH  19  20
ENDBRANCH  18  19
ENDBRANCH   1  18
TORSDOF 28
ENDMDL
MODEL 3
REMARK VINA RESULT:    -2.831      2.127      4.213
REMARK INTER + INTRA:          -9.988
REMARK INTER:                  -6.989
REMARK INTRA:                  -2.999
REMARK UNBOUND:                -2.523
REMARK SMILES CCCCCCCCCCCCCCCCCCCCCCCCCCCCCC(=O)[O-]
REMARK SMILES IDX 16 1 17 2 18 3 19 4 20 5 21 6 22 7 23 8 24 9 25 10 26 11
REMARK SMILES IDX 27 12 28 13 29 14 30 15 31 16 32 17 15 18 14 19 13 20 12 21
REMARK SMILES IDX 11 22 10 23 9 24 8 25 7 26 6 27 5 28 4 29 3 30 2 31 1 32
REMARK H PARENT
REMARK Flexibility Score: inf
ROOT
ATOM      1  C   UNL     1      -0.446  46.384   8.056  1.00  0.00     0.000 C 
ENDROOT
BRANCH   1   2
ATOM      2  C   UNL     1      -0.747  47.674   7.268  1.00  0.00     0.000 C 
BRANCH   2   3
ATOM      3  C   UNL     1      -0.810  48.932   8.154  1.00  0.00     0.000 C 
BRANCH   3   4
ATOM      4  C   UNL     1      -1.093  50.207   7.339  1.00  0.00     0.000 C 
BRANCH   4   5
ATOM      5  C   UNL     1       0.146  51.121   7.222  1.00  0.00     0.000 C 
BRANCH   5   6
ATOM      6  C   UNL     1       1.072  51.087   8.454  1.00  0.00     0.000 C 
BRANCH   6   7
ATOM      7  C   UNL     1       2.577  51.125   8.145  1.00  0.00     0.000 C 
BRANCH   7   8
ATOM      8  C   UNL     1       2.968  50.210   6.969  1.00  0.00     0.000 C 
BRANCH   8   9
ATOM      9  C   UNL     1       3.727  48.955   7.426  1.00  0.00     0.000 C 
BRANCH   9  10
ATOM     10  C   UNL     1       2.787  47.813   7.841  1.00  0.00     0.000 C 
BRANCH  10  11
ATOM     11  C   UNL     1       2.601  47.784   9.364  1.00  0.00     0.000 C 
BRANCH  11  12
ATOM     12  C   UNL     1       3.391  46.651  10.045  1.00  0.00     0.000 C 
BRANCH  12  13
ATOM     13  C   UNL     1       4.840  46.481   9.552  1.00  0.00     0.006 C 
BRANCH  13  14
ATOM     14  C   UNL     1       5.849  47.318  10.351  1.00  0.00     0.053 C 
BRANCH  14  15
ATOM     15  C   UNL     1       6.834  47.974   9.435  1.00  0.00     0.041 C 
ATOM     16  O   UNL     1       6.431  48.715   8.498  1.00  0.00    -0.550 OA
ATOM     17  O   UNL     1       8.197  47.783   9.624  1.00  0.00    -0.550 OA
ENDBRANCH  14  15
ENDBRANCH  13  14
ENDBRANCH  12  13
ENDBRANCH  11  12
ENDBRANCH  10  11
ENDBRANCH   9  10
ENDBRANCH   8   9
ENDBRANCH   7   8
ENDBRANCH   6   7
ENDBRANCH   5   6
ENDBRANCH   4   5
ENDBRANCH   3   4
ENDBRANCH   2   3
ENDBRANCH   1   2
BRANCH   1  18
ATOM     18  C   UNL     1      -0.787  45.119   7.249  1.00  0.00     0.000 C 
BRANCH  18  19
ATOM     19  C   UNL     1       0.393  44.136   7.147  1.00  0.00     0.000 C 
BRANCH  19  20
ATOM     20  C   UNL     1       1.285  44.055   8.404  1.00  0.00     0.000 C 
BRANCH  20  21
ATOM     21  C   UNL     1       2.803  43.981   8.137  1.00  0.00     0.000 C 
BRANCH  21  22
ATOM     22  C   UNL     1       3.545  42.865   8.898  1.00  0.00     0.000 C 
BRANCH  22  23
ATOM     23  C   UNL     1       2.982  42.633  10.311  1.00  0.00     0.000 C 
BRANCH  23  24
ATOM     24  C   UNL     1       3.908  43.179  11.413  1.00  0.00    -0.000 C 
BRANCH  24  25
ATOM     25  C   UNL     1       3.160  44.041  12.443  1.00  0.00    -0.000 C 
BRANCH  25  26
ATOM     26  C   UNL     1       1.917  44.730  11.852  1.00  0.00    -0.000 C 
BRANCH  26  27
ATOM     27  C   UNL     1       0.654  43.848  11.777  1.00  0.00    -0.000 C 
BRANCH  27  28
ATOM     28  C   UNL     1       0.209  43.225  13.115  1.00  0.00    -0.000 C 
BRANCH  28  29
ATOM     29  C   UNL     1       0.614  41.752  13.311  1.00  0.00    -0.000 C 
BRANCH  29  30
ATOM     30  C   UNL     1      -0.191  41.056  14.421  1.00  0.00    -0.000 C 
BRANCH  30  31
ATOM     31  C   UNL     1       0.034  41.696  15.800  1.00  0.00    -0.003 C 
ATOM     32  C   UNL     1      -1.096  41.390  16.783  1.00  0.00     0.004 C 
ENDBRANCH  30  31
ENDBRANCH  29  30
ENDBRANCH  28  29
ENDBRANCH  27  28
ENDBRANCH  26  27
ENDBRANCH  25  26
ENDBRANCH  24  25
ENDBRANCH  23  24
ENDBRANCH  22  23
ENDBRANCH  21  22
ENDBRANCH  20  21
ENDBRANCH  19  20
ENDBRANCH  18  19
ENDBRANCH   1  18
TORSDOF 28
ENDMDL
MODEL 4
REMARK VINA RESULT:    -2.740      3.338     10.208
REMARK INTER + INTRA:          -9.750
REMARK INTER:                  -7.521
REMARK INTRA:                  -2.229
REMARK UNBOUND:                -2.523
REMARK SMILES CCCCCCCCCCCCCCCCCCCCCCCCCCCCCC(=O)[O-]
REMARK SMILES IDX 16 1 17 2 18 3 19 4 20 5 21 6 22 7 23 8 24 9 25 10 26 11
REMARK SMILES IDX 27 12 28 13 29 14 30 15 31 16 32 17 15 18 14 19 13 20 12 21
REMARK SMILES IDX 11 22 10 23 9 24 8 25 7 26 6 27 5 28 4 29 3 30 2 31 1 32
REMARK H PARENT
REMARK Flexibility Score: inf
ROOT
ATOM      1  C   UNL     1       3.333  43.899   9.395  1.00  0.00     0.000 C 
ENDROOT
BRANCH   1   2
ATOM      2  C   UNL     1       3.111  45.375   9.776  1.00  0.00     0.000 C 
BRANCH   2   3
ATOM      3  C   UNL     1       3.141  45.627  11.295  1.00  0.00     0.000 C 
BRANCH   3   4
ATOM      4  C   UNL     1       4.162  44.727  12.017  1.00  0.00     0.000 C 
BRANCH   4   5
ATOM      5  C   UNL     1       3.490  43.569  12.784  1.00  0.00     0.000 C 
BRANCH   5   6
ATOM      6  C   UNL     1       1.965  43.478  12.578  1.00  0.00     0.000 C 
BRANCH   6   7
ATOM      7  C   UNL     1       1.336  42.119  12.925  1.00  0.00     0.000 C 
BRANCH   7   8
ATOM      8  C   UNL     1      -0.118  42.244  13.419  1.00  0.00     0.000 C 
BRANCH   8   9
ATOM      9  C   UNL     1      -0.302  41.709  14.849  1.00  0.00     0.000 C 
BRANCH   9  10
ATOM     10  C   UNL     1      -0.542  40.192  14.885  1.00  0.00     0.000 C 
BRANCH  10  11
ATOM     11  C   UNL     1      -1.125  39.698  13.554  1.00  0.00     0.000 C 
BRANCH  11  12
ATOM     12  C   UNL     1      -0.767  38.232  13.248  1.00  0.00     0.000 C 
BRANCH  12  13
ATOM     13  C   UNL     1       0.740  37.942  13.121  1.00  0.00     0.006 C 
BRANCH  13  14
ATOM     14  C   UNL     1       1.051  36.789  12.156  1.00  0.00     0.053 C 
BRANCH  14  15
ATOM     15  C   UNL     1      -0.134  35.885  12.015  1.00  0.00     0.041 C 
ATOM     16  O   UNL     1      -0.602  35.628  10.874  1.00  0.00    -0.550 OA
ATOM     17  O   UNL     1      -0.711  35.312  13.142  1.00  0.00    -0.550 OA
ENDBRANCH  14  15
ENDBRANCH  13  14
ENDBRANCH  12  13
ENDBRANCH  11  12
ENDBRANCH  10  11
ENDBRANCH   9  10
ENDBRANCH   8   9
ENDBRANCH   7   8
ENDBRANCH   6   7
ENDBRANCH   5   6
ENDBRANCH   4   5
ENDBRANCH   3   4
ENDBRANCH   2   3
ENDBRANCH   1   2
BRANCH   1  18
ATOM     18  C   UNL     1       2.216  43.361   8.483  1.00  0.00     0.000 C 
BRANCH  18  19
ATOM     19  C   UNL     1       0.887  44.119   8.654  1.00  0.00     0.000 C 
BRANCH  19  20
ATOM     20  C   UNL     1       0.275  44.667   7.347  1.00  0.00     0.000 C 
BRANCH  20  21
ATOM     21  C   UNL     1       0.292  46.202   7.199  1.00  0.00     0.000 C 
BRANCH  21  22
ATOM     22  C   UNL     1       0.535  46.980   8.506  1.00  0.00     0.000 C 
BRANCH  22  23
ATOM     23  C   UNL     1      -0.372  48.216   8.640  1.00  0.00     0.000 C 
BRANCH  23  24
ATOM     24  C   UNL     1       0.425  49.530   8.713  1.00  0.00    -0.000 C 
BRANCH  24  25
ATOM     25  C   UNL     1       0.463  50.276   7.369  1.00  0.00    -0.000 C 
BRANCH  25  26
ATOM     26  C   UNL     1       1.844  50.883   7.065  1.00  0.00    -0.000 C 
BRANCH  26  27
ATOM     27  C   UNL     1       2.931  50.598   8.121  1.00  0.00    -0.000 C 
BRANCH  27  28
ATOM     28  C   UNL     1       4.107  49.728   7.634  1.00  0.00    -0.000 C 
BRANCH  28  29
ATOM     29  C   UNL     1       3.998  48.233   7.988  1.00  0.00    -0.000 C 
BRANCH  29  30
ATOM     30  C   UNL     1       5.083  47.774   8.976  1.00  0.00    -0.000 C 
BRANCH  30  31
ATOM     31  C   UNL     1       6.395  48.556   8.813  1.00  0.00    -0.003 C 
ATOM     32  C   UNL     1       7.572  47.887   9.523  1.00  0.00     0.004 C 
ENDBRANCH  30  31
ENDBRANCH  29  30
ENDBRANCH  28  29
ENDBRANCH  27  28
ENDBRANCH  26  27
ENDBRANCH  25  26
ENDBRANCH  24  25
ENDBRANCH  23  24
ENDBRANCH  22  23
ENDBRANCH  21  22
ENDBRANCH  20  21
ENDBRANCH  19  20
ENDBRANCH  18  19
ENDBRANCH   1  18
TORSDOF 28
ENDMDL
MODEL 5
REMARK VINA RESULT:    -2.628      1.538      2.144
REMARK INTER + INTRA:          -9.452
REMARK INTER:                  -7.110
REMARK INTRA:                  -2.343
REMARK UNBOUND:                -2.523
REMARK SMILES CCCCCCCCCCCCCCCCCCCCCCCCCCCCCC(=O)[O-]
REMARK SMILES IDX 16 1 17 2 18 3 19 4 20 5 21 6 22 7 23 8 24 9 25 10 26 11
REMARK SMILES IDX 27 12 28 13 29 14 30 15 31 16 32 17 15 18 14 19 13 20 12 21
REMARK SMILES IDX 11 22 10 23 9 24 8 25 7 26 6 27 5 28 4 29 3 30 2 31 1 32
REMARK H PARENT
REMARK Flexibility Score: inf
ROOT
ATOM      1  C   UNL     1       1.543  43.636   8.356  1.00  0.00     0.000 C 
ENDROOT
BRANCH   1   2
ATOM      2  C   UNL     1       0.970  44.878   9.066  1.00  0.00     0.000 C 
BRANCH   2   3
ATOM      3  C   UNL     1      -0.375  45.351   8.481  1.00  0.00     0.000 C 
BRANCH   3   4
ATOM      4  C   UNL     1      -0.264  45.730   6.993  1.00  0.00     0.000 C 
BRANCH   4   5
ATOM      5  C   UNL     1      -1.125  46.959   6.631  1.00  0.00     0.000 C 
BRANCH   5   6
ATOM      6  C   UNL     1      -0.458  48.311   6.954  1.00  0.00     0.000 C 
BRANCH   6   7
ATOM      7  C   UNL     1      -0.283  48.616   8.451  1.00  0.00     0.000 C 
BRANCH   7   8
ATOM      8  C   UNL     1       1.077  49.261   8.773  1.00  0.00     0.000 C 
BRANCH   8   9
ATOM      9  C   UNL     1       2.167  48.876   7.760  1.00  0.00     0.000 C 
BRANCH   9  10
ATOM     10  C   UNL     1       2.915  47.595   8.155  1.00  0.00     0.000 C 
BRANCH  10  11
ATOM     11  C   UNL     1       4.403  47.884   8.401  1.00  0.00     0.000 C 
BRANCH  11  12
ATOM     12  C   UNL     1       4.956  47.169   9.648  1.00  0.00     0.000 C 
BRANCH  12  13
ATOM     13  C   UNL     1       6.454  47.400   9.920  1.00  0.00     0.006 C 
BRANCH  13  14
ATOM     14  C   UNL     1       7.165  48.140   8.778  1.00  0.00     0.053 C 
BRANCH  14  15
ATOM     15  C   UNL     1       7.868  49.356   9.294  1.00  0.00     0.041 C 
ATOM     16  O   UNL     1       8.706  49.253  10.230  1.00  0.00    -0.550 OA
ATOM     17  O   UNL     1       7.613  50.601   8.732  1.00  0.00    -0.550 OA
ENDBRANCH  14  15
ENDBRANCH  13  14
ENDBRANCH  12  13
ENDBRANCH  11  12
ENDBRANCH  10  11
ENDBRANCH   9  10
ENDBRANCH   8   9
ENDBRANCH   7   8
ENDBRANCH   6   7
ENDBRANCH   5   6
ENDBRANCH   4   5
ENDBRANCH   3   4
ENDBRANCH   2   3
ENDBRANCH   1   2
BRANCH   1  18
ATOM     18  C   UNL     1       2.403  42.775   9.299  1.00  0.00     0.000 C 
BRANCH  18  19
ATOM     19  C   UNL     1       3.893  43.162   9.270  1.00  0.00     0.000 C 
BRANCH  19  20
ATOM     20  C   UNL     1       4.351  44.079  10.424  1.00  0.00     0.000 C 
BRANCH  20  21
ATOM     21  C   UNL     1       4.206  43.485  11.841  1.00  0.00     0.000 C 
BRANCH  21  22
ATOM     22  C   UNL     1       3.228  44.236  12.765  1.00  0.00     0.000 C 
BRANCH  22  23
ATOM     23  C   UNL     1       1.758  43.866  12.501  1.00  0.00     0.000 C 
BRANCH  23  24
ATOM     24  C   UNL     1       1.465  42.380  12.768  1.00  0.00    -0.000 C 
BRANCH  24  25
ATOM     25  C   UNL     1       0.085  42.152  13.407  1.00  0.00    -0.000 C 
BRANCH  25  26
ATOM     26  C   UNL     1       0.174  41.491  14.794  1.00  0.00    -0.000 C 
BRANCH  26  27
ATOM     27  C   UNL     1      -1.005  40.564  15.153  1.00  0.00    -0.000 C 
BRANCH  27  28
ATOM     28  C   UNL     1      -1.024  39.211  14.416  1.00  0.00    -0.000 C 
BRANCH  28  29
ATOM     29  C   UNL     1      -0.045  39.103  13.231  1.00  0.00    -0.000 C 
BRANCH  29  30
ATOM     30  C   UNL     1       0.898  37.893  13.346  1.00  0.00    -0.000 C 
BRANCH  30  31
ATOM     31  C   UNL     1       0.644  36.845  12.251  1.00  0.00    -0.003 C 
ATOM     32  C   UNL     1      -0.820  36.411  12.179  1.00  0.00     0.004 C 
ENDBRANCH  30  31
ENDBRANCH  29  30
ENDBRANCH  28  29
ENDBRANCH  27  28
ENDBRANCH  26  27
ENDBRANCH  25  26
ENDBRANCH  24  25
ENDBRANCH  23  24
ENDBRANCH  22  23
ENDBRANCH  21  22
ENDBRANCH  20  21
ENDBRANCH  19  20
ENDBRANCH  18  19
ENDBRANCH   1  18
TORSDOF 28
ENDMDL
MODEL 6
REMARK VINA RESULT:    -2.605      1.463      3.266
REMARK INTER + INTRA:          -9.393
REMARK INTER:                  -7.512
REMARK INTRA:                  -1.881
REMARK UNBOUND:                -2.523
REMARK SMILES CCCCCCCCCCCCCCCCCCCCCCCCCCCCCC(=O)[O-]
REMARK SMILES IDX 16 1 17 2 18 3 19 4 20 5 21 6 22 7 23 8 24 9 25 10 26 11
REMARK SMILES IDX 27 12 28 13 29 14 30 15 31 16 32 17 15 18 14 19 13 20 12 21
REMARK SMILES IDX 11 22 10 23 9 24 8 25 7 26 6 27 5 28 4 29 3 30 2 31 1 32
REMARK H PARENT
REMARK Flexibility Score: inf
ROOT
ATOM      1  C   UNL     1       0.670  46.005   8.579  1.00  0.00     0.000 C 
ENDROOT
BRANCH   1   2
ATOM      2  C   UNL     1      -0.165  46.874   9.539  1.00  0.00     0.000 C 
BRANCH   2   3
ATOM      3  C   UNL     1      -1.011  47.941   8.820  1.00  0.00     0.000 C 
BRANCH   3   4
ATOM      4  C   UNL     1      -0.362  48.415   7.507  1.00  0.00     0.000 C 
BRANCH   4   5
ATOM      5  C   UNL     1      -0.711  49.881   7.172  1.00  0.00     0.000 C 
BRANCH   5   6
ATOM      6  C   UNL     1       0.350  50.901   7.629  1.00  0.00     0.000 C 
BRANCH   6   7
ATOM      7  C   UNL     1       1.505  50.318   8.459  1.00  0.00     0.000 C 
BRANCH   7   8
ATOM      8  C   UNL     1       2.890  50.652   7.873  1.00  0.00     0.000 C 
BRANCH   8   9
ATOM      9  C   UNL     1       3.659  49.399   7.428  1.00  0.00     0.000 C 
BRANCH   9  10
ATOM     10  C   UNL     1       3.029  48.101   7.953  1.00  0.00     0.000 C 
BRANCH  10  11
ATOM     11  C   UNL     1       4.113  47.095   8.367  1.00  0.00     0.000 C 
BRANCH  11  12
ATOM     12  C   UNL     1       4.598  47.295   9.815  1.00  0.00     0.000 C 
BRANCH  12  13
ATOM     13  C   UNL     1       6.111  47.538   9.967  1.00  0.00     0.006 C 
BRANCH  13  14
ATOM     14  C   UNL     1       6.715  48.320   8.791  1.00  0.00     0.053 C 
BRANCH  14  15
ATOM     15  C   UNL     1       7.827  49.204   9.261  1.00  0.00     0.041 C 
ATOM     16  O   UNL     1       8.603  48.814  10.175  1.00  0.00    -0.550 OA
ATOM     17  O   UNL     1       8.021  50.450   8.679  1.00  0.00    -0.550 OA
ENDBRANCH  14  15
ENDBRANCH  13  14
ENDBRANCH  12  13
ENDBRANCH  11  12
ENDBRANCH  10  11
ENDBRANCH   9  10
ENDBRANCH   8   9
ENDBRANCH   7   8
ENDBRANCH   6   7
ENDBRANCH   5   6
ENDBRANCH   4   5
ENDBRANCH   3   4
ENDBRANCH   2   3
ENDBRANCH   1   2
BRANCH   1  18
ATOM     18  C   UNL     1       1.044  44.648   9.203  1.00  0.00     0.000 C 
BRANCH  18  19
ATOM     19  C   UNL     1       1.670  43.675   8.188  1.00  0.00     0.000 C 
BRANCH  19  20
ATOM     20  C   UNL     1       3.046  43.106   8.593  1.00  0.00     0.000 C 
BRANCH  20  21
ATOM     21  C   UNL     1       3.127  42.515  10.015  1.00  0.00     0.000 C 
BRANCH  21  22
ATOM     22  C   UNL     1       4.366  42.939  10.828  1.00  0.00     0.000 C 
BRANCH  22  23
ATOM     23  C   UNL     1       4.181  44.297  11.528  1.00  0.00     0.000 C 
BRANCH  23  24
ATOM     24  C   UNL     1       2.951  44.325  12.452  1.00  0.00    -0.000 C 
BRANCH  24  25
ATOM     25  C   UNL     1       1.938  43.215  12.124  1.00  0.00    -0.000 C 
BRANCH  25  26
ATOM     26  C   UNL     1       0.489  43.619  12.449  1.00  0.00    -0.000 C 
BRANCH  26  27
ATOM     27  C   UNL     1      -0.167  42.830  13.600  1.00  0.00    -0.000 C 
BRANCH  27  28
ATOM     28  C   UNL     1       0.459  41.451  13.891  1.00  0.00    -0.000 C 
BRANCH  28  29
ATOM     29  C   UNL     1       0.034  40.815  15.227  1.00  0.00    -0.000 C 
BRANCH  29  30
ATOM     30  C   UNL     1      -1.003  39.693  15.049  1.00  0.00    -0.000 C 
BRANCH  30  31
ATOM     31  C   UNL     1      -1.125  39.232  13.589  1.00  0.00    -0.003 C 
ATOM     32  C   UNL     1      -0.124  38.133  13.232  1.00  0.00     0.004 C 
ENDBRANCH  30  31
ENDBRANCH  29  30
ENDBRANCH  28  29
ENDBRANCH  27  28
ENDBRANCH  26  27
ENDBRANCH  25  26
ENDBRANCH  24  25
ENDBRANCH  23  24
ENDBRANCH  22  23
ENDBRANCH  21  22
ENDBRANCH  20  21
ENDBRANCH  19  20
ENDBRANCH  18  19
ENDBRANCH   1  18
TORSDOF 28
ENDMDL
MODEL 7
REMARK VINA RESULT:    -2.419      2.157      3.437
REMARK INTER + INTRA:          -8.901
REMARK INTER:                  -6.210
REMARK INTRA:                  -2.691
REMARK UNBOUND:                -2.523
REMARK SMILES CCCCCCCCCCCCCCCCCCCCCCCCCCCCCC(=O)[O-]
REMARK SMILES IDX 16 1 17 2 18 3 19 4 20 5 21 6 22 7 23 8 24 9 25 10 26 11
REMARK SMILES IDX 27 12 28 13 29 14 30 15 31 16 32 17 15 18 14 19 13 20 12 21
REMARK SMILES IDX 11 22 10 23 9 24 8 25 7 26 6 27 5 28 4 29 3 30 2 31 1 32
REMARK H PARENT
REMARK Flexibility Score: inf
ROOT
ATOM      1  C   UNL     1       2.405  42.846   8.882  1.00  0.00     0.000 C 
ENDROOT
BRANCH   1   2
ATOM      2  C   UNL     1       1.854  44.040   8.078  1.00  0.00     0.000 C 
BRANCH   2   3
ATOM      3  C   UNL     1       0.352  43.923   7.759  1.00  0.00     0.000 C 
BRANCH   3   4
ATOM      4  C   UNL     1      -0.156  45.094   6.898  1.00  0.00     0.000 C 
BRANCH   4   5
ATOM      5  C   UNL     1      -1.005  46.098   7.707  1.00  0.00     0.000 C 
BRANCH   5   6
ATOM      6  C   UNL     1      -0.876  47.558   7.231  1.00  0.00     0.000 C 
BRANCH   6   7
ATOM      7  C   UNL     1      -0.301  48.538   8.267  1.00  0.00     0.000 C 
BRANCH   7   8
ATOM      8  C   UNL     1       0.451  49.716   7.620  1.00  0.00     0.000 C 
BRANCH   8   9
ATOM      9  C   UNL     1       1.688  50.141   8.428  1.00  0.00     0.000 C 
BRANCH   9  10
ATOM     10  C   UNL     1       3.004  49.735   7.750  1.00  0.00     0.000 C 
BRANCH  10  11
ATOM     11  C   UNL     1       3.078  48.213   7.566  1.00  0.00     0.000 C 
BRANCH  11  12
ATOM     12  C   UNL     1       4.394  47.607   8.087  1.00  0.00     0.000 C 
BRANCH  12  13
ATOM     13  C   UNL     1       5.477  48.633   8.470  1.00  0.00     0.006 C 
BRANCH  13  14
ATOM     14  C   UNL     1       6.711  47.990   9.118  1.00  0.00     0.053 C 
BRANCH  14  15
ATOM     15  C   UNL     1       7.777  49.014   9.355  1.00  0.00     0.041 C 
ATOM     16  O   UNL     1       7.731  50.125   8.761  1.00  0.00    -0.550 OA
ATOM     17  O   UNL     1       8.811  48.752  10.245  1.00  0.00    -0.550 OA
ENDBRANCH  14  15
ENDBRANCH  13  14
ENDBRANCH  12  13
ENDBRANCH  11  12
ENDBRANCH  10  11
ENDBRANCH   9  10
ENDBRANCH   8   9
ENDBRANCH   7   8
ENDBRANCH   6   7
ENDBRANCH   5   6
ENDBRANCH   4   5
ENDBRANCH   3   4
ENDBRANCH   2   3
ENDBRANCH   1   2
BRANCH   1  18
ATOM     18  C   UNL     1       3.643  43.228   9.712  1.00  0.00     0.000 C 
BRANCH  18  19
ATOM     19  C   UNL     1       3.656  42.571  11.104  1.00  0.00     0.000 C 
BRANCH  19  20
ATOM     20  C   UNL     1       4.521  43.294  12.158  1.00  0.00     0.000 C 
BRANCH  20  21
ATOM     21  C   UNL     1       4.136  44.762  12.439  1.00  0.00     0.000 C 
BRANCH  21  22
ATOM     22  C   UNL     1       4.355  45.730  11.261  1.00  0.00     0.000 C 
BRANCH  22  23
ATOM     23  C   UNL     1       3.134  46.627  10.993  1.00  0.00     0.000 C 
BRANCH  23  24
ATOM     24  C   UNL     1       2.032  45.904  10.200  1.00  0.00    -0.000 C 
BRANCH  24  25
ATOM     25  C   UNL     1       0.618  46.272  10.677  1.00  0.00    -0.000 C 
BRANCH  25  26
ATOM     26  C   UNL     1      -0.135  45.075  11.284  1.00  0.00    -0.000 C 
BRANCH  26  27
ATOM     27  C   UNL     1       0.749  44.054  12.026  1.00  0.00    -0.000 C 
BRANCH  27  28
ATOM     28  C   UNL     1      -0.015  43.006  12.859  1.00  0.00    -0.000 C 
BRANCH  28  29
ATOM     29  C   UNL     1       0.861  41.896  13.468  1.00  0.00    -0.000 C 
BRANCH  29  30
ATOM     30  C   UNL     1       0.038  40.699  13.975  1.00  0.00    -0.000 C 
BRANCH  30  31
ATOM     31  C   UNL     1      -0.045  40.650  15.509  1.00  0.00    -0.003 C 
ATOM     32  C   UNL     1      -0.318  42.021  16.127  1.00  0.00     0.004 C 
ENDBRANCH  30  31
ENDBRANCH  29  30
ENDBRANCH  28  29
ENDBRANCH  27  28
ENDBRANCH  26  27
ENDBRANCH  25  26
ENDBRANCH  24  25
ENDBRANCH  23  24
ENDBRANCH  22  23
ENDBRANCH  21  22
ENDBRANCH  20  21
ENDBRANCH  19  20
ENDBRANCH  18  19
ENDBRANCH   1  18
TORSDOF 28
ENDMDL
MODEL 8
REMARK VINA RESULT:    -2.309      1.609      4.055
REMARK INTER + INTRA:          -8.611
REMARK INTER:                  -5.441
REMARK INTRA:                  -3.170
REMARK UNBOUND:                -2.523
REMARK SMILES CCCCCCCCCCCCCCCCCCCCCCCCCCCCCC(=O)[O-]
REMARK SMILES IDX 16 1 17 2 18 3 19 4 20 5 21 6 22 7 23 8 24 9 25 10 26 11
REMARK SMILES IDX 27 12 28 13 29 14 30 15 31 16 32 17 15 18 14 19 13 20 12 21
REMARK SMILES IDX 11 22 10 23 9 24 8 25 7 26 6 27 5 28 4 29 3 30 2 31 1 32
REMARK H PARENT
REMARK Flexibility Score: inf
ROOT
ATOM      1  C   UNL     1      -0.010  47.017   6.761  1.00  0.00     0.000 C 
ENDROOT
BRANCH   1   2
ATOM      2  C   UNL     1      -1.125  48.078   6.673  1.00  0.00     0.000 C 
BRANCH   2   3
ATOM      3  C   UNL     1      -0.934  49.250   7.654  1.00  0.00     0.000 C 
BRANCH   3   4
ATOM      4  C   UNL     1       0.206  48.994   8.656  1.00  0.00     0.000 C 
BRANCH   4   5
ATOM      5  C   UNL     1       1.115  50.227   8.843  1.00  0.00     0.000 C 
BRANCH   5   6
ATOM      6  C   UNL     1       1.348  51.040   7.554  1.00  0.00     0.000 C 
BRANCH   6   7
ATOM      7  C   UNL     1       2.789  51.026   7.021  1.00  0.00     0.000 C 
BRANCH   7   8
ATOM      8  C   UNL     1       3.657  49.935   7.676  1.00  0.00     0.000 C 
BRANCH   8   9
ATOM      9  C   UNL     1       3.472  48.560   7.015  1.00  0.00     0.000 C 
BRANCH   9  10
ATOM     10  C   UNL     1       3.239  47.439   8.038  1.00  0.00     0.000 C 
BRANCH  10  11
ATOM     11  C   UNL     1       3.973  47.737   9.353  1.00  0.00     0.000 C 
BRANCH  11  12
ATOM     12  C   UNL     1       5.226  46.864   9.553  1.00  0.00     0.000 C 
BRANCH  12  13
ATOM     13  C   UNL     1       6.553  47.524   9.135  1.00  0.00     0.006 C 
BRANCH  13  14
ATOM     14  C   UNL     1       6.906  48.752   9.985  1.00  0.00     0.053 C 
BRANCH  14  15
ATOM     15  C   UNL     1       8.172  49.385   9.498  1.00  0.00     0.041 C 
ATOM     16  O   UNL     1       9.272  48.783   9.629  1.00  0.00    -0.550 OA
ATOM     17  O   UNL     1       8.138  50.630   8.881  1.00  0.00    -0.550 OA
ENDBRANCH  14  15
ENDBRANCH  13  14
ENDBRANCH  12  13
ENDBRANCH  11  12
ENDBRANCH  10  11
ENDBRANCH   9  10
ENDBRANCH   8   9
ENDBRANCH   7   8
ENDBRANCH   6   7
ENDBRANCH   5   6
ENDBRANCH   4   5
ENDBRANCH   3   4
ENDBRANCH   2   3
ENDBRANCH   1   2
BRANCH   1  18
ATOM     18  C   UNL     1      -0.573  45.585   6.770  1.00  0.00     0.000 C 
BRANCH  18  19
ATOM     19  C   UNL     1      -1.004  45.120   8.173  1.00  0.00     0.000 C 
BRANCH  19  20
ATOM     20  C   UNL     1      -0.387  45.916   9.343  1.00  0.00     0.000 C 
BRANCH  20  21
ATOM     21  C   UNL     1       0.424  45.083  10.357  1.00  0.00     0.000 C 
BRANCH  21  22
ATOM     22  C   UNL     1       1.947  45.075  10.124  1.00  0.00     0.000 C 
BRANCH  22  23
ATOM     23  C   UNL     1       2.414  43.870   9.288  1.00  0.00     0.000 C 
BRANCH  23  24
ATOM     24  C   UNL     1       2.895  42.697  10.160  1.00  0.00    -0.000 C 
BRANCH  24  25
ATOM     25  C   UNL     1       3.554  43.161  11.469  1.00  0.00    -0.000 C 
BRANCH  25  26
ATOM     26  C   UNL     1       2.555  43.259  12.635  1.00  0.00    -0.000 C 
BRANCH  26  27
ATOM     27  C   UNL     1       1.494  42.141  12.684  1.00  0.00    -0.000 C 
BRANCH  27  28
ATOM     28  C   UNL     1       0.203  42.494  13.450  1.00  0.00    -0.000 C 
BRANCH  28  29
ATOM     29  C   UNL     1      -0.164  41.520  14.585  1.00  0.00    -0.000 C 
BRANCH  29  30
ATOM     30  C   UNL     1       0.122  40.052  14.227  1.00  0.00    -0.000 C 
BRANCH  30  31
ATOM     31  C   UNL     1      -1.125  39.321  13.706  1.00  0.00    -0.003 C 
ATOM     32  C   UNL     1      -0.789  37.985  13.042  1.00  0.00     0.004 C 
ENDBRANCH  30  31
ENDBRANCH  29  30
ENDBRANCH  28  29
ENDBRANCH  27  28
ENDBRANCH  26  27
ENDBRANCH  25  26
ENDBRANCH  24  25
ENDBRANCH  23  24
ENDBRANCH  22  23
ENDBRANCH  21  22
ENDBRANCH  20  21
ENDBRANCH  19  20
ENDBRANCH  18  19
ENDBRANCH   1  18
TORSDOF 28
ENDMDL
MODEL 9
REMARK VINA RESULT:    -2.024      1.701      3.676
REMARK INTER + INTRA:          -7.860
REMARK INTER:                  -6.804
REMARK INTRA:                  -1.056
REMARK UNBOUND:                -2.523
REMARK SMILES CCCCCCCCCCCCCCCCCCCCCCCCCCCCCC(=O)[O-]
REMARK SMILES IDX 16 1 17 2 18 3 19 4 20 5 21 6 22 7 23 8 24 9 25 10 26 11
REMARK SMILES IDX 27 12 28 13 29 14 30 15 31 16 32 17 15 18 14 19 13 20 12 21
REMARK SMILES IDX 11 22 10 23 9 24 8 25 7 26 6 27 5 28 4 29 3 30 2 31 1 32
REMARK H PARENT
REMARK Flexibility Score: inf
ROOT
ATOM      1  C   UNL     1       5.934  47.193   9.564  1.00  0.00     0.000 C 
ENDROOT
BRANCH   1   2
ATOM      2  C   UNL     1       5.597  48.257   8.502  1.00  0.00     0.000 C 
BRANCH   2   3
ATOM      3  C   UNL     1       4.103  48.299   8.130  1.00  0.00     0.000 C 
BRANCH   3   4
ATOM      4  C   UNL     1       3.767  49.473   7.191  1.00  0.00     0.000 C 
BRANCH   4   5
ATOM      5  C   UNL     1       3.056  50.630   7.924  1.00  0.00     0.000 C 
BRANCH   5   6
ATOM      6  C   UNL     1       1.592  50.330   8.303  1.00  0.00     0.000 C 
BRANCH   6   7
ATOM      7  C   UNL     1       0.536  50.895   7.339  1.00  0.00     0.000 C 
BRANCH   7   8
ATOM      8  C   UNL     1      -0.868  50.313   7.586  1.00  0.00     0.000 C 
BRANCH   8   9
ATOM      9  C   UNL     1      -0.826  48.846   8.044  1.00  0.00     0.000 C 
BRANCH   9  10
ATOM     10  C   UNL     1      -1.080  47.860   6.894  1.00  0.00     0.000 C 
BRANCH  10  11
ATOM     11  C   UNL     1      -0.931  46.410   7.374  1.00  0.00     0.000 C 
BRANCH  11  12
ATOM     12  C   UNL     1      -1.014  46.271   8.905  1.00  0.00     0.000 C 
BRANCH  12  13
ATOM     13  C   UNL     1       0.343  46.265   9.633  1.00  0.00     0.006 C 
BRANCH  13  14
ATOM     14  C   UNL     1       1.498  45.776   8.747  1.00  0.00     0.053 C 
BRANCH  14  15
ATOM     15  C   UNL     1       1.343  44.321   8.436  1.00  0.00     0.041 C 
ATOM     16  O   UNL     1       2.171  43.485   8.888  1.00  0.00    -0.550 OA
ATOM     17  O   UNL     1       0.276  43.882   7.662  1.00  0.00    -0.550 OA
ENDBRANCH  14  15
ENDBRANCH  13  14
ENDBRANCH  12  13
ENDBRANCH  11  12
ENDBRANCH  10  11
ENDBRANCH   9  10
ENDBRANCH   8   9
ENDBRANCH   7   8
ENDBRANCH   6   7
ENDBRANCH   5   6
ENDBRANCH   4   5
ENDBRANCH   3   4
ENDBRANCH   2   3
ENDBRANCH   1   2
BRANCH   1  18
ATOM     18  C   UNL     1       4.770  46.962  10.544  1.00  0.00     0.000 C 
BRANCH  18  19
ATOM     19  C   UNL     1       4.313  45.494  10.595  1.00  0.00     0.000 C 
BRANCH  19  20
ATOM     20  C   UNL     1       3.572  45.085  11.887  1.00  0.00     0.000 C 
BRANCH  20  21
ATOM     21  C   UNL     1       3.439  43.566  12.123  1.00  0.00     0.000 C 
BRANCH  21  22
ATOM     22  C   UNL     1       2.017  43.002  11.948  1.00  0.00     0.000 C 
BRANCH  22  23
ATOM     23  C   UNL     1       1.235  42.936  13.272  1.00  0.00     0.000 C 
BRANCH  23  24
ATOM     24  C   UNL     1      -0.186  42.376  13.093  1.00  0.00    -0.000 C 
BRANCH  24  25
ATOM     25  C   UNL     1      -0.774  41.818  14.400  1.00  0.00    -0.000 C 
BRANCH  25  26
ATOM     26  C   UNL     1      -1.011  40.299  14.345  1.00  0.00    -0.000 C 
BRANCH  26  27
ATOM     27  C   UNL     1       0.129  39.482  13.705  1.00  0.00    -0.000 C 
BRANCH  27  28
ATOM     28  C   UNL     1      -0.198  38.000  13.433  1.00  0.00    -0.000 C 
BRANCH  28  29
ATOM     29  C   UNL     1       0.865  37.240  12.617  1.00  0.00    -0.000 C 
BRANCH  29  30
ATOM     30  C   UNL     1       0.280  36.045  11.844  1.00  0.00    -0.000 C 
BRANCH  30  31
ATOM     31  C   UNL     1      -1.124  35.660  12.333  1.00  0.00    -0.003 C 
ATOM     32  C   UNL     1      -1.092  34.646  13.476  1.00  0.00     0.004 C 
ENDBRANCH  30  31
ENDBRANCH  29  30
ENDBRANCH  28  29
ENDBRANCH  27  28
ENDBRANCH  26  27
ENDBRANCH  25  26
ENDBRANCH  24  25
ENDBRANCH  23  24
ENDBRANCH  22  23
ENDBRANCH  21  22
ENDBRANCH  20  21
ENDBRANCH  19  20
ENDBRANCH  18  19
ENDBRANCH   1  18
TORSDOF 28
ENDMDL
