MODEL 1
REMARK VINA RESULT:    -5.118      0.000      0.000
REMARK INTER + INTRA:          -5.675
REMARK INTER:                  -6.315
REMARK INTRA:                   0.641
REMARK UNBOUND:                 0.641
REMARK SMILES C=C1[C@H]2CC[C@@H]3[C@H]2C(C)(C)CCC[C@]13C
REMARK SMILES IDX 14 1 6 2 7 3 3 4 2 5 1 6 4 7 5 8 15 9 8 10 9 11 10 12 11 13
REMARK SMILES IDX 13 15 12 16
REMARK H PARENT
REMARK Flexibility Score: 80.00
ROOT
ATOM      1  C   UNL     1       8.687  32.011  23.495  1.00  0.00    -0.008 C 
ATOM      2  C   UNL     1      10.090  32.473  24.056  1.00  0.00     0.003 C 
ATOM      3  C   UNL     1      10.608  33.492  23.019  1.00  0.00     0.006 C 
ATOM      4  C   UNL     1       9.326  34.326  23.051  1.00  0.00     0.019 C 
ATOM      5  C   UNL     1       8.268  33.287  22.808  1.00  0.00    -0.068 C 
ATOM      6  C   UNL     1       7.112  33.500  22.168  1.00  0.00     0.009 C 
ATOM      7  C   UNL     1       9.250  34.690  24.554  1.00  0.00     0.008 C 
ATOM      8  C   UNL     1       9.875  33.452  25.244  1.00  0.00     0.005 C 
ATOM      9  C   UNL     1       7.671  31.627  24.605  1.00  0.00     0.016 C 
ENDROOT
BRANCH   3  10
ATOM     10  C   UNL     1      11.185  32.983  21.629  1.00  0.00    -0.032 C 
ATOM     11  C   UNL     1      12.732  33.124  21.676  1.00  0.00     0.011 C 
ATOM     12  C   UNL     1      10.706  33.875  20.454  1.00  0.00     0.011 C 
BRANCH  10  13
ATOM     13  C   UNL     1      10.920  31.483  21.319  1.00  0.00     0.007 CG0
ATOM     14  G   UNL     1       9.454  31.080  21.179  1.00  0.00     0.000 G0
ENDBRANCH  10  13
ENDBRANCH   3  10
BRANCH   1  15
ATOM     15  C   UNL     1       8.797  30.801  22.529  1.00  0.00     0.011 C 
BRANCH  15  16
ATOM     16  C   UNL     1       9.453  31.081  21.181  1.00  0.00     0.001 CG0
ATOM     17  G   UNL     1      10.919  31.484  21.319  1.00  0.00     0.000 G0
ENDBRANCH  15  16
ENDBRANCH   1  15
TORSDOF 0
ENDMDL
MODEL 2
REMARK VINA RESULT:    -4.608      1.170      1.298
REMARK INTER + INTRA:          -5.046
REMARK INTER:                  -5.686
REMARK INTRA:                   0.641
REMARK UNBOUND:                 0.641
REMARK SMILES C=C1[C@H]2CC[C@@H]3[C@H]2C(C)(C)CCC[C@]13C
REMARK SMILES IDX 14 1 6 2 7 3 3 4 2 5 1 6 4 7 5 8 15 9 8 10 9 11 10 12 11 13
REMARK SMILES IDX 13 15 12 16
REMARK H PARENT
REMARK Flexibility Score: 80.00
ROOT
ATOM      1  C   UNL     1       9.110  31.808  22.159  1.00  0.00    -0.008 C 
ATOM      2  C   UNL     1      10.281  32.282  23.108  1.00  0.00     0.003 C 
ATOM      3  C   UNL     1      11.025  33.365  22.299  1.00  0.00     0.006 C 
ATOM      4  C   UNL     1       9.752  34.159  22.003  1.00  0.00     0.019 C 
ATOM      5  C   UNL     1       8.847  33.104  21.433  1.00  0.00    -0.068 C 
ATOM      6  C   UNL     1       7.908  33.315  20.503  1.00  0.00     0.009 C 
ATOM      7  C   UNL     1       9.245  34.447  23.437  1.00  0.00     0.008 C 
ATOM      8  C   UNL     1       9.703  33.195  24.226  1.00  0.00     0.005 C 
ATOM      9  C   UNL     1       7.841  31.342  22.924  1.00  0.00     0.016 C 
ENDROOT
BRANCH   3  10
ATOM     10  C   UNL     1      11.987  32.942  21.108  1.00  0.00    -0.032 C 
ATOM     11  C   UNL     1      13.453  33.122  21.592  1.00  0.00     0.011 C 
ATOM     12  C   UNL     1      11.820  33.876  19.882  1.00  0.00     0.011 C 
BRANCH  10  13
ATOM     13  C   UNL     1      11.879  31.451  20.676  1.00  0.00     0.007 CG0
ATOM     14  G   UNL     1      10.531  31.018  20.106  1.00  0.00     0.000 G0
ENDBRANCH  10  13
ENDBRANCH   3  10
BRANCH   1  15
ATOM     15  C   UNL     1       9.534  30.651  21.216  1.00  0.00     0.011 C 
BRANCH  15  16
ATOM     16  C   UNL     1      10.527  31.015  20.116  1.00  0.00     0.001 CG0
ATOM     17  G   UNL     1      11.879  31.452  20.674  1.00  0.00     0.000 G0
ENDBRANCH  15  16
ENDBRANCH   1  15
TORSDOF 0
ENDMDL
MODEL 3
REMARK VINA RESULT:    -4.516      2.757      4.511
REMARK INTER + INTRA:          -4.931
REMARK INTER:                  -5.558
REMARK INTRA:                   0.626
REMARK UNBOUND:                 0.641
REMARK SMILES C=C1[C@H]2CC[C@@H]3[C@H]2C(C)(C)CCC[C@]13C
REMARK SMILES IDX 14 1 6 2 7 3 3 4 2 5 1 6 4 7 5 8 15 9 8 10 9 11 10 12 11 13
REMARK SMILES IDX 13 15 12 16
REMARK H PARENT
REMARK Flexibility Score: 80.00
ROOT
ATOM      1  C   UNL     1      11.798  31.938  19.879  1.00  0.00    -0.008 C 
ATOM      2  C   UNL     1      11.754  31.281  21.315  1.00  0.00     0.003 C 
ATOM      3  C   UNL     1      13.016  31.811  22.026  1.00  0.00     0.006 C 
ATOM      4  C   UNL     1      12.696  33.275  21.716  1.00  0.00     0.019 C 
ATOM      5  C   UNL     1      12.475  33.240  20.229  1.00  0.00    -0.068 C 
ATOM      6  C   UNL     1      12.753  34.241  19.386  1.00  0.00     0.009 C 
ATOM      7  C   UNL     1      11.299  33.414  22.366  1.00  0.00     0.008 C 
ATOM      8  C   UNL     1      10.686  32.004  22.183  1.00  0.00     0.005 C 
ATOM      9  C   UNL     1      10.392  32.198  19.273  1.00  0.00     0.016 C 
ENDROOT
BRANCH   3  10
ATOM     10  C   UNL     1      14.443  31.218  21.656  1.00  0.00    -0.032 C 
ATOM     11  C   UNL     1      14.883  30.278  22.813  1.00  0.00     0.011 C 
ATOM     12  C   UNL     1      15.518  32.333  21.573  1.00  0.00     0.011 C 
BRANCH  10  13
ATOM     13  C   UNL     1      14.473  30.335  20.376  1.00  0.00     0.007 CG0
ATOM     14  G   UNL     1      14.090  31.034  19.074  1.00  0.00     0.000 G0
ENDBRANCH  10  13
ENDBRANCH   3  10
BRANCH   1  15
ATOM     15  C   UNL     1      12.595  31.088  18.854  1.00  0.00     0.011 C 
BRANCH  15  16
ATOM     16  C   UNL     1      14.104  31.024  19.070  1.00  0.00     0.001 CG0
ATOM     17  G   UNL     1      14.476  30.327  20.377  1.00  0.00     0.000 G0
ENDBRANCH  15  16
ENDBRANCH   1  15
TORSDOF 0
ENDMDL
MODEL 4
REMARK VINA RESULT:    -4.470      1.598      3.535
REMARK INTER + INTRA:          -4.875
REMARK INTER:                  -5.507
REMARK INTRA:                   0.632
REMARK UNBOUND:                 0.641
REMARK SMILES C=C1[C@H]2CC[C@@H]3[C@H]2C(C)(C)CCC[C@]13C
REMARK SMILES IDX 14 1 6 2 7 3 3 4 2 5 1 6 4 7 5 8 15 9 8 10 9 11 10 12 11 13
REMARK SMILES IDX 13 15 12 16
REMARK H PARENT
REMARK Flexibility Score: 80.00
ROOT
ATOM      1  C   UNL     1       8.898  33.836  23.069  1.00  0.00    -0.008 C 
ATOM      2  C   UNL     1       7.496  33.214  23.449  1.00  0.00     0.003 C 
ATOM      3  C   UNL     1       7.642  31.709  23.144  1.00  0.00     0.006 C 
ATOM      4  C   UNL     1       8.923  31.565  23.968  1.00  0.00     0.019 C 
ATOM      5  C   UNL     1       9.784  32.662  23.406  1.00  0.00    -0.068 C 
ATOM      6  C   UNL     1      11.118  32.622  23.313  1.00  0.00     0.009 C 
ATOM      7  C   UNL     1       8.437  32.052  25.354  1.00  0.00     0.008 C 
ATOM      8  C   UNL     1       7.373  33.120  24.996  1.00  0.00     0.005 C 
ATOM      9  C   UNL     1       9.280  35.073  23.927  1.00  0.00     0.016 C 
ENDROOT
BRANCH   3  10
ATOM     10  C   UNL     1       7.608  31.197  21.641  1.00  0.00    -0.032 C 
ATOM     11  C   UNL     1       6.229  30.522  21.398  1.00  0.00     0.011 C 
ATOM     12  C   UNL     1       8.675  30.101  21.388  1.00  0.00     0.011 C 
BRANCH  10  13
ATOM     13  C   UNL     1       7.710  32.316  20.565  1.00  0.00     0.007 CG0
ATOM     14  G   UNL     1       9.008  33.120  20.562  1.00  0.00     0.000 G0
ENDBRANCH  10  13
ENDBRANCH   3  10
BRANCH   1  15
ATOM     15  C   UNL     1       8.982  34.261  21.579  1.00  0.00     0.011 C 
BRANCH  15  16
ATOM     16  C   UNL     1       9.011  33.124  20.562  1.00  0.00     0.001 CG0
ATOM     17  G   UNL     1       7.715  32.317  20.554  1.00  0.00     0.000 G0
ENDBRANCH  15  16
ENDBRANCH   1  15
TORSDOF 0
ENDMDL
MODEL 5
REMARK VINA RESULT:    -4.346      1.569      4.016
REMARK INTER + INTRA:          -4.722
REMARK INTER:                  -5.356
REMARK INTRA:                   0.635
REMARK UNBOUND:                 0.641
REMARK SMILES C=C1[C@H]2CC[C@@H]3[C@H]2C(C)(C)CCC[C@]13C
REMARK SMILES IDX 14 1 6 2 7 3 3 4 2 5 1 6 4 7 5 8 15 9 8 10 9 11 10 12 11 13
REMARK SMILES IDX 13 15 12 16
REMARK H PARENT
REMARK Flexibility Score: 80.00
ROOT
ATOM      1  C   UNL     1      11.231  32.657  20.178  1.00  0.00    -0.008 C 
ATOM      2  C   UNL     1      11.831  33.576  21.314  1.00  0.00     0.003 C 
ATOM      3  C   UNL     1      11.136  33.102  22.607  1.00  0.00     0.006 C 
ATOM      4  C   UNL     1      11.495  31.633  22.379  1.00  0.00     0.019 C 
ATOM      5  C   UNL     1      10.999  31.400  20.980  1.00  0.00    -0.068 C 
ATOM      6  C   UNL     1      10.520  30.240  20.516  1.00  0.00     0.009 C 
ATOM      7  C   UNL     1      13.038  31.718  22.291  1.00  0.00     0.008 C 
ATOM      8  C   UNL     1      13.275  33.108  21.650  1.00  0.00     0.005 C 
ATOM      9  C   UNL     1      12.220  32.386  19.011  1.00  0.00     0.016 C 
ENDROOT
BRANCH   3  10
ATOM     10  C   UNL     1       9.627  33.511  22.892  1.00  0.00    -0.032 C 
ATOM     11  C   UNL     1       9.632  34.617  23.984  1.00  0.00     0.011 C 
ATOM     12  C   UNL     1       8.818  32.327  23.481  1.00  0.00     0.011 C 
BRANCH  10  13
ATOM     13  C   UNL     1       8.877  34.135  21.680  1.00  0.00     0.007 CG0
ATOM     14  G   UNL     1       8.716  33.233  20.460  1.00  0.00     0.000 G0
ENDBRANCH  10  13
ENDBRANCH   3  10
BRANCH   1  15
ATOM     15  C   UNL     1       9.932  33.238  19.558  1.00  0.00     0.011 C 
BRANCH  15  16
ATOM     16  C   UNL     1       8.703  33.239  20.463  1.00  0.00     0.001 CG0
ATOM     17  G   UNL     1       8.882  34.135  21.686  1.00  0.00     0.000 G0
ENDBRANCH  15  16
ENDBRANCH   1  15
TORSDOF 0
ENDMDL
MODEL 6
REMARK VINA RESULT:    -4.340      1.837      4.677
REMARK INTER + INTRA:          -4.715
REMARK INTER:                  -5.343
REMARK INTRA:                   0.629
REMARK UNBOUND:                 0.641
REMARK SMILES C=C1[C@H]2CC[C@@H]3[C@H]2C(C)(C)CCC[C@]13C
REMARK SMILES IDX 14 1 6 2 7 3 3 4 2 5 1 6 4 7 5 8 15 9 8 10 9 11 10 12 11 13
REMARK SMILES IDX 13 15 12 16
REMARK H PARENT
REMARK Flexibility Score: 80.00
ROOT
ATOM      1  C   UNL     1      12.839  31.264  20.044  1.00  0.00    -0.008 C 
ATOM      2  C   UNL     1      12.395  32.773  19.902  1.00  0.00     0.003 C 
ATOM      3  C   UNL     1      12.122  33.237  21.348  1.00  0.00     0.006 C 
ATOM      4  C   UNL     1      13.482  32.763  21.863  1.00  0.00     0.019 C 
ATOM      5  C   UNL     1      13.518  31.336  21.390  1.00  0.00    -0.068 C 
ATOM      6  C   UNL     1      14.131  30.331  22.024  1.00  0.00     0.009 C 
ATOM      7  C   UNL     1      14.438  33.557  20.940  1.00  0.00     0.008 C 
ATOM      8  C   UNL     1      13.642  33.655  19.615  1.00  0.00     0.005 C 
ATOM      9  C   UNL     1      13.842  30.807  18.950  1.00  0.00     0.016 C 
ENDROOT
BRANCH   3  10
ATOM     10  C   UNL     1      10.794  32.780  22.090  1.00  0.00    -0.032 C 
ATOM     11  C   UNL     1       9.825  33.995  22.125  1.00  0.00     0.011 C 
ATOM     12  C   UNL     1      11.068  32.405  23.569  1.00  0.00     0.011 C 
BRANCH  10  13
ATOM     13  C   UNL     1      10.002  31.646  21.377  1.00  0.00     0.007 CG0
ATOM     14  G   UNL     1      10.737  30.317  21.222  1.00  0.00     0.000 G0
ENDBRANCH  10  13
ENDBRANCH   3  10
BRANCH   1  15
ATOM     15  C   UNL     1      11.640  30.280  20.014  1.00  0.00     0.011 C 
BRANCH  15  16
ATOM     16  C   UNL     1      10.715  30.317  21.227  1.00  0.00     0.001 CG0
ATOM     17  G   UNL     1      10.002  31.659  21.374  1.00  0.00     0.000 G0
ENDBRANCH  15  16
ENDBRANCH   1  15
TORSDOF 0
ENDMDL
MODEL 7
REMARK VINA RESULT:    -4.337      1.342      3.387
REMARK INTER + INTRA:          -4.710
REMARK INTER:                  -5.332
REMARK INTRA:                   0.622
REMARK UNBOUND:                 0.641
REMARK SMILES C=C1[C@H]2CC[C@@H]3[C@H]2C(C)(C)CCC[C@]13C
REMARK SMILES IDX 14 1 6 2 7 3 3 4 2 5 1 6 4 7 5 8 15 9 8 10 9 11 10 12 11 13
REMARK SMILES IDX 13 15 12 16
REMARK H PARENT
REMARK Flexibility Score: 80.00
ROOT
ATOM      1  C   UNL     1       9.468  31.932  21.319  1.00  0.00    -0.008 C 
ATOM      2  C   UNL     1       8.774  31.279  22.579  1.00  0.00     0.003 C 
ATOM      3  C   UNL     1       8.453  32.468  23.508  1.00  0.00     0.006 C 
ATOM      4  C   UNL     1       7.732  33.257  22.414  1.00  0.00     0.019 C 
ATOM      5  C   UNL     1       8.747  33.258  21.305  1.00  0.00    -0.068 C 
ATOM      6  C   UNL     1       8.908  34.239  20.410  1.00  0.00     0.009 C 
ATOM      7  C   UNL     1       6.631  32.250  22.002  1.00  0.00     0.008 C 
ATOM      8  C   UNL     1       7.316  30.877  22.216  1.00  0.00     0.005 C 
ATOM      9  C   UNL     1       9.212  31.157  19.998  1.00  0.00     0.016 C 
ENDROOT
BRANCH   3  10
ATOM     10  C   UNL     1       9.615  33.157  24.343  1.00  0.00    -0.032 C 
ATOM     11  C   UNL     1       9.476  32.698  25.822  1.00  0.00     0.011 C 
ATOM     12  C   UNL     1       9.469  34.700  24.356  1.00  0.00     0.011 C 
BRANCH  10  13
ATOM     13  C   UNL     1      11.056  32.749  23.922  1.00  0.00     0.007 CG0
ATOM     14  G   UNL     1      11.459  33.107  22.494  1.00  0.00     0.000 G0
ENDBRANCH  10  13
ENDBRANCH   3  10
BRANCH   1  15
ATOM     15  C   UNL     1      11.004  32.071  21.485  1.00  0.00     0.011 C 
BRANCH  15  16
ATOM     16  C   UNL     1      11.475  33.110  22.499  1.00  0.00     0.001 CG0
ATOM     17  G   UNL     1      11.064  32.759  23.926  1.00  0.00     0.000 G0
ENDBRANCH  15  16
ENDBRANCH   1  15
TORSDOF 0
ENDMDL
MODEL 8
REMARK VINA RESULT:    -4.285      1.966      4.961
REMARK INTER + INTRA:          -4.646
REMARK INTER:                  -5.266
REMARK INTRA:                   0.619
REMARK UNBOUND:                 0.641
REMARK SMILES C=C1[C@H]2CC[C@@H]3[C@H]2C(C)(C)CCC[C@]13C
REMARK SMILES IDX 14 1 6 2 7 3 3 4 2 5 1 6 4 7 5 8 15 9 8 10 9 11 10 12 11 13
REMARK SMILES IDX 13 15 12 16
REMARK H PARENT
REMARK Flexibility Score: 80.00
ROOT
ATOM      1  C   UNL     1      13.287  33.324  19.962  1.00  0.00    -0.008 C 
ATOM      2  C   UNL     1      13.401  33.499  21.528  1.00  0.00     0.003 C 
ATOM      3  C   UNL     1      12.571  32.338  22.112  1.00  0.00     0.006 C 
ATOM      4  C   UNL     1      13.298  31.273  21.289  1.00  0.00     0.019 C 
ATOM      5  C   UNL     1      13.181  31.820  19.894  1.00  0.00    -0.068 C 
ATOM      6  C   UNL     1      13.092  31.081  18.782  1.00  0.00     0.009 C 
ATOM      7  C   UNL     1      14.762  31.506  21.733  1.00  0.00     0.008 C 
ATOM      8  C   UNL     1      14.807  33.031  22.000  1.00  0.00     0.005 C 
ATOM      9  C   UNL     1      14.539  33.820  19.189  1.00  0.00     0.016 C 
ENDROOT
BRANCH   3  10
ATOM     10  C   UNL     1      10.984  32.408  22.090  1.00  0.00    -0.032 C 
ATOM     11  C   UNL     1      10.501  32.734  23.531  1.00  0.00     0.011 C 
ATOM     12  C   UNL     1      10.359  31.037  21.725  1.00  0.00     0.011 C 
BRANCH  10  13
ATOM     13  C   UNL     1      10.391  33.533  21.195  1.00  0.00     0.007 CG0
ATOM     14  G   UNL     1      10.697  33.429  19.703  1.00  0.00     0.000 G0
ENDBRANCH  10  13
ENDBRANCH   3  10
BRANCH   1  15
ATOM     15  C   UNL     1      12.054  34.053  19.365  1.00  0.00     0.011 C 
BRANCH  15  16
ATOM     16  C   UNL     1      10.694  33.453  19.705  1.00  0.00     0.001 CG0
ATOM     17  G   UNL     1      10.382  33.527  21.198  1.00  0.00     0.000 G0
ENDBRANCH  15  16
ENDBRANCH   1  15
TORSDOF 0
ENDMDL
MODEL 9
REMARK VINA RESULT:    -4.070      3.541      5.774
REMARK INTER + INTRA:          -4.381
REMARK INTER:                  -5.021
REMARK INTRA:                   0.640
REMARK UNBOUND:                 0.641
REMARK SMILES C=C1[C@H]2CC[C@@H]3[C@H]2C(C)(C)CCC[C@]13C
REMARK SMILES IDX 14 1 6 2 7 3 3 4 2 5 1 6 4 7 5 8 15 9 8 10 9 11 10 12 11 13
REMARK SMILES IDX 13 15 12 16
REMARK H PARENT
REMARK Flexibility Score: 80.00
ROOT
ATOM      1  C   UNL     1      13.959  32.715  19.816  1.00  0.00    -0.008 C 
ATOM      2  C   UNL     1      12.484  32.163  19.935  1.00  0.00     0.003 C 
ATOM      3  C   UNL     1      12.578  31.014  20.961  1.00  0.00     0.006 C 
ATOM      4  C   UNL     1      13.284  31.876  22.009  1.00  0.00     0.019 C 
ATOM      5  C   UNL     1      14.431  32.449  21.225  1.00  0.00    -0.068 C 
ATOM      6  C   UNL     1      15.633  32.751  21.728  1.00  0.00     0.009 C 
ATOM      7  C   UNL     1      12.258  33.020  22.188  1.00  0.00     0.008 C 
ATOM      8  C   UNL     1      11.628  33.149  20.779  1.00  0.00     0.005 C 
ATOM      9  C   UNL     1      14.030  34.232  19.493  1.00  0.00     0.016 C 
ENDROOT
BRANCH   3  10
ATOM     10  C   UNL     1      13.204  29.619  20.533  1.00  0.00    -0.032 C 
ATOM     11  C   UNL     1      12.039  28.603  20.371  1.00  0.00     0.011 C 
ATOM     12  C   UNL     1      14.125  29.045  21.640  1.00  0.00     0.011 C 
BRANCH  10  13
ATOM     13  C   UNL     1      13.938  29.622  19.161  1.00  0.00     0.007 CG0
ATOM     14  G   UNL     1      15.166  30.524  19.065  1.00  0.00     0.000 G0
ENDBRANCH  10  13
ENDBRANCH   3  10
BRANCH   1  15
ATOM     15  C   UNL     1      14.793  31.972  18.739  1.00  0.00     0.011 C 
BRANCH  15  16
ATOM     16  C   UNL     1      15.162  30.526  19.060  1.00  0.00     0.001 CG0
ATOM     17  G   UNL     1      13.936  29.623  19.171  1.00  0.00     0.000 G0
ENDBRANCH  15  16
ENDBRANCH   1  15
TORSDOF 0
ENDMDL
