MODEL 1
REMARK VINA RESULT:    -3.427      0.000      0.000
REMARK INTER + INTRA:          -4.299
REMARK INTER:                  -4.228
REMARK INTRA:                  -0.071
REMARK UNBOUND:                -0.071
REMARK SMILES CCCCCC(=O)[O-]
REMARK SMILES IDX 4 1 5 2 6 3 7 4 8 5 3 6 2 7 1 8
REMARK H PARENT
REMARK Flexibility Score: inf
ROOT
ATOM      1  C   UNL     1      22.865  21.883  35.178  1.00  0.00     0.006 C 
ENDROOT
BRANCH   1   2
ATOM      2  C   UNL     1      21.356  21.696  35.359  1.00  0.00     0.053 C 
BRANCH   2   3
ATOM      3  C   UNL     1      20.680  21.563  34.031  1.00  0.00     0.041 C 
ATOM      4  O   UNL     1      20.381  22.590  33.366  1.00  0.00    -0.550 OA
ATOM      5  O   UNL     1      20.335  20.306  33.549  1.00  0.00    -0.550 OA
ENDBRANCH   2   3
ENDBRANCH   1   2
BRANCH   1   6
ATOM      6  C   UNL     1      23.508  22.434  36.460  1.00  0.00     0.000 C 
BRANCH   6   7
ATOM      7  C   UNL     1      24.946  21.933  36.662  1.00  0.00    -0.003 C 
ATOM      8  C   UNL     1      25.032  20.760  37.638  1.00  0.00     0.004 C 
ENDBRANCH   6   7
ENDBRANCH   1   6
TORSDOF 4
ENDMDL
MODEL 2
REMARK VINA RESULT:    -3.392      1.077      1.906
REMARK INTER + INTRA:          -4.256
REMARK INTER:                  -4.188
REMARK INTRA:                  -0.068
REMARK UNBOUND:                -0.071
REMARK SMILES CCCCCC(=O)[O-]
REMARK SMILES IDX 4 1 5 2 6 3 7 4 8 5 3 6 2 7 1 8
REMARK H PARENT
REMARK Flexibility Score: inf
ROOT
ATOM      1  C   UNL     1      21.265  21.558  35.029  1.00  0.00     0.006 C 
ENDROOT
BRANCH   1   2
ATOM      2  C   UNL     1      20.516  22.278  33.904  1.00  0.00     0.053 C 
BRANCH   2   3
ATOM      3  C   UNL     1      19.766  21.297  33.060  1.00  0.00     0.041 C 
ATOM      4  O   UNL     1      20.053  20.072  33.105  1.00  0.00    -0.550 OA
ATOM      5  O   UNL     1      18.782  21.742  32.185  1.00  0.00    -0.550 OA
ENDBRANCH   2   3
ENDBRANCH   1   2
BRANCH   1   6
ATOM      6  C   UNL     1      22.748  21.959  35.046  1.00  0.00     0.000 C 
BRANCH   6   7
ATOM      7  C   UNL     1      23.365  21.880  36.451  1.00  0.00    -0.003 C 
ATOM      8  C   UNL     1      24.882  22.060  36.441  1.00  0.00     0.004 C 
ENDBRANCH   6   7
ENDBRANCH   1   6
TORSDOF 4
ENDMDL
MODEL 3
REMARK VINA RESULT:    -3.385      8.544      9.191
REMARK INTER + INTRA:          -4.248
REMARK INTER:                  -4.077
REMARK INTRA:                  -0.171
REMARK UNBOUND:                -0.071
REMARK SMILES CCCCCC(=O)[O-]
REMARK SMILES IDX 4 1 5 2 6 3 7 4 8 5 3 6 2 7 1 8
REMARK H PARENT
REMARK Flexibility Score: inf
ROOT
ATOM      1  C   UNL     1      22.778  13.555  34.925  1.00  0.00     0.006 C 
ENDROOT
BRANCH   1   2
ATOM      2  C   UNL     1      22.818  13.747  36.444  1.00  0.00     0.053 C 
BRANCH   2   3
ATOM      3  C   UNL     1      21.586  14.452  36.917  1.00  0.00     0.041 C 
ATOM      4  O   UNL     1      21.661  15.628  37.362  1.00  0.00    -0.550 OA
ATOM      5  O   UNL     1      20.363  13.793  36.913  1.00  0.00    -0.550 OA
ENDBRANCH   2   3
ENDBRANCH   1   2
BRANCH   1   6
ATOM      6  C   UNL     1      22.299  12.140  34.563  1.00  0.00     0.000 C 
BRANCH   6   7
ATOM      7  C   UNL     1      22.954  11.055  35.431  1.00  0.00    -0.003 C 
ATOM      8  C   UNL     1      21.934  10.112  36.068  1.00  0.00     0.004 C 
ENDBRANCH   6   7
ENDBRANCH   1   6
TORSDOF 4
ENDMDL
MODEL 4
REMARK VINA RESULT:    -3.378      3.100      4.744
REMARK INTER + INTRA:          -4.240
REMARK INTER:                  -4.193
REMARK INTRA:                  -0.047
REMARK UNBOUND:                -0.071
REMARK SMILES CCCCCC(=O)[O-]
REMARK SMILES IDX 4 1 5 2 6 3 7 4 8 5 3 6 2 7 1 8
REMARK H PARENT
REMARK Flexibility Score: inf
ROOT
ATOM      1  C   UNL     1      22.779  21.921  35.287  1.00  0.00     0.006 C 
ENDROOT
BRANCH   1   2
ATOM      2  C   UNL     1      23.295  22.355  36.661  1.00  0.00     0.053 C 
BRANCH   2   3
ATOM      3  C   UNL     1      24.729  21.965  36.831  1.00  0.00     0.041 C 
ATOM      4  O   UNL     1      25.645  22.707  36.388  1.00  0.00    -0.550 OA
ATOM      5  O   UNL     1      25.053  20.756  37.434  1.00  0.00    -0.550 OA
ENDBRANCH   2   3
ENDBRANCH   1   2
BRANCH   1   6
ATOM      6  C   UNL     1      21.261  21.682  35.320  1.00  0.00     0.000 C 
BRANCH   6   7
ATOM      7  C   UNL     1      20.620  21.757  33.925  1.00  0.00    -0.003 C 
ATOM      8  C   UNL     1      20.083  20.408  33.449  1.00  0.00     0.004 C 
ENDBRANCH   6   7
ENDBRANCH   1   6
TORSDOF 4
ENDMDL
MODEL 5
REMARK VINA RESULT:    -3.369     13.485     14.244
REMARK INTER + INTRA:          -4.228
REMARK INTER:                  -4.148
REMARK INTRA:                  -0.081
REMARK UNBOUND:                -0.071
REMARK SMILES CCCCCC(=O)[O-]
REMARK SMILES IDX 4 1 5 2 6 3 7 4 8 5 3 6 2 7 1 8
REMARK H PARENT
REMARK Flexibility Score: inf
ROOT
ATOM      1  C   UNL     1      18.448  22.269  47.542  1.00  0.00     0.006 C 
ENDROOT
BRANCH   1   2
ATOM      2  C   UNL     1      19.395  22.223  48.744  1.00  0.00     0.053 C 
BRANCH   2   3
ATOM      3  C   UNL     1      20.281  23.428  48.763  1.00  0.00     0.041 C 
ATOM      4  O   UNL     1      21.334  23.452  48.073  1.00  0.00    -0.550 OA
ATOM      5  O   UNL     1      19.970  24.507  49.582  1.00  0.00    -0.550 OA
ENDBRANCH   2   3
ENDBRANCH   1   2
BRANCH   1   6
ATOM      6  C   UNL     1      17.229  23.157  47.838  1.00  0.00     0.000 C 
BRANCH   6   7
ATOM      7  C   UNL     1      16.166  23.087  46.730  1.00  0.00    -0.003 C 
ATOM      8  C   UNL     1      14.740  23.188  47.273  1.00  0.00     0.004 C 
ENDBRANCH   6   7
ENDBRANCH   1   6
TORSDOF 4
ENDMDL
MODEL 6
REMARK VINA RESULT:    -3.362     11.362     12.701
REMARK INTER + INTRA:          -4.219
REMARK INTER:                  -4.159
REMARK INTRA:                  -0.060
REMARK UNBOUND:                -0.071
REMARK SMILES CCCCCC(=O)[O-]
REMARK SMILES IDX 4 1 5 2 6 3 7 4 8 5 3 6 2 7 1 8
REMARK H PARENT
REMARK Flexibility Score: inf
ROOT
ATOM      1  C   UNL     1      11.333  21.821  38.651  1.00  0.00     0.006 C 
ENDROOT
BRANCH   1   2
ATOM      2  C   UNL     1      10.525  22.755  39.556  1.00  0.00     0.053 C 
BRANCH   2   3
ATOM      3  C   UNL     1       9.764  21.969  40.576  1.00  0.00     0.041 C 
ATOM      4  O   UNL     1       9.721  20.713  40.506  1.00  0.00    -0.550 OA
ATOM      5  O   UNL     1       9.059  22.628  41.576  1.00  0.00    -0.550 OA
ENDBRANCH   2   3
ENDBRANCH   1   2
BRANCH   1   6
ATOM      6  C   UNL     1      11.222  22.251  37.180  1.00  0.00     0.000 C 
BRANCH   6   7
ATOM      7  C   UNL     1      12.450  21.842  36.351  1.00  0.00    -0.003 C 
ATOM      8  C   UNL     1      12.162  21.799  34.850  1.00  0.00     0.004 C 
ENDBRANCH   6   7
ENDBRANCH   1   6
TORSDOF 4
ENDMDL
MODEL 7
REMARK VINA RESULT:    -3.353     15.220     15.949
REMARK INTER + INTRA:          -4.208
REMARK INTER:                  -4.034
REMARK INTRA:                  -0.174
REMARK UNBOUND:                -0.071
REMARK SMILES CCCCCC(=O)[O-]
REMARK SMILES IDX 4 1 5 2 6 3 7 4 8 5 3 6 2 7 1 8
REMARK H PARENT
REMARK Flexibility Score: inf
ROOT
ATOM      1  C   UNL     1      16.152  15.095  49.054  1.00  0.00     0.006 C 
ENDROOT
BRANCH   1   2
ATOM      2  C   UNL     1      15.665  14.803  47.632  1.00  0.00     0.053 C 
BRANCH   2   3
ATOM      3  C   UNL     1      16.394  15.655  46.642  1.00  0.00     0.041 C 
ATOM      4  O   UNL     1      15.886  16.734  46.239  1.00  0.00    -0.550 OA
ATOM      5  O   UNL     1      17.612  15.232  46.125  1.00  0.00    -0.550 OA
ENDBRANCH   2   3
ENDBRANCH   1   2
BRANCH   1   6
ATOM      6  C   UNL     1      16.887  13.881  49.643  1.00  0.00     0.000 C 
BRANCH   6   7
ATOM      7  C   UNL     1      16.770  12.632  48.755  1.00  0.00    -0.003 C 
ATOM      8  C   UNL     1      15.981  11.505  49.421  1.00  0.00     0.004 C 
ENDBRANCH   6   7
ENDBRANCH   1   6
TORSDOF 4
ENDMDL
MODEL 8
REMARK VINA RESULT:    -3.329      4.074      5.249
REMARK INTER + INTRA:          -4.178
REMARK INTER:                  -4.025
REMARK INTRA:                  -0.153
REMARK UNBOUND:                -0.071
REMARK SMILES CCCCCC(=O)[O-]
REMARK SMILES IDX 4 1 5 2 6 3 7 4 8 5 3 6 2 7 1 8
REMARK H PARENT
REMARK Flexibility Score: inf
ROOT
ATOM      1  C   UNL     1      25.083  22.566  37.083  1.00  0.00     0.006 C 
ENDROOT
BRANCH   1   2
ATOM      2  C   UNL     1      24.797  21.693  38.308  1.00  0.00     0.053 C 
BRANCH   2   3
ATOM      3  C   UNL     1      24.386  22.538  39.471  1.00  0.00     0.041 C 
ATOM      4  O   UNL     1      23.696  23.576  39.289  1.00  0.00    -0.550 OA
ATOM      5  O   UNL     1      24.808  22.209  40.753  1.00  0.00    -0.550 OA
ENDBRANCH   2   3
ENDBRANCH   1   2
BRANCH   1   6
ATOM      6  C   UNL     1      24.286  22.079  35.863  1.00  0.00     0.000 C 
BRANCH   6   7
ATOM      7  C   UNL     1      22.782  21.949  36.154  1.00  0.00    -0.003 C 
ATOM      8  C   UNL     1      21.951  21.747  34.887  1.00  0.00     0.004 C 
ENDBRANCH   6   7
ENDBRANCH   1   6
TORSDOF 4
ENDMDL
MODEL 9
REMARK VINA RESULT:    -3.306      2.572      4.906
REMARK INTER + INTRA:          -4.150
REMARK INTER:                  -4.035
REMARK INTRA:                  -0.115
REMARK UNBOUND:                -0.071
REMARK SMILES CCCCCC(=O)[O-]
REMARK SMILES IDX 4 1 5 2 6 3 7 4 8 5 3 6 2 7 1 8
REMARK H PARENT
REMARK Flexibility Score: inf
ROOT
ATOM      1  C   UNL     1      20.734  21.780  34.720  1.00  0.00     0.006 C 
ENDROOT
BRANCH   1   2
ATOM      2  C   UNL     1      22.255  21.911  34.842  1.00  0.00     0.053 C 
BRANCH   2   3
ATOM      3  C   UNL     1      22.664  21.962  36.280  1.00  0.00     0.041 C 
ATOM      4  O   UNL     1      22.141  21.178  37.115  1.00  0.00    -0.550 OA
ATOM      5  O   UNL     1      23.586  22.909  36.707  1.00  0.00    -0.550 OA
ENDBRANCH   2   3
ENDBRANCH   1   2
BRANCH   1   6
ATOM      6  C   UNL     1      20.354  20.853  33.555  1.00  0.00     0.000 C 
BRANCH   6   7
ATOM      7  C   UNL     1      19.356  21.503  32.584  1.00  0.00    -0.003 C 
ATOM      8  C   UNL     1      19.703  22.957  32.266  1.00  0.00     0.004 C 
ENDBRANCH   6   7
ENDBRANCH   1   6
TORSDOF 4
ENDMDL
