MODEL 1
REMARK VINA RESULT:    -6.615      0.000      0.000
REMARK INTER + INTRA:         -11.859
REMARK INTER:                 -10.289
REMARK INTRA:                  -1.570
REMARK UNBOUND:                -1.570
REMARK SMILES C[C@@]12C[C@H](O)[C@H]3C[C@]1(O[C@@H]1O[C@H](CO)[C@@H](O)[C@@H](O)[C@@H]1O)[C@@]3(COC(=O)c1ccccc1)C(=O)O2
REMARK SMILES IDX 1 1 2 2 3 3 4 4 6 5 7 6 8 7 21 8 32 9 33 10 34 11 9 12 10 13
REMARK SMILES IDX 19 14 11 15 17 16 12 17 15 18 20 19 18 21 13 23 14 24 16 26
REMARK SMILES IDX 5 28 22 30 23 31 24 32 25 33 26 34 27 35 31 36 28 37 30 38
REMARK SMILES IDX 29 39
REMARK H PARENT 20 20 18 22 14 25 16 27 5 29
REMARK Flexibility Score: inf
ROOT
ATOM      1  C   UNL     1       6.218   9.543  19.526  1.00  0.00     0.060 C 
ATOM      2  C   UNL     1       6.351   8.080  19.979  1.00  0.00     0.142 C 
ATOM      3  C   UNL     1       6.987   8.073  21.422  1.00  0.00     0.083 C 
ATOM      4  C   UNL     1       6.867   6.674  22.125  1.00  0.00     0.123 C 
ATOM      5  C   UNL     1       5.689   5.857  21.524  1.00  0.00     0.045 C 
ATOM      6  C   UNL     1       4.524   6.836  21.356  1.00  0.00     0.049 C 
ATOM      7  C   UNL     1       5.054   7.112  19.947  1.00  0.00     0.131 C 
ATOM      8  C   UNL     1       5.765   5.734  19.971  1.00  0.00     0.140 C 
ATOM      9  C   UNL     1       7.066   6.038  19.274  1.00  0.00     0.319 C 
ATOM     10  O   UNL     1       7.946   5.191  18.970  1.00  0.00    -0.251 OA
ATOM     11  O   UNL     1       7.289   7.396  19.169  1.00  0.00    -0.456 OA
ENDROOT
BRANCH   7  12
ATOM     12  O   UNL     1       3.963   7.215  19.016  1.00  0.00    -0.338 OA
BRANCH  12  13
ATOM     13  C   UNL     1       4.131   8.108  17.929  1.00  0.00     0.282 C 
ATOM     14  C   UNL     1       4.130   7.374  16.558  1.00  0.00     0.202 C 
ATOM     15  O   UNL     1       3.121   9.116  17.957  1.00  0.00    -0.341 OA
ATOM     16  C   UNL     1       2.735   6.817  16.213  1.00  0.00     0.179 C 
ATOM     17  C   UNL     1       1.800   8.666  17.662  1.00  0.00     0.178 C 
ATOM     18  C   UNL     1       1.707   7.952  16.286  1.00  0.00     0.177 C 
BRANCH  14  19
ATOM     19  O   UNL     1       5.125   6.381  16.507  1.00  0.00    -0.385 OA
ATOM     20  H   UNL     1       5.892   6.732  15.991  1.00  0.00     0.211 HD
ENDBRANCH  14  19
BRANCH  16  21
ATOM     21  O   UNL     1       2.761   6.274  14.918  1.00  0.00    -0.387 OA
ATOM     22  H   UNL     1       2.906   5.296  15.024  1.00  0.00     0.211 HD
ENDBRANCH  16  21
BRANCH  17  23
ATOM     23  C   UNL     1       1.143   7.856  18.810  1.00  0.00     0.191 C 
BRANCH  23  24
ATOM     24  O   UNL     1       0.053   8.542  19.359  1.00  0.00    -0.394 OA
ATOM     25  H   UNL     1      -0.764   8.199  18.908  1.00  0.00     0.210 HD
ENDBRANCH  23  24
ENDBRANCH  17  23
BRANCH  18  26
ATOM     26  O   UNL     1       1.905   8.832  15.194  1.00  0.00    -0.387 OA
ATOM     27  H   UNL     1       1.048   9.259  14.933  1.00  0.00     0.211 HD
ENDBRANCH  18  26
ENDBRANCH  12  13
ENDBRANCH   7  12
BRANCH   4  28
ATOM     28  O   UNL     1       8.061   5.946  22.007  1.00  0.00    -0.393 OA
ATOM     29  H   UNL     1       7.886   5.041  22.369  1.00  0.00     0.210 HD
ENDBRANCH   4  28
BRANCH   8  30
ATOM     30  C   UNL     1       4.960   4.519  19.430  1.00  0.00     0.255 C 
BRANCH  30  31
ATOM     31  O   UNL     1       5.302   4.199  18.078  1.00  0.00    -0.461 OA
BRANCH  31  32
ATOM     32  C   UNL     1       4.588   3.270  17.306  1.00  0.00     0.338 C 
ATOM     33  O   UNL     1       3.651   3.659  16.553  1.00  0.00    -0.246 OA
BRANCH  32  34
ATOM     34  C   UNL     1       4.942   1.834  17.351  1.00  0.00     0.060 A 
ATOM     35  C   UNL     1       6.148   1.377  16.783  1.00  0.00     0.015 A 
ATOM     36  C   UNL     1       4.098   0.909  17.993  1.00  0.00     0.015 A 
ATOM     37  C   UNL     1       6.503   0.026  16.862  1.00  0.00     0.001 A 
ATOM     38  C   UNL     1       4.460  -0.440  18.075  1.00  0.00     0.001 A 
ATOM     39  C   UNL     1       5.662  -0.881  17.510  1.00  0.00     0.000 A 
ENDBRANCH  32  34
ENDBRANCH  31  32
ENDBRANCH  30  31
ENDBRANCH   8  30
TORSDOF 12
ENDMDL
MODEL 2
REMARK VINA RESULT:    -6.463      2.041      5.683
REMARK INTER + INTRA:         -11.623
REMARK INTER:                 -11.074
REMARK INTRA:                  -0.549
REMARK UNBOUND:                -1.570
REMARK SMILES C[C@@]12C[C@H](O)[C@H]3C[C@]1(O[C@@H]1O[C@H](CO)[C@@H](O)[C@@H](O)[C@@H]1O)[C@@]3(COC(=O)c1ccccc1)C(=O)O2
REMARK SMILES IDX 1 1 2 2 3 3 4 4 6 5 7 6 8 7 21 8 32 9 33 10 34 11 9 12 10 13
REMARK SMILES IDX 19 14 11 15 17 16 12 17 15 18 20 19 18 21 13 23 14 24 16 26
REMARK SMILES IDX 5 28 22 30 23 31 24 32 25 33 26 34 27 35 31 36 28 37 30 38
REMARK SMILES IDX 29 39
REMARK H PARENT 20 20 18 22 14 25 16 27 5 29
REMARK Flexibility Score: inf
ROOT
ATOM      1  C   UNL     1       8.421   5.979  18.710  1.00  0.00     0.060 C 
ATOM      2  C   UNL     1       7.258   6.919  19.066  1.00  0.00     0.142 C 
ATOM      3  C   UNL     1       7.792   8.402  19.000  1.00  0.00     0.083 C 
ATOM      4  C   UNL     1       6.632   9.459  19.015  1.00  0.00     0.123 C 
ATOM      5  C   UNL     1       5.305   8.828  18.505  1.00  0.00     0.045 C 
ATOM      6  C   UNL     1       5.673   7.973  17.289  1.00  0.00     0.049 C 
ATOM      7  C   UNL     1       5.860   6.804  18.258  1.00  0.00     0.131 C 
ATOM      8  C   UNL     1       4.924   7.520  19.266  1.00  0.00     0.140 C 
ATOM      9  C   UNL     1       5.589   7.218  20.584  1.00  0.00     0.319 C 
ATOM     10  O   UNL     1       5.132   7.518  21.717  1.00  0.00    -0.251 OA
ATOM     11  O   UNL     1       6.871   6.736  20.415  1.00  0.00    -0.456 OA
ENDROOT
BRANCH   7  12
ATOM     12  O   UNL     1       5.326   5.595  17.689  1.00  0.00    -0.338 OA
BRANCH  12  13
ATOM     13  C   UNL     1       6.226   4.513  17.525  1.00  0.00     0.282 C 
ATOM     14  C   UNL     1       5.913   3.335  18.489  1.00  0.00     0.202 C 
ATOM     15  O   UNL     1       6.219   4.066  16.170  1.00  0.00    -0.341 OA
ATOM     16  C   UNL     1       4.597   2.627  18.112  1.00  0.00     0.179 C 
ATOM     17  C   UNL     1       5.022   3.415  15.748  1.00  0.00     0.178 C 
ATOM     18  C   UNL     1       4.659   2.198  16.641  1.00  0.00     0.177 C 
BRANCH  14  19
ATOM     19  O   UNL     1       5.923   3.753  19.832  1.00  0.00    -0.385 OA
ATOM     20  H   UNL     1       6.433   3.092  20.362  1.00  0.00     0.211 HD
ENDBRANCH  14  19
BRANCH  16  21
ATOM     21  O   UNL     1       4.424   1.501  18.934  1.00  0.00    -0.387 OA
ATOM     22  H   UNL     1       4.877   0.743  18.476  1.00  0.00     0.211 HD
ENDBRANCH  16  21
BRANCH  17  23
ATOM     23  C   UNL     1       3.829   4.380  15.525  1.00  0.00     0.191 C 
BRANCH  23  24
ATOM     24  O   UNL     1       3.101   4.035  14.379  1.00  0.00    -0.394 OA
ATOM     25  H   UNL     1       2.397   3.393  14.664  1.00  0.00     0.210 HD
ENDBRANCH  23  24
ENDBRANCH  17  23
BRANCH  18  26
ATOM     26  O   UNL     1       5.571   1.123  16.507  1.00  0.00    -0.387 OA
ATOM     27  H   UNL     1       5.355   0.403  17.154  1.00  0.00     0.211 HD
ENDBRANCH  18  26
ENDBRANCH  12  13
ENDBRANCH   7  12
BRANCH   4  28
ATOM     28  O   UNL     1       6.444   9.985  20.303  1.00  0.00    -0.393 OA
ATOM     29  H   UNL     1       5.532   9.728  20.591  1.00  0.00     0.210 HD
ENDBRANCH   4  28
BRANCH   8  30
ATOM     30  C   UNL     1       3.406   7.196  19.168  1.00  0.00     0.255 C 
BRANCH  30  31
ATOM     31  O   UNL     1       2.718   8.084  18.281  1.00  0.00    -0.461 OA
BRANCH  31  32
ATOM     32  C   UNL     1       1.949   7.639  17.195  1.00  0.00     0.338 C 
ATOM     33  O   UNL     1       2.444   7.626  16.033  1.00  0.00    -0.246 OA
BRANCH  32  34
ATOM     34  C   UNL     1       0.563   7.164  17.407  1.00  0.00     0.060 A 
ATOM     35  C   UNL     1       0.065   6.068  16.676  1.00  0.00     0.015 A 
ATOM     36  C   UNL     1      -0.264   7.777  18.366  1.00  0.00     0.015 A 
ATOM     37  C   UNL     1      -1.230   5.592  16.905  1.00  0.00     0.001 A 
ATOM     38  C   UNL     1      -1.557   7.294  18.596  1.00  0.00     0.001 A 
ATOM     39  C   UNL     1      -2.039   6.202  17.866  1.00  0.00     0.000 A 
ENDBRANCH  32  34
ENDBRANCH  31  32
ENDBRANCH  30  31
ENDBRANCH   8  30
TORSDOF 12
ENDMDL
MODEL 3
REMARK VINA RESULT:    -6.288      1.986      6.326
REMARK INTER + INTRA:         -11.350
REMARK INTER:                 -10.162
REMARK INTRA:                  -1.187
REMARK UNBOUND:                -1.570
REMARK SMILES C[C@@]12C[C@H](O)[C@H]3C[C@]1(O[C@@H]1O[C@H](CO)[C@@H](O)[C@@H](O)[C@@H]1O)[C@@]3(COC(=O)c1ccccc1)C(=O)O2
REMARK SMILES IDX 1 1 2 2 3 3 4 4 6 5 7 6 8 7 21 8 32 9 33 10 34 11 9 12 10 13
REMARK SMILES IDX 19 14 11 15 17 16 12 17 15 18 20 19 18 21 13 23 14 24 16 26
REMARK SMILES IDX 5 28 22 30 23 31 24 32 25 33 26 34 27 35 31 36 28 37 30 38
REMARK SMILES IDX 29 39
REMARK H PARENT 20 20 18 22 14 25 16 27 5 29
REMARK Flexibility Score: inf
ROOT
ATOM      1  C   UNL     1       8.065   4.050  18.680  1.00  0.00     0.060 C 
ATOM      2  C   UNL     1       6.791   4.193  17.832  1.00  0.00     0.142 C 
ATOM      3  C   UNL     1       6.402   2.763  17.290  1.00  0.00     0.083 C 
ATOM      4  C   UNL     1       4.950   2.721  16.696  1.00  0.00     0.123 C 
ATOM      5  C   UNL     1       4.076   3.857  17.297  1.00  0.00     0.045 C 
ATOM      6  C   UNL     1       4.390   3.897  18.795  1.00  0.00     0.049 C 
ATOM      7  C   UNL     1       5.486   4.913  18.464  1.00  0.00     0.131 C 
ATOM      8  C   UNL     1       4.731   5.266  17.156  1.00  0.00     0.140 C 
ATOM      9  C   UNL     1       5.863   5.454  16.180  1.00  0.00     0.319 C 
ATOM     10  O   UNL     1       5.743   5.849  14.991  1.00  0.00    -0.251 OA
ATOM     11  O   UNL     1       7.054   4.958  16.670  1.00  0.00    -0.456 OA
ENDROOT
BRANCH   7  12
ATOM     12  O   UNL     1       5.510   5.958  19.452  1.00  0.00    -0.338 OA
BRANCH  12  13
ATOM     13  C   UNL     1       6.780   6.481  19.800  1.00  0.00     0.282 C 
ATOM     14  C   UNL     1       7.046   7.867  19.150  1.00  0.00     0.202 C 
ATOM     15  O   UNL     1       6.909   6.561  21.219  1.00  0.00    -0.341 OA
ATOM     16  C   UNL     1       6.148   8.962  19.758  1.00  0.00     0.179 C 
ATOM     17  C   UNL     1       6.091   7.545  21.851  1.00  0.00     0.178 C 
ATOM     18  C   UNL     1       6.326   8.970  21.282  1.00  0.00     0.177 C 
BRANCH  14  19
ATOM     19  O   UNL     1       6.932   7.808  17.749  1.00  0.00    -0.385 OA
ATOM     20  H   UNL     1       6.532   8.654  17.431  1.00  0.00     0.211 HD
ENDBRANCH  14  19
BRANCH  16  21
ATOM     21  O   UNL     1       6.512  10.210  19.225  1.00  0.00    -0.387 OA
ATOM     22  H   UNL     1       7.386  10.079  18.769  1.00  0.00     0.211 HD
ENDBRANCH  16  21
BRANCH  17  23
ATOM     23  C   UNL     1       4.591   7.161  21.924  1.00  0.00     0.191 C 
BRANCH  23  24
ATOM     24  O   UNL     1       4.426   5.785  22.123  1.00  0.00    -0.394 OA
ATOM     25  H   UNL     1       4.370   5.637  23.105  1.00  0.00     0.210 HD
ENDBRANCH  23  24
ENDBRANCH  17  23
BRANCH  18  26
ATOM     26  O   UNL     1       7.606   9.487  21.599  1.00  0.00    -0.387 OA
ATOM     27  H   UNL     1       8.244   8.748  21.771  1.00  0.00     0.211 HD
ENDBRANCH  18  26
ENDBRANCH  12  13
ENDBRANCH   7  12
BRANCH   4  28
ATOM     28  O   UNL     1       4.974   2.828  15.296  1.00  0.00    -0.393 OA
ATOM     29  H   UNL     1       4.106   3.216  15.020  1.00  0.00     0.210 HD
ENDBRANCH   4  28
BRANCH   8  30
ATOM     30  C   UNL     1       3.689   6.417  17.236  1.00  0.00     0.255 C 
BRANCH  30  31
ATOM     31  O   UNL     1       2.594   6.221  16.336  1.00  0.00    -0.461 OA
BRANCH  31  32
ATOM     32  C   UNL     1       1.262   6.502  16.676  1.00  0.00     0.338 C 
ATOM     33  O   UNL     1       0.403   5.576  16.688  1.00  0.00    -0.246 OA
BRANCH  32  34
ATOM     34  C   UNL     1       0.860   7.879  17.042  1.00  0.00     0.060 A 
ATOM     35  C   UNL     1       1.061   8.944  16.142  1.00  0.00     0.015 A 
ATOM     36  C   UNL     1       0.239   8.137  18.278  1.00  0.00     0.015 A 
ATOM     37  C   UNL     1       0.643  10.238  16.471  1.00  0.00     0.001 A 
ATOM     38  C   UNL     1      -0.182   9.432  18.600  1.00  0.00     0.001 A 
ATOM     39  C   UNL     1       0.020  10.482  17.697  1.00  0.00     0.000 A 
ENDBRANCH  32  34
ENDBRANCH  31  32
ENDBRANCH  30  31
ENDBRANCH   8  30
TORSDOF 12
ENDMDL
MODEL 4
REMARK VINA RESULT:    -6.030      2.120      6.044
REMARK INTER + INTRA:         -10.949
REMARK INTER:                 -10.121
REMARK INTRA:                  -0.828
REMARK UNBOUND:                -1.570
REMARK SMILES C[C@@]12C[C@H](O)[C@H]3C[C@]1(O[C@@H]1O[C@H](CO)[C@@H](O)[C@@H](O)[C@@H]1O)[C@@]3(COC(=O)c1ccccc1)C(=O)O2
REMARK SMILES IDX 1 1 2 2 3 3 4 4 6 5 7 6 8 7 21 8 32 9 33 10 34 11 9 12 10 13
REMARK SMILES IDX 19 14 11 15 17 16 12 17 15 18 20 19 18 21 13 23 14 24 16 26
REMARK SMILES IDX 5 28 22 30 23 31 24 32 25 33 26 34 27 35 31 36 28 37 30 38
REMARK SMILES IDX 29 39
REMARK H PARENT 20 20 18 22 14 25 16 27 5 29
REMARK Flexibility Score: inf
ROOT
ATOM      1  C   UNL     1       8.027   4.009  18.639  1.00  0.00     0.060 C 
ATOM      2  C   UNL     1       6.751   4.192  17.801  1.00  0.00     0.142 C 
ATOM      3  C   UNL     1       6.344   2.784  17.219  1.00  0.00     0.083 C 
ATOM      4  C   UNL     1       4.889   2.775  16.630  1.00  0.00     0.123 C 
ATOM      5  C   UNL     1       4.030   3.903  17.269  1.00  0.00     0.045 C 
ATOM      6  C   UNL     1       4.350   3.895  18.765  1.00  0.00     0.049 C 
ATOM      7  C   UNL     1       5.457   4.907  18.460  1.00  0.00     0.131 C 
ATOM      8  C   UNL     1       4.701   5.308  17.167  1.00  0.00     0.140 C 
ATOM      9  C   UNL     1       5.831   5.513  16.192  1.00  0.00     0.319 C 
ATOM     10  O   UNL     1       5.710   5.944  15.016  1.00  0.00    -0.251 OA
ATOM     11  O   UNL     1       7.018   4.989  16.662  1.00  0.00    -0.456 OA
ENDROOT
BRANCH   7  12
ATOM     12  O   UNL     1       5.497   5.923  19.479  1.00  0.00    -0.338 OA
BRANCH  12  13
ATOM     13  C   UNL     1       6.770   6.453  19.804  1.00  0.00     0.282 C 
ATOM     14  C   UNL     1       6.998   7.860  19.184  1.00  0.00     0.202 C 
ATOM     15  O   UNL     1       6.940   6.498  21.220  1.00  0.00    -0.341 OA
ATOM     16  C   UNL     1       6.104   8.926  19.848  1.00  0.00     0.179 C 
ATOM     17  C   UNL     1       6.129   7.452  21.902  1.00  0.00     0.178 C 
ATOM     18  C   UNL     1       6.327   8.896  21.365  1.00  0.00     0.177 C 
BRANCH  14  19
ATOM     19  O   UNL     1       6.843   7.837  17.786  1.00  0.00    -0.385 OA
ATOM     20  H   UNL     1       6.875   8.767  17.451  1.00  0.00     0.211 HD
ENDBRANCH  14  19
BRANCH  16  21
ATOM     21  O   UNL     1       6.435  10.192  19.338  1.00  0.00    -0.387 OA
ATOM     22  H   UNL     1       5.997  10.859  19.932  1.00  0.00     0.211 HD
ENDBRANCH  16  21
BRANCH  17  23
ATOM     23  C   UNL     1       4.636   7.045  22.009  1.00  0.00     0.191 C 
BRANCH  23  24
ATOM     24  O   UNL     1       4.493   5.657  22.121  1.00  0.00    -0.394 OA
ATOM     25  H   UNL     1       4.103   5.334  21.265  1.00  0.00     0.210 HD
ENDBRANCH  23  24
ENDBRANCH  17  23
BRANCH  18  26
ATOM     26  O   UNL     1       7.609   9.422  21.658  1.00  0.00    -0.387 OA
ATOM     27  H   UNL     1       7.659   9.701  22.609  1.00  0.00     0.211 HD
ENDBRANCH  18  26
ENDBRANCH  12  13
ENDBRANCH   7  12
BRANCH   4  28
ATOM     28  O   UNL     1       4.908   2.925  15.234  1.00  0.00    -0.393 OA
ATOM     29  H   UNL     1       5.021   3.891  15.047  1.00  0.00     0.210 HD
ENDBRANCH   4  28
BRANCH   8  30
ATOM     30  C   UNL     1       3.672   6.468  17.286  1.00  0.00     0.255 C 
BRANCH  30  31
ATOM     31  O   UNL     1       2.464   6.198  16.568  1.00  0.00    -0.461 OA
BRANCH  31  32
ATOM     32  C   UNL     1       1.393   7.102  16.502  1.00  0.00     0.338 C 
ATOM     33  O   UNL     1       1.541   8.216  15.924  1.00  0.00    -0.246 OA
BRANCH  32  34
ATOM     34  C   UNL     1       0.081   6.749  17.088  1.00  0.00     0.060 A 
ATOM     35  C   UNL     1      -0.680   5.693  16.550  1.00  0.00     0.015 A 
ATOM     36  C   UNL     1      -0.408   7.439  18.213  1.00  0.00     0.015 A 
ATOM     37  C   UNL     1      -1.901   5.332  17.129  1.00  0.00     0.001 A 
ATOM     38  C   UNL     1      -1.627   7.071  18.792  1.00  0.00     0.001 A 
ATOM     39  C   UNL     1      -2.373   6.017  18.251  1.00  0.00     0.000 A 
ENDBRANCH  32  34
ENDBRANCH  31  32
ENDBRANCH  30  31
ENDBRANCH   8  30
TORSDOF 12
ENDMDL
MODEL 5
REMARK VINA RESULT:    -5.969      2.329      5.633
REMARK INTER + INTRA:         -10.854
REMARK INTER:                 -10.231
REMARK INTRA:                  -0.622
REMARK UNBOUND:                -1.570
REMARK SMILES C[C@@]12C[C@H](O)[C@H]3C[C@]1(O[C@@H]1O[C@H](CO)[C@@H](O)[C@@H](O)[C@@H]1O)[C@@]3(COC(=O)c1ccccc1)C(=O)O2
REMARK SMILES IDX 1 1 2 2 3 3 4 4 6 5 7 6 8 7 21 8 32 9 33 10 34 11 9 12 10 13
REMARK SMILES IDX 19 14 11 15 17 16 12 17 15 18 20 19 18 21 13 23 14 24 16 26
REMARK SMILES IDX 5 28 22 30 23 31 24 32 25 33 26 34 27 35 31 36 28 37 30 38
REMARK SMILES IDX 29 39
REMARK H PARENT 20 20 18 22 14 25 16 27 5 29
REMARK Flexibility Score: inf
ROOT
ATOM      1  C   UNL     1       3.144   4.288  15.111  1.00  0.00     0.060 C 
ATOM      2  C   UNL     1       4.117   4.744  16.210  1.00  0.00     0.142 C 
ATOM      3  C   UNL     1       5.564   4.809  15.585  1.00  0.00     0.083 C 
ATOM      4  C   UNL     1       6.582   5.574  16.503  1.00  0.00     0.123 C 
ATOM      5  C   UNL     1       5.836   6.551  17.456  1.00  0.00     0.045 C 
ATOM      6  C   UNL     1       4.757   7.236  16.614  1.00  0.00     0.049 C 
ATOM      7  C   UNL     1       3.815   6.105  17.033  1.00  0.00     0.131 C 
ATOM      8  C   UNL     1       4.707   5.854  18.276  1.00  0.00     0.140 C 
ATOM      9  C   UNL     1       4.693   4.351  18.376  1.00  0.00     0.319 C 
ATOM     10  O   UNL     1       5.212   3.677  19.304  1.00  0.00    -0.251 OA
ATOM     11  O   UNL     1       4.209   3.762  17.226  1.00  0.00    -0.456 OA
ENDROOT
BRANCH   7  12
ATOM     12  O   UNL     1       2.506   6.628  17.321  1.00  0.00    -0.338 OA
BRANCH  12  13
ATOM     13  C   UNL     1       1.663   6.890  16.213  1.00  0.00     0.282 C 
ATOM     14  C   UNL     1       0.191   6.468  16.479  1.00  0.00     0.202 C 
ATOM     15  O   UNL     1       1.731   8.269  15.855  1.00  0.00    -0.341 OA
ATOM     16  C   UNL     1      -0.481   7.379  17.526  1.00  0.00     0.179 C 
ATOM     17  C   UNL     1       1.143   9.172  16.790  1.00  0.00     0.178 C 
ATOM     18  C   UNL     1      -0.346   8.841  17.083  1.00  0.00     0.177 C 
BRANCH  14  19
ATOM     19  O   UNL     1       0.100   5.108  16.825  1.00  0.00    -0.385 OA
ATOM     20  H   UNL     1      -0.317   5.039  17.719  1.00  0.00     0.211 HD
ENDBRANCH  14  19
BRANCH  16  21
ATOM     21  O   UNL     1      -1.837   7.033  17.640  1.00  0.00    -0.387 OA
ATOM     22  H   UNL     1      -2.064   7.090  18.606  1.00  0.00     0.211 HD
ENDBRANCH  16  21
BRANCH  17  23
ATOM     23  C   UNL     1       1.982   9.377  18.077  1.00  0.00     0.191 C 
BRANCH  23  24
ATOM     24  O   UNL     1       2.852  10.466  17.951  1.00  0.00    -0.394 OA
ATOM     25  H   UNL     1       2.513  11.025  17.202  1.00  0.00     0.210 HD
ENDBRANCH  23  24
ENDBRANCH  17  23
BRANCH  18  26
ATOM     26  O   UNL     1      -1.191   9.069  15.970  1.00  0.00    -0.387 OA
ATOM     27  H   UNL     1      -1.013   9.963  15.578  1.00  0.00     0.211 HD
ENDBRANCH  18  26
ENDBRANCH  12  13
ENDBRANCH   7  12
BRANCH   4  28
ATOM     28  O   UNL     1       7.357   4.676  17.254  1.00  0.00    -0.393 OA
ATOM     29  H   UNL     1       7.007   4.694  18.180  1.00  0.00     0.210 HD
ENDBRANCH   4  28
BRANCH   8  30
ATOM     30  C   UNL     1       4.343   6.636  19.570  1.00  0.00     0.255 C 
BRANCH  30  31
ATOM     31  O   UNL     1       5.206   6.307  20.664  1.00  0.00    -0.461 OA
BRANCH  31  32
ATOM     32  C   UNL     1       6.554   6.691  20.720  1.00  0.00     0.338 C 
ATOM     33  O   UNL     1       7.433   5.861  21.086  1.00  0.00    -0.246 OA
BRANCH  32  34
ATOM     34  C   UNL     1       6.956   8.061  20.330  1.00  0.00     0.060 A 
ATOM     35  C   UNL     1       7.646   8.285  19.121  1.00  0.00     0.015 A 
ATOM     36  C   UNL     1       6.625   9.161  21.141  1.00  0.00     0.015 A 
ATOM     37  C   UNL     1       7.989   9.584  18.732  1.00  0.00     0.001 A 
ATOM     38  C   UNL     1       6.966  10.459  20.744  1.00  0.00     0.001 A 
ATOM     39  C   UNL     1       7.648  10.670  19.540  1.00  0.00     0.000 A 
ENDBRANCH  32  34
ENDBRANCH  31  32
ENDBRANCH  30  31
ENDBRANCH   8  30
TORSDOF 12
ENDMDL
MODEL 6
REMARK VINA RESULT:    -5.760      1.575      2.521
REMARK INTER + INTRA:         -10.528
REMARK INTER:                 -10.449
REMARK INTRA:                  -0.079
REMARK UNBOUND:                -1.570
REMARK SMILES C[C@@]12C[C@H](O)[C@H]3C[C@]1(O[C@@H]1O[C@H](CO)[C@@H](O)[C@@H](O)[C@@H]1O)[C@@]3(COC(=O)c1ccccc1)C(=O)O2
REMARK SMILES IDX 1 1 2 2 3 3 4 4 6 5 7 6 8 7 21 8 32 9 33 10 34 11 9 12 10 13
REMARK SMILES IDX 19 14 11 15 17 16 12 17 15 18 20 19 18 21 13 23 14 24 16 26
REMARK SMILES IDX 5 28 22 30 23 31 24 32 25 33 26 34 27 35 31 36 28 37 30 38
REMARK SMILES IDX 29 39
REMARK H PARENT 20 20 18 22 14 25 16 27 5 29
REMARK Flexibility Score: inf
ROOT
ATOM      1  C   UNL     1       5.460  10.021  18.369  1.00  0.00     0.060 C 
ATOM      2  C   UNL     1       5.540   8.488  18.442  1.00  0.00     0.142 C 
ATOM      3  C   UNL     1       6.365   8.103  19.730  1.00  0.00     0.083 C 
ATOM      4  C   UNL     1       6.234   6.582  20.096  1.00  0.00     0.123 C 
ATOM      5  C   UNL     1       4.925   5.985  19.506  1.00  0.00     0.045 C 
ATOM      6  C   UNL     1       3.828   7.025  19.750  1.00  0.00     0.049 C 
ATOM      7  C   UNL     1       4.180   7.611  18.381  1.00  0.00     0.131 C 
ATOM      8  C   UNL     1       4.778   6.240  17.974  1.00  0.00     0.140 C 
ATOM      9  C   UNL     1       5.991   6.649  17.179  1.00  0.00     0.319 C 
ATOM     10  O   UNL     1       6.753   5.865  16.555  1.00  0.00    -0.251 OA
ATOM     11  O   UNL     1       6.302   7.981  17.362  1.00  0.00    -0.456 OA
ENDROOT
BRANCH   7  12
ATOM     12  O   UNL     1       2.982   7.984  17.676  1.00  0.00    -0.338 OA
BRANCH  12  13
ATOM     13  C   UNL     1       1.995   8.681  18.416  1.00  0.00     0.282 C 
ATOM     14  C   UNL     1       1.451   9.920  17.652  1.00  0.00     0.202 C 
ATOM     15  O   UNL     1       0.927   7.801  18.765  1.00  0.00    -0.341 OA
ATOM     16  C   UNL     1       0.607   9.509  16.430  1.00  0.00     0.179 C 
ATOM     17  C   UNL     1       0.113   7.366  17.678  1.00  0.00     0.178 C 
ATOM     18  C   UNL     1      -0.502   8.551  16.882  1.00  0.00     0.177 C 
BRANCH  14  19
ATOM     19  O   UNL     1       2.488  10.805  17.305  1.00  0.00    -0.385 OA
ATOM     20  H   UNL     1       3.196  10.293  16.842  1.00  0.00     0.211 HD
ENDBRANCH  14  19
BRANCH  16  21
ATOM     21  O   UNL     1       0.042  10.657  15.849  1.00  0.00    -0.387 OA
ATOM     22  H   UNL     1       0.628  10.905  15.085  1.00  0.00     0.211 HD
ENDBRANCH  16  21
BRANCH  17  23
ATOM     23  C   UNL     1       0.795   6.314  16.766  1.00  0.00     0.191 C 
BRANCH  23  24
ATOM     24  O   UNL     1      -0.028   5.198  16.572  1.00  0.00    -0.394 OA
ATOM     25  H   UNL     1      -0.888   5.385  17.036  1.00  0.00     0.210 HD
ENDBRANCH  23  24
ENDBRANCH  17  23
BRANCH  18  26
ATOM     26  O   UNL     1      -1.467   9.272  17.626  1.00  0.00    -0.387 OA
ATOM     27  H   UNL     1      -2.213   8.676  17.894  1.00  0.00     0.211 HD
ENDBRANCH  18  26
ENDBRANCH  12  13
ENDBRANCH   7  12
BRANCH   4  28
ATOM     28  O   UNL     1       7.341   5.854  19.630  1.00  0.00    -0.393 OA
ATOM     29  H   UNL     1       7.536   6.177  18.715  1.00  0.00     0.210 HD
ENDBRANCH   4  28
BRANCH   8  30
ATOM     30  C   UNL     1       3.815   5.228  17.292  1.00  0.00     0.255 C 
BRANCH  30  31
ATOM     31  O   UNL     1       4.179   3.869  17.556  1.00  0.00    -0.461 OA
BRANCH  31  32
ATOM     32  C   UNL     1       4.588   2.977  16.554  1.00  0.00     0.338 C 
ATOM     33  O   UNL     1       4.614   3.349  15.347  1.00  0.00    -0.246 OA
BRANCH  32  34
ATOM     34  C   UNL     1       5.013   1.603  16.907  1.00  0.00     0.060 A 
ATOM     35  C   UNL     1       6.277   1.123  16.510  1.00  0.00     0.015 A 
ATOM     36  C   UNL     1       4.176   0.771  17.673  1.00  0.00     0.015 A 
ATOM     37  C   UNL     1       6.695  -0.160  16.879  1.00  0.00     0.001 A 
ATOM     38  C   UNL     1       4.602  -0.509  18.044  1.00  0.00     0.001 A 
ATOM     39  C   UNL     1       5.861  -0.974  17.647  1.00  0.00     0.000 A 
ENDBRANCH  32  34
ENDBRANCH  31  32
ENDBRANCH  30  31
ENDBRANCH   8  30
TORSDOF 12
ENDMDL
MODEL 7
REMARK VINA RESULT:    -5.556      2.197      6.478
REMARK INTER + INTRA:         -10.212
REMARK INTER:                  -8.739
REMARK INTRA:                  -1.474
REMARK UNBOUND:                -1.570
REMARK SMILES C[C@@]12C[C@H](O)[C@H]3C[C@]1(O[C@@H]1O[C@H](CO)[C@@H](O)[C@@H](O)[C@@H]1O)[C@@]3(COC(=O)c1ccccc1)C(=O)O2
REMARK SMILES IDX 1 1 2 2 3 3 4 4 6 5 7 6 8 7 21 8 32 9 33 10 34 11 9 12 10 13
REMARK SMILES IDX 19 14 11 15 17 16 12 17 15 18 20 19 18 21 13 23 14 24 16 26
REMARK SMILES IDX 5 28 22 30 23 31 24 32 25 33 26 34 27 35 31 36 28 37 30 38
REMARK SMILES IDX 29 39
REMARK H PARENT 20 20 18 22 14 25 16 27 5 29
REMARK Flexibility Score: inf
ROOT
ATOM      1  C   UNL     1       7.513   5.872  16.549  1.00  0.00     0.060 C 
ATOM      2  C   UNL     1       6.002   5.622  16.421  1.00  0.00     0.142 C 
ATOM      3  C   UNL     1       5.797   4.245  15.680  1.00  0.00     0.083 C 
ATOM      4  C   UNL     1       4.321   3.720  15.784  1.00  0.00     0.123 C 
ATOM      5  C   UNL     1       3.608   4.328  17.025  1.00  0.00     0.045 C 
ATOM      6  C   UNL     1       4.620   4.278  18.173  1.00  0.00     0.049 C 
ATOM      7  C   UNL     1       5.067   5.677  17.742  1.00  0.00     0.131 C 
ATOM      8  C   UNL     1       3.687   5.885  17.068  1.00  0.00     0.140 C 
ATOM      9  C   UNL     1       4.057   6.636  15.815  1.00  0.00     0.319 C 
ATOM     10  O   UNL     1       3.243   7.113  14.983  1.00  0.00    -0.251 OA
ATOM     11  O   UNL     1       5.413   6.583  15.565  1.00  0.00    -0.456 OA
ENDROOT
BRANCH   7  12
ATOM     12  O   UNL     1       5.309   6.500  18.897  1.00  0.00    -0.338 OA
BRANCH  12  13
ATOM     13  C   UNL     1       6.577   7.125  18.984  1.00  0.00     0.282 C 
ATOM     14  C   UNL     1       6.499   8.657  18.733  1.00  0.00     0.202 C 
ATOM     15  O   UNL     1       7.174   6.856  20.252  1.00  0.00    -0.341 OA
ATOM     16  C   UNL     1       5.780   9.385  19.885  1.00  0.00     0.179 C 
ATOM     17  C   UNL     1       6.547   7.486  21.368  1.00  0.00     0.178 C 
ATOM     18  C   UNL     1       6.464   9.030  21.211  1.00  0.00     0.177 C 
BRANCH  14  19
ATOM     19  O   UNL     1       5.920   8.944  17.483  1.00  0.00    -0.385 OA
ATOM     20  H   UNL     1       4.958   8.718  17.524  1.00  0.00     0.211 HD
ENDBRANCH  14  19
BRANCH  16  21
ATOM     21  O   UNL     1       5.843  10.772  19.669  1.00  0.00    -0.387 OA
ATOM     22  H   UNL     1       6.228  11.170  20.495  1.00  0.00     0.211 HD
ENDBRANCH  16  21
BRANCH  17  23
ATOM     23  C   UNL     1       5.196   6.845  21.773  1.00  0.00     0.191 C 
BRANCH  23  24
ATOM     24  O   UNL     1       5.245   5.449  21.678  1.00  0.00    -0.394 OA
ATOM     25  H   UNL     1       5.653   5.231  20.797  1.00  0.00     0.210 HD
ENDBRANCH  23  24
ENDBRANCH  17  23
BRANCH  18  26
ATOM     26  O   UNL     1       7.731   9.659  21.265  1.00  0.00    -0.387 OA
ATOM     27  H   UNL     1       8.453   8.980  21.320  1.00  0.00     0.211 HD
ENDBRANCH  18  26
ENDBRANCH  12  13
ENDBRANCH   7  12
BRANCH   4  28
ATOM     28  O   UNL     1       3.594   4.023  14.622  1.00  0.00    -0.393 OA
ATOM     29  H   UNL     1       4.039   3.555  13.871  1.00  0.00     0.210 HD
ENDBRANCH   4  28
BRANCH   8  30
ATOM     30  C   UNL     1       2.565   6.514  17.943  1.00  0.00     0.255 C 
BRANCH  30  31
ATOM     31  O   UNL     1       2.531   7.941  17.840  1.00  0.00    -0.461 OA
BRANCH  31  32
ATOM     32  C   UNL     1       1.349   8.689  17.939  1.00  0.00     0.338 C 
ATOM     33  O   UNL     1       1.397   9.951  17.948  1.00  0.00    -0.246 OA
BRANCH  32  34
ATOM     34  C   UNL     1       0.038   8.006  18.010  1.00  0.00     0.060 A 
ATOM     35  C   UNL     1      -0.632   7.873  19.243  1.00  0.00     0.015 A 
ATOM     36  C   UNL     1      -0.576   7.511  16.844  1.00  0.00     0.015 A 
ATOM     37  C   UNL     1      -1.890   7.265  19.305  1.00  0.00     0.001 A 
ATOM     38  C   UNL     1      -1.837   6.909  16.911  1.00  0.00     0.001 A 
ATOM     39  C   UNL     1      -2.493   6.786  18.141  1.00  0.00     0.000 A 
ENDBRANCH  32  34
ENDBRANCH  31  32
ENDBRANCH  30  31
ENDBRANCH   8  30
TORSDOF 12
ENDMDL
MODEL 8
REMARK VINA RESULT:    -5.498      1.524      1.900
REMARK INTER + INTRA:         -10.121
REMARK INTER:                  -9.564
REMARK INTRA:                  -0.557
REMARK UNBOUND:                -1.570
REMARK SMILES C[C@@]12C[C@H](O)[C@H]3C[C@]1(O[C@@H]1O[C@H](CO)[C@@H](O)[C@@H](O)[C@@H]1O)[C@@]3(COC(=O)c1ccccc1)C(=O)O2
REMARK SMILES IDX 1 1 2 2 3 3 4 4 6 5 7 6 8 7 21 8 32 9 33 10 34 11 9 12 10 13
REMARK SMILES IDX 19 14 11 15 17 16 12 17 15 18 20 19 18 21 13 23 14 24 16 26
REMARK SMILES IDX 5 28 22 30 23 31 24 32 25 33 26 34 27 35 31 36 28 37 30 38
REMARK SMILES IDX 29 39
REMARK H PARENT 20 20 18 22 14 25 16 27 5 29
REMARK Flexibility Score: inf
ROOT
ATOM      1  C   UNL     1       4.656   9.834  18.226  1.00  0.00     0.060 C 
ATOM      2  C   UNL     1       5.395   8.495  18.375  1.00  0.00     0.142 C 
ATOM      3  C   UNL     1       6.603   8.712  19.366  1.00  0.00     0.083 C 
ATOM      4  C   UNL     1       7.228   7.358  19.857  1.00  0.00     0.123 C 
ATOM      5  C   UNL     1       6.194   6.202  19.745  1.00  0.00     0.045 C 
ATOM      6  C   UNL     1       4.861   6.765  20.247  1.00  0.00     0.049 C 
ATOM      7  C   UNL     1       4.570   7.168  18.800  1.00  0.00     0.131 C 
ATOM      8  C   UNL     1       5.569   6.083  18.321  1.00  0.00     0.140 C 
ATOM      9  C   UNL     1       6.246   6.767  17.163  1.00  0.00     0.319 C 
ATOM     10  O   UNL     1       7.082   6.233  16.388  1.00  0.00    -0.251 OA
ATOM     11  O   UNL     1       5.998   8.125  17.149  1.00  0.00    -0.456 OA
ENDROOT
BRANCH   7  12
ATOM     12  O   UNL     1       3.192   6.909  18.479  1.00  0.00    -0.338 OA
BRANCH  12  13
ATOM     13  C   UNL     1       2.721   7.400  17.236  1.00  0.00     0.282 C 
ATOM     14  C   UNL     1       1.898   6.337  16.455  1.00  0.00     0.202 C 
ATOM     15  O   UNL     1       1.948   8.583  17.434  1.00  0.00    -0.341 OA
ATOM     16  C   UNL     1       0.548   6.047  17.140  1.00  0.00     0.179 C 
ATOM     17  C   UNL     1       0.690   8.390  18.079  1.00  0.00     0.178 C 
ATOM     18  C   UNL     1      -0.210   7.366  17.336  1.00  0.00     0.177 C 
BRANCH  14  19
ATOM     19  O   UNL     1       2.646   5.164  16.242  1.00  0.00    -0.385 OA
ATOM     20  H   UNL     1       2.334   4.474  16.878  1.00  0.00     0.211 HD
ENDBRANCH  14  19
BRANCH  16  21
ATOM     21  O   UNL     1      -0.203   5.176  16.334  1.00  0.00    -0.387 OA
ATOM     22  H   UNL     1      -0.071   5.475  15.394  1.00  0.00     0.211 HD
ENDBRANCH  16  21
BRANCH  17  23
ATOM     23  C   UNL     1       0.803   8.108  19.599  1.00  0.00     0.191 C 
BRANCH  23  24
ATOM     24  O   UNL     1      -0.449   8.173  20.224  1.00  0.00    -0.394 OA
ATOM     25  H   UNL     1      -0.345   8.750  21.027  1.00  0.00     0.210 HD
ENDBRANCH  23  24
ENDBRANCH  17  23
BRANCH  18  26
ATOM     26  O   UNL     1      -0.660   7.837  16.079  1.00  0.00    -0.387 OA
ATOM     27  H   UNL     1      -1.199   8.662  16.191  1.00  0.00     0.211 HD
ENDBRANCH  18  26
ENDBRANCH  12  13
ENDBRANCH   7  12
BRANCH   4  28
ATOM     28  O   UNL     1       8.381   7.038  19.121  1.00  0.00    -0.393 OA
ATOM     29  H   UNL     1       8.211   6.168  18.680  1.00  0.00     0.210 HD
ENDBRANCH   4  28
BRANCH   8  30
ATOM     30  C   UNL     1       4.987   4.668  18.043  1.00  0.00     0.255 C 
BRANCH  30  31
ATOM     31  O   UNL     1       5.607   4.037  16.918  1.00  0.00    -0.461 OA
BRANCH  31  32
ATOM     32  C   UNL     1       5.037   2.950  16.238  1.00  0.00     0.338 C 
ATOM     33  O   UNL     1       4.509   3.120  15.103  1.00  0.00    -0.246 OA
BRANCH  32  34
ATOM     34  C   UNL     1       5.070   1.597  16.835  1.00  0.00     0.060 A 
ATOM     35  C   UNL     1       6.191   0.762  16.650  1.00  0.00     0.015 A 
ATOM     36  C   UNL     1       4.000   1.138  17.625  1.00  0.00     0.015 A 
ATOM     37  C   UNL     1       6.240  -0.501  17.249  1.00  0.00     0.001 A 
ATOM     38  C   UNL     1       4.057  -0.124  18.227  1.00  0.00     0.001 A 
ATOM     39  C   UNL     1       5.176  -0.943  18.039  1.00  0.00     0.000 A 
ENDBRANCH  32  34
ENDBRANCH  31  32
ENDBRANCH  30  31
ENDBRANCH   8  30
TORSDOF 12
ENDMDL
MODEL 9
REMARK VINA RESULT:    -5.365      2.216      5.926
REMARK INTER + INTRA:          -9.915
REMARK INTER:                  -9.383
REMARK INTRA:                  -0.531
REMARK UNBOUND:                -1.570
REMARK SMILES C[C@@]12C[C@H](O)[C@H]3C[C@]1(O[C@@H]1O[C@H](CO)[C@@H](O)[C@@H](O)[C@@H]1O)[C@@]3(COC(=O)c1ccccc1)C(=O)O2
REMARK SMILES IDX 1 1 2 2 3 3 4 4 6 5 7 6 8 7 21 8 32 9 33 10 34 11 9 12 10 13
REMARK SMILES IDX 19 14 11 15 17 16 12 17 15 18 20 19 18 21 13 23 14 24 16 26
REMARK SMILES IDX 5 28 22 30 23 31 24 32 25 33 26 34 27 35 31 36 28 37 30 38
REMARK SMILES IDX 29 39
REMARK H PARENT 20 20 18 22 14 25 16 27 5 29
REMARK Flexibility Score: inf
ROOT
ATOM      1  C   UNL     1       8.133   4.031  18.371  1.00  0.00     0.060 C 
ATOM      2  C   UNL     1       6.691   4.038  17.840  1.00  0.00     0.142 C 
ATOM      3  C   UNL     1       5.897   2.886  18.569  1.00  0.00     0.083 C 
ATOM      4  C   UNL     1       4.345   3.002  18.363  1.00  0.00     0.123 C 
ATOM      5  C   UNL     1       3.943   4.467  18.031  1.00  0.00     0.045 C 
ATOM      6  C   UNL     1       4.755   5.362  18.970  1.00  0.00     0.049 C 
ATOM      7  C   UNL     1       5.829   5.408  17.882  1.00  0.00     0.131 C 
ATOM      8  C   UNL     1       4.744   5.058  16.830  1.00  0.00     0.140 C 
ATOM      9  C   UNL     1       5.486   4.123  15.911  1.00  0.00     0.319 C 
ATOM     10  O   UNL     1       5.035   3.645  14.838  1.00  0.00    -0.251 OA
ATOM     11  O   UNL     1       6.667   3.680  16.471  1.00  0.00    -0.456 OA
ENDROOT
BRANCH   7  12
ATOM     12  O   UNL     1       6.373   6.735  17.774  1.00  0.00    -0.338 OA
BRANCH  12  13
ATOM     13  C   UNL     1       7.210   7.171  18.831  1.00  0.00     0.282 C 
ATOM     14  C   UNL     1       8.468   7.923  18.314  1.00  0.00     0.202 C 
ATOM     15  O   UNL     1       6.475   7.992  19.737  1.00  0.00    -0.341 OA
ATOM     16  C   UNL     1       8.102   9.290  17.702  1.00  0.00     0.179 C 
ATOM     17  C   UNL     1       6.087   9.268  19.229  1.00  0.00     0.178 C 
ATOM     18  C   UNL     1       7.298  10.101  18.725  1.00  0.00     0.177 C 
BRANCH  14  19
ATOM     19  O   UNL     1       9.213   7.128  17.424  1.00  0.00    -0.385 OA
ATOM     20  H   UNL     1      10.150   7.100  17.739  1.00  0.00     0.211 HD
ENDBRANCH  14  19
BRANCH  16  21
ATOM     21  O   UNL     1       9.280   9.977  17.363  1.00  0.00    -0.387 OA
ATOM     22  H   UNL     1       9.274  10.078  16.374  1.00  0.00     0.211 HD
ENDBRANCH  16  21
BRANCH  17  23
ATOM     23  C   UNL     1       4.925   9.209  18.206  1.00  0.00     0.191 C 
BRANCH  23  24
ATOM     24  O   UNL     1       4.391  10.481  17.966  1.00  0.00    -0.394 OA
ATOM     25  H   UNL     1       4.011  10.469  17.047  1.00  0.00     0.210 HD
ENDBRANCH  23  24
ENDBRANCH  17  23
BRANCH  18  26
ATOM     26  O   UNL     1       8.157  10.514  19.772  1.00  0.00    -0.387 OA
ATOM     27  H   UNL     1       7.860  11.386  20.140  1.00  0.00     0.211 HD
ENDBRANCH  18  26
ENDBRANCH  12  13
ENDBRANCH   7  12
BRANCH   4  28
ATOM     28  O   UNL     1       3.905   2.144  17.343  1.00  0.00    -0.393 OA
ATOM     29  H   UNL     1       4.282   1.249  17.534  1.00  0.00     0.210 HD
ENDBRANCH   4  28
BRANCH   8  30
ATOM     30  C   UNL     1       4.011   6.252  16.155  1.00  0.00     0.255 C 
BRANCH  30  31
ATOM     31  O   UNL     1       2.588   6.101  16.184  1.00  0.00    -0.461 OA
BRANCH  31  32
ATOM     32  C   UNL     1       1.709   7.165  16.434  1.00  0.00     0.338 C 
ATOM     33  O   UNL     1       1.993   8.329  16.031  1.00  0.00    -0.246 OA
BRANCH  32  34
ATOM     34  C   UNL     1       0.436   6.930  17.152  1.00  0.00     0.060 A 
ATOM     35  C   UNL     1       0.066   7.751  18.236  1.00  0.00     0.015 A 
ATOM     36  C   UNL     1      -0.438   5.906  16.740  1.00  0.00     0.015 A 
ATOM     37  C   UNL     1      -1.157   7.554  18.888  1.00  0.00     0.001 A 
ATOM     38  C   UNL     1      -1.661   5.718  17.392  1.00  0.00     0.001 A 
ATOM     39  C   UNL     1      -2.020   6.542  18.465  1.00  0.00     0.000 A 
ENDBRANCH  32  34
ENDBRANCH  31  32
ENDBRANCH  30  31
ENDBRANCH   8  30
TORSDOF 12
ENDMDL
