MODEL 1
REMARK VINA RESULT:    -3.877      0.000      0.000
REMARK INTER + INTRA:          -8.188
REMARK INTER:                  -6.710
REMARK INTRA:                  -1.478
REMARK UNBOUND:                -1.478
REMARK SMILES CCCCCCCCCCCCCCO
REMARK SMILES IDX 8 1 7 2 6 3 5 4 4 5 3 6 2 7 1 8 9 9 10 10 11 11 12 12 13 13
REMARK SMILES IDX 14 14 15 15
REMARK H PARENT 15 16
REMARK Flexibility Score: inf
ROOT
ATOM      1  C   UNL     1     129.442 144.973 108.426  1.00  0.00     0.000 C 
ENDROOT
BRANCH   1   2
ATOM      2  C   UNL     1     128.210 145.891 108.370  1.00  0.00    -0.000 C 
BRANCH   2   3
ATOM      3  C   UNL     1     127.097 145.350 107.454  1.00  0.00    -0.000 C 
BRANCH   3   4
ATOM      4  C   UNL     1     127.008 146.003 106.062  1.00  0.00    -0.000 C 
BRANCH   4   5
ATOM      5  C   UNL     1     127.282 145.013 104.916  1.00  0.00    -0.000 C 
BRANCH   5   6
ATOM      6  C   UNL     1     127.590 143.589 105.415  1.00  0.00    -0.000 C 
BRANCH   6   7
ATOM      7  C   UNL     1     129.038 143.116 105.187  1.00  0.00    -0.003 C 
ATOM      8  C   UNL     1     129.433 141.942 106.081  1.00  0.00     0.004 C 
ENDBRANCH   6   7
ENDBRANCH   5   6
ENDBRANCH   4   5
ENDBRANCH   3   4
ENDBRANCH   2   3
ENDBRANCH   1   2
BRANCH   1   9
ATOM      9  C   UNL     1     130.720 145.650 107.898  1.00  0.00     0.000 C 
BRANCH   9  10
ATOM     10  C   UNL     1     130.715 145.988 106.392  1.00  0.00     0.000 C 
BRANCH  10  11
ATOM     11  C   UNL     1     132.044 146.540 105.844  1.00  0.00     0.000 C 
BRANCH  11  12
ATOM     12  C   UNL     1     133.149 145.471 105.780  1.00  0.00     0.002 C 
BRANCH  12  13
ATOM     13  C   UNL     1     134.522 146.017 106.202  1.00  0.00     0.028 C 
BRANCH  13  14
ATOM     14  C   UNL     1     134.593 146.342 107.699  1.00  0.00     0.156 C 
BRANCH  14  15
ATOM     15  O   UNL     1     135.847 146.881 108.017  1.00  0.00    -0.396 OA
ATOM     16  H   UNL     1     135.681 147.781 108.403  1.00  0.00     0.210 HD
ENDBRANCH  14  15
ENDBRANCH  13  14
ENDBRANCH  12  13
ENDBRANCH  11  12
ENDBRANCH  10  11
ENDBRANCH   9  10
ENDBRANCH   1   9
TORSDOF 13
ENDMDL
MODEL 2
REMARK VINA RESULT:    -3.812      2.988      5.537
REMARK INTER + INTRA:          -8.077
REMARK INTER:                  -6.455
REMARK INTRA:                  -1.622
REMARK UNBOUND:                -1.478
REMARK SMILES CCCCCCCCCCCCCCO
REMARK SMILES IDX 8 1 7 2 6 3 5 4 4 5 3 6 2 7 1 8 9 9 10 10 11 11 12 12 13 13
REMARK SMILES IDX 14 14 15 15
REMARK H PARENT 15 16
REMARK Flexibility Score: inf
ROOT
ATOM      1  C   UNL     1     127.326 144.322 105.689  1.00  0.00     0.000 C 
ENDROOT
BRANCH   1   2
ATOM      2  C   UNL     1     127.515 143.153 106.669  1.00  0.00    -0.000 C 
BRANCH   2   3
ATOM      3  C   UNL     1     128.829 142.382 106.441  1.00  0.00    -0.000 C 
BRANCH   3   4
ATOM      4  C   UNL     1     129.717 142.912 105.299  1.00  0.00    -0.000 C 
BRANCH   4   5
ATOM      5  C   UNL     1     131.090 143.406 105.786  1.00  0.00    -0.000 C 
BRANCH   5   6
ATOM      6  C   UNL     1     130.988 144.588 106.769  1.00  0.00    -0.000 C 
BRANCH   6   7
ATOM      7  C   UNL     1     130.790 145.967 106.114  1.00  0.00    -0.003 C 
ATOM      8  C   UNL     1     132.105 146.699 105.851  1.00  0.00     0.004 C 
ENDBRANCH   6   7
ENDBRANCH   5   6
ENDBRANCH   4   5
ENDBRANCH   3   4
ENDBRANCH   2   3
ENDBRANCH   1   2
BRANCH   1   9
ATOM      9  C   UNL     1     126.937 145.636 106.391  1.00  0.00     0.000 C 
BRANCH   9  10
ATOM     10  C   UNL     1     126.960 145.594 107.933  1.00  0.00     0.000 C 
BRANCH  10  11
ATOM     11  C   UNL     1     128.251 146.127 108.580  1.00  0.00     0.000 C 
BRANCH  11  12
ATOM     12  C   UNL     1     128.591 145.418 109.902  1.00  0.00     0.002 C 
BRANCH  12  13
ATOM     13  C   UNL     1     127.386 144.678 110.501  1.00  0.00     0.028 C 
BRANCH  13  14
ATOM     14  C   UNL     1     127.757 143.296 111.052  1.00  0.00     0.156 C 
BRANCH  14  15
ATOM     15  O   UNL     1     127.204 142.291 110.245  1.00  0.00    -0.396 OA
ATOM     16  H   UNL     1     127.234 141.451 110.775  1.00  0.00     0.210 HD
ENDBRANCH  14  15
ENDBRANCH  13  14
ENDBRANCH  12  13
ENDBRANCH  11  12
ENDBRANCH  10  11
ENDBRANCH   9  10
ENDBRANCH   1   9
TORSDOF 13
ENDMDL
MODEL 3
REMARK VINA RESULT:    -3.808      3.391      5.146
REMARK INTER + INTRA:          -8.069
REMARK INTER:                  -6.106
REMARK INTRA:                  -1.963
REMARK UNBOUND:                -1.478
REMARK SMILES CCCCCCCCCCCCCCO
REMARK SMILES IDX 8 1 7 2 6 3 5 4 4 5 3 6 2 7 1 8 9 9 10 10 11 11 12 12 13 13
REMARK SMILES IDX 14 14 15 15
REMARK H PARENT 15 16
REMARK Flexibility Score: inf
ROOT
ATOM      1  C   UNL     1     128.028 145.579 105.646  1.00  0.00     0.000 C 
ENDROOT
BRANCH   1   2
ATOM      2  C   UNL     1     127.649 144.236 104.998  1.00  0.00    -0.000 C 
BRANCH   2   3
ATOM      3  C   UNL     1     127.204 143.177 106.023  1.00  0.00    -0.000 C 
BRANCH   3   4
ATOM      4  C   UNL     1     128.101 141.928 106.117  1.00  0.00    -0.000 C 
BRANCH   4   5
ATOM      5  C   UNL     1     129.017 141.939 107.353  1.00  0.00    -0.000 C 
BRANCH   5   6
ATOM      6  C   UNL     1     130.505 142.121 106.995  1.00  0.00    -0.000 C 
BRANCH   6   7
ATOM      7  C   UNL     1     130.799 142.291 105.493  1.00  0.00    -0.003 C 
ATOM      8  C   UNL     1     132.110 143.025 105.218  1.00  0.00     0.004 C 
ENDBRANCH   6   7
ENDBRANCH   5   6
ENDBRANCH   4   5
ENDBRANCH   3   4
ENDBRANCH   2   3
ENDBRANCH   1   2
BRANCH   1   9
ATOM      9  C   UNL     1     129.456 145.585 106.220  1.00  0.00     0.000 C 
BRANCH   9  10
ATOM     10  C   UNL     1     129.550 145.614 107.760  1.00  0.00     0.000 C 
BRANCH  10  11
ATOM     11  C   UNL     1     128.295 146.141 108.479  1.00  0.00     0.000 C 
BRANCH  11  12
ATOM     12  C   UNL     1     127.537 145.038 109.239  1.00  0.00     0.002 C 
BRANCH  12  13
ATOM     13  C   UNL     1     128.391 144.386 110.337  1.00  0.00     0.028 C 
BRANCH  13  14
ATOM     14  C   UNL     1     127.566 143.500 111.278  1.00  0.00     0.156 C 
BRANCH  14  15
ATOM     15  O   UNL     1     127.110 142.364 110.595  1.00  0.00    -0.396 OA
ATOM     16  H   UNL     1     126.302 142.047 111.078  1.00  0.00     0.210 HD
ENDBRANCH  14  15
ENDBRANCH  13  14
ENDBRANCH  12  13
ENDBRANCH  11  12
ENDBRANCH  10  11
ENDBRANCH   9  10
ENDBRANCH   1   9
TORSDOF 13
ENDMDL
MODEL 4
REMARK VINA RESULT:    -3.766      3.293      5.824
REMARK INTER + INTRA:          -7.996
REMARK INTER:                  -6.511
REMARK INTRA:                  -1.485
REMARK UNBOUND:                -1.478
REMARK SMILES CCCCCCCCCCCCCCO
REMARK SMILES IDX 8 1 7 2 6 3 5 4 4 5 3 6 2 7 1 8 9 9 10 10 11 11 12 12 13 13
REMARK SMILES IDX 14 14 15 15
REMARK H PARENT 15 16
REMARK Flexibility Score: inf
ROOT
ATOM      1  C   UNL     1     127.467 146.054 105.845  1.00  0.00     0.000 C 
ENDROOT
BRANCH   1   2
ATOM      2  C   UNL     1     126.950 145.530 107.195  1.00  0.00    -0.000 C 
BRANCH   2   3
ATOM      3  C   UNL     1     127.803 145.997 108.389  1.00  0.00    -0.000 C 
BRANCH   3   4
ATOM      4  C   UNL     1     128.946 145.049 108.798  1.00  0.00    -0.000 C 
BRANCH   4   5
ATOM      5  C   UNL     1     130.230 145.795 109.200  1.00  0.00    -0.000 C 
BRANCH   5   6
ATOM      6  C   UNL     1     131.388 145.572 108.208  1.00  0.00    -0.000 C 
BRANCH   6   7
ATOM      7  C   UNL     1     130.991 145.612 106.721  1.00  0.00    -0.003 C 
ATOM      8  C   UNL     1     131.662 146.750 105.953  1.00  0.00     0.004 C 
ENDBRANCH   6   7
ENDBRANCH   5   6
ENDBRANCH   4   5
ENDBRANCH   3   4
ENDBRANCH   2   3
ENDBRANCH   1   2
BRANCH   1   9
ATOM      9  C   UNL     1     127.384 145.004 104.723  1.00  0.00     0.000 C 
BRANCH   9  10
ATOM     10  C   UNL     1     127.455 143.533 105.186  1.00  0.00     0.000 C 
BRANCH  10  11
ATOM     11  C   UNL     1     128.878 142.989 105.407  1.00  0.00     0.000 C 
BRANCH  11  12
ATOM     12  C   UNL     1     128.958 141.994 106.578  1.00  0.00     0.002 C 
BRANCH  12  13
ATOM     13  C   UNL     1     127.803 140.982 106.573  1.00  0.00     0.028 C 
BRANCH  13  14
ATOM     14  C   UNL     1     128.186 139.646 107.220  1.00  0.00     0.156 C 
BRANCH  14  15
ATOM     15  O   UNL     1     127.110 139.146 107.967  1.00  0.00    -0.396 OA
ATOM     16  H   UNL     1     126.681 139.926 108.407  1.00  0.00     0.210 HD
ENDBRANCH  14  15
ENDBRANCH  13  14
ENDBRANCH  12  13
ENDBRANCH  11  12
ENDBRANCH  10  11
ENDBRANCH   9  10
ENDBRANCH   1   9
TORSDOF 13
ENDMDL
MODEL 5
REMARK VINA RESULT:    -3.763      2.659      5.588
REMARK INTER + INTRA:          -7.992
REMARK INTER:                  -6.353
REMARK INTRA:                  -1.638
REMARK UNBOUND:                -1.478
REMARK SMILES CCCCCCCCCCCCCCO
REMARK SMILES IDX 8 1 7 2 6 3 5 4 4 5 3 6 2 7 1 8 9 9 10 10 11 11 12 12 13 13
REMARK SMILES IDX 14 14 15 15
REMARK H PARENT 15 16
REMARK Flexibility Score: inf
ROOT
ATOM      1  C   UNL     1     127.734 142.938 105.754  1.00  0.00     0.000 C 
ENDROOT
BRANCH   1   2
ATOM      2  C   UNL     1     129.189 142.568 106.087  1.00  0.00    -0.000 C 
BRANCH   2   3
ATOM      3  C   UNL     1     130.215 143.526 105.453  1.00  0.00    -0.000 C 
BRANCH   3   4
ATOM      4  C   UNL     1     130.959 144.446 106.438  1.00  0.00    -0.000 C 
BRANCH   4   5
ATOM      5  C   UNL     1     130.766 145.940 106.128  1.00  0.00    -0.000 C 
BRANCH   5   6
ATOM      6  C   UNL     1     132.098 146.702 105.995  1.00  0.00    -0.000 C 
BRANCH   6   7
ATOM      7  C   UNL     1     133.362 145.823 106.050  1.00  0.00    -0.003 C 
ATOM      8  C   UNL     1     134.251 145.974 104.817  1.00  0.00     0.004 C 
ENDBRANCH   6   7
ENDBRANCH   5   6
ENDBRANCH   4   5
ENDBRANCH   3   4
ENDBRANCH   2   3
ENDBRANCH   1   2
BRANCH   1   9
ATOM      9  C   UNL     1     127.618 144.241 104.941  1.00  0.00     0.000 C 
BRANCH   9  10
ATOM     10  C   UNL     1     127.181 145.485 105.743  1.00  0.00     0.000 C 
BRANCH  10  11
ATOM     11  C   UNL     1     126.875 145.226 107.230  1.00  0.00     0.000 C 
BRANCH  11  12
ATOM     12  C   UNL     1     127.705 146.116 108.171  1.00  0.00     0.002 C 
BRANCH  12  13
ATOM     13  C   UNL     1     128.523 145.302 109.185  1.00  0.00     0.028 C 
BRANCH  13  14
ATOM     14  C   UNL     1     127.973 143.885 109.384  1.00  0.00     0.156 C 
BRANCH  14  15
ATOM     15  O   UNL     1     127.136 143.844 110.508  1.00  0.00    -0.396 OA
ATOM     16  H   UNL     1     126.360 144.429 110.307  1.00  0.00     0.210 HD
ENDBRANCH  14  15
ENDBRANCH  13  14
ENDBRANCH  12  13
ENDBRANCH  11  12
ENDBRANCH  10  11
ENDBRANCH   9  10
ENDBRANCH   1   9
TORSDOF 13
ENDMDL
MODEL 6
REMARK VINA RESULT:    -3.743      1.046      2.587
REMARK INTER + INTRA:          -7.956
REMARK INTER:                  -6.704
REMARK INTRA:                  -1.252
REMARK UNBOUND:                -1.478
REMARK SMILES CCCCCCCCCCCCCCO
REMARK SMILES IDX 8 1 7 2 6 3 5 4 4 5 3 6 2 7 1 8 9 9 10 10 11 11 12 12 13 13
REMARK SMILES IDX 14 14 15 15
REMARK H PARENT 15 16
REMARK Flexibility Score: inf
ROOT
ATOM      1  C   UNL     1     130.814 145.244 107.453  1.00  0.00     0.000 C 
ENDROOT
BRANCH   1   2
ATOM      2  C   UNL     1     130.376 143.780 107.276  1.00  0.00    -0.000 C 
BRANCH   2   3
ATOM      3  C   UNL     1     129.986 143.440 105.825  1.00  0.00    -0.000 C 
BRANCH   3   4
ATOM      4  C   UNL     1     128.769 142.509 105.667  1.00  0.00    -0.000 C 
BRANCH   4   5
ATOM      5  C   UNL     1     127.451 143.274 105.460  1.00  0.00    -0.000 C 
BRANCH   5   6
ATOM      6  C   UNL     1     127.659 144.674 104.852  1.00  0.00    -0.000 C 
BRANCH   6   7
ATOM      7  C   UNL     1     126.875 145.808 105.539  1.00  0.00    -0.003 C 
ATOM      8  C   UNL     1     127.064 145.834 107.054  1.00  0.00     0.004 C 
ENDBRANCH   6   7
ENDBRANCH   5   6
ENDBRANCH   4   5
ENDBRANCH   3   4
ENDBRANCH   2   3
ENDBRANCH   1   2
BRANCH   1   9
ATOM      9  C   UNL     1     130.781 146.043 106.138  1.00  0.00     0.000 C 
BRANCH   9  10
ATOM     10  C   UNL     1     132.091 146.773 105.775  1.00  0.00     0.000 C 
BRANCH  10  11
ATOM     11  C   UNL     1     133.351 146.238 106.479  1.00  0.00     0.000 C 
BRANCH  11  12
ATOM     12  C   UNL     1     134.515 145.985 105.504  1.00  0.00     0.002 C 
BRANCH  12  13
ATOM     13  C   UNL     1     135.749 145.394 106.201  1.00  0.00     0.028 C 
BRANCH  13  14
ATOM     14  C   UNL     1     136.742 146.470 106.656  1.00  0.00     0.156 C 
BRANCH  14  15
ATOM     15  O   UNL     1     136.277 147.094 107.823  1.00  0.00    -0.396 OA
ATOM     16  H   UNL     1     136.753 147.963 107.891  1.00  0.00     0.210 HD
ENDBRANCH  14  15
ENDBRANCH  13  14
ENDBRANCH  12  13
ENDBRANCH  11  12
ENDBRANCH  10  11
ENDBRANCH   9  10
ENDBRANCH   1   9
TORSDOF 13
ENDMDL
MODEL 7
REMARK VINA RESULT:    -3.698      1.573      3.533
REMARK INTER + INTRA:          -7.878
REMARK INTER:                  -6.391
REMARK INTRA:                  -1.487
REMARK UNBOUND:                -1.478
REMARK SMILES CCCCCCCCCCCCCCO
REMARK SMILES IDX 8 1 7 2 6 3 5 4 4 5 3 6 2 7 1 8 9 9 10 10 11 11 12 12 13 13
REMARK SMILES IDX 14 14 15 15
REMARK H PARENT 15 16
REMARK Flexibility Score: inf
ROOT
ATOM      1  C   UNL     1     127.043 145.906 105.871  1.00  0.00     0.000 C 
ENDROOT
BRANCH   1   2
ATOM      2  C   UNL     1     127.538 144.943 104.779  1.00  0.00    -0.000 C 
BRANCH   2   3
ATOM      3  C   UNL     1     127.633 143.483 105.261  1.00  0.00    -0.000 C 
BRANCH   3   4
ATOM      4  C   UNL     1     129.060 142.915 105.375  1.00  0.00    -0.000 C 
BRANCH   4   5
ATOM      5  C   UNL     1     129.162 141.744 106.367  1.00  0.00    -0.000 C 
BRANCH   5   6
ATOM      6  C   UNL     1     127.814 141.036 106.601  1.00  0.00    -0.000 C 
BRANCH   6   7
ATOM      7  C   UNL     1     127.907 139.517 106.838  1.00  0.00    -0.003 C 
ATOM      8  C   UNL     1     127.766 138.700 105.555  1.00  0.00     0.004 C 
ENDBRANCH   6   7
ENDBRANCH   5   6
ENDBRANCH   4   5
ENDBRANCH   3   4
ENDBRANCH   2   3
ENDBRANCH   1   2
BRANCH   1   9
ATOM      9  C   UNL     1     127.184 145.326 107.290  1.00  0.00     0.000 C 
BRANCH   9  10
ATOM     10  C   UNL     1     128.315 145.933 108.145  1.00  0.00     0.000 C 
BRANCH  10  11
ATOM     11  C   UNL     1     129.446 144.957 108.516  1.00  0.00     0.000 C 
BRANCH  11  12
ATOM     12  C   UNL     1     130.824 145.425 108.016  1.00  0.00     0.002 C 
BRANCH  12  13
ATOM     13  C   UNL     1     130.800 145.860 106.543  1.00  0.00     0.028 C 
BRANCH  13  14
ATOM     14  C   UNL     1     131.958 146.800 106.187  1.00  0.00     0.156 C 
BRANCH  14  15
ATOM     15  O   UNL     1     132.735 147.063 107.324  1.00  0.00    -0.396 OA
ATOM     16  H   UNL     1     133.267 146.244 107.501  1.00  0.00     0.210 HD
ENDBRANCH  14  15
ENDBRANCH  13  14
ENDBRANCH  12  13
ENDBRANCH  11  12
ENDBRANCH  10  11
ENDBRANCH   9  10
ENDBRANCH   1   9
TORSDOF 13
ENDMDL
MODEL 8
REMARK VINA RESULT:    -3.694      0.998      2.674
REMARK INTER + INTRA:          -7.872
REMARK INTER:                  -6.106
REMARK INTRA:                  -1.766
REMARK UNBOUND:                -1.478
REMARK SMILES CCCCCCCCCCCCCCO
REMARK SMILES IDX 8 1 7 2 6 3 5 4 4 5 3 6 2 7 1 8 9 9 10 10 11 11 12 12 13 13
REMARK SMILES IDX 14 14 15 15
REMARK H PARENT 15 16
REMARK Flexibility Score: inf
ROOT
ATOM      1  C   UNL     1     129.420 142.623 106.599  1.00  0.00     0.000 C 
ENDROOT
BRANCH   1   2
ATOM      2  C   UNL     1     128.026 142.761 105.963  1.00  0.00    -0.000 C 
BRANCH   2   3
ATOM      3  C   UNL     1     127.986 143.787 104.816  1.00  0.00    -0.000 C 
BRANCH   3   4
ATOM      4  C   UNL     1     127.009 144.962 105.011  1.00  0.00    -0.000 C 
BRANCH   4   5
ATOM      5  C   UNL     1     127.568 146.061 105.930  1.00  0.00    -0.000 C 
BRANCH   5   6
ATOM      6  C   UNL     1     126.976 146.012 107.352  1.00  0.00    -0.000 C 
BRANCH   6   7
ATOM      7  C   UNL     1     128.012 145.976 108.490  1.00  0.00    -0.003 C 
ATOM      8  C   UNL     1     127.904 144.724 109.359  1.00  0.00     0.004 C 
ENDBRANCH   6   7
ENDBRANCH   5   6
ENDBRANCH   4   5
ENDBRANCH   3   4
ENDBRANCH   2   3
ENDBRANCH   1   2
BRANCH   1   9
ATOM      9  C   UNL     1     130.474 143.525 105.932  1.00  0.00     0.000 C 
BRANCH   9  10
ATOM     10  C   UNL     1     131.055 144.638 106.829  1.00  0.00     0.000 C 
BRANCH  10  11
ATOM     11  C   UNL     1     131.143 146.026 106.170  1.00  0.00     0.000 C 
BRANCH  11  12
ATOM     12  C   UNL     1     132.592 146.469 105.906  1.00  0.00     0.002 C 
BRANCH  12  13
ATOM     13  C   UNL     1     133.623 145.481 106.472  1.00  0.00     0.028 C 
BRANCH  13  14
ATOM     14  C   UNL     1     134.758 146.181 107.228  1.00  0.00     0.156 C 
BRANCH  14  15
ATOM     15  O   UNL     1     134.234 146.987 108.249  1.00  0.00    -0.396 OA
ATOM     16  H   UNL     1     133.432 147.436 107.873  1.00  0.00     0.210 HD
ENDBRANCH  14  15
ENDBRANCH  13  14
ENDBRANCH  12  13
ENDBRANCH  11  12
ENDBRANCH  10  11
ENDBRANCH   9  10
ENDBRANCH   1   9
TORSDOF 13
ENDMDL
MODEL 9
REMARK VINA RESULT:    -3.679      1.342      2.408
REMARK INTER + INTRA:          -7.845
REMARK INTER:                  -5.808
REMARK INTRA:                  -2.037
REMARK UNBOUND:                -1.478
REMARK SMILES CCCCCCCCCCCCCCO
REMARK SMILES IDX 8 1 7 2 6 3 5 4 4 5 3 6 2 7 1 8 9 9 10 10 11 11 12 12 13 13
REMARK SMILES IDX 14 14 15 15
REMARK H PARENT 15 16
REMARK Flexibility Score: inf
ROOT
ATOM      1  C   UNL     1     127.324 146.073 109.006  1.00  0.00     0.000 C 
ENDROOT
BRANCH   1   2
ATOM      2  C   UNL     1     126.875 145.321 107.741  1.00  0.00    -0.000 C 
BRANCH   2   3
ATOM      3  C   UNL     1     126.987 146.173 106.463  1.00  0.00    -0.000 C 
BRANCH   3   4
ATOM      4  C   UNL     1     127.698 145.496 105.276  1.00  0.00    -0.000 C 
BRANCH   4   5
ATOM      5  C   UNL     1     127.388 143.994 105.168  1.00  0.00    -0.000 C 
BRANCH   5   6
ATOM      6  C   UNL     1     128.655 143.118 105.167  1.00  0.00    -0.000 C 
BRANCH   6   7
ATOM      7  C   UNL     1     128.591 141.874 106.073  1.00  0.00    -0.003 C 
ATOM      8  C   UNL     1     127.186 141.592 106.604  1.00  0.00     0.004 C 
ENDBRANCH   6   7
ENDBRANCH   5   6
ENDBRANCH   4   5
ENDBRANCH   3   4
ENDBRANCH   2   3
ENDBRANCH   1   2
BRANCH   1   9
ATOM      9  C   UNL     1     128.738 145.676 109.469  1.00  0.00     0.000 C 
BRANCH   9  10
ATOM     10  C   UNL     1     129.240 144.307 108.963  1.00  0.00     0.000 C 
BRANCH  10  11
ATOM     11  C   UNL     1     130.515 144.359 108.103  1.00  0.00     0.000 C 
BRANCH  11  12
ATOM     12  C   UNL     1     130.686 145.703 107.374  1.00  0.00     0.002 C 
BRANCH  12  13
ATOM     13  C   UNL     1     131.504 145.572 106.080  1.00  0.00     0.028 C 
BRANCH  13  14
ATOM     14  C   UNL     1     132.756 146.457 106.081  1.00  0.00     0.156 C 
BRANCH  14  15
ATOM     15  O   UNL     1     133.874 145.713 105.678  1.00  0.00    -0.396 OA
ATOM     16  H   UNL     1     133.767 144.806 106.067  1.00  0.00     0.210 HD
ENDBRANCH  14  15
ENDBRANCH  13  14
ENDBRANCH  12  13
ENDBRANCH  11  12
ENDBRANCH  10  11
ENDBRANCH   9  10
ENDBRANCH   1   9
TORSDOF 13
ENDMDL
