MODEL 1
REMARK VINA RESULT:    -2.336      0.000      0.000
REMARK INTER + INTRA:          -2.336
REMARK INTER:                  -2.336
REMARK INTRA:                   0.000
REMARK UNBOUND:                 0.000
REMARK SMILES CC(=O)[O-]
REMARK SMILES IDX 1 1 2 2 3 3 4 4
REMARK H PARENT
REMARK Flexibility Score: inf
ROOT
ATOM      1  C   UNL     1      -8.537   8.438  -6.461  1.00  0.00     0.063 C 
ATOM      2  C   UNL     1      -9.386   7.213  -6.435  1.00  0.00     0.038 C 
ATOM      3  O   UNL     1      -8.919   6.112  -6.828  1.00  0.00    -0.550 OA
ATOM      4  O   UNL     1     -10.678   7.272  -5.928  1.00  0.00    -0.550 OA
ENDROOT
TORSDOF 0
ENDMDL
MODEL 2
REMARK VINA RESULT:    -2.312      1.497      1.956
REMARK INTER + INTRA:          -2.312
REMARK INTER:                  -2.312
REMARK INTRA:                   0.000
REMARK UNBOUND:                 0.000
REMARK SMILES CC(=O)[O-]
REMARK SMILES IDX 1 1 2 2 3 3 4 4
REMARK H PARENT
REMARK Flexibility Score: inf
ROOT
ATOM      1  C   UNL     1     -10.435   7.748  -7.198  1.00  0.00     0.063 C 
ATOM      2  C   UNL     1      -9.102   7.169  -6.865  1.00  0.00     0.038 C 
ATOM      3  O   UNL     1      -8.181   7.910  -6.430  1.00  0.00    -0.550 OA
ATOM      4  O   UNL     1      -8.887   5.802  -6.982  1.00  0.00    -0.550 OA
ENDROOT
TORSDOF 0
ENDMDL
MODEL 3
REMARK VINA RESULT:    -2.303      1.540      1.778
REMARK INTER + INTRA:          -2.303
REMARK INTER:                  -2.303
REMARK INTRA:                   0.000
REMARK UNBOUND:                 0.000
REMARK SMILES CC(=O)[O-]
REMARK SMILES IDX 1 1 2 2 3 3 4 4
REMARK H PARENT
REMARK Flexibility Score: inf
ROOT
ATOM      1  C   UNL     1     -10.532   7.512  -7.194  1.00  0.00     0.063 C 
ATOM      2  C   UNL     1      -9.168   7.014  -6.855  1.00  0.00     0.038 C 
ATOM      3  O   UNL     1      -8.889   5.794  -6.992  1.00  0.00    -0.550 OA
ATOM      4  O   UNL     1      -8.185   7.903  -6.439  1.00  0.00    -0.550 OA
ENDROOT
TORSDOF 0
ENDMDL
MODEL 4
REMARK VINA RESULT:    -2.285     20.562     20.682
REMARK INTER + INTRA:          -2.285
REMARK INTER:                  -2.285
REMARK INTRA:                   0.000
REMARK UNBOUND:                 0.000
REMARK SMILES CC(=O)[O-]
REMARK SMILES IDX 1 1 2 2 3 3 4 4
REMARK H PARENT
REMARK Flexibility Score: inf
ROOT
ATOM      1  C   UNL     1      -7.064  -7.636   7.852  1.00  0.00     0.063 C 
ATOM      2  C   UNL     1      -7.662  -8.523   6.812  1.00  0.00     0.038 C 
ATOM      3  O   UNL     1      -6.936  -9.338   6.184  1.00  0.00    -0.550 OA
ATOM      4  O   UNL     1      -9.029  -8.492   6.573  1.00  0.00    -0.550 OA
ENDROOT
TORSDOF 0
ENDMDL
MODEL 5
REMARK VINA RESULT:    -2.246     20.444     20.719
REMARK INTER + INTRA:          -2.246
REMARK INTER:                  -2.246
REMARK INTRA:                   0.000
REMARK UNBOUND:                 0.000
REMARK SMILES CC(=O)[O-]
REMARK SMILES IDX 1 1 2 2 3 3 4 4
REMARK H PARENT
REMARK Flexibility Score: inf
ROOT
ATOM      1  C   UNL     1      -1.114  -6.395   8.587  1.00  0.00     0.063 C 
ATOM      2  C   UNL     1      -1.867  -5.158   8.231  1.00  0.00     0.038 C 
ATOM      3  O   UNL     1      -1.493  -4.447   7.261  1.00  0.00    -0.550 OA
ATOM      4  O   UNL     1      -3.014  -4.814   8.934  1.00  0.00    -0.550 OA
ENDROOT
TORSDOF 0
ENDMDL
MODEL 6
REMARK VINA RESULT:    -2.216      1.270      2.231
REMARK INTER + INTRA:          -2.216
REMARK INTER:                  -2.216
REMARK INTRA:                   0.000
REMARK UNBOUND:                 0.000
REMARK SMILES CC(=O)[O-]
REMARK SMILES IDX 1 1 2 2 3 3 4 4
REMARK H PARENT
REMARK Flexibility Score: inf
ROOT
ATOM      1  C   UNL     1      -9.468   5.938  -7.244  1.00  0.00     0.063 C 
ATOM      2  C   UNL     1      -9.414   7.215  -6.476  1.00  0.00     0.038 C 
ATOM      3  O   UNL     1     -10.430   7.622  -5.854  1.00  0.00    -0.550 OA
ATOM      4  O   UNL     1      -8.227   7.933  -6.400  1.00  0.00    -0.550 OA
ENDROOT
TORSDOF 0
ENDMDL
MODEL 7
REMARK VINA RESULT:    -2.198     20.596     20.940
REMARK INTER + INTRA:          -2.198
REMARK INTER:                  -2.198
REMARK INTRA:                   0.000
REMARK UNBOUND:                 0.000
REMARK SMILES CC(=O)[O-]
REMARK SMILES IDX 1 1 2 2 3 3 4 4
REMARK H PARENT
REMARK Flexibility Score: inf
ROOT
ATOM      1  C   UNL     1      -2.822  -5.139   9.233  1.00  0.00     0.063 C 
ATOM      2  C   UNL     1      -1.683  -5.304   8.284  1.00  0.00     0.038 C 
ATOM      3  O   UNL     1      -1.602  -4.574   7.261  1.00  0.00    -0.550 OA
ATOM      4  O   UNL     1      -0.681  -6.226   8.553  1.00  0.00    -0.550 OA
ENDROOT
TORSDOF 0
ENDMDL
MODEL 8
REMARK VINA RESULT:    -2.187     20.471     20.788
REMARK INTER + INTRA:          -2.187
REMARK INTER:                  -2.187
REMARK INTRA:                   0.000
REMARK UNBOUND:                 0.000
REMARK SMILES CC(=O)[O-]
REMARK SMILES IDX 1 1 2 2 3 3 4 4
REMARK H PARENT
REMARK Flexibility Score: inf
ROOT
ATOM      1  C   UNL     1      -1.183  -6.319   8.816  1.00  0.00     0.063 C 
ATOM      2  C   UNL     1      -1.990  -5.155   8.350  1.00  0.00     0.038 C 
ATOM      3  O   UNL     1      -3.039  -4.826   8.965  1.00  0.00    -0.550 OA
ATOM      4  O   UNL     1      -1.559  -4.397   7.269  1.00  0.00    -0.550 OA
ENDROOT
TORSDOF 0
ENDMDL
MODEL 9
REMARK VINA RESULT:    -2.039     16.016     16.402
REMARK INTER + INTRA:          -2.039
REMARK INTER:                  -2.039
REMARK INTRA:                   0.000
REMARK UNBOUND:                 0.000
REMARK SMILES CC(=O)[O-]
REMARK SMILES IDX 1 1 2 2 3 3 4 4
REMARK H PARENT
REMARK Flexibility Score: inf
ROOT
ATOM      1  C   UNL     1      -7.072  -7.746  -7.104  1.00  0.00     0.063 C 
ATOM      2  C   UNL     1      -6.580  -8.757  -8.085  1.00  0.00     0.038 C 
ATOM      3  O   UNL     1      -7.341  -9.174  -8.997  1.00  0.00    -0.550 OA
ATOM      4  O   UNL     1      -5.265  -9.200  -8.027  1.00  0.00    -0.550 OA
ENDROOT
TORSDOF 0
ENDMDL
