MODEL 1
REMARK VINA RESULT:    -4.741      0.000      0.000
REMARK INTER + INTRA:          -5.987
REMARK INTER:                  -5.711
REMARK INTRA:                  -0.276
REMARK UNBOUND:                -0.276
REMARK SMILES O=c1ccn([C@H]2O[C@@H](CO)[C@H](O)[C@H]2O)c(=O)[nH]1
REMARK SMILES IDX 6 1 13 2 11 3 8 4 7 5 5 6 3 7 4 8 2 9 17 10 1 11 15 12 16 14
REMARK SMILES IDX 14 15 12 17 9 19 10 20
REMARK H PARENT 17 13 14 16 12 18 10 21
REMARK Flexibility Score: inf
ROOT
ATOM      1  C   UNL     1      -4.204   8.706  -6.414  1.00  0.00     0.255 C 
ATOM      2  C   UNL     1      -3.274   7.494  -6.424  1.00  0.00     0.196 C 
ATOM      3  C   UNL     1      -1.985   8.046  -5.839  1.00  0.00     0.179 C 
ATOM      4  C   UNL     1      -2.408   9.400  -5.235  1.00  0.00     0.178 C 
ATOM      5  O   UNL     1      -3.805   9.554  -5.364  1.00  0.00    -0.347 OA
ENDROOT
BRANCH   1   6
ATOM      6  N   UNL     1      -5.630   8.319  -6.305  1.00  0.00    -0.271 N 
ATOM      7  C   UNL     1      -7.572   8.113  -4.907  1.00  0.00     0.090 A 
ATOM      8  C   UNL     1      -6.230   8.438  -5.081  1.00  0.00     0.099 A 
ATOM      9  C   UNL     1      -8.297   7.672  -6.008  1.00  0.00     0.253 A 
ATOM     10  N   UNL     1      -7.692   7.573  -7.220  1.00  0.00    -0.274 N 
ATOM     11  O   UNL     1      -9.513   7.370  -5.882  1.00  0.00    -0.269 OA
ATOM     12  C   UNL     1      -6.378   7.896  -7.381  1.00  0.00     0.330 A 
ATOM     13  H   UNL     1      -8.247   7.248  -8.045  1.00  0.00     0.175 HD
ATOM     14  O   UNL     1      -5.866   7.806  -8.531  1.00  0.00    -0.248 OA
ENDBRANCH   1   6
BRANCH   2  15
ATOM     15  O   UNL     1      -3.774   6.425  -5.655  1.00  0.00    -0.386 OA
ATOM     16  H   UNL     1      -3.232   5.618  -5.855  1.00  0.00     0.211 HD
ENDBRANCH   2  15
BRANCH   3  17
ATOM     17  O   UNL     1      -1.040   8.238  -6.861  1.00  0.00    -0.387 OA
ATOM     18  H   UNL     1      -1.556   8.344  -7.704  1.00  0.00     0.211 HD
ENDBRANCH   3  17
BRANCH   4  19
ATOM     19  C   UNL     1      -2.009   9.531  -3.762  1.00  0.00     0.191 C 
BRANCH  19  20
ATOM     20  O   UNL     1      -2.673   8.570  -2.988  1.00  0.00    -0.394 OA
ATOM     21  H   UNL     1      -2.159   8.493  -2.143  1.00  0.00     0.210 HD
ENDBRANCH  19  20
ENDBRANCH   4  19
TORSDOF 5
ENDMDL
MODEL 2
REMARK VINA RESULT:    -4.597      1.898      5.654
REMARK INTER + INTRA:          -5.813
REMARK INTER:                  -5.588
REMARK INTRA:                  -0.225
REMARK UNBOUND:                -0.276
REMARK SMILES O=c1ccn([C@H]2O[C@@H](CO)[C@H](O)[C@H]2O)c(=O)[nH]1
REMARK SMILES IDX 6 1 13 2 11 3 8 4 7 5 5 6 3 7 4 8 2 9 17 10 1 11 15 12 16 14
REMARK SMILES IDX 14 15 12 17 9 19 10 20
REMARK H PARENT 17 13 14 16 12 18 10 21
REMARK Flexibility Score: inf
ROOT
ATOM      1  C   UNL     1      -5.936   8.064  -6.008  1.00  0.00     0.255 C 
ATOM      2  C   UNL     1      -6.621   7.020  -5.127  1.00  0.00     0.196 C 
ATOM      3  C   UNL     1      -7.705   6.464  -6.034  1.00  0.00     0.179 C 
ATOM      4  C   UNL     1      -7.313   6.982  -7.432  1.00  0.00     0.178 C 
ATOM      5  O   UNL     1      -6.082   7.667  -7.350  1.00  0.00    -0.347 OA
ENDROOT
BRANCH   1   6
ATOM      6  N   UNL     1      -4.517   8.267  -5.638  1.00  0.00    -0.271 N 
ATOM      7  C   UNL     1      -2.210   7.830  -6.144  1.00  0.00     0.090 A 
ATOM      8  C   UNL     1      -3.564   7.667  -6.417  1.00  0.00     0.099 A 
ATOM      9  C   UNL     1      -1.840   8.625  -5.065  1.00  0.00     0.253 A 
ATOM     10  N   UNL     1      -2.795   9.227  -4.311  1.00  0.00    -0.274 N 
ATOM     11  O   UNL     1      -0.621   8.791  -4.793  1.00  0.00    -0.269 OA
ATOM     12  C   UNL     1      -4.120   9.064  -4.587  1.00  0.00     0.330 A 
ATOM     13  H   UNL     1      -2.508   9.830  -3.506  1.00  0.00     0.175 HD
ATOM     14  O   UNL     1      -4.968   9.659  -3.868  1.00  0.00    -0.248 OA
ENDBRANCH   1   6
BRANCH   2  15
ATOM     15  O   UNL     1      -5.734   6.011  -4.701  1.00  0.00    -0.386 OA
ATOM     16  H   UNL     1      -5.580   6.123  -3.727  1.00  0.00     0.211 HD
ENDBRANCH   2  15
BRANCH   3  17
ATOM     17  O   UNL     1      -8.956   6.976  -5.652  1.00  0.00    -0.387 OA
ATOM     18  H   UNL     1      -9.622   6.582  -6.275  1.00  0.00     0.211 HD
ENDBRANCH   3  17
BRANCH   4  19
ATOM     19  C   UNL     1      -7.208   5.853  -8.463  1.00  0.00     0.191 C 
BRANCH  19  20
ATOM     20  O   UNL     1      -7.951   4.740  -8.047  1.00  0.00    -0.394 OA
ATOM     21  H   UNL     1      -8.832   4.813  -8.499  1.00  0.00     0.210 HD
ENDBRANCH  19  20
ENDBRANCH   4  19
TORSDOF 5
ENDMDL
MODEL 3
REMARK VINA RESULT:    -4.534      1.962      5.507
REMARK INTER + INTRA:          -5.737
REMARK INTER:                  -5.532
REMARK INTRA:                  -0.206
REMARK UNBOUND:                -0.276
REMARK SMILES O=c1ccn([C@H]2O[C@@H](CO)[C@H](O)[C@H]2O)c(=O)[nH]1
REMARK SMILES IDX 6 1 13 2 11 3 8 4 7 5 5 6 3 7 4 8 2 9 17 10 1 11 15 12 16 14
REMARK SMILES IDX 14 15 12 17 9 19 10 20
REMARK H PARENT 17 13 14 16 12 18 10 21
REMARK Flexibility Score: inf
ROOT
ATOM      1  C   UNL     1      -6.497   5.992  -6.283  1.00  0.00     0.255 C 
ATOM      2  C   UNL     1      -6.872   6.130  -7.758  1.00  0.00     0.196 C 
ATOM      3  C   UNL     1      -8.335   5.721  -7.779  1.00  0.00     0.179 C 
ATOM      4  C   UNL     1      -8.739   5.732  -6.291  1.00  0.00     0.178 C 
ATOM      5  O   UNL     1      -7.657   6.201  -5.516  1.00  0.00    -0.347 OA
ENDROOT
BRANCH   1   6
ATOM      6  N   UNL     1      -5.400   6.909  -5.895  1.00  0.00    -0.271 N 
ATOM      7  C   UNL     1      -4.750   8.923  -4.759  1.00  0.00     0.090 A 
ATOM      8  C   UNL     1      -5.729   8.027  -5.177  1.00  0.00     0.099 A 
ATOM      9  C   UNL     1      -3.424   8.655  -5.078  1.00  0.00     0.253 A 
ATOM     10  N   UNL     1      -3.111   7.534  -5.778  1.00  0.00    -0.274 N 
ATOM     11  O   UNL     1      -2.515   9.448  -4.714  1.00  0.00    -0.269 OA
ATOM     12  C   UNL     1      -4.076   6.661  -6.180  1.00  0.00     0.330 A 
ATOM     13  H   UNL     1      -2.109   7.336  -6.006  1.00  0.00     0.175 HD
ATOM     14  O   UNL     1      -3.732   5.624  -6.812  1.00  0.00    -0.248 OA
ENDBRANCH   1   6
BRANCH   2  15
ATOM     15  O   UNL     1      -6.695   7.442  -8.238  1.00  0.00    -0.386 OA
ATOM     16  H   UNL     1      -5.852   7.802  -7.858  1.00  0.00     0.211 HD
ENDBRANCH   2  15
BRANCH   3  17
ATOM     17  O   UNL     1      -8.461   4.428  -8.313  1.00  0.00    -0.387 OA
ATOM     18  H   UNL     1      -7.992   4.439  -9.188  1.00  0.00     0.211 HD
ENDBRANCH   3  17
BRANCH   4  19
ATOM     19  C   UNL     1      -9.975   6.598  -6.030  1.00  0.00     0.191 C 
BRANCH  19  20
ATOM     20  O   UNL     1      -9.808   7.349  -4.859  1.00  0.00    -0.394 OA
ATOM     21  H   UNL     1      -9.430   8.222  -5.143  1.00  0.00     0.210 HD
ENDBRANCH  19  20
ENDBRANCH   4  19
TORSDOF 5
ENDMDL
MODEL 4
REMARK VINA RESULT:    -4.390      1.584      2.855
REMARK INTER + INTRA:          -5.565
REMARK INTER:                  -5.461
REMARK INTRA:                  -0.104
REMARK UNBOUND:                -0.276
REMARK SMILES O=c1ccn([C@H]2O[C@@H](CO)[C@H](O)[C@H]2O)c(=O)[nH]1
REMARK SMILES IDX 6 1 13 2 11 3 8 4 7 5 5 6 3 7 4 8 2 9 17 10 1 11 15 12 16 14
REMARK SMILES IDX 14 15 12 17 9 19 10 20
REMARK H PARENT 17 13 14 16 12 18 10 21
REMARK Flexibility Score: inf
ROOT
ATOM      1  C   UNL     1      -3.747   7.577  -5.450  1.00  0.00     0.255 C 
ATOM      2  C   UNL     1      -3.735   8.799  -4.533  1.00  0.00     0.196 C 
ATOM      3  C   UNL     1      -2.253   9.087  -4.364  1.00  0.00     0.179 C 
ATOM      4  C   UNL     1      -1.588   8.236  -5.464  1.00  0.00     0.178 C 
ATOM      5  O   UNL     1      -2.587   7.616  -6.245  1.00  0.00    -0.347 OA
ENDROOT
BRANCH   1   6
ATOM      6  N   UNL     1      -4.980   7.500  -6.266  1.00  0.00    -0.271 N 
ATOM      7  C   UNL     1      -6.078   8.044  -8.332  1.00  0.00     0.090 A 
ATOM      8  C   UNL     1      -4.964   8.094  -7.500  1.00  0.00     0.099 A 
ATOM      9  C   UNL     1      -7.210   7.369  -7.889  1.00  0.00     0.253 A 
ATOM     10  N   UNL     1      -7.205   6.771  -6.669  1.00  0.00    -0.274 N 
ATOM     11  O   UNL     1      -8.234   7.308  -8.620  1.00  0.00    -0.269 OA
ATOM     12  C   UNL     1      -6.108   6.823  -5.862  1.00  0.00     0.330 A 
ATOM     13  H   UNL     1      -8.058   6.258  -6.347  1.00  0.00     0.175 HD
ATOM     14  O   UNL     1      -6.148   6.236  -4.746  1.00  0.00    -0.248 OA
ENDBRANCH   1   6
BRANCH   2  15
ATOM     15  O   UNL     1      -4.414   9.899  -5.093  1.00  0.00    -0.386 OA
ATOM     16  H   UNL     1      -4.475   9.761  -6.074  1.00  0.00     0.211 HD
ENDBRANCH   2  15
BRANCH   3  17
ATOM     17  O   UNL     1      -1.826   8.667  -3.093  1.00  0.00    -0.387 OA
ATOM     18  H   UNL     1      -0.833   8.673  -3.114  1.00  0.00     0.211 HD
ENDBRANCH   3  17
BRANCH   4  19
ATOM     19  C   UNL     1      -0.668   9.065  -6.367  1.00  0.00     0.191 C 
BRANCH  19  20
ATOM     20  O   UNL     1       0.364   8.267  -6.879  1.00  0.00    -0.394 OA
ATOM     21  H   UNL     1       0.184   7.345  -6.558  1.00  0.00     0.210 HD
ENDBRANCH  19  20
ENDBRANCH   4  19
TORSDOF 5
ENDMDL
MODEL 5
REMARK VINA RESULT:    -4.337      1.732      2.189
REMARK INTER + INTRA:          -5.500
REMARK INTER:                  -5.655
REMARK INTRA:                   0.154
REMARK UNBOUND:                -0.276
REMARK SMILES O=c1ccn([C@H]2O[C@@H](CO)[C@H](O)[C@H]2O)c(=O)[nH]1
REMARK SMILES IDX 6 1 13 2 11 3 8 4 7 5 5 6 3 7 4 8 2 9 17 10 1 11 15 12 16 14
REMARK SMILES IDX 14 15 12 17 9 19 10 20
REMARK H PARENT 17 13 14 16 12 18 10 21
REMARK Flexibility Score: inf
ROOT
ATOM      1  C   UNL     1      -4.817   7.723  -6.707  1.00  0.00     0.255 C 
ATOM      2  C   UNL     1      -3.570   6.839  -6.692  1.00  0.00     0.196 C 
ATOM      3  C   UNL     1      -2.544   7.706  -5.984  1.00  0.00     0.179 C 
ATOM      4  C   UNL     1      -3.387   8.836  -5.361  1.00  0.00     0.178 C 
ATOM      5  O   UNL     1      -4.755   8.583  -5.595  1.00  0.00    -0.347 OA
ENDROOT
BRANCH   1   6
ATOM      6  N   UNL     1      -6.067   6.930  -6.730  1.00  0.00    -0.271 N 
ATOM      7  C   UNL     1      -7.834   5.972  -8.043  1.00  0.00     0.090 A 
ATOM      8  C   UNL     1      -6.669   6.725  -7.942  1.00  0.00     0.099 A 
ATOM      9  C   UNL     1      -8.374   5.421  -6.887  1.00  0.00     0.253 A 
ATOM     10  N   UNL     1      -7.757   5.620  -5.693  1.00  0.00    -0.274 N 
ATOM     11  O   UNL     1      -9.428   4.735  -6.947  1.00  0.00    -0.269 OA
ATOM     12  C   UNL     1      -6.614   6.357  -5.603  1.00  0.00     0.330 A 
ATOM     13  H   UNL     1      -8.164   5.195  -4.829  1.00  0.00     0.175 HD
ATOM     14  O   UNL     1      -6.069   6.497  -4.475  1.00  0.00    -0.248 OA
ENDBRANCH   1   6
BRANCH   2  15
ATOM     15  O   UNL     1      -3.780   5.624  -6.011  1.00  0.00    -0.386 OA
ATOM     16  H   UNL     1      -4.620   5.702  -5.488  1.00  0.00     0.211 HD
ENDBRANCH   2  15
BRANCH   3  17
ATOM     17  O   UNL     1      -1.634   8.229  -6.918  1.00  0.00    -0.387 OA
ATOM     18  H   UNL     1      -1.718   9.217  -6.869  1.00  0.00     0.211 HD
ENDBRANCH   3  17
BRANCH   4  19
ATOM     19  C   UNL     1      -3.140   8.985  -3.856  1.00  0.00     0.191 C 
BRANCH  19  20
ATOM     20  O   UNL     1      -1.805   8.693  -3.548  1.00  0.00    -0.394 OA
ATOM     21  H   UNL     1      -1.257   9.136  -4.247  1.00  0.00     0.210 HD
ENDBRANCH  19  20
ENDBRANCH   4  19
TORSDOF 5
ENDMDL
MODEL 6
REMARK VINA RESULT:    -4.298      1.796      5.401
REMARK INTER + INTRA:          -5.453
REMARK INTER:                  -5.198
REMARK INTRA:                  -0.254
REMARK UNBOUND:                -0.276
REMARK SMILES O=c1ccn([C@H]2O[C@@H](CO)[C@H](O)[C@H]2O)c(=O)[nH]1
REMARK SMILES IDX 6 1 13 2 11 3 8 4 7 5 5 6 3 7 4 8 2 9 17 10 1 11 15 12 16 14
REMARK SMILES IDX 14 15 12 17 9 19 10 20
REMARK H PARENT 17 13 14 16 12 18 10 21
REMARK Flexibility Score: inf
ROOT
ATOM      1  C   UNL     1      -6.465   7.417  -5.752  1.00  0.00     0.255 C 
ATOM      2  C   UNL     1      -6.865   7.938  -7.132  1.00  0.00     0.196 C 
ATOM      3  C   UNL     1      -8.370   7.732  -7.154  1.00  0.00     0.179 C 
ATOM      4  C   UNL     1      -8.721   7.450  -5.679  1.00  0.00     0.178 C 
ATOM      5  O   UNL     1      -7.562   7.587  -4.887  1.00  0.00    -0.347 OA
ENDROOT
BRANCH   1   6
ATOM      6  N   UNL     1      -5.242   8.075  -5.237  1.00  0.00    -0.271 N 
ATOM      7  C   UNL     1      -4.296   9.777  -3.831  1.00  0.00     0.090 A 
ATOM      8  C   UNL     1      -5.400   9.124  -4.372  1.00  0.00     0.099 A 
ATOM      9  C   UNL     1      -3.025   9.335  -4.179  1.00  0.00     0.253 A 
ATOM     10  N   UNL     1      -2.885   8.282  -5.026  1.00  0.00    -0.274 N 
ATOM     11  O   UNL     1      -2.008   9.906  -3.706  1.00  0.00    -0.269 OA
ATOM     12  C   UNL     1      -3.971   7.647  -5.550  1.00  0.00     0.330 A 
ATOM     13  H   UNL     1      -1.925   7.951  -5.276  1.00  0.00     0.175 HD
ATOM     14  O   UNL     1      -3.788   6.663  -6.317  1.00  0.00    -0.248 OA
ENDBRANCH   1   6
BRANCH   2  15
ATOM     15  O   UNL     1      -6.526   9.293  -7.315  1.00  0.00    -0.386 OA
ATOM     16  H   UNL     1      -5.922   9.360  -8.100  1.00  0.00     0.211 HD
ENDBRANCH   2  15
BRANCH   3  17
ATOM     17  O   UNL     1      -8.689   6.623  -7.956  1.00  0.00    -0.387 OA
ATOM     18  H   UNL     1      -7.847   6.354  -8.410  1.00  0.00     0.211 HD
ENDBRANCH   3  17
BRANCH   4  19
ATOM     19  C   UNL     1      -9.819   8.380  -5.154  1.00  0.00     0.191 C 
BRANCH  19  20
ATOM     20  O   UNL     1      -9.703   9.650  -5.735  1.00  0.00    -0.394 OA
ATOM     21  H   UNL     1      -8.914   9.608  -6.335  1.00  0.00     0.210 HD
ENDBRANCH  19  20
ENDBRANCH   4  19
TORSDOF 5
ENDMDL
MODEL 7
REMARK VINA RESULT:    -4.288      1.939      5.330
REMARK INTER + INTRA:          -5.442
REMARK INTER:                  -5.300
REMARK INTRA:                  -0.142
REMARK UNBOUND:                -0.276
REMARK SMILES O=c1ccn([C@H]2O[C@@H](CO)[C@H](O)[C@H]2O)c(=O)[nH]1
REMARK SMILES IDX 6 1 13 2 11 3 8 4 7 5 5 6 3 7 4 8 2 9 17 10 1 11 15 12 16 14
REMARK SMILES IDX 14 15 12 17 9 19 10 20
REMARK H PARENT 17 13 14 16 12 18 10 21
REMARK Flexibility Score: inf
ROOT
ATOM      1  C   UNL     1      -5.223   8.782  -5.468  1.00  0.00     0.255 C 
ATOM      2  C   UNL     1      -5.982   7.570  -4.928  1.00  0.00     0.196 C 
ATOM      3  C   UNL     1      -7.302   7.630  -5.677  1.00  0.00     0.179 C 
ATOM      4  C   UNL     1      -7.035   8.643  -6.808  1.00  0.00     0.178 C 
ATOM      5  O   UNL     1      -5.679   9.036  -6.775  1.00  0.00    -0.347 OA
ENDROOT
BRANCH   1   6
ATOM      6  N   UNL     1      -3.755   8.593  -5.418  1.00  0.00    -0.271 N 
ATOM      7  C   UNL     1      -1.720   8.859  -4.170  1.00  0.00     0.090 A 
ATOM      8  C   UNL     1      -3.096   9.023  -4.298  1.00  0.00     0.099 A 
ATOM      9  C   UNL     1      -1.025   8.240  -5.203  1.00  0.00     0.253 A 
ATOM     10  N   UNL     1      -1.695   7.804  -6.301  1.00  0.00    -0.274 N 
ATOM     11  O   UNL     1       0.221   8.079  -5.116  1.00  0.00    -0.269 OA
ATOM     12  C   UNL     1      -3.043   7.966  -6.416  1.00  0.00     0.330 A 
ATOM     13  H   UNL     1      -1.166   7.331  -7.069  1.00  0.00     0.175 HD
ATOM     14  O   UNL     1      -3.621   7.528  -7.448  1.00  0.00    -0.248 OA
ENDBRANCH   1   6
BRANCH   2  15
ATOM     15  O   UNL     1      -5.304   6.359  -5.171  1.00  0.00    -0.386 OA
ATOM     16  H   UNL     1      -5.505   5.735  -4.426  1.00  0.00     0.211 HD
ENDBRANCH   2  15
BRANCH   3  17
ATOM     17  O   UNL     1      -8.313   8.101  -4.824  1.00  0.00    -0.387 OA
ATOM     18  H   UNL     1      -8.605   7.324  -4.278  1.00  0.00     0.211 HD
ENDBRANCH   3  17
BRANCH   4  19
ATOM     19  C   UNL     1      -7.374   8.076  -8.190  1.00  0.00     0.191 C 
BRANCH  19  20
ATOM     20  O   UNL     1      -6.370   7.198  -8.618  1.00  0.00    -0.394 OA
ATOM     21  H   UNL     1      -6.335   7.280  -9.607  1.00  0.00     0.210 HD
ENDBRANCH  19  20
ENDBRANCH   4  19
TORSDOF 5
ENDMDL
MODEL 8
REMARK VINA RESULT:    -4.133      2.616      5.855
REMARK INTER + INTRA:          -5.255
REMARK INTER:                  -5.226
REMARK INTRA:                  -0.029
REMARK UNBOUND:                -0.276
REMARK SMILES O=c1ccn([C@H]2O[C@@H](CO)[C@H](O)[C@H]2O)c(=O)[nH]1
REMARK SMILES IDX 6 1 13 2 11 3 8 4 7 5 5 6 3 7 4 8 2 9 17 10 1 11 15 12 16 14
REMARK SMILES IDX 14 15 12 17 9 19 10 20
REMARK H PARENT 17 13 14 16 12 18 10 21
REMARK Flexibility Score: inf
ROOT
ATOM      1  C   UNL     1      -3.037   8.147  -5.792  1.00  0.00     0.255 C 
ATOM      2  C   UNL     1      -3.584   6.806  -6.280  1.00  0.00     0.196 C 
ATOM      3  C   UNL     1      -5.069   6.912  -5.979  1.00  0.00     0.179 C 
ATOM      4  C   UNL     1      -5.276   8.410  -5.682  1.00  0.00     0.178 C 
ATOM      5  O   UNL     1      -4.065   9.102  -5.897  1.00  0.00    -0.347 OA
ENDROOT
BRANCH   1   6
ATOM      6  N   UNL     1      -1.819   8.558  -6.527  1.00  0.00    -0.271 N 
ATOM      7  C   UNL     1      -0.886   9.576  -8.492  1.00  0.00     0.090 A 
ATOM      8  C   UNL     1      -1.983   9.145  -7.753  1.00  0.00     0.099 A 
ATOM      9  C   UNL     1       0.386   9.407  -7.956  1.00  0.00     0.253 A 
ATOM     10  N   UNL     1       0.532   8.838  -6.732  1.00  0.00    -0.274 N 
ATOM     11  O   UNL     1       1.398   9.787  -8.602  1.00  0.00    -0.269 OA
ATOM     12  C   UNL     1      -0.549   8.421  -6.013  1.00  0.00     0.330 A 
ATOM     13  H   UNL     1       1.491   8.722  -6.332  1.00  0.00     0.175 HD
ATOM     14  O   UNL     1      -0.362   7.914  -4.873  1.00  0.00    -0.248 OA
ENDBRANCH   1   6
BRANCH   2  15
ATOM     15  O   UNL     1      -3.347   6.596  -7.653  1.00  0.00    -0.386 OA
ATOM     16  H   UNL     1      -2.975   5.683  -7.769  1.00  0.00     0.211 HD
ENDBRANCH   2  15
BRANCH   3  17
ATOM     17  O   UNL     1      -5.383   6.138  -4.850  1.00  0.00    -0.387 OA
ATOM     18  H   UNL     1      -5.553   6.779  -4.110  1.00  0.00     0.211 HD
ENDBRANCH   3  17
BRANCH   4  19
ATOM     19  C   UNL     1      -6.383   9.027  -6.544  1.00  0.00     0.191 C 
BRANCH  19  20
ATOM     20  O   UNL     1      -6.334   8.510  -7.846  1.00  0.00    -0.394 OA
ATOM     21  H   UNL     1      -6.434   7.527  -7.756  1.00  0.00     0.210 HD
ENDBRANCH  19  20
ENDBRANCH   4  19
TORSDOF 5
ENDMDL
MODEL 9
REMARK VINA RESULT:    -4.075      1.351      2.439
REMARK INTER + INTRA:          -5.185
REMARK INTER:                  -5.121
REMARK INTRA:                  -0.064
REMARK UNBOUND:                -0.276
REMARK SMILES O=c1ccn([C@H]2O[C@@H](CO)[C@H](O)[C@H]2O)c(=O)[nH]1
REMARK SMILES IDX 6 1 13 2 11 3 8 4 7 5 5 6 3 7 4 8 2 9 17 10 1 11 15 12 16 14
REMARK SMILES IDX 14 15 12 17 9 19 10 20
REMARK H PARENT 17 13 14 16 12 18 10 21
REMARK Flexibility Score: inf
ROOT
ATOM      1  C   UNL     1      -3.848   7.470  -5.285  1.00  0.00     0.255 C 
ATOM      2  C   UNL     1      -3.774   8.817  -4.567  1.00  0.00     0.196 C 
ATOM      3  C   UNL     1      -2.299   9.170  -4.653  1.00  0.00     0.179 C 
ATOM      4  C   UNL     1      -1.747   8.182  -5.700  1.00  0.00     0.178 C 
ATOM      5  O   UNL     1      -2.810   7.423  -6.233  1.00  0.00    -0.347 OA
ENDROOT
BRANCH   1   6
ATOM      6  N   UNL     1      -5.175   7.234  -5.900  1.00  0.00    -0.271 N 
ATOM      7  C   UNL     1      -7.377   6.303  -5.670  1.00  0.00     0.090 A 
ATOM      8  C   UNL     1      -6.102   6.544  -5.167  1.00  0.00     0.099 A 
ATOM      9  C   UNL     1      -7.696   6.787  -6.934  1.00  0.00     0.253 A 
ATOM     10  N   UNL     1      -6.770   7.484  -7.643  1.00  0.00    -0.274 N 
ATOM     11  O   UNL     1      -8.841   6.584  -7.416  1.00  0.00    -0.269 OA
ATOM     12  C   UNL     1      -5.525   7.717  -7.141  1.00  0.00     0.330 A 
ATOM     13  H   UNL     1      -7.021   7.852  -8.590  1.00  0.00     0.175 HD
ATOM     14  O   UNL     1      -4.707   8.385  -7.831  1.00  0.00    -0.248 OA
ENDBRANCH   1   6
BRANCH   2  15
ATOM     15  O   UNL     1      -4.577   9.799  -5.180  1.00  0.00    -0.386 OA
ATOM     16  H   UNL     1      -4.537  10.623  -4.628  1.00  0.00     0.211 HD
ENDBRANCH   2  15
BRANCH   3  17
ATOM     17  O   UNL     1      -1.684   8.960  -3.407  1.00  0.00    -0.387 OA
ATOM     18  H   UNL     1      -2.376   9.146  -2.719  1.00  0.00     0.211 HD
ENDBRANCH   3  17
BRANCH   4  19
ATOM     19  C   UNL     1      -1.000   8.893  -6.834  1.00  0.00     0.191 C 
BRANCH  19  20
ATOM     20  O   UNL     1      -1.576   8.576  -8.072  1.00  0.00    -0.394 OA
ATOM     21  H   UNL     1      -1.231   7.677  -8.314  1.00  0.00     0.210 HD
ENDBRANCH  19  20
ENDBRANCH   4  19
TORSDOF 5
ENDMDL
