MODEL 1
REMARK VINA RESULT:    -3.428      0.000      0.000
REMARK INTER + INTRA:         -11.253
REMARK INTER:                  -7.436
REMARK INTRA:                  -3.817
REMARK UNBOUND:                -3.817
REMARK SMILES CCCCCCCCCCCCCCCCCCCCCC(=O)[O-]
REMARK SMILES IDX 12 1 11 2 10 3 9 4 8 5 7 6 6 7 5 8 4 9 3 10 2 11 1 12 13 13
REMARK SMILES IDX 14 14 15 15 16 16 17 17 18 18 19 19 20 20 21 21 22 22 23 23
REMARK SMILES IDX 24 24
REMARK H PARENT
REMARK Flexibility Score: inf
ROOT
ATOM      1  C   UNL     1      -2.332   6.840  39.290  1.00  0.00     0.000 C 
ENDROOT
BRANCH   1   2
ATOM      2  C   UNL     1      -2.227   8.340  39.620  1.00  0.00     0.000 C 
BRANCH   2   3
ATOM      3  C   UNL     1      -1.637   9.212  38.496  1.00  0.00     0.000 C 
BRANCH   3   4
ATOM      4  C   UNL     1      -1.181   8.447  37.236  1.00  0.00    -0.000 C 
BRANCH   4   5
ATOM      5  C   UNL     1       0.255   8.750  36.757  1.00  0.00    -0.000 C 
BRANCH   5   6
ATOM      6  C   UNL     1       1.302   7.673  37.125  1.00  0.00    -0.000 C 
BRANCH   6   7
ATOM      7  C   UNL     1       2.072   7.957  38.430  1.00  0.00    -0.000 C 
BRANCH   7   8
ATOM      8  C   UNL     1       2.168   9.442  38.834  1.00  0.00    -0.000 C 
BRANCH   8   9
ATOM      9  C   UNL     1       1.462   9.791  40.159  1.00  0.00    -0.000 C 
BRANCH   9  10
ATOM     10  C   UNL     1       1.171   8.556  41.042  1.00  0.00    -0.000 C 
BRANCH  10  11
ATOM     11  C   UNL     1       0.779   8.920  42.483  1.00  0.00    -0.003 C 
ATOM     12  C   UNL     1      -0.493   8.210  42.943  1.00  0.00     0.004 C 
ENDBRANCH  10  11
ENDBRANCH   9  10
ENDBRANCH   8   9
ENDBRANCH   7   8
ENDBRANCH   6   7
ENDBRANCH   5   6
ENDBRANCH   4   5
ENDBRANCH   3   4
ENDBRANCH   2   3
ENDBRANCH   1   2
BRANCH   1  13
ATOM     13  C   UNL     1      -1.227   6.006  39.956  1.00  0.00     0.000 C 
BRANCH  13  14
ATOM     14  C   UNL     1      -0.529   5.100  38.934  1.00  0.00     0.000 C 
BRANCH  14  15
ATOM     15  C   UNL     1      -1.487   4.713  37.798  1.00  0.00     0.000 C 
BRANCH  15  16
ATOM     16  C   UNL     1      -0.845   4.823  36.405  1.00  0.00     0.000 C 
BRANCH  16  17
ATOM     17  C   UNL     1      -0.693   3.469  35.680  1.00  0.00     0.000 C 
BRANCH  17  18
ATOM     18  C   UNL     1       0.773   3.165  35.324  1.00  0.00     0.000 C 
BRANCH  18  19
ATOM     19  C   UNL     1       1.758   4.148  35.974  1.00  0.00     0.000 C 
BRANCH  19  20
ATOM     20  C   UNL     1       2.919   4.528  35.042  1.00  0.00     0.006 C 
BRANCH  20  21
ATOM     21  C   UNL     1       2.532   5.700  34.135  1.00  0.00     0.053 C 
BRANCH  21  22
ATOM     22  C   UNL     1       2.082   5.201  32.798  1.00  0.00     0.041 C 
ATOM     23  O   UNL     1       1.091   5.726  32.227  1.00  0.00    -0.550 OA
ATOM     24  O   UNL     1       2.732   4.129  32.202  1.00  0.00    -0.550 OA
ENDBRANCH  21  22
ENDBRANCH  20  21
ENDBRANCH  19  20
ENDBRANCH  18  19
ENDBRANCH  17  18
ENDBRANCH  16  17
ENDBRANCH  15  16
ENDBRANCH  14  15
ENDBRANCH  13  14
ENDBRANCH   1  13
TORSDOF 20
ENDMDL
MODEL 2
REMARK VINA RESULT:    -3.397      3.236      5.861
REMARK INTER + INTRA:         -11.186
REMARK INTER:                  -6.921
REMARK INTRA:                  -4.264
REMARK UNBOUND:                -3.817
REMARK SMILES CCCCCCCCCCCCCCCCCCCCCC(=O)[O-]
REMARK SMILES IDX 12 1 11 2 10 3 9 4 8 5 7 6 6 7 5 8 4 9 3 10 2 11 1 12 13 13
REMARK SMILES IDX 14 14 15 15 16 16 17 17 18 18 19 19 20 20 21 21 22 22 23 23
REMARK SMILES IDX 24 24
REMARK H PARENT
REMARK Flexibility Score: inf
ROOT
ATOM      1  C   UNL     1      -1.549   7.717  38.909  1.00  0.00     0.000 C 
ENDROOT
BRANCH   1   2
ATOM      2  C   UNL     1      -1.884   9.197  38.650  1.00  0.00     0.000 C 
BRANCH   2   3
ATOM      3  C   UNL     1      -0.662  10.123  38.505  1.00  0.00     0.000 C 
BRANCH   3   4
ATOM      4  C   UNL     1       0.569   9.731  39.348  1.00  0.00    -0.000 C 
BRANCH   4   5
ATOM      5  C   UNL     1       1.847   9.405  38.546  1.00  0.00    -0.000 C 
BRANCH   5   6
ATOM      6  C   UNL     1       2.505   8.050  38.896  1.00  0.00    -0.000 C 
BRANCH   6   7
ATOM      7  C   UNL     1       2.443   7.005  37.765  1.00  0.00    -0.000 C 
BRANCH   7   8
ATOM      8  C   UNL     1       1.596   7.402  36.540  1.00  0.00    -0.000 C 
BRANCH   8   9
ATOM      9  C   UNL     1       0.461   6.415  36.200  1.00  0.00    -0.000 C 
BRANCH   9  10
ATOM     10  C   UNL     1       0.746   4.970  36.669  1.00  0.00    -0.000 C 
BRANCH  10  11
ATOM     11  C   UNL     1      -0.461   4.032  36.509  1.00  0.00    -0.003 C 
ATOM     12  C   UNL     1      -1.793   4.742  36.742  1.00  0.00     0.004 C 
ENDBRANCH  10  11
ENDBRANCH   9  10
ENDBRANCH   8   9
ENDBRANCH   7   8
ENDBRANCH   6   7
ENDBRANCH   5   6
ENDBRANCH   4   5
ENDBRANCH   3   4
ENDBRANCH   2   3
ENDBRANCH   1   2
BRANCH   1  13
ATOM     13  C   UNL     1      -2.549   7.039  39.859  1.00  0.00     0.000 C 
BRANCH  13  14
ATOM     14  C   UNL     1      -2.680   7.823  41.171  1.00  0.00     0.000 C 
BRANCH  14  15
ATOM     15  C   UNL     1      -1.781   7.224  42.261  1.00  0.00     0.000 C 
BRANCH  15  16
ATOM     16  C   UNL     1      -0.542   8.085  42.559  1.00  0.00     0.000 C 
BRANCH  16  17
ATOM     17  C   UNL     1       0.793   7.405  42.187  1.00  0.00     0.000 C 
BRANCH  17  18
ATOM     18  C   UNL     1       0.657   5.875  42.101  1.00  0.00     0.000 C 
BRANCH  18  19
ATOM     19  C   UNL     1       0.970   5.329  40.700  1.00  0.00     0.000 C 
BRANCH  19  20
ATOM     20  C   UNL     1      -0.157   4.447  40.141  1.00  0.00     0.006 C 
BRANCH  20  21
ATOM     21  C   UNL     1      -0.708   3.512  41.221  1.00  0.00     0.053 C 
BRANCH  21  22
ATOM     22  C   UNL     1       0.047   2.221  41.232  1.00  0.00     0.041 C 
ATOM     23  O   UNL     1       0.728   1.876  40.231  1.00  0.00    -0.550 OA
ATOM     24  O   UNL     1      -0.034   1.378  42.332  1.00  0.00    -0.550 OA
ENDBRANCH  21  22
ENDBRANCH  20  21
ENDBRANCH  19  20
ENDBRANCH  18  19
ENDBRANCH  17  18
ENDBRANCH  16  17
ENDBRANCH  15  16
ENDBRANCH  14  15
ENDBRANCH  13  14
ENDBRANCH   1  13
TORSDOF 20
ENDMDL
MODEL 3
REMARK VINA RESULT:    -3.366      1.571      2.699
REMARK INTER + INTRA:         -11.118
REMARK INTER:                  -6.952
REMARK INTRA:                  -4.166
REMARK UNBOUND:                -3.817
REMARK SMILES CCCCCCCCCCCCCCCCCCCCCC(=O)[O-]
REMARK SMILES IDX 12 1 11 2 10 3 9 4 8 5 7 6 6 7 5 8 4 9 3 10 2 11 1 12 13 13
REMARK SMILES IDX 14 14 15 15 16 16 17 17 18 18 19 19 20 20 21 21 22 22 23 23
REMARK SMILES IDX 24 24
REMARK H PARENT
REMARK Flexibility Score: inf
ROOT
ATOM      1  C   UNL     1      -0.040   3.874  39.002  1.00  0.00     0.000 C 
ENDROOT
BRANCH   1   2
ATOM      2  C   UNL     1       1.293   4.563  39.346  1.00  0.00     0.000 C 
BRANCH   2   3
ATOM      3  C   UNL     1       1.170   6.038  39.771  1.00  0.00     0.000 C 
BRANCH   3   4
ATOM      4  C   UNL     1       1.891   7.051  38.858  1.00  0.00    -0.000 C 
BRANCH   4   5
ATOM      5  C   UNL     1       2.021   6.636  37.376  1.00  0.00    -0.000 C 
BRANCH   5   6
ATOM      6  C   UNL     1       1.189   7.487  36.389  1.00  0.00    -0.000 C 
BRANCH   6   7
ATOM      7  C   UNL     1       0.563   8.751  37.012  1.00  0.00    -0.000 C 
BRANCH   7   8
ATOM      8  C   UNL     1      -0.949   8.928  36.774  1.00  0.00    -0.000 C 
BRANCH   8   9
ATOM      9  C   UNL     1      -1.729   9.466  37.991  1.00  0.00    -0.000 C 
BRANCH   9  10
ATOM     10  C   UNL     1      -1.376   8.746  39.312  1.00  0.00    -0.000 C 
BRANCH  10  11
ATOM     11  C   UNL     1      -2.550   7.950  39.902  1.00  0.00    -0.003 C 
ATOM     12  C   UNL     1      -2.270   7.448  41.316  1.00  0.00     0.004 C 
ENDBRANCH  10  11
ENDBRANCH   9  10
ENDBRANCH   8   9
ENDBRANCH   7   8
ENDBRANCH   6   7
ENDBRANCH   5   6
ENDBRANCH   4   5
ENDBRANCH   3   4
ENDBRANCH   2   3
ENDBRANCH   1   2
BRANCH   1  13
ATOM     13  C   UNL     1      -1.205   4.867  38.868  1.00  0.00     0.000 C 
BRANCH  13  14
ATOM     14  C   UNL     1      -1.446   5.236  37.398  1.00  0.00     0.000 C 
BRANCH  14  15
ATOM     15  C   UNL     1      -1.332   4.000  36.495  1.00  0.00     0.000 C 
BRANCH  15  16
ATOM     16  C   UNL     1      -0.317   4.181  35.354  1.00  0.00     0.000 C 
BRANCH  16  17
ATOM     17  C   UNL     1       0.461   2.896  35.003  1.00  0.00     0.000 C 
BRANCH  17  18
ATOM     18  C   UNL     1       1.524   2.556  36.062  1.00  0.00     0.000 C 
BRANCH  18  19
ATOM     19  C   UNL     1       2.813   3.374  35.895  1.00  0.00     0.000 C 
BRANCH  19  20
ATOM     20  C   UNL     1       3.222   3.544  34.424  1.00  0.00     0.006 C 
BRANCH  20  21
ATOM     21  C   UNL     1       3.525   5.011  34.106  1.00  0.00     0.053 C 
BRANCH  21  22
ATOM     22  C   UNL     1       2.486   5.573  33.189  1.00  0.00     0.041 C 
ATOM     23  O   UNL     1       2.235   6.807  33.195  1.00  0.00    -0.550 OA
ATOM     24  O   UNL     1       1.763   4.729  32.357  1.00  0.00    -0.550 OA
ENDBRANCH  21  22
ENDBRANCH  20  21
ENDBRANCH  19  20
ENDBRANCH  18  19
ENDBRANCH  17  18
ENDBRANCH  16  17
ENDBRANCH  15  16
ENDBRANCH  14  15
ENDBRANCH  13  14
ENDBRANCH   1  13
TORSDOF 20
ENDMDL
MODEL 4
REMARK VINA RESULT:    -3.321      2.428      5.040
REMARK INTER + INTRA:         -11.021
REMARK INTER:                  -7.164
REMARK INTRA:                  -3.857
REMARK UNBOUND:                -3.817
REMARK SMILES CCCCCCCCCCCCCCCCCCCCCC(=O)[O-]
REMARK SMILES IDX 12 1 11 2 10 3 9 4 8 5 7 6 6 7 5 8 4 9 3 10 2 11 1 12 13 13
REMARK SMILES IDX 14 14 15 15 16 16 17 17 18 18 19 19 20 20 21 21 22 22 23 23
REMARK SMILES IDX 24 24
REMARK H PARENT
REMARK Flexibility Score: inf
ROOT
ATOM      1  C   UNL     1       0.117   8.331  40.426  1.00  0.00     0.000 C 
ENDROOT
BRANCH   1   2
ATOM      2  C   UNL     1      -0.805   9.206  39.558  1.00  0.00     0.000 C 
BRANCH   2   3
ATOM      3  C   UNL     1      -2.154   8.561  39.190  1.00  0.00     0.000 C 
BRANCH   3   4
ATOM      4  C   UNL     1      -2.625   7.431  40.128  1.00  0.00    -0.000 C 
BRANCH   4   5
ATOM      5  C   UNL     1      -2.919   6.078  39.444  1.00  0.00    -0.000 C 
BRANCH   5   6
ATOM      6  C   UNL     1      -2.658   4.835  40.326  1.00  0.00    -0.000 C 
BRANCH   6   7
ATOM      7  C   UNL     1      -1.278   4.183  40.109  1.00  0.00    -0.000 C 
BRANCH   7   8
ATOM      8  C   UNL     1      -0.141   4.725  40.997  1.00  0.00    -0.000 C 
BRANCH   8   9
ATOM      9  C   UNL     1       1.258   4.176  40.652  1.00  0.00    -0.000 C 
BRANCH   9  10
ATOM     10  C   UNL     1       1.223   2.995  39.654  1.00  0.00    -0.000 C 
BRANCH  10  11
ATOM     11  C   UNL     1       1.725   1.675  40.260  1.00  0.00    -0.003 C 
ATOM     12  C   UNL     1       0.595   0.829  40.844  1.00  0.00     0.004 C 
ENDBRANCH  10  11
ENDBRANCH   9  10
ENDBRANCH   8   9
ENDBRANCH   7   8
ENDBRANCH   6   7
ENDBRANCH   5   6
ENDBRANCH   4   5
ENDBRANCH   3   4
ENDBRANCH   2   3
ENDBRANCH   1   2
BRANCH   1  13
ATOM     13  C   UNL     1       1.605   8.527  40.098  1.00  0.00     0.000 C 
BRANCH  13  14
ATOM     14  C   UNL     1       1.830   9.833  39.326  1.00  0.00     0.000 C 
BRANCH  14  15
ATOM     15  C   UNL     1       2.701   9.594  38.084  1.00  0.00     0.000 C 
BRANCH  15  16
ATOM     16  C   UNL     1       2.060  10.124  36.790  1.00  0.00     0.000 C 
BRANCH  16  17
ATOM     17  C   UNL     1       0.766   9.387  36.388  1.00  0.00     0.000 C 
BRANCH  17  18
ATOM     18  C   UNL     1       1.031   7.918  36.014  1.00  0.00     0.000 C 
BRANCH  18  19
ATOM     19  C   UNL     1       0.224   6.931  36.872  1.00  0.00     0.000 C 
BRANCH  19  20
ATOM     20  C   UNL     1       1.033   5.685  37.261  1.00  0.00     0.006 C 
BRANCH  20  21
ATOM     21  C   UNL     1       2.469   6.059  37.640  1.00  0.00     0.053 C 
BRANCH  21  22
ATOM     22  C   UNL     1       3.446   5.198  36.905  1.00  0.00     0.041 C 
ATOM     23  O   UNL     1       3.464   5.191  35.646  1.00  0.00    -0.550 OA
ATOM     24  O   UNL     1       4.311   4.371  37.609  1.00  0.00    -0.550 OA
ENDBRANCH  21  22
ENDBRANCH  20  21
ENDBRANCH  19  20
ENDBRANCH  18  19
ENDBRANCH  17  18
ENDBRANCH  16  17
ENDBRANCH  15  16
ENDBRANCH  14  15
ENDBRANCH  13  14
ENDBRANCH   1  13
TORSDOF 20
ENDMDL
MODEL 5
REMARK VINA RESULT:    -3.298      1.470      4.389
REMARK INTER + INTRA:         -10.970
REMARK INTER:                  -7.232
REMARK INTRA:                  -3.738
REMARK UNBOUND:                -3.817
REMARK SMILES CCCCCCCCCCCCCCCCCCCCCC(=O)[O-]
REMARK SMILES IDX 12 1 11 2 10 3 9 4 8 5 7 6 6 7 5 8 4 9 3 10 2 11 1 12 13 13
REMARK SMILES IDX 14 14 15 15 16 16 17 17 18 18 19 19 20 20 21 21 22 22 23 23
REMARK SMILES IDX 24 24
REMARK H PARENT
REMARK Flexibility Score: inf
ROOT
ATOM      1  C   UNL     1      -1.749   9.406  38.809  1.00  0.00     0.000 C 
ENDROOT
BRANCH   1   2
ATOM      2  C   UNL     1      -1.783   7.878  38.629  1.00  0.00     0.000 C 
BRANCH   2   3
ATOM      3  C   UNL     1      -2.577   7.115  39.707  1.00  0.00     0.000 C 
BRANCH   3   4
ATOM      4  C   UNL     1      -2.595   7.771  41.103  1.00  0.00    -0.000 C 
BRANCH   4   5
ATOM      5  C   UNL     1      -1.615   7.169  42.133  1.00  0.00    -0.000 C 
BRANCH   5   6
ATOM      6  C   UNL     1      -0.190   7.769  42.100  1.00  0.00    -0.000 C 
BRANCH   6   7
ATOM      7  C   UNL     1       0.809   6.982  41.229  1.00  0.00    -0.000 C 
BRANCH   7   8
ATOM      8  C   UNL     1       0.701   5.447  41.318  1.00  0.00    -0.000 C 
BRANCH   8   9
ATOM      9  C   UNL     1       1.360   4.690  40.148  1.00  0.00    -0.000 C 
BRANCH   9  10
ATOM     10  C   UNL     1       0.458   3.588  39.547  1.00  0.00    -0.000 C 
BRANCH  10  11
ATOM     11  C   UNL     1      -0.936   4.095  39.148  1.00  0.00    -0.003 C 
ATOM     12  C   UNL     1      -1.063   4.350  37.648  1.00  0.00     0.004 C 
ENDBRANCH  10  11
ENDBRANCH   9  10
ENDBRANCH   8   9
ENDBRANCH   7   8
ENDBRANCH   6   7
ENDBRANCH   5   6
ENDBRANCH   4   5
ENDBRANCH   3   4
ENDBRANCH   2   3
ENDBRANCH   1   2
BRANCH   1  13
ATOM     13  C   UNL     1      -1.041  10.125  37.650  1.00  0.00     0.000 C 
BRANCH  13  14
ATOM     14  C   UNL     1      -0.878   9.194  36.442  1.00  0.00     0.000 C 
BRANCH  14  15
ATOM     15  C   UNL     1       0.600   9.053  36.051  1.00  0.00     0.000 C 
BRANCH  15  16
ATOM     16  C   UNL     1       1.554   9.720  37.056  1.00  0.00     0.000 C 
BRANCH  16  17
ATOM     17  C   UNL     1       2.349   8.719  37.919  1.00  0.00     0.000 C 
BRANCH  17  18
ATOM     18  C   UNL     1       1.829   7.279  37.761  1.00  0.00     0.000 C 
BRANCH  18  19
ATOM     19  C   UNL     1       2.882   6.328  37.173  1.00  0.00     0.000 C 
BRANCH  19  20
ATOM     20  C   UNL     1       2.258   5.142  36.422  1.00  0.00     0.006 C 
BRANCH  20  21
ATOM     21  C   UNL     1       1.547   5.612  35.149  1.00  0.00     0.053 C 
BRANCH  21  22
ATOM     22  C   UNL     1       2.525   5.752  34.026  1.00  0.00     0.041 C 
ATOM     23  O   UNL     1       3.543   5.014  33.975  1.00  0.00    -0.550 OA
ATOM     24  O   UNL     1       2.334   6.727  33.056  1.00  0.00    -0.550 OA
ENDBRANCH  21  22
ENDBRANCH  20  21
ENDBRANCH  19  20
ENDBRANCH  18  19
ENDBRANCH  17  18
ENDBRANCH  16  17
ENDBRANCH  15  16
ENDBRANCH  14  15
ENDBRANCH  13  14
ENDBRANCH   1  13
TORSDOF 20
ENDMDL
MODEL 6
REMARK VINA RESULT:    -3.291      1.853      4.751
REMARK INTER + INTRA:         -10.955
REMARK INTER:                  -8.129
REMARK INTRA:                  -2.827
REMARK UNBOUND:                -3.817
REMARK SMILES CCCCCCCCCCCCCCCCCCCCCC(=O)[O-]
REMARK SMILES IDX 12 1 11 2 10 3 9 4 8 5 7 6 6 7 5 8 4 9 3 10 2 11 1 12 13 13
REMARK SMILES IDX 14 14 15 15 16 16 17 17 18 18 19 19 20 20 21 21 22 22 23 23
REMARK SMILES IDX 24 24
REMARK H PARENT
REMARK Flexibility Score: inf
ROOT
ATOM      1  C   UNL     1       2.447   9.109  38.513  1.00  0.00     0.000 C 
ENDROOT
BRANCH   1   2
ATOM      2  C   UNL     1       1.611   9.717  39.654  1.00  0.00     0.000 C 
BRANCH   2   3
ATOM      3  C   UNL     1       0.274   9.004  39.930  1.00  0.00     0.000 C 
BRANCH   3   4
ATOM      4  C   UNL     1      -0.916   9.474  39.068  1.00  0.00    -0.000 C 
BRANCH   4   5
ATOM      5  C   UNL     1      -2.145   8.540  39.066  1.00  0.00    -0.000 C 
BRANCH   5   6
ATOM      6  C   UNL     1      -2.429   7.838  40.414  1.00  0.00    -0.000 C 
BRANCH   6   7
ATOM      7  C   UNL     1      -2.201   6.313  40.396  1.00  0.00    -0.000 C 
BRANCH   7   8
ATOM      8  C   UNL     1      -2.561   5.606  39.075  1.00  0.00    -0.000 C 
BRANCH   8   9
ATOM      9  C   UNL     1      -1.394   4.838  38.421  1.00  0.00    -0.000 C 
BRANCH   9  10
ATOM     10  C   UNL     1      -0.533   5.714  37.483  1.00  0.00    -0.000 C 
BRANCH  10  11
ATOM     11  C   UNL     1       0.922   5.860  37.954  1.00  0.00    -0.003 C 
ATOM     12  C   UNL     1       1.143   5.304  39.359  1.00  0.00     0.004 C 
ENDBRANCH  10  11
ENDBRANCH   9  10
ENDBRANCH   8   9
ENDBRANCH   7   8
ENDBRANCH   6   7
ENDBRANCH   5   6
ENDBRANCH   4   5
ENDBRANCH   3   4
ENDBRANCH   2   3
ENDBRANCH   1   2
BRANCH   1  13
ATOM     13  C   UNL     1       2.258   9.846  37.179  1.00  0.00     0.000 C 
BRANCH  13  14
ATOM     14  C   UNL     1       1.361   9.042  36.228  1.00  0.00     0.000 C 
BRANCH  14  15
ATOM     15  C   UNL     1       0.864   9.918  35.069  1.00  0.00     0.000 C 
BRANCH  15  16
ATOM     16  C   UNL     1       1.505   9.552  33.720  1.00  0.00     0.000 C 
BRANCH  16  17
ATOM     17  C   UNL     1       1.498   8.039  33.417  1.00  0.00     0.000 C 
BRANCH  17  18
ATOM     18  C   UNL     1       1.794   7.745  31.936  1.00  0.00     0.000 C 
BRANCH  18  19
ATOM     19  C   UNL     1       1.722   6.248  31.601  1.00  0.00     0.000 C 
BRANCH  19  20
ATOM     20  C   UNL     1       1.881   5.354  32.840  1.00  0.00     0.006 C 
BRANCH  20  21
ATOM     21  C   UNL     1       0.784   4.287  32.889  1.00  0.00     0.053 C 
BRANCH  21  22
ATOM     22  C   UNL     1       0.566   3.823  34.295  1.00  0.00     0.041 C 
ATOM     23  O   UNL     1       1.550   3.590  35.045  1.00  0.00    -0.550 OA
ATOM     24  O   UNL     1      -0.723   3.608  34.764  1.00  0.00    -0.550 OA
ENDBRANCH  21  22
ENDBRANCH  20  21
ENDBRANCH  19  20
ENDBRANCH  18  19
ENDBRANCH  17  18
ENDBRANCH  16  17
ENDBRANCH  15  16
ENDBRANCH  14  15
ENDBRANCH  13  14
ENDBRANCH   1  13
TORSDOF 20
ENDMDL
MODEL 7
REMARK VINA RESULT:    -3.285      2.675      3.176
REMARK INTER + INTRA:         -10.944
REMARK INTER:                  -7.114
REMARK INTRA:                  -3.829
REMARK UNBOUND:                -3.817
REMARK SMILES CCCCCCCCCCCCCCCCCCCCCC(=O)[O-]
REMARK SMILES IDX 12 1 11 2 10 3 9 4 8 5 7 6 6 7 5 8 4 9 3 10 2 11 1 12 13 13
REMARK SMILES IDX 14 14 15 15 16 16 17 17 18 18 19 19 20 20 21 21 22 22 23 23
REMARK SMILES IDX 24 24
REMARK H PARENT
REMARK Flexibility Score: inf
ROOT
ATOM      1  C   UNL     1      -2.226   6.932  39.039  1.00  0.00     0.000 C 
ENDROOT
BRANCH   1   2
ATOM      2  C   UNL     1      -2.037   8.406  39.440  1.00  0.00     0.000 C 
BRANCH   2   3
ATOM      3  C   UNL     1      -1.827   9.377  38.263  1.00  0.00     0.000 C 
BRANCH   3   4
ATOM      4  C   UNL     1      -1.111   8.782  37.034  1.00  0.00    -0.000 C 
BRANCH   4   5
ATOM      5  C   UNL     1       0.309   9.324  36.764  1.00  0.00    -0.000 C 
BRANCH   5   6
ATOM      6  C   UNL     1       1.452   8.320  37.045  1.00  0.00    -0.000 C 
BRANCH   6   7
ATOM      7  C   UNL     1       2.272   8.631  38.312  1.00  0.00    -0.000 C 
BRANCH   7   8
ATOM      8  C   UNL     1       2.026  10.018  38.938  1.00  0.00    -0.000 C 
BRANCH   8   9
ATOM      9  C   UNL     1       1.282   9.988  40.288  1.00  0.00    -0.000 C 
BRANCH   9  10
ATOM     10  C   UNL     1       1.276   8.593  40.954  1.00  0.00    -0.000 C 
BRANCH  10  11
ATOM     11  C   UNL     1       0.943   8.638  42.453  1.00  0.00    -0.003 C 
ATOM     12  C   UNL     1      -0.482   8.176  42.753  1.00  0.00     0.004 C 
ENDBRANCH  10  11
ENDBRANCH   9  10
ENDBRANCH   8   9
ENDBRANCH   7   8
ENDBRANCH   6   7
ENDBRANCH   5   6
ENDBRANCH   4   5
ENDBRANCH   3   4
ENDBRANCH   2   3
ENDBRANCH   1   2
BRANCH   1  13
ATOM     13  C   UNL     1      -1.324   5.979  39.838  1.00  0.00     0.000 C 
BRANCH  13  14
ATOM     14  C   UNL     1      -0.022   5.689  39.081  1.00  0.00     0.000 C 
BRANCH  14  15
ATOM     15  C   UNL     1      -0.220   4.564  38.056  1.00  0.00     0.000 C 
BRANCH  15  16
ATOM     16  C   UNL     1      -0.321   5.078  36.610  1.00  0.00     0.000 C 
BRANCH  16  17
ATOM     17  C   UNL     1       0.988   4.936  35.806  1.00  0.00     0.000 C 
BRANCH  17  18
ATOM     18  C   UNL     1       2.113   4.298  36.640  1.00  0.00     0.000 C 
BRANCH  18  19
ATOM     19  C   UNL     1       3.324   5.226  36.815  1.00  0.00     0.000 C 
BRANCH  19  20
ATOM     20  C   UNL     1       4.047   5.012  38.153  1.00  0.00     0.006 C 
BRANCH  20  21
ATOM     21  C   UNL     1       4.399   3.536  38.355  1.00  0.00     0.053 C 
BRANCH  21  22
ATOM     22  C   UNL     1       5.877   3.367  38.517  1.00  0.00     0.041 C 
ATOM     23  O   UNL     1       6.652   3.606  37.554  1.00  0.00    -0.550 OA
ATOM     24  O   UNL     1       6.396   2.904  39.719  1.00  0.00    -0.550 OA
ENDBRANCH  21  22
ENDBRANCH  20  21
ENDBRANCH  19  20
ENDBRANCH  18  19
ENDBRANCH  17  18
ENDBRANCH  16  17
ENDBRANCH  15  16
ENDBRANCH  14  15
ENDBRANCH  13  14
ENDBRANCH   1  13
TORSDOF 20
ENDMDL
MODEL 8
REMARK VINA RESULT:    -3.222      1.902      4.150
REMARK INTER + INTRA:         -10.807
REMARK INTER:                  -7.068
REMARK INTRA:                  -3.739
REMARK UNBOUND:                -3.817
REMARK SMILES CCCCCCCCCCCCCCCCCCCCCC(=O)[O-]
REMARK SMILES IDX 12 1 11 2 10 3 9 4 8 5 7 6 6 7 5 8 4 9 3 10 2 11 1 12 13 13
REMARK SMILES IDX 14 14 15 15 16 16 17 17 18 18 19 19 20 20 21 21 22 22 23 23
REMARK SMILES IDX 24 24
REMARK H PARENT
REMARK Flexibility Score: inf
ROOT
ATOM      1  C   UNL     1       1.997  10.124  36.754  1.00  0.00     0.000 C 
ENDROOT
BRANCH   1   2
ATOM      2  C   UNL     1       2.598   9.505  38.029  1.00  0.00     0.000 C 
BRANCH   2   3
ATOM      3  C   UNL     1       1.916   9.935  39.342  1.00  0.00     0.000 C 
BRANCH   3   4
ATOM      4  C   UNL     1       1.514   8.784  40.286  1.00  0.00    -0.000 C 
BRANCH   4   5
ATOM      5  C   UNL     1       0.002   8.653  40.569  1.00  0.00    -0.000 C 
BRANCH   5   6
ATOM      6  C   UNL     1      -0.915   9.051  39.389  1.00  0.00    -0.000 C 
BRANCH   6   7
ATOM      7  C   UNL     1      -2.237   8.260  39.319  1.00  0.00    -0.000 C 
BRANCH   7   8
ATOM      8  C   UNL     1      -2.628   7.507  40.606  1.00  0.00    -0.000 C 
BRANCH   8   9
ATOM      9  C   UNL     1      -2.532   5.972  40.503  1.00  0.00    -0.000 C 
BRANCH   9  10
ATOM     10  C   UNL     1      -2.211   5.287  41.851  1.00  0.00    -0.000 C 
BRANCH  10  11
ATOM     11  C   UNL     1      -0.871   4.536  41.847  1.00  0.00    -0.003 C 
ATOM     12  C   UNL     1       0.296   5.412  42.298  1.00  0.00     0.004 C 
ENDBRANCH  10  11
ENDBRANCH   9  10
ENDBRANCH   8   9
ENDBRANCH   7   8
ENDBRANCH   6   7
ENDBRANCH   5   6
ENDBRANCH   4   5
ENDBRANCH   3   4
ENDBRANCH   2   3
ENDBRANCH   1   2
BRANCH   1  13
ATOM     13  C   UNL     1       1.468   9.067  35.772  1.00  0.00     0.000 C 
BRANCH  13  14
ATOM     14  C   UNL     1       1.468   7.673  36.413  1.00  0.00     0.000 C 
BRANCH  14  15
ATOM     15  C   UNL     1       0.035   7.155  36.601  1.00  0.00     0.000 C 
BRANCH  15  16
ATOM     16  C   UNL     1      -0.018   5.707  37.119  1.00  0.00     0.000 C 
BRANCH  16  17
ATOM     17  C   UNL     1       0.415   5.557  38.592  1.00  0.00     0.000 C 
BRANCH  17  18
ATOM     18  C   UNL     1       1.250   4.285  38.822  1.00  0.00     0.000 C 
BRANCH  18  19
ATOM     19  C   UNL     1       2.740   4.584  39.042  1.00  0.00     0.000 C 
BRANCH  19  20
ATOM     20  C   UNL     1       3.626   4.065  37.899  1.00  0.00     0.006 C 
BRANCH  20  21
ATOM     21  C   UNL     1       3.807   5.134  36.818  1.00  0.00     0.053 C 
BRANCH  21  22
ATOM     22  C   UNL     1       3.653   4.533  35.456  1.00  0.00     0.041 C 
ATOM     23  O   UNL     1       4.558   3.799  34.981  1.00  0.00    -0.550 OA
ATOM     24  O   UNL     1       2.528   4.819  34.694  1.00  0.00    -0.550 OA
ENDBRANCH  21  22
ENDBRANCH  20  21
ENDBRANCH  19  20
ENDBRANCH  18  19
ENDBRANCH  17  18
ENDBRANCH  16  17
ENDBRANCH  15  16
ENDBRANCH  14  15
ENDBRANCH  13  14
ENDBRANCH   1  13
TORSDOF 20
ENDMDL
MODEL 9
REMARK VINA RESULT:    -3.221      3.373      6.356
REMARK INTER + INTRA:         -10.804
REMARK INTER:                  -7.349
REMARK INTRA:                  -3.455
REMARK UNBOUND:                -3.817
REMARK SMILES CCCCCCCCCCCCCCCCCCCCCC(=O)[O-]
REMARK SMILES IDX 12 1 11 2 10 3 9 4 8 5 7 6 6 7 5 8 4 9 3 10 2 11 1 12 13 13
REMARK SMILES IDX 14 14 15 15 16 16 17 17 18 18 19 19 20 20 21 21 22 22 23 23
REMARK SMILES IDX 24 24
REMARK H PARENT
REMARK Flexibility Score: inf
ROOT
ATOM      1  C   UNL     1      -1.497   7.738  38.860  1.00  0.00     0.000 C 
ENDROOT
BRANCH   1   2
ATOM      2  C   UNL     1      -1.767   9.224  38.562  1.00  0.00     0.000 C 
BRANCH   2   3
ATOM      3  C   UNL     1      -0.518  10.125  38.575  1.00  0.00     0.000 C 
BRANCH   3   4
ATOM      4  C   UNL     1       0.608   9.681  39.532  1.00  0.00    -0.000 C 
BRANCH   4   5
ATOM      5  C   UNL     1       1.962   9.360  38.862  1.00  0.00    -0.000 C 
BRANCH   5   6
ATOM      6  C   UNL     1       2.262   7.852  38.698  1.00  0.00    -0.000 C 
BRANCH   6   7
ATOM      7  C   UNL     1       2.200   7.348  37.242  1.00  0.00    -0.000 C 
BRANCH   7   8
ATOM      8  C   UNL     1       1.087   6.325  36.941  1.00  0.00    -0.000 C 
BRANCH   8   9
ATOM      9  C   UNL     1       1.507   5.182  35.996  1.00  0.00    -0.000 C 
BRANCH   9  10
ATOM     10  C   UNL     1       2.988   5.260  35.561  1.00  0.00    -0.000 C 
BRANCH  10  11
ATOM     11  C   UNL     1       3.244   4.662  34.169  1.00  0.00    -0.003 C 
ATOM     12  C   UNL     1       4.491   3.781  34.127  1.00  0.00     0.004 C 
ENDBRANCH  10  11
ENDBRANCH   9  10
ENDBRANCH   8   9
ENDBRANCH   7   8
ENDBRANCH   6   7
ENDBRANCH   5   6
ENDBRANCH   4   5
ENDBRANCH   3   4
ENDBRANCH   2   3
ENDBRANCH   1   2
BRANCH   1  13
ATOM     13  C   UNL     1      -2.551   7.118  39.791  1.00  0.00     0.000 C 
BRANCH  13  14
ATOM     14  C   UNL     1      -2.611   7.866  41.129  1.00  0.00     0.000 C 
BRANCH  14  15
ATOM     15  C   UNL     1      -1.811   7.125  42.210  1.00  0.00     0.000 C 
BRANCH  15  16
ATOM     16  C   UNL     1      -0.465   7.798  42.530  1.00  0.00     0.000 C 
BRANCH  16  17
ATOM     17  C   UNL     1       0.758   7.037  41.977  1.00  0.00     0.000 C 
BRANCH  17  18
ATOM     18  C   UNL     1       0.481   5.531  41.823  1.00  0.00     0.000 C 
BRANCH  18  19
ATOM     19  C   UNL     1       0.711   5.028  40.391  1.00  0.00     0.000 C 
BRANCH  19  20
ATOM     20  C   UNL     1      -0.460   4.185  39.863  1.00  0.00     0.006 C 
BRANCH  20  21
ATOM     21  C   UNL     1      -0.727   2.985  40.777  1.00  0.00     0.053 C 
BRANCH  21  22
ATOM     22  C   UNL     1      -2.169   2.938  41.171  1.00  0.00     0.041 C 
ATOM     23  O   UNL     1      -2.894   3.960  41.050  1.00  0.00    -0.550 OA
ATOM     24  O   UNL     1      -2.704   1.776  41.712  1.00  0.00    -0.550 OA
ENDBRANCH  21  22
ENDBRANCH  20  21
ENDBRANCH  19  20
ENDBRANCH  18  19
ENDBRANCH  17  18
ENDBRANCH  16  17
ENDBRANCH  15  16
ENDBRANCH  14  15
ENDBRANCH  13  14
ENDBRANCH   1  13
TORSDOF 20
ENDMDL
