MODEL 1
REMARK VINA RESULT:    -4.811      0.000      0.000
REMARK INTER + INTRA:         -10.764
REMARK INTER:                  -9.029
REMARK INTRA:                  -1.735
REMARK UNBOUND:                -1.735
REMARK SMILES O=C([O-])CCCCCCCCCCCCCCC(=O)[O-]
REMARK SMILES IDX 10 1 9 2 8 3 7 4 6 5 5 6 4 7 2 8 1 9 3 10 11 11 12 12 13 13
REMARK SMILES IDX 14 14 15 15 16 16 17 17 18 18 19 19 20 20
REMARK H PARENT
REMARK Flexibility Score: inf
ROOT
ATOM      1  C   UNL     1      85.713  77.402  73.381  1.00  0.00     0.000 C 
ENDROOT
BRANCH   1   2
ATOM      2  C   UNL     1      84.892  76.277  74.043  1.00  0.00     0.000 C 
BRANCH   2   3
ATOM      3  C   UNL     1      85.288  74.842  73.634  1.00  0.00     0.000 C 
BRANCH   3   4
ATOM      4  C   UNL     1      85.850  73.964  74.769  1.00  0.00     0.000 C 
BRANCH   4   5
ATOM      5  C   UNL     1      87.296  73.473  74.560  1.00  0.00     0.000 C 
BRANCH   5   6
ATOM      6  C   UNL     1      87.842  73.655  73.132  1.00  0.00     0.006 C 
BRANCH   6   7
ATOM      7  C   UNL     1      89.374  73.623  73.070  1.00  0.00     0.053 C 
BRANCH   7   8
ATOM      8  C   UNL     1      89.960  74.233  74.303  1.00  0.00     0.041 C 
ATOM      9  O   UNL     1      89.777  75.454  74.554  1.00  0.00    -0.550 OA
ATOM     10  O   UNL     1      90.667  73.445  75.202  1.00  0.00    -0.550 OA
ENDBRANCH   7   8
ENDBRANCH   6   7
ENDBRANCH   5   6
ENDBRANCH   4   5
ENDBRANCH   3   4
ENDBRANCH   2   3
ENDBRANCH   1   2
BRANCH   1  11
ATOM     11  C   UNL     1      87.186  77.039  73.084  1.00  0.00     0.000 C 
BRANCH  11  12
ATOM     12  C   UNL     1      87.590  77.235  71.611  1.00  0.00     0.000 C 
BRANCH  12  13
ATOM     13  C   UNL     1      87.014  76.189  70.637  1.00  0.00     0.000 C 
BRANCH  13  14
ATOM     14  C   UNL     1      87.806  76.009  69.326  1.00  0.00     0.000 C 
BRANCH  14  15
ATOM     15  C   UNL     1      88.610  74.700  69.222  1.00  0.00     0.000 C 
BRANCH  15  16
ATOM     16  C   UNL     1      90.069  74.859  69.674  1.00  0.00     0.006 C 
BRANCH  16  17
ATOM     17  C   UNL     1      90.629  76.220  69.249  1.00  0.00     0.053 C 
BRANCH  17  18
ATOM     18  C   UNL     1      91.219  76.934  70.423  1.00  0.00     0.041 C 
ATOM     19  O   UNL     1      90.617  76.939  71.529  1.00  0.00    -0.550 OA
ATOM     20  O   UNL     1      92.408  77.637  70.284  1.00  0.00    -0.550 OA
ENDBRANCH  17  18
ENDBRANCH  16  17
ENDBRANCH  15  16
ENDBRANCH  14  15
ENDBRANCH  13  14
ENDBRANCH  12  13
ENDBRANCH  11  12
ENDBRANCH   1  11
TORSDOF 15
ENDMDL
MODEL 2
REMARK VINA RESULT:    -4.370     14.034     15.796
REMARK INTER + INTRA:          -9.938
REMARK INTER:                  -8.805
REMARK INTRA:                  -1.133
REMARK UNBOUND:                -1.735
REMARK SMILES O=C([O-])CCCCCCCCCCCCCCC(=O)[O-]
REMARK SMILES IDX 10 1 9 2 8 3 7 4 6 5 5 6 4 7 2 8 1 9 3 10 11 11 12 12 13 13
REMARK SMILES IDX 14 14 15 15 16 16 17 17 18 18 19 19 20 20
REMARK H PARENT
REMARK Flexibility Score: inf
ROOT
ATOM      1  C   UNL     1      95.952  84.926  80.787  1.00  0.00     0.000 C 
ENDROOT
BRANCH   1   2
ATOM      2  C   UNL     1      94.626  85.092  80.016  1.00  0.00     0.000 C 
BRANCH   2   3
ATOM      3  C   UNL     1      94.018  83.788  79.458  1.00  0.00     0.000 C 
BRANCH   3   4
ATOM      4  C   UNL     1      93.447  82.822  80.515  1.00  0.00     0.000 C 
BRANCH   4   5
ATOM      5  C   UNL     1      92.255  83.370  81.324  1.00  0.00     0.000 C 
BRANCH   5   6
ATOM      6  C   UNL     1      90.997  83.682  80.494  1.00  0.00     0.006 C 
BRANCH   6   7
ATOM      7  C   UNL     1      90.778  85.185  80.282  1.00  0.00     0.053 C 
BRANCH   7   8
ATOM      8  C   UNL     1      90.355  85.459  78.874  1.00  0.00     0.041 C 
ATOM      9  O   UNL     1      91.202  85.834  78.020  1.00  0.00    -0.550 OA
ATOM     10  O   UNL     1      89.037  85.252  78.490  1.00  0.00    -0.550 OA
ENDBRANCH   7   8
ENDBRANCH   6   7
ENDBRANCH   5   6
ENDBRANCH   4   5
ENDBRANCH   3   4
ENDBRANCH   2   3
ENDBRANCH   1   2
BRANCH   1  11
ATOM     11  C   UNL     1      97.038  84.120  80.039  1.00  0.00     0.000 C 
BRANCH  11  12
ATOM     12  C   UNL     1      97.222  82.685  80.566  1.00  0.00     0.000 C 
BRANCH  12  13
ATOM     13  C   UNL     1      98.084  82.569  81.838  1.00  0.00     0.000 C 
BRANCH  13  14
ATOM     14  C   UNL     1      99.553  83.009  81.677  1.00  0.00     0.000 C 
BRANCH  14  15
ATOM     15  C   UNL     1      99.931  84.308  82.412  1.00  0.00     0.000 C 
BRANCH  15  16
ATOM     16  C   UNL     1     101.330  84.251  83.044  1.00  0.00     0.006 C 
BRANCH  16  17
ATOM     17  C   UNL     1     101.303  84.775  84.483  1.00  0.00     0.053 C 
BRANCH  17  18
ATOM     18  C   UNL     1     100.520  83.853  85.363  1.00  0.00     0.041 C 
ATOM     19  O   UNL     1     100.945  82.691  85.599  1.00  0.00    -0.550 OA
ATOM     20  O   UNL     1      99.297  84.257  85.880  1.00  0.00    -0.550 OA
ENDBRANCH  17  18
ENDBRANCH  16  17
ENDBRANCH  15  16
ENDBRANCH  14  15
ENDBRANCH  13  14
ENDBRANCH  12  13
ENDBRANCH  11  12
ENDBRANCH   1  11
TORSDOF 15
ENDMDL
MODEL 3
REMARK VINA RESULT:    -4.348     12.920     14.764
REMARK INTER + INTRA:          -9.896
REMARK INTER:                  -8.843
REMARK INTRA:                  -1.053
REMARK UNBOUND:                -1.735
REMARK SMILES O=C([O-])CCCCCCCCCCCCCCC(=O)[O-]
REMARK SMILES IDX 10 1 9 2 8 3 7 4 6 5 5 6 4 7 2 8 1 9 3 10 11 11 12 12 13 13
REMARK SMILES IDX 14 14 15 15 16 16 17 17 18 18 19 19 20 20
REMARK H PARENT
REMARK Flexibility Score: inf
ROOT
ATOM      1  C   UNL     1      94.794  85.361  80.495  1.00  0.00     0.000 C 
ENDROOT
BRANCH   1   2
ATOM      2  C   UNL     1      96.274  85.197  80.900  1.00  0.00     0.000 C 
BRANCH   2   3
ATOM      3  C   UNL     1      97.036  84.068  80.174  1.00  0.00     0.000 C 
BRANCH   3   4
ATOM      4  C   UNL     1      96.939  82.678  80.833  1.00  0.00     0.000 C 
BRANCH   4   5
ATOM      5  C   UNL     1      98.216  82.209  81.559  1.00  0.00     0.000 C 
BRANCH   5   6
ATOM      6  C   UNL     1      99.336  83.261  81.644  1.00  0.00     0.006 C 
BRANCH   6   7
ATOM      7  C   UNL     1      99.443  83.909  83.030  1.00  0.00     0.053 C 
BRANCH   7   8
ATOM      8  C   UNL     1     100.846  83.823  83.541  1.00  0.00     0.041 C 
ATOM      9  O   UNL     1     101.806  84.218  82.827  1.00  0.00    -0.550 OA
ATOM     10  O   UNL     1     101.092  83.354  84.825  1.00  0.00    -0.550 OA
ENDBRANCH   7   8
ENDBRANCH   6   7
ENDBRANCH   5   6
ENDBRANCH   4   5
ENDBRANCH   3   4
ENDBRANCH   2   3
ENDBRANCH   1   2
BRANCH   1  11
ATOM     11  C   UNL     1      94.411  84.684  79.159  1.00  0.00     0.000 C 
BRANCH  11  12
ATOM     12  C   UNL     1      93.459  83.484  79.320  1.00  0.00     0.000 C 
BRANCH  12  13
ATOM     13  C   UNL     1      93.202  83.054  80.777  1.00  0.00     0.000 C 
BRANCH  13  14
ATOM     14  C   UNL     1      91.852  83.512  81.367  1.00  0.00     0.000 C 
BRANCH  14  15
ATOM     15  C   UNL     1      90.695  83.607  80.356  1.00  0.00     0.000 C 
BRANCH  15  16
ATOM     16  C   UNL     1      89.344  83.189  80.954  1.00  0.00     0.006 C 
BRANCH  16  17
ATOM     17  C   UNL     1      88.432  82.587  79.881  1.00  0.00     0.053 C 
BRANCH  17  18
ATOM     18  C   UNL     1      87.308  81.829  80.512  1.00  0.00     0.041 C 
ATOM     19  O   UNL     1      87.480  80.642  80.893  1.00  0.00    -0.550 OA
ATOM     20  O   UNL     1      86.055  82.416  80.634  1.00  0.00    -0.550 OA
ENDBRANCH  17  18
ENDBRANCH  16  17
ENDBRANCH  15  16
ENDBRANCH  14  15
ENDBRANCH  13  14
ENDBRANCH  12  13
ENDBRANCH  11  12
ENDBRANCH   1  11
TORSDOF 15
ENDMDL
MODEL 4
REMARK VINA RESULT:    -4.229     13.282     15.022
REMARK INTER + INTRA:          -9.672
REMARK INTER:                  -8.876
REMARK INTRA:                  -0.796
REMARK UNBOUND:                -1.735
REMARK SMILES O=C([O-])CCCCCCCCCCCCCCC(=O)[O-]
REMARK SMILES IDX 10 1 9 2 8 3 7 4 6 5 5 6 4 7 2 8 1 9 3 10 11 11 12 12 13 13
REMARK SMILES IDX 14 14 15 15 16 16 17 17 18 18 19 19 20 20
REMARK H PARENT
REMARK Flexibility Score: inf
ROOT
ATOM      1  C   UNL     1      94.987  84.868  79.456  1.00  0.00     0.000 C 
ENDROOT
BRANCH   1   2
ATOM      2  C   UNL     1      94.222  83.530  79.383  1.00  0.00     0.000 C 
BRANCH   2   3
ATOM      3  C   UNL     1      93.353  83.198  80.614  1.00  0.00     0.000 C 
BRANCH   3   4
ATOM      4  C   UNL     1      91.912  83.742  80.569  1.00  0.00     0.000 C 
BRANCH   4   5
ATOM      5  C   UNL     1      90.961  83.161  81.634  1.00  0.00     0.000 C 
BRANCH   5   6
ATOM      6  C   UNL     1      89.466  83.232  81.277  1.00  0.00     0.006 C 
BRANCH   6   7
ATOM      7  C   UNL     1      89.215  83.282  79.765  1.00  0.00     0.053 C 
BRANCH   7   8
ATOM      8  C   UNL     1      87.977  82.520  79.414  1.00  0.00     0.041 C 
ATOM      9  O   UNL     1      87.758  81.394  79.934  1.00  0.00    -0.550 OA
ATOM     10  O   UNL     1      87.039  83.074  78.553  1.00  0.00    -0.550 OA
ENDBRANCH   7   8
ENDBRANCH   6   7
ENDBRANCH   5   6
ENDBRANCH   4   5
ENDBRANCH   3   4
ENDBRANCH   2   3
ENDBRANCH   1   2
BRANCH   1  11
ATOM     11  C   UNL     1      96.129  84.904  80.498  1.00  0.00     0.000 C 
BRANCH  11  12
ATOM     12  C   UNL     1      97.328  84.007  80.139  1.00  0.00     0.000 C 
BRANCH  12  13
ATOM     13  C   UNL     1      97.333  82.628  80.827  1.00  0.00     0.000 C 
BRANCH  13  14
ATOM     14  C   UNL     1      98.442  82.425  81.880  1.00  0.00     0.000 C 
BRANCH  14  15
ATOM     15  C   UNL     1      99.761  83.166  81.593  1.00  0.00     0.000 C 
BRANCH  15  16
ATOM     16  C   UNL     1     100.567  83.464  82.865  1.00  0.00     0.006 C 
BRANCH  16  17
ATOM     17  C   UNL     1      99.709  84.205  83.896  1.00  0.00     0.053 C 
BRANCH  17  18
ATOM     18  C   UNL     1     100.065  83.773  85.283  1.00  0.00     0.041 C 
ATOM     19  O   UNL     1     101.070  83.040  85.479  1.00  0.00    -0.550 OA
ATOM     20  O   UNL     1      99.260  84.136  86.353  1.00  0.00    -0.550 OA
ENDBRANCH  17  18
ENDBRANCH  16  17
ENDBRANCH  15  16
ENDBRANCH  14  15
ENDBRANCH  13  14
ENDBRANCH  12  13
ENDBRANCH  11  12
ENDBRANCH   1  11
TORSDOF 15
ENDMDL
MODEL 5
REMARK VINA RESULT:    -4.170     13.867     15.380
REMARK INTER + INTRA:          -9.563
REMARK INTER:                  -8.036
REMARK INTRA:                  -1.527
REMARK UNBOUND:                -1.735
REMARK SMILES O=C([O-])CCCCCCCCCCCCCCC(=O)[O-]
REMARK SMILES IDX 10 1 9 2 8 3 7 4 6 5 5 6 4 7 2 8 1 9 3 10 11 11 12 12 13 13
REMARK SMILES IDX 14 14 15 15 16 16 17 17 18 18 19 19 20 20
REMARK H PARENT
REMARK Flexibility Score: inf
ROOT
ATOM      1  C   UNL     1      96.115  85.861  79.713  1.00  0.00     0.000 C 
ENDROOT
BRANCH   1   2
ATOM      2  C   UNL     1      95.095  85.411  78.648  1.00  0.00     0.000 C 
BRANCH   2   3
ATOM      3  C   UNL     1      93.737  84.923  79.198  1.00  0.00     0.000 C 
BRANCH   3   4
ATOM      4  C   UNL     1      93.560  83.393  79.252  1.00  0.00     0.000 C 
BRANCH   4   5
ATOM      5  C   UNL     1      93.261  82.819  80.651  1.00  0.00     0.000 C 
BRANCH   5   6
ATOM      6  C   UNL     1      92.315  83.675  81.513  1.00  0.00     0.006 C 
BRANCH   6   7
ATOM      7  C   UNL     1      90.882  83.131  81.547  1.00  0.00     0.053 C 
BRANCH   7   8
ATOM      8  C   UNL     1      89.935  84.115  80.937  1.00  0.00     0.041 C 
ATOM      9  O   UNL     1      90.330  84.896  80.031  1.00  0.00    -0.550 OA
ATOM     10  O   UNL     1      88.603  84.137  81.332  1.00  0.00    -0.550 OA
ENDBRANCH   7   8
ENDBRANCH   6   7
ENDBRANCH   5   6
ENDBRANCH   4   5
ENDBRANCH   3   4
ENDBRANCH   2   3
ENDBRANCH   1   2
BRANCH   1  11
ATOM     11  C   UNL     1      95.681  85.604  81.175  1.00  0.00     0.000 C 
BRANCH  11  12
ATOM     12  C   UNL     1      96.466  84.474  81.867  1.00  0.00     0.000 C 
BRANCH  12  13
ATOM     13  C   UNL     1      96.938  83.346  80.931  1.00  0.00     0.000 C 
BRANCH  13  14
ATOM     14  C   UNL     1      98.000  82.399  81.528  1.00  0.00     0.000 C 
BRANCH  14  15
ATOM     15  C   UNL     1      99.442  82.939  81.511  1.00  0.00     0.000 C 
BRANCH  15  16
ATOM     16  C   UNL     1      99.901  83.459  82.881  1.00  0.00     0.006 C 
BRANCH  16  17
ATOM     17  C   UNL     1     101.359  83.926  82.828  1.00  0.00     0.053 C 
BRANCH  17  18
ATOM     18  C   UNL     1     101.429  85.418  82.766  1.00  0.00     0.041 C 
ATOM     19  O   UNL     1     100.502  86.117  83.253  1.00  0.00    -0.550 OA
ATOM     20  O   UNL     1     102.493  86.038  82.124  1.00  0.00    -0.550 OA
ENDBRANCH  17  18
ENDBRANCH  16  17
ENDBRANCH  15  16
ENDBRANCH  14  15
ENDBRANCH  13  14
ENDBRANCH  12  13
ENDBRANCH  11  12
ENDBRANCH   1  11
TORSDOF 15
ENDMDL
MODEL 6
REMARK VINA RESULT:    -4.147     15.645     17.691
REMARK INTER + INTRA:          -9.520
REMARK INTER:                  -7.293
REMARK INTRA:                  -2.227
REMARK UNBOUND:                -1.735
REMARK SMILES O=C([O-])CCCCCCCCCCCCCCC(=O)[O-]
REMARK SMILES IDX 10 1 9 2 8 3 7 4 6 5 5 6 4 7 2 8 1 9 3 10 11 11 12 12 13 13
REMARK SMILES IDX 14 14 15 15 16 16 17 17 18 18 19 19 20 20
REMARK H PARENT
REMARK Flexibility Score: inf
ROOT
ATOM      1  C   UNL     1     100.505  83.450  83.049  1.00  0.00     0.000 C 
ENDROOT
BRANCH   1   2
ATOM      2  C   UNL     1      99.904  82.848  81.763  1.00  0.00     0.000 C 
BRANCH   2   3
ATOM      3  C   UNL     1      98.403  82.496  81.836  1.00  0.00     0.000 C 
BRANCH   3   4
ATOM      4  C   UNL     1      97.578  82.864  80.587  1.00  0.00     0.000 C 
BRANCH   4   5
ATOM      5  C   UNL     1      97.700  84.332  80.133  1.00  0.00     0.000 C 
BRANCH   5   6
ATOM      6  C   UNL     1      96.419  85.169  80.296  1.00  0.00     0.006 C 
BRANCH   6   7
ATOM      7  C   UNL     1      95.384  84.896  79.198  1.00  0.00     0.053 C 
BRANCH   7   8
ATOM      8  C   UNL     1      94.131  84.330  79.789  1.00  0.00     0.041 C 
ATOM      9  O   UNL     1      94.156  83.787  80.925  1.00  0.00    -0.550 OA
ATOM     10  O   UNL     1      92.926  84.446  79.108  1.00  0.00    -0.550 OA
ENDBRANCH   7   8
ENDBRANCH   6   7
ENDBRANCH   5   6
ENDBRANCH   4   5
ENDBRANCH   3   4
ENDBRANCH   2   3
ENDBRANCH   1   2
BRANCH   1  11
ATOM     11  C   UNL     1     101.168  84.835  82.867  1.00  0.00     0.000 C 
BRANCH  11  12
ATOM     12  C   UNL     1     100.163  85.991  82.713  1.00  0.00     0.000 C 
BRANCH  12  13
ATOM     13  C   UNL     1      99.188  86.162  83.894  1.00  0.00     0.000 C 
BRANCH  13  14
ATOM     14  C   UNL     1      97.709  86.353  83.500  1.00  0.00     0.000 C 
BRANCH  14  15
ATOM     15  C   UNL     1      96.762  85.224  83.945  1.00  0.00     0.000 C 
BRANCH  15  16
ATOM     16  C   UNL     1      97.406  84.273  84.965  1.00  0.00     0.006 C 
BRANCH  16  17
ATOM     17  C   UNL     1      96.895  84.561  86.380  1.00  0.00     0.053 C 
BRANCH  17  18
ATOM     18  C   UNL     1      98.038  84.840  87.304  1.00  0.00     0.041 C 
ATOM     19  O   UNL     1      99.155  84.292  87.112  1.00  0.00    -0.550 OA
ATOM     20  O   UNL     1      97.856  85.665  88.405  1.00  0.00    -0.550 OA
ENDBRANCH  17  18
ENDBRANCH  16  17
ENDBRANCH  15  16
ENDBRANCH  14  15
ENDBRANCH  13  14
ENDBRANCH  12  13
ENDBRANCH  11  12
ENDBRANCH   1  11
TORSDOF 15
ENDMDL
MODEL 7
REMARK VINA RESULT:    -4.139     11.883     13.394
REMARK INTER + INTRA:          -9.504
REMARK INTER:                  -8.567
REMARK INTRA:                  -0.937
REMARK UNBOUND:                -1.735
REMARK SMILES O=C([O-])CCCCCCCCCCCCCCC(=O)[O-]
REMARK SMILES IDX 10 1 9 2 8 3 7 4 6 5 5 6 4 7 2 8 1 9 3 10 11 11 12 12 13 13
REMARK SMILES IDX 14 14 15 15 16 16 17 17 18 18 19 19 20 20
REMARK H PARENT
REMARK Flexibility Score: inf
ROOT
ATOM      1  C   UNL     1      91.886  83.924  79.368  1.00  0.00     0.000 C 
ENDROOT
BRANCH   1   2
ATOM      2  C   UNL     1      91.002  85.168  79.592  1.00  0.00     0.000 C 
BRANCH   2   3
ATOM      3  C   UNL     1      89.751  85.260  78.693  1.00  0.00     0.000 C 
BRANCH   3   4
ATOM      4  C   UNL     1      88.447  84.732  79.323  1.00  0.00     0.000 C 
BRANCH   4   5
ATOM      5  C   UNL     1      88.588  84.194  80.761  1.00  0.00     0.000 C 
BRANCH   5   6
ATOM      6  C   UNL     1      88.780  82.671  80.867  1.00  0.00     0.006 C 
BRANCH   6   7
ATOM      7  C   UNL     1      88.045  81.898  79.766  1.00  0.00     0.053 C 
BRANCH   7   8
ATOM      8  C   UNL     1      87.060  80.944  80.365  1.00  0.00     0.041 C 
ATOM      9  O   UNL     1      86.811  79.850  79.793  1.00  0.00    -0.550 OA
ATOM     10  O   UNL     1      86.455  81.240  81.579  1.00  0.00    -0.550 OA
ENDBRANCH   7   8
ENDBRANCH   6   7
ENDBRANCH   5   6
ENDBRANCH   4   5
ENDBRANCH   3   4
ENDBRANCH   2   3
ENDBRANCH   1   2
BRANCH   1  11
ATOM     11  C   UNL     1      92.628  83.422  80.627  1.00  0.00     0.000 C 
BRANCH  11  12
ATOM     12  C   UNL     1      94.082  82.990  80.362  1.00  0.00     0.000 C 
BRANCH  12  13
ATOM     13  C   UNL     1      95.153  83.975  80.867  1.00  0.00     0.000 C 
BRANCH  13  14
ATOM     14  C   UNL     1      96.131  84.488  79.790  1.00  0.00     0.000 C 
BRANCH  14  15
ATOM     15  C   UNL     1      97.589  84.654  80.256  1.00  0.00     0.000 C 
BRANCH  15  16
ATOM     16  C   UNL     1      98.303  83.312  80.474  1.00  0.00     0.006 C 
BRANCH  16  17
ATOM     17  C   UNL     1      98.419  82.991  81.967  1.00  0.00     0.053 C 
BRANCH  17  18
ATOM     18  C   UNL     1      99.831  83.157  82.431  1.00  0.00     0.041 C 
ATOM     19  O   UNL     1     100.071  83.609  83.581  1.00  0.00    -0.550 OA
ATOM     20  O   UNL     1     100.884  82.861  81.574  1.00  0.00    -0.550 OA
ENDBRANCH  17  18
ENDBRANCH  16  17
ENDBRANCH  15  16
ENDBRANCH  14  15
ENDBRANCH  13  14
ENDBRANCH  12  13
ENDBRANCH  11  12
ENDBRANCH   1  11
TORSDOF 15
ENDMDL
MODEL 8
REMARK VINA RESULT:    -4.079     15.680     17.224
REMARK INTER + INTRA:          -9.391
REMARK INTER:                  -7.040
REMARK INTRA:                  -2.351
REMARK UNBOUND:                -1.735
REMARK SMILES O=C([O-])CCCCCCCCCCCCCCC(=O)[O-]
REMARK SMILES IDX 10 1 9 2 8 3 7 4 6 5 5 6 4 7 2 8 1 9 3 10 11 11 12 12 13 13
REMARK SMILES IDX 14 14 15 15 16 16 17 17 18 18 19 19 20 20
REMARK H PARENT
REMARK Flexibility Score: inf
ROOT
ATOM      1  C   UNL     1      99.375  85.877  81.651  1.00  0.00     0.000 C 
ENDROOT
BRANCH   1   2
ATOM      2  C   UNL     1      98.647  87.138  82.161  1.00  0.00     0.000 C 
BRANCH   2   3
ATOM      3  C   UNL     1      97.811  86.944  83.445  1.00  0.00     0.000 C 
BRANCH   3   4
ATOM      4  C   UNL     1      96.707  85.874  83.356  1.00  0.00     0.000 C 
BRANCH   4   5
ATOM      5  C   UNL     1      96.321  85.222  84.699  1.00  0.00     0.000 C 
BRANCH   5   6
ATOM      6  C   UNL     1      97.339  84.203  85.241  1.00  0.00     0.006 C 
BRANCH   6   7
ATOM      7  C   UNL     1      97.974  84.640  86.566  1.00  0.00     0.053 C 
BRANCH   7   8
ATOM      8  C   UNL     1      99.463  84.694  86.440  1.00  0.00     0.041 C 
ATOM      9  O   UNL     1     100.137  83.630  86.433  1.00  0.00    -0.550 OA
ATOM     10  O   UNL     1     100.104  85.916  86.280  1.00  0.00    -0.550 OA
ENDBRANCH   7   8
ENDBRANCH   6   7
ENDBRANCH   5   6
ENDBRANCH   4   5
ENDBRANCH   3   4
ENDBRANCH   2   3
ENDBRANCH   1   2
BRANCH   1  11
ATOM     11  C   UNL     1     100.367  85.251  82.658  1.00  0.00     0.000 C 
BRANCH  11  12
ATOM     12  C   UNL     1     100.143  83.747  82.898  1.00  0.00     0.000 C 
BRANCH  12  13
ATOM     13  C   UNL     1      99.509  82.990  81.715  1.00  0.00     0.000 C 
BRANCH  13  14
ATOM     14  C   UNL     1      98.016  82.639  81.887  1.00  0.00     0.000 C 
BRANCH  14  15
ATOM     15  C   UNL     1      97.200  82.597  80.582  1.00  0.00     0.000 C 
BRANCH  15  16
ATOM     16  C   UNL     1      95.993  83.546  80.602  1.00  0.00     0.006 C 
BRANCH  16  17
ATOM     17  C   UNL     1      96.250  84.776  79.726  1.00  0.00     0.053 C 
BRANCH  17  18
ATOM     18  C   UNL     1      95.008  85.161  78.987  1.00  0.00     0.041 C 
ATOM     19  O   UNL     1      93.880  84.796  79.411  1.00  0.00    -0.550 OA
ATOM     20  O   UNL     1      95.098  85.881  77.803  1.00  0.00    -0.550 OA
ENDBRANCH  17  18
ENDBRANCH  16  17
ENDBRANCH  15  16
ENDBRANCH  14  15
ENDBRANCH  13  14
ENDBRANCH  12  13
ENDBRANCH  11  12
ENDBRANCH   1  11
TORSDOF 15
ENDMDL
MODEL 9
REMARK VINA RESULT:    -4.070     14.748     16.521
REMARK INTER + INTRA:          -9.375
REMARK INTER:                  -7.302
REMARK INTRA:                  -2.073
REMARK UNBOUND:                -1.735
REMARK SMILES O=C([O-])CCCCCCCCCCCCCCC(=O)[O-]
REMARK SMILES IDX 10 1 9 2 8 3 7 4 6 5 5 6 4 7 2 8 1 9 3 10 11 11 12 12 13 13
REMARK SMILES IDX 14 14 15 15 16 16 17 17 18 18 19 19 20 20
REMARK H PARENT
REMARK Flexibility Score: inf
ROOT
ATOM      1  C   UNL     1     100.479  82.993  81.998  1.00  0.00     0.000 C 
ENDROOT
BRANCH   1   2
ATOM      2  C   UNL     1      99.169  83.333  81.257  1.00  0.00     0.000 C 
BRANCH   2   3
ATOM      3  C   UNL     1      97.945  82.481  81.654  1.00  0.00     0.000 C 
BRANCH   3   4
ATOM      4  C   UNL     1      96.766  82.518  80.663  1.00  0.00     0.000 C 
BRANCH   4   5
ATOM      5  C   UNL     1      96.243  83.928  80.323  1.00  0.00     0.000 C 
BRANCH   5   6
ATOM      6  C   UNL     1      94.792  83.975  79.812  1.00  0.00     0.006 C 
BRANCH   6   7
ATOM      7  C   UNL     1      93.893  82.921  80.469  1.00  0.00     0.053 C 
BRANCH   7   8
ATOM      8  C   UNL     1      92.518  83.468  80.688  1.00  0.00     0.041 C 
ATOM      9  O   UNL     1      91.764  83.696  79.705  1.00  0.00    -0.550 OA
ATOM     10  O   UNL     1      92.050  83.679  81.978  1.00  0.00    -0.550 OA
ENDBRANCH   7   8
ENDBRANCH   6   7
ENDBRANCH   5   6
ENDBRANCH   4   5
ENDBRANCH   3   4
ENDBRANCH   2   3
ENDBRANCH   1   2
BRANCH   1  11
ATOM     11  C   UNL     1     101.076  84.155  82.823  1.00  0.00     0.000 C 
BRANCH  11  12
ATOM     12  C   UNL     1     100.381  84.378  84.178  1.00  0.00     0.000 C 
BRANCH  12  13
ATOM     13  C   UNL     1      99.623  85.714  84.305  1.00  0.00     0.000 C 
BRANCH  13  14
ATOM     14  C   UNL     1      98.099  85.627  84.082  1.00  0.00     0.000 C 
BRANCH  14  15
ATOM     15  C   UNL     1      97.591  86.270  82.779  1.00  0.00     0.000 C 
BRANCH  15  16
ATOM     16  C   UNL     1      98.701  86.982  81.993  1.00  0.00     0.006 C 
BRANCH  16  17
ATOM     17  C   UNL     1      98.421  86.936  80.487  1.00  0.00     0.053 C 
BRANCH  17  18
ATOM     18  C   UNL     1      97.274  87.830  80.139  1.00  0.00     0.041 C 
ATOM     19  O   UNL     1      96.267  87.365  79.543  1.00  0.00    -0.550 OA
ATOM     20  O   UNL     1      97.337  89.187  80.428  1.00  0.00    -0.550 OA
ENDBRANCH  17  18
ENDBRANCH  16  17
ENDBRANCH  15  16
ENDBRANCH  14  15
ENDBRANCH  13  14
ENDBRANCH  12  13
ENDBRANCH  11  12
ENDBRANCH   1  11
TORSDOF 15
ENDMDL
