MODEL 1
REMARK VINA RESULT:    -3.888      0.000      0.000
REMARK INTER + INTRA:          -5.327
REMARK INTER:                  -5.252
REMARK INTRA:                  -0.075
REMARK UNBOUND:                -0.075
REMARK SMILES CCCCCCCC=O
REMARK SMILES IDX 5 1 4 2 3 3 2 4 1 5 6 6 7 7 8 8 9 9
REMARK H PARENT
REMARK Flexibility Score: inf
ROOT
ATOM      1  C   UNL     1      25.758  58.233  -9.534  1.00  0.00     0.000 C 
ENDROOT
BRANCH   1   2
ATOM      2  C   UNL     1      25.558  56.778  -9.079  1.00  0.00     0.000 C 
BRANCH   2   3
ATOM      3  C   UNL     1      24.104  56.478  -8.680  1.00  0.00    -0.000 C 
BRANCH   3   4
ATOM      4  C   UNL     1      23.882  54.996  -8.336  1.00  0.00    -0.003 C 
ATOM      5  C   UNL     1      22.723  54.780  -7.364  1.00  0.00     0.004 C 
ENDBRANCH   3   4
ENDBRANCH   2   3
ENDBRANCH   1   2
BRANCH   1   6
ATOM      6  C   UNL     1      26.950  58.396 -10.495  1.00  0.00     0.008 C 
BRANCH   6   7
ATOM      7  C   UNL     1      27.557  59.804 -10.425  1.00  0.00     0.072 C 
BRANCH   7   8
ATOM      8  C   UNL     1      29.031  59.807 -10.709  1.00  0.00     0.224 C 
ATOM      9  O   UNL     1      29.501  58.996 -11.491  1.00  0.00    -0.303 OA
ENDBRANCH   7   8
ENDBRANCH   6   7
ENDBRANCH   1   6
TORSDOF 6
ENDMDL
MODEL 2
REMARK VINA RESULT:    -3.884      3.320      6.374
REMARK INTER + INTRA:          -5.322
REMARK INTER:                  -5.246
REMARK INTRA:                  -0.076
REMARK UNBOUND:                -0.075
REMARK SMILES CCCCCCCC=O
REMARK SMILES IDX 5 1 4 2 3 3 2 4 1 5 6 6 7 7 8 8 9 9
REMARK H PARENT
REMARK Flexibility Score: inf
ROOT
ATOM      1  C   UNL     1      25.479  56.624  -9.164  1.00  0.00     0.000 C 
ENDROOT
BRANCH   1   2
ATOM      2  C   UNL     1      25.718  58.117  -9.440  1.00  0.00     0.000 C 
BRANCH   2   3
ATOM      3  C   UNL     1      26.864  58.358 -10.437  1.00  0.00    -0.000 C 
BRANCH   3   4
ATOM      4  C   UNL     1      27.402  59.797 -10.379  1.00  0.00    -0.003 C 
ATOM      5  C   UNL     1      28.914  59.856 -10.162  1.00  0.00     0.004 C 
ENDBRANCH   3   4
ENDBRANCH   2   3
ENDBRANCH   1   2
BRANCH   1   6
ATOM      6  C   UNL     1      24.045  56.331  -8.684  1.00  0.00     0.008 C 
BRANCH   6   7
ATOM      7  C   UNL     1      23.957  55.011  -7.906  1.00  0.00     0.072 C 
BRANCH   7   8
ATOM      8  C   UNL     1      22.587  54.769  -7.341  1.00  0.00     0.224 C 
ATOM      9  O   UNL     1      22.459  54.449  -6.171  1.00  0.00    -0.303 OA
ENDBRANCH   7   8
ENDBRANCH   6   7
ENDBRANCH   1   6
TORSDOF 6
ENDMDL
MODEL 3
REMARK VINA RESULT:    -3.730      2.923      6.079
REMARK INTER + INTRA:          -5.113
REMARK INTER:                  -4.996
REMARK INTRA:                  -0.117
REMARK UNBOUND:                -0.075
REMARK SMILES CCCCCCCC=O
REMARK SMILES IDX 5 1 4 2 3 3 2 4 1 5 6 6 7 7 8 8 9 9
REMARK H PARENT
REMARK Flexibility Score: inf
ROOT
ATOM      1  C   UNL     1      25.837  58.286  -9.529  1.00  0.00     0.000 C 
ENDROOT
BRANCH   1   2
ATOM      2  C   UNL     1      27.018  58.511 -10.486  1.00  0.00     0.000 C 
BRANCH   2   3
ATOM      3  C   UNL     1      27.516  59.967 -10.479  1.00  0.00    -0.000 C 
BRANCH   3   4
ATOM      4  C   UNL     1      29.029  60.072 -10.728  1.00  0.00    -0.003 C 
ATOM      5  C   UNL     1      29.563  58.952 -11.620  1.00  0.00     0.004 C 
ENDBRANCH   3   4
ENDBRANCH   2   3
ENDBRANCH   1   2
BRANCH   1   6
ATOM      6  C   UNL     1      25.569  56.794  -9.258  1.00  0.00     0.008 C 
BRANCH   6   7
ATOM      7  C   UNL     1      24.151  56.552  -8.722  1.00  0.00     0.072 C 
BRANCH   7   8
ATOM      8  C   UNL     1      24.055  55.299  -7.901  1.00  0.00     0.224 C 
ATOM      9  O   UNL     1      23.003  54.682  -7.853  1.00  0.00    -0.303 OA
ENDBRANCH   7   8
ENDBRANCH   6   7
ENDBRANCH   1   6
TORSDOF 6
ENDMDL
MODEL 4
REMARK VINA RESULT:    -3.697     18.530     19.745
REMARK INTER + INTRA:          -5.068
REMARK INTER:                  -4.636
REMARK INTRA:                  -0.433
REMARK UNBOUND:                -0.075
REMARK SMILES CCCCCCCC=O
REMARK SMILES IDX 5 1 4 2 3 3 2 4 1 5 6 6 7 7 8 8 9 9
REMARK H PARENT
REMARK Flexibility Score: inf
ROOT
ATOM      1  C   UNL     1      17.571  42.379   1.472  1.00  0.00     0.000 C 
ENDROOT
BRANCH   1   2
ATOM      2  C   UNL     1      16.080  42.750   1.522  1.00  0.00     0.000 C 
BRANCH   2   3
ATOM      3  C   UNL     1      15.852  44.244   1.808  1.00  0.00    -0.000 C 
BRANCH   3   4
ATOM      4  C   UNL     1      15.232  44.984   0.612  1.00  0.00    -0.003 C 
ATOM      5  C   UNL     1      16.235  45.239  -0.512  1.00  0.00     0.004 C 
ENDBRANCH   3   4
ENDBRANCH   2   3
ENDBRANCH   1   2
BRANCH   1   6
ATOM      6  C   UNL     1      18.475  43.472   2.071  1.00  0.00     0.008 C 
BRANCH   6   7
ATOM      7  C   UNL     1      19.669  43.795   1.160  1.00  0.00     0.072 C 
BRANCH   7   8
ATOM      8  C   UNL     1      20.727  42.730   1.205  1.00  0.00     0.224 C 
ATOM      9  O   UNL     1      20.907  42.012   0.235  1.00  0.00    -0.303 OA
ENDBRANCH   7   8
ENDBRANCH   6   7
ENDBRANCH   1   6
TORSDOF 6
ENDMDL
MODEL 5
REMARK VINA RESULT:    -3.610     17.780     19.679
REMARK INTER + INTRA:          -4.951
REMARK INTER:                  -4.444
REMARK INTRA:                  -0.507
REMARK UNBOUND:                -0.075
REMARK SMILES CCCCCCCC=O
REMARK SMILES IDX 5 1 4 2 3 3 2 4 1 5 6 6 7 7 8 8 9 9
REMARK H PARENT
REMARK Flexibility Score: inf
ROOT
ATOM      1  C   UNL     1      16.477  42.668   1.171  1.00  0.00     0.000 C 
ENDROOT
BRANCH   1   2
ATOM      2  C   UNL     1      17.963  42.381   1.444  1.00  0.00     0.000 C 
BRANCH   2   3
ATOM      3  C   UNL     1      18.656  43.526   2.201  1.00  0.00    -0.000 C 
BRANCH   3   4
ATOM      4  C   UNL     1      19.817  44.141   1.403  1.00  0.00    -0.003 C 
ATOM      5  C   UNL     1      19.377  44.698   0.050  1.00  0.00     0.004 C 
ENDBRANCH   3   4
ENDBRANCH   2   3
ENDBRANCH   1   2
BRANCH   1   6
ATOM      6  C   UNL     1      15.976  43.935   1.888  1.00  0.00     0.008 C 
BRANCH   6   7
ATOM      7  C   UNL     1      15.262  44.896   0.927  1.00  0.00     0.072 C 
BRANCH   7   8
ATOM      8  C   UNL     1      15.760  44.768  -0.484  1.00  0.00     0.224 C 
ATOM      9  O   UNL     1      16.143  45.758  -1.085  1.00  0.00    -0.303 OA
ENDBRANCH   7   8
ENDBRANCH   6   7
ENDBRANCH   1   6
TORSDOF 6
ENDMDL
MODEL 6
REMARK VINA RESULT:    -3.555     15.854     17.345
REMARK INTER + INTRA:          -4.877
REMARK INTER:                  -4.637
REMARK INTRA:                  -0.240
REMARK UNBOUND:                -0.075
REMARK SMILES CCCCCCCC=O
REMARK SMILES IDX 5 1 4 2 3 3 2 4 1 5 6 6 7 7 8 8 9 9
REMARK H PARENT
REMARK Flexibility Score: inf
ROOT
ATOM      1  C   UNL     1      32.035  45.280   0.405  1.00  0.00     0.000 C 
ENDROOT
BRANCH   1   2
ATOM      2  C   UNL     1      32.814  45.235   1.730  1.00  0.00     0.000 C 
BRANCH   2   3
ATOM      3  C   UNL     1      33.088  46.635   2.302  1.00  0.00    -0.000 C 
BRANCH   3   4
ATOM      4  C   UNL     1      32.135  46.997   3.453  1.00  0.00    -0.003 C 
ATOM      5  C   UNL     1      32.166  48.485   3.803  1.00  0.00     0.004 C 
ENDBRANCH   3   4
ENDBRANCH   2   3
ENDBRANCH   1   2
BRANCH   1   6
ATOM      6  C   UNL     1      30.769  44.404   0.431  1.00  0.00     0.008 C 
BRANCH   6   7
ATOM      7  C   UNL     1      29.506  45.225   0.731  1.00  0.00     0.072 C 
BRANCH   7   8
ATOM      8  C   UNL     1      28.486  45.127  -0.367  1.00  0.00     0.224 C 
ATOM      9  O   UNL     1      27.926  46.134  -0.767  1.00  0.00    -0.303 OA
ENDBRANCH   7   8
ENDBRANCH   6   7
ENDBRANCH   1   6
TORSDOF 6
ENDMDL
MODEL 7
REMARK VINA RESULT:    -3.548     15.928     17.335
REMARK INTER + INTRA:          -4.868
REMARK INTER:                  -4.595
REMARK INTRA:                  -0.272
REMARK UNBOUND:                -0.075
REMARK SMILES CCCCCCCC=O
REMARK SMILES IDX 5 1 4 2 3 3 2 4 1 5 6 6 7 7 8 8 9 9
REMARK H PARENT
REMARK Flexibility Score: inf
ROOT
ATOM      1  C   UNL     1      32.288  45.793   1.675  1.00  0.00     0.000 C 
ENDROOT
BRANCH   1   2
ATOM      2  C   UNL     1      31.815  44.335   1.552  1.00  0.00     0.000 C 
BRANCH   2   3
ATOM      3  C   UNL     1      30.650  44.173   0.560  1.00  0.00    -0.000 C 
BRANCH   3   4
ATOM      4  C   UNL     1      29.534  45.205   0.790  1.00  0.00    -0.003 C 
ATOM      5  C   UNL     1      28.503  45.224  -0.338  1.00  0.00     0.004 C 
ENDBRANCH   3   4
ENDBRANCH   2   3
ENDBRANCH   1   2
BRANCH   1   6
ATOM      6  C   UNL     1      32.660  46.176   3.119  1.00  0.00     0.008 C 
BRANCH   6   7
ATOM      7  C   UNL     1      31.780  47.313   3.658  1.00  0.00     0.072 C 
BRANCH   7   8
ATOM      8  C   UNL     1      32.557  48.575   3.895  1.00  0.00     0.224 C 
ATOM      9  O   UNL     1      33.077  49.154   2.955  1.00  0.00    -0.303 OA
ENDBRANCH   7   8
ENDBRANCH   6   7
ENDBRANCH   1   6
TORSDOF 6
ENDMDL
MODEL 8
REMARK VINA RESULT:    -3.512      4.716      7.751
REMARK INTER + INTRA:          -4.820
REMARK INTER:                  -4.508
REMARK INTRA:                  -0.312
REMARK UNBOUND:                -0.075
REMARK SMILES CCCCCCCC=O
REMARK SMILES IDX 5 1 4 2 3 3 2 4 1 5 6 6 7 7 8 8 9 9
REMARK H PARENT
REMARK Flexibility Score: inf
ROOT
ATOM      1  C   UNL     1      30.426  56.994 -13.131  1.00  0.00     0.000 C 
ENDROOT
BRANCH   1   2
ATOM      2  C   UNL     1      31.525  56.707 -14.167  1.00  0.00     0.000 C 
BRANCH   2   3
ATOM      3  C   UNL     1      32.374  57.949 -14.487  1.00  0.00    -0.000 C 
BRANCH   3   4
ATOM      4  C   UNL     1      33.855  57.759 -14.123  1.00  0.00    -0.003 C 
ATOM      5  C   UNL     1      34.122  56.445 -13.390  1.00  0.00     0.004 C 
ENDBRANCH   3   4
ENDBRANCH   2   3
ENDBRANCH   1   2
BRANCH   1   6
ATOM      6  C   UNL     1      30.076  58.491 -13.035  1.00  0.00     0.008 C 
BRANCH   6   7
ATOM      7  C   UNL     1      30.186  59.016 -11.597  1.00  0.00     0.072 C 
BRANCH   7   8
ATOM      8  C   UNL     1      28.843  59.274 -10.978  1.00  0.00     0.224 C 
ATOM      9  O   UNL     1      28.354  60.391 -11.031  1.00  0.00    -0.303 OA
ENDBRANCH   7   8
ENDBRANCH   6   7
ENDBRANCH   1   6
TORSDOF 6
ENDMDL
MODEL 9
REMARK VINA RESULT:    -3.424      3.916      7.040
REMARK INTER + INTRA:          -4.700
REMARK INTER:                  -4.457
REMARK INTRA:                  -0.244
REMARK UNBOUND:                -0.075
REMARK SMILES CCCCCCCC=O
REMARK SMILES IDX 5 1 4 2 3 3 2 4 1 5 6 6 7 7 8 8 9 9
REMARK H PARENT
REMARK Flexibility Score: inf
ROOT
ATOM      1  C   UNL     1      30.378  58.760 -12.655  1.00  0.00     0.000 C 
ENDROOT
BRANCH   1   2
ATOM      2  C   UNL     1      29.961  57.384 -13.198  1.00  0.00     0.000 C 
BRANCH   2   3
ATOM      3  C   UNL     1      31.139  56.609 -13.813  1.00  0.00    -0.000 C 
BRANCH   3   4
ATOM      4  C   UNL     1      32.307  57.529 -14.205  1.00  0.00    -0.003 C 
ATOM      5  C   UNL     1      33.657  57.018 -13.704  1.00  0.00     0.004 C 
ENDBRANCH   3   4
ENDBRANCH   2   3
ENDBRANCH   1   2
BRANCH   1   6
ATOM      6  C   UNL     1      30.088  58.917 -11.151  1.00  0.00     0.008 C 
BRANCH   6   7
ATOM      7  C   UNL     1      28.866  59.809 -10.890  1.00  0.00     0.072 C 
BRANCH   7   8
ATOM      8  C   UNL     1      27.653  59.016 -10.496  1.00  0.00     0.224 C 
ATOM      9  O   UNL     1      26.674  59.588 -10.045  1.00  0.00    -0.303 OA
ENDBRANCH   7   8
ENDBRANCH   6   7
ENDBRANCH   1   6
TORSDOF 6
ENDMDL
