MODEL 1
REMARK VINA RESULT:    -3.309      0.000      0.000
REMARK INTER + INTRA:          -5.772
REMARK INTER:                  -5.244
REMARK INTRA:                  -0.528
REMARK UNBOUND:                -0.528
REMARK SMILES CCCCCCCCCCCC(=O)[O-]
REMARK SMILES IDX 7 1 8 2 9 3 10 4 11 5 12 6 13 7 14 8 6 9 5 10 4 11 3 12 2 13
REMARK SMILES IDX 1 14
REMARK H PARENT
REMARK Flexibility Score: inf
ROOT
ATOM      1  C   UNL     1       3.041   3.359   3.356  1.00  0.00     0.000 C 
ENDROOT
BRANCH   1   2
ATOM      2  C   UNL     1       4.250   4.301   3.247  1.00  0.00     0.000 C 
BRANCH   2   3
ATOM      3  C   UNL     1       4.308   5.032   1.897  1.00  0.00     0.000 C 
BRANCH   3   4
ATOM      4  C   UNL     1       5.707   5.610   1.646  1.00  0.00     0.006 C 
BRANCH   4   5
ATOM      5  C   UNL     1       6.249   5.166   0.285  1.00  0.00     0.053 C 
BRANCH   5   6
ATOM      6  C   UNL     1       7.734   4.999   0.340  1.00  0.00     0.041 C 
ATOM      7  O   UNL     1       8.294   4.085  -0.320  1.00  0.00    -0.550 OA
ATOM      8  O   UNL     1       8.505   5.886   1.082  1.00  0.00    -0.550 OA
ENDBRANCH   5   6
ENDBRANCH   4   5
ENDBRANCH   3   4
ENDBRANCH   2   3
ENDBRANCH   1   2
BRANCH   1   9
ATOM      9  C   UNL     1       2.662   3.049   4.815  1.00  0.00     0.000 C 
BRANCH   9  10
ATOM     10  C   UNL     1       3.536   3.805   5.827  1.00  0.00    -0.000 C 
BRANCH  10  11
ATOM     11  C   UNL     1       4.050   2.899   6.957  1.00  0.00    -0.000 C 
BRANCH  11  12
ATOM     12  C   UNL     1       4.718   1.638   6.389  1.00  0.00    -0.000 C 
BRANCH  12  13
ATOM     13  C   UNL     1       4.372   0.374   7.190  1.00  0.00    -0.003 C 
ATOM     14  C   UNL     1       5.490  -0.669   7.161  1.00  0.00     0.004 C 
ENDBRANCH  12  13
ENDBRANCH  11  12
ENDBRANCH  10  11
ENDBRANCH   9  10
ENDBRANCH   1   9
TORSDOF 10
ENDMDL
MODEL 2
REMARK VINA RESULT:    -3.285      9.665     11.148
REMARK INTER + INTRA:          -5.733
REMARK INTER:                  -4.344
REMARK INTRA:                  -1.390
REMARK UNBOUND:                -0.528
REMARK SMILES CCCCCCCCCCCC(=O)[O-]
REMARK SMILES IDX 7 1 8 2 9 3 10 4 11 5 12 6 13 7 14 8 6 9 5 10 4 11 3 12 2 13
REMARK SMILES IDX 1 14
REMARK H PARENT
REMARK Flexibility Score: inf
ROOT
ATOM      1  C   UNL     1       7.413   0.123  -6.889  1.00  0.00     0.000 C 
ENDROOT
BRANCH   1   2
ATOM      2  C   UNL     1       6.123   0.933  -6.694  1.00  0.00     0.000 C 
BRANCH   2   3
ATOM      3  C   UNL     1       4.935   0.350  -7.474  1.00  0.00     0.000 C 
BRANCH   3   4
ATOM      4  C   UNL     1       3.677   0.295  -6.599  1.00  0.00     0.006 C 
BRANCH   4   5
ATOM      5  C   UNL     1       3.900   1.021  -5.269  1.00  0.00     0.053 C 
BRANCH   5   6
ATOM      6  C   UNL     1       2.829   2.040  -5.042  1.00  0.00     0.041 C 
ATOM      7  O   UNL     1       2.452   2.784  -5.985  1.00  0.00    -0.550 OA
ATOM      8  O   UNL     1       2.212   2.134  -3.800  1.00  0.00    -0.550 OA
ENDBRANCH   5   6
ENDBRANCH   4   5
ENDBRANCH   3   4
ENDBRANCH   2   3
ENDBRANCH   1   2
BRANCH   1   9
ATOM      9  C   UNL     1       7.208  -1.384  -6.652  1.00  0.00     0.000 C 
BRANCH   9  10
ATOM     10  C   UNL     1       7.922  -1.886  -5.387  1.00  0.00    -0.000 C 
BRANCH  10  11
ATOM     11  C   UNL     1       6.991  -2.683  -4.460  1.00  0.00    -0.000 C 
BRANCH  11  12
ATOM     12  C   UNL     1       5.519  -2.335  -4.730  1.00  0.00    -0.000 C 
BRANCH  12  13
ATOM     13  C   UNL     1       4.669  -3.573  -5.055  1.00  0.00    -0.003 C 
ATOM     14  C   UNL     1       4.044  -3.512  -6.449  1.00  0.00     0.004 C 
ENDBRANCH  12  13
ENDBRANCH  11  12
ENDBRANCH  10  11
ENDBRANCH   9  10
ENDBRANCH   1   9
TORSDOF 10
ENDMDL
MODEL 3
REMARK VINA RESULT:    -3.222      2.129      3.272
REMARK INTER + INTRA:          -5.634
REMARK INTER:                  -4.858
REMARK INTRA:                  -0.776
REMARK UNBOUND:                -0.528
REMARK SMILES CCCCCCCCCCCC(=O)[O-]
REMARK SMILES IDX 7 1 8 2 9 3 10 4 11 5 12 6 13 7 14 8 6 9 5 10 4 11 3 12 2 13
REMARK SMILES IDX 1 14
REMARK H PARENT
REMARK Flexibility Score: inf
ROOT
ATOM      1  C   UNL     1       4.595   6.276   1.783  1.00  0.00     0.000 C 
ENDROOT
BRANCH   1   2
ATOM      2  C   UNL     1       5.624   6.324   0.643  1.00  0.00     0.000 C 
BRANCH   2   3
ATOM      3  C   UNL     1       6.128   4.929   0.244  1.00  0.00     0.000 C 
BRANCH   3   4
ATOM      4  C   UNL     1       7.654   4.920   0.091  1.00  0.00     0.006 C 
BRANCH   4   5
ATOM      5  C   UNL     1       8.305   5.962   1.005  1.00  0.00     0.053 C 
BRANCH   5   6
ATOM      6  C   UNL     1       9.229   5.303   1.978  1.00  0.00     0.041 C 
ATOM      7  O   UNL     1       9.884   4.282   1.639  1.00  0.00    -0.550 OA
ATOM      8  O   UNL     1       9.406   5.845   3.246  1.00  0.00    -0.550 OA
ENDBRANCH   5   6
ENDBRANCH   4   5
ENDBRANCH   3   4
ENDBRANCH   2   3
ENDBRANCH   1   2
BRANCH   1   9
ATOM      9  C   UNL     1       5.167   5.660   3.072  1.00  0.00     0.000 C 
BRANCH   9  10
ATOM     10  C   UNL     1       4.163   4.739   3.783  1.00  0.00    -0.000 C 
BRANCH  10  11
ATOM     11  C   UNL     1       3.580   3.667   2.849  1.00  0.00    -0.000 C 
BRANCH  11  12
ATOM     12  C   UNL     1       2.430   2.911   3.532  1.00  0.00    -0.000 C 
BRANCH  12  13
ATOM     13  C   UNL     1       2.679   2.684   5.030  1.00  0.00    -0.003 C 
ATOM     14  C   UNL     1       1.757   1.620   5.628  1.00  0.00     0.004 C 
ENDBRANCH  12  13
ENDBRANCH  11  12
ENDBRANCH  10  11
ENDBRANCH   9  10
ENDBRANCH   1   9
TORSDOF 10
ENDMDL
MODEL 4
REMARK VINA RESULT:    -3.197      1.730      2.343
REMARK INTER + INTRA:          -5.594
REMARK INTER:                  -5.179
REMARK INTRA:                  -0.415
REMARK UNBOUND:                -0.528
REMARK SMILES CCCCCCCCCCCC(=O)[O-]
REMARK SMILES IDX 7 1 8 2 9 3 10 4 11 5 12 6 13 7 14 8 6 9 5 10 4 11 3 12 2 13
REMARK SMILES IDX 1 14
REMARK H PARENT
REMARK Flexibility Score: inf
ROOT
ATOM      1  C   UNL     1       3.998   4.093   3.107  1.00  0.00     0.000 C 
ENDROOT
BRANCH   1   2
ATOM      2  C   UNL     1       3.557   5.506   2.697  1.00  0.00     0.000 C 
BRANCH   2   3
ATOM      3  C   UNL     1       4.492   6.138   1.656  1.00  0.00     0.000 C 
BRANCH   3   4
ATOM      4  C   UNL     1       5.835   5.399   1.603  1.00  0.00     0.006 C 
BRANCH   4   5
ATOM      5  C   UNL     1       6.268   5.148   0.156  1.00  0.00     0.053 C 
BRANCH   5   6
ATOM      6  C   UNL     1       7.759   5.137   0.050  1.00  0.00     0.041 C 
ATOM      7  O   UNL     1       8.428   6.140   0.414  1.00  0.00    -0.550 OA
ATOM      8  O   UNL     1       8.415   4.000  -0.406  1.00  0.00    -0.550 OA
ENDBRANCH   5   6
ENDBRANCH   4   5
ENDBRANCH   3   4
ENDBRANCH   2   3
ENDBRANCH   1   2
BRANCH   1   9
ATOM      9  C   UNL     1       2.942   3.367   3.960  1.00  0.00     0.000 C 
BRANCH   9  10
ATOM     10  C   UNL     1       3.388   3.176   5.418  1.00  0.00    -0.000 C 
BRANCH  10  11
ATOM     11  C   UNL     1       2.879   1.859   6.024  1.00  0.00    -0.000 C 
BRANCH  11  12
ATOM     12  C   UNL     1       1.369   1.697   5.792  1.00  0.00    -0.000 C 
BRANCH  12  13
ATOM     13  C   UNL     1       1.003   0.315   5.227  1.00  0.00    -0.003 C 
ATOM     14  C   UNL     1       0.154  -0.512   6.193  1.00  0.00     0.004 C 
ENDBRANCH  12  13
ENDBRANCH  11  12
ENDBRANCH  10  11
ENDBRANCH   9  10
ENDBRANCH   1   9
TORSDOF 10
ENDMDL
MODEL 5
REMARK VINA RESULT:    -3.174      2.195      3.713
REMARK INTER + INTRA:          -5.558
REMARK INTER:                  -4.379
REMARK INTRA:                  -1.179
REMARK UNBOUND:                -0.528
REMARK SMILES CCCCCCCCCCCC(=O)[O-]
REMARK SMILES IDX 7 1 8 2 9 3 10 4 11 5 12 6 13 7 14 8 6 9 5 10 4 11 3 12 2 13
REMARK SMILES IDX 1 14
REMARK H PARENT
REMARK Flexibility Score: inf
ROOT
ATOM      1  C   UNL     1       3.983   3.055   6.825  1.00  0.00     0.000 C 
ENDROOT
BRANCH   1   2
ATOM      2  C   UNL     1       3.364   3.831   5.652  1.00  0.00     0.000 C 
BRANCH   2   3
ATOM      3  C   UNL     1       2.980   2.919   4.478  1.00  0.00     0.000 C 
BRANCH   3   4
ATOM      4  C   UNL     1       3.249   3.610   3.135  1.00  0.00     0.006 C 
BRANCH   4   5
ATOM      5  C   UNL     1       4.365   4.651   3.266  1.00  0.00     0.053 C 
BRANCH   5   6
ATOM      6  C   UNL     1       4.549   5.386   1.977  1.00  0.00     0.041 C 
ATOM      7  O   UNL     1       5.475   5.061   1.188  1.00  0.00    -0.550 OA
ATOM      8  O   UNL     1       3.667   6.400   1.624  1.00  0.00    -0.550 OA
ENDBRANCH   5   6
ENDBRANCH   4   5
ENDBRANCH   3   4
ENDBRANCH   2   3
ENDBRANCH   1   2
BRANCH   1   9
ATOM      9  C   UNL     1       4.737   1.793   6.368  1.00  0.00     0.000 C 
BRANCH   9  10
ATOM     10  C   UNL     1       4.262   0.525   7.095  1.00  0.00    -0.000 C 
BRANCH  10  11
ATOM     11  C   UNL     1       2.772   0.581   7.466  1.00  0.00    -0.000 C 
BRANCH  11  12
ATOM     12  C   UNL     1       1.963  -0.436   6.646  1.00  0.00    -0.000 C 
BRANCH  12  13
ATOM     13  C   UNL     1       0.901   0.231   5.760  1.00  0.00    -0.003 C 
ATOM     14  C   UNL     1       0.211   1.409   6.448  1.00  0.00     0.004 C 
ENDBRANCH  12  13
ENDBRANCH  11  12
ENDBRANCH  10  11
ENDBRANCH   9  10
ENDBRANCH   1   9
TORSDOF 10
ENDMDL
MODEL 6
REMARK VINA RESULT:    -3.145     10.031     11.730
REMARK INTER + INTRA:          -5.512
REMARK INTER:                  -4.455
REMARK INTRA:                  -1.057
REMARK UNBOUND:                -0.528
REMARK SMILES CCCCCCCCCCCC(=O)[O-]
REMARK SMILES IDX 7 1 8 2 9 3 10 4 11 5 12 6 13 7 14 8 6 9 5 10 4 11 3 12 2 13
REMARK SMILES IDX 1 14
REMARK H PARENT
REMARK Flexibility Score: inf
ROOT
ATOM      1  C   UNL     1      -2.750  -3.471   3.373  1.00  0.00     0.000 C 
ENDROOT
BRANCH   1   2
ATOM      2  C   UNL     1      -2.308  -4.858   3.865  1.00  0.00     0.000 C 
BRANCH   2   3
ATOM      3  C   UNL     1      -0.815  -4.910   4.220  1.00  0.00     0.000 C 
BRANCH   3   4
ATOM      4  C   UNL     1      -0.108  -3.610   3.816  1.00  0.00     0.006 C 
BRANCH   4   5
ATOM      5  C   UNL     1       0.622  -2.987   5.010  1.00  0.00     0.053 C 
BRANCH   5   6
ATOM      6  C   UNL     1      -0.076  -1.744   5.460  1.00  0.00     0.041 C 
ATOM      7  O   UNL     1       0.406  -0.613   5.189  1.00  0.00    -0.550 OA
ATOM      8  O   UNL     1      -1.287  -1.832   6.136  1.00  0.00    -0.550 OA
ENDBRANCH   5   6
ENDBRANCH   4   5
ENDBRANCH   3   4
ENDBRANCH   2   3
ENDBRANCH   1   2
BRANCH   1   9
ATOM      9  C   UNL     1      -4.197  -3.133   3.775  1.00  0.00     0.000 C 
BRANCH   9  10
ATOM     10  C   UNL     1      -5.131  -4.350   3.700  1.00  0.00    -0.000 C 
BRANCH  10  11
ATOM     11  C   UNL     1      -6.064  -4.306   2.480  1.00  0.00    -0.000 C 
BRANCH  11  12
ATOM     12  C   UNL     1      -6.088  -5.661   1.758  1.00  0.00    -0.000 C 
BRANCH  12  13
ATOM     13  C   UNL     1      -4.776  -6.443   1.923  1.00  0.00    -0.003 C 
ATOM     14  C   UNL     1      -3.837  -6.281   0.727  1.00  0.00     0.004 C 
ENDBRANCH  12  13
ENDBRANCH  11  12
ENDBRANCH  10  11
ENDBRANCH   9  10
ENDBRANCH   1   9
TORSDOF 10
ENDMDL
MODEL 7
REMARK VINA RESULT:    -3.111      9.675     11.262
REMARK INTER + INTRA:          -5.458
REMARK INTER:                  -4.228
REMARK INTRA:                  -1.229
REMARK UNBOUND:                -0.528
REMARK SMILES CCCCCCCCCCCC(=O)[O-]
REMARK SMILES IDX 7 1 8 2 9 3 10 4 11 5 12 6 13 7 14 8 6 9 5 10 4 11 3 12 2 13
REMARK SMILES IDX 1 14
REMARK H PARENT
REMARK Flexibility Score: inf
ROOT
ATOM      1  C   UNL     1       4.381  -3.246  -6.987  1.00  0.00     0.000 C 
ENDROOT
BRANCH   1   2
ATOM      2  C   UNL     1       3.555  -1.953  -7.068  1.00  0.00     0.000 C 
BRANCH   2   3
ATOM      3  C   UNL     1       4.433  -0.697  -7.166  1.00  0.00     0.000 C 
BRANCH   3   4
ATOM      4  C   UNL     1       4.689  -0.095  -5.778  1.00  0.00     0.006 C 
BRANCH   4   5
ATOM      5  C   UNL     1       4.355   1.399  -5.756  1.00  0.00     0.053 C 
BRANCH   5   6
ATOM      6  C   UNL     1       3.016   1.628  -5.131  1.00  0.00     0.041 C 
ATOM      7  O   UNL     1       1.971   1.571  -5.832  1.00  0.00    -0.550 OA
ATOM      8  O   UNL     1       2.917   1.856  -3.764  1.00  0.00    -0.550 OA
ENDBRANCH   5   6
ENDBRANCH   4   5
ENDBRANCH   3   4
ENDBRANCH   2   3
ENDBRANCH   1   2
BRANCH   1   9
ATOM      9  C   UNL     1       4.042  -4.089  -5.744  1.00  0.00     0.000 C 
BRANCH   9  10
ATOM     10  C   UNL     1       4.743  -3.580  -4.476  1.00  0.00    -0.000 C 
BRANCH  10  11
ATOM     11  C   UNL     1       6.257  -3.842  -4.493  1.00  0.00    -0.000 C 
BRANCH  11  12
ATOM     12  C   UNL     1       7.042  -2.539  -4.275  1.00  0.00    -0.000 C 
BRANCH  12  13
ATOM     13  C   UNL     1       8.251  -2.413  -5.213  1.00  0.00    -0.003 C 
ATOM     14  C   UNL     1       8.079  -1.309  -6.256  1.00  0.00     0.004 C 
ENDBRANCH  12  13
ENDBRANCH  11  12
ENDBRANCH  10  11
ENDBRANCH   9  10
ENDBRANCH   1   9
TORSDOF 10
ENDMDL
MODEL 8
REMARK VINA RESULT:    -3.090      5.381      7.956
REMARK INTER + INTRA:          -5.424
REMARK INTER:                  -4.790
REMARK INTRA:                  -0.634
REMARK UNBOUND:                -0.528
REMARK SMILES CCCCCCCCCCCC(=O)[O-]
REMARK SMILES IDX 7 1 8 2 9 3 10 4 11 5 12 6 13 7 14 8 6 9 5 10 4 11 3 12 2 13
REMARK SMILES IDX 1 14
REMARK H PARENT
REMARK Flexibility Score: inf
ROOT
ATOM      1  C   UNL     1       1.619   2.427   6.605  1.00  0.00     0.000 C 
ENDROOT
BRANCH   1   2
ATOM      2  C   UNL     1       0.499   1.416   6.319  1.00  0.00     0.000 C 
BRANCH   2   3
ATOM      3  C   UNL     1       0.959   0.264   5.414  1.00  0.00     0.000 C 
BRANCH   3   4
ATOM      4  C   UNL     1       0.577  -1.094   6.016  1.00  0.00     0.006 C 
BRANCH   4   5
ATOM      5  C   UNL     1      -0.102  -1.986   4.973  1.00  0.00     0.053 C 
BRANCH   5   6
ATOM      6  C   UNL     1       0.614  -3.294   4.856  1.00  0.00     0.041 C 
ATOM      7  O   UNL     1       1.214  -3.779   5.852  1.00  0.00    -0.550 OA
ATOM      8  O   UNL     1       0.576  -4.003   3.662  1.00  0.00    -0.550 OA
ENDBRANCH   5   6
ENDBRANCH   4   5
ENDBRANCH   3   4
ENDBRANCH   2   3
ENDBRANCH   1   2
BRANCH   1   9
ATOM      9  C   UNL     1       3.019   1.788   6.565  1.00  0.00     0.000 C 
BRANCH   9  10
ATOM     10  C   UNL     1       3.965   2.497   5.584  1.00  0.00    -0.000 C 
BRANCH  10  11
ATOM     11  C   UNL     1       3.306   3.703   4.895  1.00  0.00    -0.000 C 
BRANCH  11  12
ATOM     12  C   UNL     1       3.272   3.514   3.371  1.00  0.00    -0.000 C 
BRANCH  12  13
ATOM     13  C   UNL     1       4.134   4.545   2.628  1.00  0.00    -0.003 C 
ATOM     14  C   UNL     1       3.508   5.940   2.615  1.00  0.00     0.004 C 
ENDBRANCH  12  13
ENDBRANCH  11  12
ENDBRANCH  10  11
ENDBRANCH   9  10
ENDBRANCH   1   9
TORSDOF 10
ENDMDL
MODEL 9
REMARK VINA RESULT:    -3.068      4.169      5.423
REMARK INTER + INTRA:          -5.390
REMARK INTER:                  -4.828
REMARK INTRA:                  -0.563
REMARK UNBOUND:                -0.528
REMARK SMILES CCCCCCCCCCCC(=O)[O-]
REMARK SMILES IDX 7 1 8 2 9 3 10 4 11 5 12 6 13 7 14 8 6 9 5 10 4 11 3 12 2 13
REMARK SMILES IDX 1 14
REMARK H PARENT
REMARK Flexibility Score: inf
ROOT
ATOM      1  C   UNL     1       0.750   1.159   6.007  1.00  0.00     0.000 C 
ENDROOT
BRANCH   1   2
ATOM      2  C   UNL     1       1.737   2.040   5.227  1.00  0.00     0.000 C 
BRANCH   2   3
ATOM      3  C   UNL     1       3.080   2.207   5.953  1.00  0.00     0.000 C 
BRANCH   3   4
ATOM      4  C   UNL     1       4.050   3.059   5.124  1.00  0.00     0.006 C 
BRANCH   4   5
ATOM      5  C   UNL     1       3.468   3.368   3.742  1.00  0.00     0.053 C 
BRANCH   5   6
ATOM      6  C   UNL     1       4.024   4.652   3.214  1.00  0.00     0.041 C 
ATOM      7  O   UNL     1       4.305   5.593   4.002  1.00  0.00    -0.550 OA
ATOM      8  O   UNL     1       4.280   4.791   1.856  1.00  0.00    -0.550 OA
ENDBRANCH   5   6
ENDBRANCH   4   5
ENDBRANCH   3   4
ENDBRANCH   2   3
ENDBRANCH   1   2
BRANCH   1   9
ATOM      9  C   UNL     1       0.660  -0.271   5.446  1.00  0.00     0.000 C 
BRANCH   9  10
ATOM     10  C   UNL     1       1.120  -1.333   6.456  1.00  0.00    -0.000 C 
BRANCH  10  11
ATOM     11  C   UNL     1       0.528  -2.721   6.164  1.00  0.00    -0.000 C 
BRANCH  11  12
ATOM     12  C   UNL     1      -0.456  -2.661   4.987  1.00  0.00    -0.000 C 
BRANCH  12  13
ATOM     13  C   UNL     1      -0.050  -3.586   3.829  1.00  0.00    -0.003 C 
ATOM     14  C   UNL     1       1.024  -4.597   4.229  1.00  0.00     0.004 C 
ENDBRANCH  12  13
ENDBRANCH  11  12
ENDBRANCH  10  11
ENDBRANCH   9  10
ENDBRANCH   1   9
TORSDOF 10
ENDMDL
