MODEL 1
REMARK VINA RESULT:    -5.559      0.000      0.000
REMARK INTER + INTRA:          -6.263
REMARK INTER:                  -6.046
REMARK INTRA:                  -0.217
REMARK UNBOUND:                -0.217
REMARK SMILES CC(C)(C)[C@@H]1C=C[C@H](O)CC1
REMARK SMILES IDX 5 1 11 2 10 3 8 4 7 5 6 6 2 7 1 8 3 9 4 10 9 11
REMARK H PARENT 9 12
REMARK Flexibility Score: inf
ROOT
ATOM      1  C   UNL     1     131.857 129.678 138.281  1.00  0.00     0.017 C 
ATOM      2  C   UNL     1     130.464 129.624 138.962  1.00  0.00     0.011 C 
ATOM      3  C   UNL     1     130.184 128.235 139.540  1.00  0.00     0.037 C 
ATOM      4  C   UNL     1     130.219 127.154 138.447  1.00  0.00     0.137 C 
ATOM      5  C   UNL     1     131.392 127.317 137.508  1.00  0.00     0.000 C 
ATOM      6  C   UNL     1     132.077 128.466 137.381  1.00  0.00    -0.025 C 
ENDROOT
BRANCH   1   7
ATOM      7  C   UNL     1     132.143 131.043 137.540  1.00  0.00    -0.032 C 
ATOM      8  C   UNL     1     130.924 131.470 136.687  1.00  0.00     0.011 C 
ATOM      9  C   UNL     1     133.378 130.944 136.614  1.00  0.00     0.011 C 
ATOM     10  C   UNL     1     132.391 132.169 138.575  1.00  0.00     0.011 C 
ENDBRANCH   1   7
BRANCH   4  11
ATOM     11  O   UNL     1     129.011 127.124 137.728  1.00  0.00    -0.389 OA
ATOM     12  H   UNL     1     128.471 126.364 138.068  1.00  0.00     0.211 HD
ENDBRANCH   4  11
TORSDOF 2
ENDMDL
MODEL 2
REMARK VINA RESULT:    -5.554      0.055      1.306
REMARK INTER + INTRA:          -6.258
REMARK INTER:                  -6.039
REMARK INTRA:                  -0.219
REMARK UNBOUND:                -0.217
REMARK SMILES CC(C)(C)[C@@H]1C=C[C@H](O)CC1
REMARK SMILES IDX 5 1 11 2 10 3 8 4 7 5 6 6 2 7 1 8 3 9 4 10 9 11
REMARK H PARENT 9 12
REMARK Flexibility Score: inf
ROOT
ATOM      1  C   UNL     1     131.834 129.689 138.272  1.00  0.00     0.017 C 
ATOM      2  C   UNL     1     130.449 129.644 138.969  1.00  0.00     0.011 C 
ATOM      3  C   UNL     1     130.175 128.261 139.565  1.00  0.00     0.037 C 
ATOM      4  C   UNL     1     130.197 127.168 138.484  1.00  0.00     0.137 C 
ATOM      5  C   UNL     1     131.359 127.320 137.531  1.00  0.00     0.000 C 
ATOM      6  C   UNL     1     132.044 128.466 137.383  1.00  0.00    -0.025 C 
ENDROOT
BRANCH   1   7
ATOM      7  C   UNL     1     132.112 131.045 137.513  1.00  0.00    -0.032 C 
ATOM      8  C   UNL     1     133.325 130.903 136.562  1.00  0.00     0.011 C 
ATOM      9  C   UNL     1     132.395 132.206 138.497  1.00  0.00     0.011 C 
ATOM     10  C   UNL     1     130.891 131.426 136.639  1.00  0.00     0.011 C 
ENDBRANCH   1   7
BRANCH   4  11
ATOM     11  O   UNL     1     128.980 127.131 137.779  1.00  0.00    -0.389 OA
ATOM     12  H   UNL     1     129.187 127.154 136.809  1.00  0.00     0.211 HD
ENDBRANCH   4  11
TORSDOF 2
ENDMDL
MODEL 3
REMARK VINA RESULT:    -5.514      0.480      1.392
REMARK INTER + INTRA:          -6.214
REMARK INTER:                  -6.002
REMARK INTRA:                  -0.212
REMARK UNBOUND:                -0.217
REMARK SMILES CC(C)(C)[C@@H]1C=C[C@H](O)CC1
REMARK SMILES IDX 5 1 11 2 10 3 8 4 7 5 6 6 2 7 1 8 3 9 4 10 9 11
REMARK H PARENT 9 12
REMARK Flexibility Score: inf
ROOT
ATOM      1  C   UNL     1     132.004 129.819 138.406  1.00  0.00     0.017 C 
ATOM      2  C   UNL     1     130.815 129.846 139.401  1.00  0.00     0.011 C 
ATOM      3  C   UNL     1     130.477 128.438 139.896  1.00  0.00     0.037 C 
ATOM      4  C   UNL     1     130.098 127.509 138.732  1.00  0.00     0.137 C 
ATOM      5  C   UNL     1     131.032 127.648 137.552  1.00  0.00     0.000 C 
ATOM      6  C   UNL     1     131.830 128.713 137.368  1.00  0.00    -0.025 C 
ENDROOT
BRANCH   1   7
ATOM      7  C   UNL     1     132.307 131.223 137.749  1.00  0.00    -0.032 C 
ATOM      8  C   UNL     1     132.585 132.289 138.836  1.00  0.00     0.011 C 
ATOM      9  C   UNL     1     131.130 131.712 136.872  1.00  0.00     0.011 C 
ATOM     10  C   UNL     1     133.576 131.134 136.864  1.00  0.00     0.011 C 
ENDBRANCH   1   7
BRANCH   4  11
ATOM     11  O   UNL     1     128.765 127.715 138.335  1.00  0.00    -0.389 OA
ATOM     12  H   UNL     1     128.773 128.251 137.499  1.00  0.00     0.211 HD
ENDBRANCH   4  11
TORSDOF 2
ENDMDL
MODEL 4
REMARK VINA RESULT:    -5.407      4.438      5.540
REMARK INTER + INTRA:          -6.098
REMARK INTER:                  -5.886
REMARK INTRA:                  -0.212
REMARK UNBOUND:                -0.217
REMARK SMILES CC(C)(C)[C@@H]1C=C[C@H](O)CC1
REMARK SMILES IDX 5 1 11 2 10 3 8 4 7 5 6 6 2 7 1 8 3 9 4 10 9 11
REMARK H PARENT 9 12
REMARK Flexibility Score: inf
ROOT
ATOM      1  C   UNL     1     134.687 128.665 135.272  1.00  0.00     0.017 C 
ATOM      2  C   UNL     1     135.638 128.511 134.056  1.00  0.00     0.011 C 
ATOM      3  C   UNL     1     135.622 127.078 133.519  1.00  0.00     0.037 C 
ATOM      4  C   UNL     1     136.062 126.071 134.594  1.00  0.00     0.137 C 
ATOM      5  C   UNL     1     135.423 126.340 135.936  1.00  0.00     0.000 C 
ATOM      6  C   UNL     1     134.874 127.521 136.265  1.00  0.00    -0.025 C 
ENDROOT
BRANCH   1   7
ATOM      7  C   UNL     1     134.769 130.084 135.960  1.00  0.00    -0.032 C 
ATOM      8  C   UNL     1     133.524 130.935 135.612  1.00  0.00     0.011 C 
ATOM      9  C   UNL     1     136.033 130.862 135.521  1.00  0.00     0.011 C 
ATOM     10  C   UNL     1     134.798 129.927 137.501  1.00  0.00     0.011 C 
ENDBRANCH   1   7
BRANCH   4  11
ATOM     11  O   UNL     1     137.463 126.036 134.710  1.00  0.00    -0.389 OA
ATOM     12  H   UNL     1     137.691 125.478 135.498  1.00  0.00     0.211 HD
ENDBRANCH   4  11
TORSDOF 2
ENDMDL
MODEL 5
REMARK VINA RESULT:    -5.172      3.316      5.155
REMARK INTER + INTRA:          -5.842
REMARK INTER:                  -5.632
REMARK INTRA:                  -0.211
REMARK UNBOUND:                -0.217
REMARK SMILES CC(C)(C)[C@@H]1C=C[C@H](O)CC1
REMARK SMILES IDX 5 1 11 2 10 3 8 4 7 5 6 6 2 7 1 8 3 9 4 10 9 11
REMARK H PARENT 9 12
REMARK Flexibility Score: inf
ROOT
ATOM      1  C   UNL     1     133.731 130.829 136.062  1.00  0.00     0.017 C 
ATOM      2  C   UNL     1     134.958 131.635 136.564  1.00  0.00     0.011 C 
ATOM      3  C   UNL     1     136.081 131.637 135.524  1.00  0.00     0.037 C 
ATOM      4  C   UNL     1     136.552 130.210 135.202  1.00  0.00     0.137 C 
ATOM      5  C   UNL     1     135.402 129.249 135.012  1.00  0.00     0.000 C 
ATOM      6  C   UNL     1     134.159 129.493 135.460  1.00  0.00    -0.025 C 
ENDROOT
BRANCH   1   7
ATOM      7  C   UNL     1     132.597 130.668 137.149  1.00  0.00    -0.032 C 
ATOM      8  C   UNL     1     131.268 131.284 136.651  1.00  0.00     0.011 C 
ATOM      9  C   UNL     1     132.982 131.347 138.485  1.00  0.00     0.011 C 
ATOM     10  C   UNL     1     132.328 129.166 137.420  1.00  0.00     0.011 C 
ENDBRANCH   1   7
BRANCH   4  11
ATOM     11  O   UNL     1     137.435 129.736 136.188  1.00  0.00    -0.389 OA
ATOM     12  H   UNL     1     137.438 128.745 136.146  1.00  0.00     0.211 HD
ENDBRANCH   4  11
TORSDOF 2
ENDMDL
MODEL 6
REMARK VINA RESULT:    -5.087      4.641      6.051
REMARK INTER + INTRA:          -5.749
REMARK INTER:                  -5.534
REMARK INTRA:                  -0.216
REMARK UNBOUND:                -0.217
REMARK SMILES CC(C)(C)[C@@H]1C=C[C@H](O)CC1
REMARK SMILES IDX 5 1 11 2 10 3 8 4 7 5 6 6 2 7 1 8 3 9 4 10 9 11
REMARK H PARENT 9 12
REMARK Flexibility Score: inf
ROOT
ATOM      1  C   UNL     1     136.026 126.372 136.811  1.00  0.00     0.017 C 
ATOM      2  C   UNL     1     135.114 127.490 136.242  1.00  0.00     0.011 C 
ATOM      3  C   UNL     1     134.247 128.109 137.341  1.00  0.00     0.037 C 
ATOM      4  C   UNL     1     133.345 127.056 138.005  1.00  0.00     0.137 C 
ATOM      5  C   UNL     1     134.082 125.773 138.311  1.00  0.00     0.000 C 
ATOM      6  C   UNL     1     135.242 125.433 137.724  1.00  0.00    -0.025 C 
ENDROOT
BRANCH   1   7
ATOM      7  C   UNL     1     136.839 125.597 135.700  1.00  0.00    -0.032 C 
ATOM      8  C   UNL     1     136.836 124.075 135.980  1.00  0.00     0.011 C 
ATOM      9  C   UNL     1     138.307 126.079 135.623  1.00  0.00     0.011 C 
ATOM     10  C   UNL     1     136.178 125.806 134.314  1.00  0.00     0.011 C 
ENDBRANCH   1   7
BRANCH   4  11
ATOM     11  O   UNL     1     132.207 126.798 137.221  1.00  0.00    -0.389 OA
ATOM     12  H   UNL     1     132.506 126.651 136.286  1.00  0.00     0.211 HD
ENDBRANCH   4  11
TORSDOF 2
ENDMDL
MODEL 7
REMARK VINA RESULT:    -5.033      4.399      6.242
REMARK INTER + INTRA:          -5.691
REMARK INTER:                  -5.479
REMARK INTRA:                  -0.212
REMARK UNBOUND:                -0.217
REMARK SMILES CC(C)(C)[C@@H]1C=C[C@H](O)CC1
REMARK SMILES IDX 5 1 11 2 10 3 8 4 7 5 6 6 2 7 1 8 3 9 4 10 9 11
REMARK H PARENT 9 12
REMARK Flexibility Score: inf
ROOT
ATOM      1  C   UNL     1     135.338 128.366 135.623  1.00  0.00     0.017 C 
ATOM      2  C   UNL     1     134.690 128.799 136.965  1.00  0.00     0.011 C 
ATOM      3  C   UNL     1     134.134 130.223 136.876  1.00  0.00     0.037 C 
ATOM      4  C   UNL     1     135.238 131.236 136.535  1.00  0.00     0.137 C 
ATOM      5  C   UNL     1     136.148 130.753 135.430  1.00  0.00     0.000 C 
ATOM      6  C   UNL     1     136.247 129.462 135.072  1.00  0.00    -0.025 C 
ENDROOT
BRANCH   1   7
ATOM      7  C   UNL     1     136.058 126.962 135.696  1.00  0.00    -0.032 C 
ATOM      8  C   UNL     1     137.532 127.124 136.138  1.00  0.00     0.011 C 
ATOM      9  C   UNL     1     136.032 126.233 134.332  1.00  0.00     0.011 C 
ATOM     10  C   UNL     1     135.363 126.062 136.749  1.00  0.00     0.011 C 
ENDBRANCH   1   7
BRANCH   4  11
ATOM     11  O   UNL     1     135.984 131.574 137.678  1.00  0.00    -0.389 OA
ATOM     12  H   UNL     1     136.945 131.564 137.431  1.00  0.00     0.211 HD
ENDBRANCH   4  11
TORSDOF 2
ENDMDL
MODEL 8
REMARK VINA RESULT:    -4.932      3.231      4.635
REMARK INTER + INTRA:          -5.582
REMARK INTER:                  -5.368
REMARK INTRA:                  -0.214
REMARK UNBOUND:                -0.217
REMARK SMILES CC(C)(C)[C@@H]1C=C[C@H](O)CC1
REMARK SMILES IDX 5 1 11 2 10 3 8 4 7 5 6 6 2 7 1 8 3 9 4 10 9 11
REMARK H PARENT 9 12
REMARK Flexibility Score: inf
ROOT
ATOM      1  C   UNL     1     134.184 128.693 135.633  1.00  0.00     0.017 C 
ATOM      2  C   UNL     1     133.984 127.864 136.929  1.00  0.00     0.011 C 
ATOM      3  C   UNL     1     132.666 128.227 137.619  1.00  0.00     0.037 C 
ATOM      4  C   UNL     1     132.622 129.716 137.998  1.00  0.00     0.137 C 
ATOM      5  C   UNL     1     133.118 130.612 136.887  1.00  0.00     0.000 C 
ATOM      6  C   UNL     1     133.877 130.169 135.870  1.00  0.00    -0.025 C 
ENDROOT
BRANCH   1   7
ATOM      7  C   UNL     1     135.591 128.468 134.954  1.00  0.00    -0.032 C 
ATOM      8  C   UNL     1     136.313 129.819 134.727  1.00  0.00     0.011 C 
ATOM      9  C   UNL     1     135.462 127.746 133.591  1.00  0.00     0.011 C 
ATOM     10  C   UNL     1     136.499 127.617 135.878  1.00  0.00     0.011 C 
ENDBRANCH   1   7
BRANCH   4  11
ATOM     11  O   UNL     1     133.337 129.957 139.185  1.00  0.00    -0.389 OA
ATOM     12  H   UNL     1     133.078 129.263 139.845  1.00  0.00     0.211 HD
ENDBRANCH   4  11
TORSDOF 2
ENDMDL
MODEL 9
REMARK VINA RESULT:    -4.930      1.576      2.277
REMARK INTER + INTRA:          -5.579
REMARK INTER:                  -5.369
REMARK INTRA:                  -0.210
REMARK UNBOUND:                -0.217
REMARK SMILES CC(C)(C)[C@@H]1C=C[C@H](O)CC1
REMARK SMILES IDX 5 1 11 2 10 3 8 4 7 5 6 6 2 7 1 8 3 9 4 10 9 11
REMARK H PARENT 9 12
REMARK Flexibility Score: inf
ROOT
ATOM      1  C   UNL     1     131.723 129.612 137.433  1.00  0.00     0.017 C 
ATOM      2  C   UNL     1     131.646 128.073 137.611  1.00  0.00     0.011 C 
ATOM      3  C   UNL     1     130.336 127.661 138.289  1.00  0.00     0.037 C 
ATOM      4  C   UNL     1     130.194 128.305 139.677  1.00  0.00     0.137 C 
ATOM      5  C   UNL     1     130.570 129.769 139.677  1.00  0.00     0.000 C 
ATOM      6  C   UNL     1     131.314 130.337 138.713  1.00  0.00    -0.025 C 
ENDROOT
BRANCH   1   7
ATOM      7  C   UNL     1     133.112 130.112 136.872  1.00  0.00    -0.032 C 
ATOM      8  C   UNL     1     132.908 131.210 135.801  1.00  0.00     0.011 C 
ATOM      9  C   UNL     1     133.924 128.956 136.241  1.00  0.00     0.011 C 
ATOM     10  C   UNL     1     133.952 130.739 138.013  1.00  0.00     0.011 C 
ENDBRANCH   1   7
BRANCH   4  11
ATOM     11  O   UNL     1     130.941 127.603 140.639  1.00  0.00    -0.389 OA
ATOM     12  H   UNL     1     131.833 128.032 140.708  1.00  0.00     0.211 HD
ENDBRANCH   4  11
TORSDOF 2
ENDMDL
