MODEL 1
REMARK VINA RESULT:    -3.688      0.000      0.000
REMARK INTER + INTRA:         -13.328
REMARK INTER:                  -9.294
REMARK INTRA:                  -4.034
REMARK UNBOUND:                -4.034
REMARK SMILES CCCCCCCCCCCCCCCCCCCCCCCCCCCC(=O)[O-]
REMARK SMILES IDX 15 1 16 2 17 3 18 4 19 5 20 6 21 7 22 8 23 9 24 10 25 11
REMARK SMILES IDX 26 12 27 13 28 14 29 15 30 16 14 17 13 18 12 19 11 20 10 21
REMARK SMILES IDX 9 22 8 23 7 24 6 25 5 26 4 27 3 28 2 29 1 30
REMARK H PARENT
REMARK Flexibility Score: inf
ROOT
ATOM      1  C   UNL     1     -94.715 149.082 237.217  1.00  0.00     0.000 C 
ENDROOT
BRANCH   1   2
ATOM      2  C   UNL     1     -93.919 148.784 238.505  1.00  0.00     0.000 C 
BRANCH   2   3
ATOM      3  C   UNL     1     -94.611 149.276 239.793  1.00  0.00     0.000 C 
BRANCH   3   4
ATOM      4  C   UNL     1     -95.655 148.280 240.332  1.00  0.00     0.000 C 
BRANCH   4   5
ATOM      5  C   UNL     1     -96.978 148.962 240.722  1.00  0.00     0.000 C 
BRANCH   5   6
ATOM      6  C   UNL     1     -96.997 150.464 240.384  1.00  0.00     0.000 C 
BRANCH   6   7
ATOM      7  C   UNL     1     -98.381 150.939 239.904  1.00  0.00     0.000 C 
BRANCH   7   8
ATOM      8  C   UNL     1     -99.449 149.829 239.888  1.00  0.00     0.000 C 
BRANCH   8   9
ATOM      9  C   UNL     1    -100.823 150.329 240.373  1.00  0.00     0.000 C 
BRANCH   9  10
ATOM     10  C   UNL     1    -101.045 150.078 241.875  1.00  0.00     0.000 C 
BRANCH  10  11
ATOM     11  C   UNL     1    -100.217 148.893 242.399  1.00  0.00     0.000 C 
BRANCH  11  12
ATOM     12  C   UNL     1     -99.302 149.274 243.580  1.00  0.00     0.006 C 
BRANCH  12  13
ATOM     13  C   UNL     1     -98.896 150.756 243.598  1.00  0.00     0.053 C 
BRANCH  13  14
ATOM     14  C   UNL     1     -99.295 151.446 244.865  1.00  0.00     0.041 C 
ATOM     15  O   UNL     1     -99.092 152.681 245.009  1.00  0.00    -0.550 OA
ATOM     16  O   UNL     1     -99.905 150.728 245.884  1.00  0.00    -0.550 OA
ENDBRANCH  13  14
ENDBRANCH  12  13
ENDBRANCH  11  12
ENDBRANCH  10  11
ENDBRANCH   9  10
ENDBRANCH   8   9
ENDBRANCH   7   8
ENDBRANCH   6   7
ENDBRANCH   5   6
ENDBRANCH   4   5
ENDBRANCH   3   4
ENDBRANCH   2   3
ENDBRANCH   1   2
BRANCH   1  17
ATOM     17  C   UNL     1     -95.504 147.890 236.642  1.00  0.00     0.000 C 
BRANCH  17  18
ATOM     18  C   UNL     1     -97.034 148.075 236.626  1.00  0.00     0.000 C 
BRANCH  18  19
ATOM     19  C   UNL     1     -97.452 149.554 236.661  1.00  0.00     0.000 C 
BRANCH  19  20
ATOM     20  C   UNL     1     -98.089 150.025 235.343  1.00  0.00     0.000 C 
BRANCH  20  21
ATOM     21  C   UNL     1     -97.795 149.128 234.123  1.00  0.00     0.000 C 
BRANCH  21  22
ATOM     22  C   UNL     1     -96.882 149.754 233.052  1.00  0.00    -0.000 C 
BRANCH  22  23
ATOM     23  C   UNL     1     -95.689 150.564 233.597  1.00  0.00    -0.000 C 
BRANCH  23  24
ATOM     24  C   UNL     1     -95.702 152.051 233.184  1.00  0.00    -0.000 C 
BRANCH  24  25
ATOM     25  C   UNL     1     -96.425 152.942 234.209  1.00  0.00    -0.000 C 
BRANCH  25  26
ATOM     26  C   UNL     1     -97.746 153.527 233.678  1.00  0.00    -0.000 C 
BRANCH  26  27
ATOM     27  C   UNL     1     -98.618 154.239 234.729  1.00  0.00    -0.000 C 
BRANCH  27  28
ATOM     28  C   UNL     1     -99.352 155.501 234.235  1.00  0.00    -0.000 C 
BRANCH  28  29
ATOM     29  C   UNL     1     -98.632 156.238 233.086  1.00  0.00    -0.003 C 
ATOM     30  C   UNL     1     -97.831 157.451 233.564  1.00  0.00     0.004 C 
ENDBRANCH  28  29
ENDBRANCH  27  28
ENDBRANCH  26  27
ENDBRANCH  25  26
ENDBRANCH  24  25
ENDBRANCH  23  24
ENDBRANCH  22  23
ENDBRANCH  21  22
ENDBRANCH  20  21
ENDBRANCH  19  20
ENDBRANCH  18  19
ENDBRANCH  17  18
ENDBRANCH   1  17
TORSDOF 26
ENDMDL
MODEL 2
REMARK VINA RESULT:    -3.682      1.585      3.769
REMARK INTER + INTRA:         -13.313
REMARK INTER:                  -8.192
REMARK INTRA:                  -5.122
REMARK UNBOUND:                -4.034
REMARK SMILES CCCCCCCCCCCCCCCCCCCCCCCCCCCC(=O)[O-]
REMARK SMILES IDX 15 1 16 2 17 3 18 4 19 5 20 6 21 7 22 8 23 9 24 10 25 11
REMARK SMILES IDX 26 12 27 13 28 14 29 15 30 16 14 17 13 18 12 19 11 20 10 21
REMARK SMILES IDX 9 22 8 23 7 24 6 25 5 26 4 27 3 28 2 29 1 30
REMARK H PARENT
REMARK Flexibility Score: inf
ROOT
ATOM      1  C   UNL     1    -100.052 151.953 237.444  1.00  0.00     0.000 C 
ENDROOT
BRANCH   1   2
ATOM      2  C   UNL     1     -99.257 150.960 238.316  1.00  0.00     0.000 C 
BRANCH   2   3
ATOM      3  C   UNL     1     -99.612 149.481 238.058  1.00  0.00     0.000 C 
BRANCH   3   4
ATOM      4  C   UNL     1     -98.404 148.645 237.595  1.00  0.00     0.000 C 
BRANCH   4   5
ATOM      5  C   UNL     1     -97.208 149.516 237.174  1.00  0.00     0.000 C 
BRANCH   5   6
ATOM      6  C   UNL     1     -95.912 148.705 236.994  1.00  0.00     0.000 C 
BRANCH   6   7
ATOM      7  C   UNL     1     -94.689 149.413 237.605  1.00  0.00     0.000 C 
BRANCH   7   8
ATOM      8  C   UNL     1     -94.518 149.165 239.116  1.00  0.00     0.000 C 
BRANCH   8   9
ATOM      9  C   UNL     1     -94.945 147.744 239.530  1.00  0.00     0.000 C 
BRANCH   9  10
ATOM     10  C   UNL     1     -95.994 147.748 240.656  1.00  0.00     0.000 C 
BRANCH  10  11
ATOM     11  C   UNL     1     -96.709 149.104 240.785  1.00  0.00     0.000 C 
BRANCH  11  12
ATOM     12  C   UNL     1     -98.086 148.995 241.468  1.00  0.00     0.006 C 
BRANCH  12  13
ATOM     13  C   UNL     1     -98.632 150.337 241.985  1.00  0.00     0.053 C 
BRANCH  13  14
ATOM     14  C   UNL     1     -98.927 150.309 243.452  1.00  0.00     0.041 C 
ATOM     15  O   UNL     1     -99.376 149.263 243.992  1.00  0.00    -0.550 OA
ATOM     16  O   UNL     1     -98.693 151.435 244.229  1.00  0.00    -0.550 OA
ENDBRANCH  13  14
ENDBRANCH  12  13
ENDBRANCH  11  12
ENDBRANCH  10  11
ENDBRANCH   9  10
ENDBRANCH   8   9
ENDBRANCH   7   8
ENDBRANCH   6   7
ENDBRANCH   5   6
ENDBRANCH   4   5
ENDBRANCH   3   4
ENDBRANCH   2   3
ENDBRANCH   1   2
BRANCH   1  17
ATOM     17  C   UNL     1     -99.501 152.165 236.020  1.00  0.00     0.000 C 
BRANCH  17  18
ATOM     18  C   UNL     1    -100.513 151.898 234.889  1.00  0.00     0.000 C 
BRANCH  18  19
ATOM     19  C   UNL     1     -99.917 151.060 233.746  1.00  0.00     0.000 C 
BRANCH  19  20
ATOM     20  C   UNL     1     -99.531 149.638 234.188  1.00  0.00     0.000 C 
BRANCH  20  21
ATOM     21  C   UNL     1     -98.083 149.225 233.853  1.00  0.00     0.000 C 
BRANCH  21  22
ATOM     22  C   UNL     1     -97.296 150.228 232.988  1.00  0.00    -0.000 C 
BRANCH  22  23
ATOM     23  C   UNL     1     -96.008 150.780 233.630  1.00  0.00    -0.000 C 
BRANCH  23  24
ATOM     24  C   UNL     1     -96.205 152.115 234.380  1.00  0.00    -0.000 C 
BRANCH  24  25
ATOM     25  C   UNL     1     -96.859 153.195 233.500  1.00  0.00    -0.000 C 
BRANCH  25  26
ATOM     26  C   UNL     1     -97.537 154.312 234.315  1.00  0.00    -0.000 C 
BRANCH  26  27
ATOM     27  C   UNL     1     -98.344 155.330 233.488  1.00  0.00    -0.000 C 
BRANCH  27  28
ATOM     28  C   UNL     1     -99.875 155.237 233.634  1.00  0.00    -0.000 C 
BRANCH  28  29
ATOM     29  C   UNL     1    -100.468 156.211 234.676  1.00  0.00    -0.003 C 
ATOM     30  C   UNL     1    -101.136 155.494 235.851  1.00  0.00     0.004 C 
ENDBRANCH  28  29
ENDBRANCH  27  28
ENDBRANCH  26  27
ENDBRANCH  25  26
ENDBRANCH  24  25
ENDBRANCH  23  24
ENDBRANCH  22  23
ENDBRANCH  21  22
ENDBRANCH  20  21
ENDBRANCH  19  20
ENDBRANCH  18  19
ENDBRANCH  17  18
ENDBRANCH   1  17
TORSDOF 26
ENDMDL
MODEL 3
REMARK VINA RESULT:    -3.661      1.714      3.577
REMARK INTER + INTRA:         -13.260
REMARK INTER:                  -8.812
REMARK INTRA:                  -4.449
REMARK UNBOUND:                -4.034
REMARK SMILES CCCCCCCCCCCCCCCCCCCCCCCCCCCC(=O)[O-]
REMARK SMILES IDX 15 1 16 2 17 3 18 4 19 5 20 6 21 7 22 8 23 9 24 10 25 11
REMARK SMILES IDX 26 12 27 13 28 14 29 15 30 16 14 17 13 18 12 19 11 20 10 21
REMARK SMILES IDX 9 22 8 23 7 24 6 25 5 26 4 27 3 28 2 29 1 30
REMARK H PARENT
REMARK Flexibility Score: inf
ROOT
ATOM      1  C   UNL     1     -97.442 148.016 237.000  1.00  0.00     0.000 C 
ENDROOT
BRANCH   1   2
ATOM      2  C   UNL     1     -97.029 149.313 236.275  1.00  0.00     0.000 C 
BRANCH   2   3
ATOM      3  C   UNL     1     -95.528 149.648 236.402  1.00  0.00     0.000 C 
BRANCH   3   4
ATOM      4  C   UNL     1     -94.682 148.447 236.863  1.00  0.00     0.000 C 
BRANCH   4   5
ATOM      5  C   UNL     1     -94.017 148.681 238.231  1.00  0.00     0.000 C 
BRANCH   5   6
ATOM      6  C   UNL     1     -94.519 147.707 239.313  1.00  0.00     0.000 C 
BRANCH   6   7
ATOM      7  C   UNL     1     -95.604 148.334 240.207  1.00  0.00     0.000 C 
BRANCH   7   8
ATOM      8  C   UNL     1     -95.773 149.853 240.010  1.00  0.00     0.000 C 
BRANCH   8   9
ATOM      9  C   UNL     1     -97.096 150.377 240.597  1.00  0.00     0.000 C 
BRANCH   9  10
ATOM     10  C   UNL     1     -97.669 149.449 241.683  1.00  0.00     0.000 C 
BRANCH  10  11
ATOM     11  C   UNL     1     -99.207 149.433 241.686  1.00  0.00     0.000 C 
BRANCH  11  12
ATOM     12  C   UNL     1     -99.816 150.343 242.771  1.00  0.00     0.006 C 
BRANCH  12  13
ATOM     13  C   UNL     1     -98.777 150.959 243.721  1.00  0.00     0.053 C 
BRANCH  13  14
ATOM     14  C   UNL     1     -99.404 151.770 244.812  1.00  0.00     0.041 C 
ATOM     15  O   UNL     1     -98.757 152.040 245.858  1.00  0.00    -0.550 OA
ATOM     16  O   UNL     1    -100.702 152.242 244.668  1.00  0.00    -0.550 OA
ENDBRANCH  13  14
ENDBRANCH  12  13
ENDBRANCH  11  12
ENDBRANCH  10  11
ENDBRANCH   9  10
ENDBRANCH   8   9
ENDBRANCH   7   8
ENDBRANCH   6   7
ENDBRANCH   5   6
ENDBRANCH   4   5
ENDBRANCH   3   4
ENDBRANCH   2   3
ENDBRANCH   1   2
BRANCH   1  17
ATOM     17  C   UNL     1     -98.621 148.160 237.982  1.00  0.00     0.000 C 
BRANCH  17  18
ATOM     18  C   UNL     1     -99.838 148.924 237.424  1.00  0.00     0.000 C 
BRANCH  18  19
ATOM     19  C   UNL     1    -100.340 150.019 238.380  1.00  0.00     0.000 C 
BRANCH  19  20
ATOM     20  C   UNL     1     -99.547 151.331 238.253  1.00  0.00     0.000 C 
BRANCH  20  21
ATOM     21  C   UNL     1    -100.209 152.406 237.366  1.00  0.00     0.000 C 
BRANCH  21  22
ATOM     22  C   UNL     1     -99.550 152.619 235.990  1.00  0.00    -0.000 C 
BRANCH  22  23
ATOM     23  C   UNL     1     -99.899 151.563 234.923  1.00  0.00    -0.000 C 
BRANCH  23  24
ATOM     24  C   UNL     1    -100.950 152.036 233.895  1.00  0.00    -0.000 C 
BRANCH  24  25
ATOM     25  C   UNL     1    -100.324 152.827 232.733  1.00  0.00    -0.000 C 
BRANCH  25  26
ATOM     26  C   UNL     1     -99.198 152.060 232.016  1.00  0.00    -0.000 C 
BRANCH  26  27
ATOM     27  C   UNL     1     -97.875 152.833 231.857  1.00  0.00    -0.000 C 
BRANCH  27  28
ATOM     28  C   UNL     1     -97.434 153.650 233.087  1.00  0.00    -0.000 C 
BRANCH  28  29
ATOM     29  C   UNL     1     -96.462 152.902 234.024  1.00  0.00    -0.003 C 
ATOM     30  C   UNL     1     -95.687 151.790 233.315  1.00  0.00     0.004 C 
ENDBRANCH  28  29
ENDBRANCH  27  28
ENDBRANCH  26  27
ENDBRANCH  25  26
ENDBRANCH  24  25
ENDBRANCH  23  24
ENDBRANCH  22  23
ENDBRANCH  21  22
ENDBRANCH  20  21
ENDBRANCH  19  20
ENDBRANCH  18  19
ENDBRANCH  17  18
ENDBRANCH   1  17
TORSDOF 26
ENDMDL
MODEL 4
REMARK VINA RESULT:    -3.626      3.792      7.495
REMARK INTER + INTRA:         -13.171
REMARK INTER:                  -8.385
REMARK INTRA:                  -4.786
REMARK UNBOUND:                -4.034
REMARK SMILES CCCCCCCCCCCCCCCCCCCCCCCCCCCC(=O)[O-]
REMARK SMILES IDX 15 1 16 2 17 3 18 4 19 5 20 6 21 7 22 8 23 9 24 10 25 11
REMARK SMILES IDX 26 12 27 13 28 14 29 15 30 16 14 17 13 18 12 19 11 20 10 21
REMARK SMILES IDX 9 22 8 23 7 24 6 25 5 26 4 27 3 28 2 29 1 30
REMARK H PARENT
REMARK Flexibility Score: inf
ROOT
ATOM      1  C   UNL     1     -95.056 149.473 238.495  1.00  0.00     0.000 C 
ENDROOT
BRANCH   1   2
ATOM      2  C   UNL     1     -94.294 148.547 237.525  1.00  0.00     0.000 C 
BRANCH   2   3
ATOM      3  C   UNL     1     -95.212 147.725 236.597  1.00  0.00     0.000 C 
BRANCH   3   4
ATOM      4  C   UNL     1     -96.704 148.059 236.779  1.00  0.00     0.000 C 
BRANCH   4   5
ATOM      5  C   UNL     1     -97.313 148.743 235.543  1.00  0.00     0.000 C 
BRANCH   5   6
ATOM      6  C   UNL     1     -96.978 150.244 235.465  1.00  0.00     0.000 C 
BRANCH   6   7
ATOM      7  C   UNL     1     -95.939 150.557 234.373  1.00  0.00     0.000 C 
BRANCH   7   8
ATOM      8  C   UNL     1     -95.961 152.021 233.894  1.00  0.00     0.000 C 
BRANCH   8   9
ATOM      9  C   UNL     1     -97.155 152.317 232.966  1.00  0.00     0.000 C 
BRANCH   9  10
ATOM     10  C   UNL     1     -97.657 153.765 233.096  1.00  0.00     0.000 C 
BRANCH  10  11
ATOM     11  C   UNL     1     -97.419 154.344 234.501  1.00  0.00     0.000 C 
BRANCH  11  12
ATOM     12  C   UNL     1     -98.026 155.749 234.684  1.00  0.00     0.006 C 
BRANCH  12  13
ATOM     13  C   UNL     1     -99.563 155.771 234.655  1.00  0.00     0.053 C 
BRANCH  13  14
ATOM     14  C   UNL     1    -100.104 156.558 233.502  1.00  0.00     0.041 C 
ATOM     15  O   UNL     1    -101.282 156.367 233.098  1.00  0.00    -0.550 OA
ATOM     16  O   UNL     1     -99.313 157.514 232.882  1.00  0.00    -0.550 OA
ENDBRANCH  13  14
ENDBRANCH  12  13
ENDBRANCH  11  12
ENDBRANCH  10  11
ENDBRANCH   9  10
ENDBRANCH   8   9
ENDBRANCH   7   8
ENDBRANCH   6   7
ENDBRANCH   5   6
ENDBRANCH   4   5
ENDBRANCH   3   4
ENDBRANCH   2   3
ENDBRANCH   1   2
BRANCH   1  17
ATOM     17  C   UNL     1     -94.851 149.169 239.992  1.00  0.00     0.000 C 
BRANCH  17  18
ATOM     18  C   UNL     1     -95.044 147.690 240.382  1.00  0.00     0.000 C 
BRANCH  18  19
ATOM     19  C   UNL     1     -96.513 147.243 240.303  1.00  0.00     0.000 C 
BRANCH  19  20
ATOM     20  C   UNL     1     -97.332 147.665 241.535  1.00  0.00     0.000 C 
BRANCH  20  21
ATOM     21  C   UNL     1     -98.465 148.671 241.247  1.00  0.00     0.000 C 
BRANCH  21  22
ATOM     22  C   UNL     1     -98.111 150.149 241.497  1.00  0.00    -0.000 C 
BRANCH  22  23
ATOM     23  C   UNL     1     -97.966 151.014 240.229  1.00  0.00    -0.000 C 
BRANCH  23  24
ATOM     24  C   UNL     1     -98.649 150.414 238.981  1.00  0.00    -0.000 C 
BRANCH  24  25
ATOM     25  C   UNL     1     -99.799 151.293 238.458  1.00  0.00    -0.000 C 
BRANCH  25  26
ATOM     26  C   UNL     1     -99.433 152.071 237.180  1.00  0.00    -0.000 C 
BRANCH  26  27
ATOM     27  C   UNL     1    -100.619 152.730 236.451  1.00  0.00    -0.000 C 
BRANCH  27  28
ATOM     28  C   UNL     1    -100.890 152.211 235.025  1.00  0.00    -0.000 C 
BRANCH  28  29
ATOM     29  C   UNL     1    -100.658 150.694 234.853  1.00  0.00    -0.003 C 
ATOM     30  C   UNL     1    -100.066 150.332 233.490  1.00  0.00     0.004 C 
ENDBRANCH  28  29
ENDBRANCH  27  28
ENDBRANCH  26  27
ENDBRANCH  25  26
ENDBRANCH  24  25
ENDBRANCH  23  24
ENDBRANCH  22  23
ENDBRANCH  21  22
ENDBRANCH  20  21
ENDBRANCH  19  20
ENDBRANCH  18  19
ENDBRANCH  17  18
ENDBRANCH   1  17
TORSDOF 26
ENDMDL
MODEL 5
REMARK VINA RESULT:    -3.617      3.300      4.606
REMARK INTER + INTRA:         -13.149
REMARK INTER:                  -8.764
REMARK INTRA:                  -4.385
REMARK UNBOUND:                -4.034
REMARK SMILES CCCCCCCCCCCCCCCCCCCCCCCCCCCC(=O)[O-]
REMARK SMILES IDX 15 1 16 2 17 3 18 4 19 5 20 6 21 7 22 8 23 9 24 10 25 11
REMARK SMILES IDX 26 12 27 13 28 14 29 15 30 16 14 17 13 18 12 19 11 20 10 21
REMARK SMILES IDX 9 22 8 23 7 24 6 25 5 26 4 27 3 28 2 29 1 30
REMARK H PARENT
REMARK Flexibility Score: inf
ROOT
ATOM      1  C   UNL     1     -95.444 149.074 237.217  1.00  0.00     0.000 C 
ENDROOT
BRANCH   1   2
ATOM      2  C   UNL     1     -94.259 149.132 238.202  1.00  0.00     0.000 C 
BRANCH   2   3
ATOM      3  C   UNL     1     -94.677 149.367 239.668  1.00  0.00     0.000 C 
BRANCH   3   4
ATOM      4  C   UNL     1     -95.520 148.214 240.244  1.00  0.00     0.000 C 
BRANCH   4   5
ATOM      5  C   UNL     1     -96.890 148.685 240.763  1.00  0.00     0.000 C 
BRANCH   5   6
ATOM      6  C   UNL     1     -97.025 150.218 240.786  1.00  0.00     0.000 C 
BRANCH   6   7
ATOM      7  C   UNL     1     -98.242 150.711 239.980  1.00  0.00     0.000 C 
BRANCH   7   8
ATOM      8  C   UNL     1     -98.757 149.692 238.946  1.00  0.00     0.000 C 
BRANCH   8   9
ATOM      9  C   UNL     1     -98.844 150.287 237.528  1.00  0.00     0.000 C 
BRANCH   9  10
ATOM     10  C   UNL     1    -100.145 149.901 236.804  1.00  0.00     0.000 C 
BRANCH  10  11
ATOM     11  C   UNL     1    -100.975 151.130 236.397  1.00  0.00     0.000 C 
BRANCH  11  12
ATOM     12  C   UNL     1    -100.324 152.462 236.817  1.00  0.00     0.006 C 
BRANCH  12  13
ATOM     13  C   UNL     1    -101.320 153.624 236.961  1.00  0.00     0.053 C 
BRANCH  13  14
ATOM     14  C   UNL     1    -101.226 154.605 235.835  1.00  0.00     0.041 C 
ATOM     15  O   UNL     1    -101.348 154.218 234.642  1.00  0.00    -0.550 OA
ATOM     16  O   UNL     1    -101.018 155.951 236.101  1.00  0.00    -0.550 OA
ENDBRANCH  13  14
ENDBRANCH  12  13
ENDBRANCH  11  12
ENDBRANCH  10  11
ENDBRANCH   9  10
ENDBRANCH   8   9
ENDBRANCH   7   8
ENDBRANCH   6   7
ENDBRANCH   5   6
ENDBRANCH   4   5
ENDBRANCH   3   4
ENDBRANCH   2   3
ENDBRANCH   1   2
BRANCH   1  17
ATOM     17  C   UNL     1     -95.498 147.816 236.328  1.00  0.00     0.000 C 
BRANCH  17  18
ATOM     18  C   UNL     1     -94.187 147.007 236.272  1.00  0.00     0.000 C 
BRANCH  18  19
ATOM     19  C   UNL     1     -93.494 147.096 234.902  1.00  0.00     0.000 C 
BRANCH  19  20
ATOM     20  C   UNL     1     -94.465 147.457 233.766  1.00  0.00     0.000 C 
BRANCH  20  21
ATOM     21  C   UNL     1     -94.014 148.633 232.875  1.00  0.00     0.000 C 
BRANCH  21  22
ATOM     22  C   UNL     1     -94.820 149.934 233.044  1.00  0.00    -0.000 C 
BRANCH  22  23
ATOM     23  C   UNL     1     -96.315 149.834 232.682  1.00  0.00    -0.000 C 
BRANCH  23  24
ATOM     24  C   UNL     1     -97.258 149.863 233.903  1.00  0.00    -0.000 C 
BRANCH  24  25
ATOM     25  C   UNL     1     -97.405 151.273 234.502  1.00  0.00    -0.000 C 
BRANCH  25  26
ATOM     26  C   UNL     1     -98.378 152.168 233.713  1.00  0.00    -0.000 C 
BRANCH  26  27
ATOM     27  C   UNL     1     -97.834 153.559 233.339  1.00  0.00    -0.000 C 
BRANCH  27  28
ATOM     28  C   UNL     1     -97.651 154.537 234.517  1.00  0.00    -0.000 C 
BRANCH  28  29
ATOM     29  C   UNL     1     -98.080 155.987 234.204  1.00  0.00    -0.003 C 
ATOM     30  C   UNL     1     -98.692 156.140 232.810  1.00  0.00     0.004 C 
ENDBRANCH  28  29
ENDBRANCH  27  28
ENDBRANCH  26  27
ENDBRANCH  25  26
ENDBRANCH  24  25
ENDBRANCH  23  24
ENDBRANCH  22  23
ENDBRANCH  21  22
ENDBRANCH  20  21
ENDBRANCH  19  20
ENDBRANCH  18  19
ENDBRANCH  17  18
ENDBRANCH   1  17
TORSDOF 26
ENDMDL
MODEL 6
REMARK VINA RESULT:    -3.574      3.530      6.909
REMARK INTER + INTRA:         -13.041
REMARK INTER:                  -7.884
REMARK INTRA:                  -5.157
REMARK UNBOUND:                -4.034
REMARK SMILES CCCCCCCCCCCCCCCCCCCCCCCCCCCC(=O)[O-]
REMARK SMILES IDX 15 1 16 2 17 3 18 4 19 5 20 6 21 7 22 8 23 9 24 10 25 11
REMARK SMILES IDX 26 12 27 13 28 14 29 15 30 16 14 17 13 18 12 19 11 20 10 21
REMARK SMILES IDX 9 22 8 23 7 24 6 25 5 26 4 27 3 28 2 29 1 30
REMARK H PARENT
REMARK Flexibility Score: inf
ROOT
ATOM      1  C   UNL     1     -96.691 148.546 240.786  1.00  0.00     0.000 C 
ENDROOT
BRANCH   1   2
ATOM      2  C   UNL     1     -95.386 148.014 240.160  1.00  0.00     0.000 C 
BRANCH   2   3
ATOM      3  C   UNL     1     -94.546 149.098 239.452  1.00  0.00     0.000 C 
BRANCH   3   4
ATOM      4  C   UNL     1     -94.241 148.756 237.982  1.00  0.00     0.000 C 
BRANCH   4   5
ATOM      5  C   UNL     1     -95.041 149.625 236.995  1.00  0.00     0.000 C 
BRANCH   5   6
ATOM      6  C   UNL     1     -95.694 148.802 235.869  1.00  0.00     0.000 C 
BRANCH   6   7
ATOM      7  C   UNL     1     -95.991 149.652 234.620  1.00  0.00     0.000 C 
BRANCH   7   8
ATOM      8  C   UNL     1     -95.741 151.159 234.818  1.00  0.00     0.000 C 
BRANCH   8   9
ATOM      9  C   UNL     1     -95.744 151.934 233.488  1.00  0.00     0.000 C 
BRANCH   9  10
ATOM     10  C   UNL     1     -97.067 152.681 233.242  1.00  0.00     0.000 C 
BRANCH  10  11
ATOM     11  C   UNL     1     -97.305 153.803 234.266  1.00  0.00     0.000 C 
BRANCH  11  12
ATOM     12  C   UNL     1     -98.794 153.996 234.614  1.00  0.00     0.006 C 
BRANCH  12  13
ATOM     13  C   UNL     1     -99.504 155.047 233.745  1.00  0.00     0.053 C 
BRANCH  13  14
ATOM     14  C   UNL     1    -100.644 155.705 234.458  1.00  0.00     0.041 C 
ATOM     15  O   UNL     1    -100.591 155.900 235.701  1.00  0.00    -0.550 OA
ATOM     16  O   UNL     1    -101.762 156.119 233.747  1.00  0.00    -0.550 OA
ENDBRANCH  13  14
ENDBRANCH  12  13
ENDBRANCH  11  12
ENDBRANCH  10  11
ENDBRANCH   9  10
ENDBRANCH   8   9
ENDBRANCH   7   8
ENDBRANCH   6   7
ENDBRANCH   5   6
ENDBRANCH   4   5
ENDBRANCH   3   4
ENDBRANCH   2   3
ENDBRANCH   1   2
BRANCH   1  17
ATOM     17  C   UNL     1     -96.946 150.054 240.591  1.00  0.00     0.000 C 
BRANCH  17  18
ATOM     18  C   UNL     1     -98.431 150.465 240.603  1.00  0.00     0.000 C 
BRANCH  18  19
ATOM     19  C   UNL     1     -98.884 151.089 239.272  1.00  0.00     0.000 C 
BRANCH  19  20
ATOM     20  C   UNL     1     -98.631 150.168 238.067  1.00  0.00     0.000 C 
BRANCH  20  21
ATOM     21  C   UNL     1     -98.886 150.816 236.690  1.00  0.00     0.000 C 
BRANCH  21  22
ATOM     22  C   UNL     1     -99.775 149.998 235.733  1.00  0.00    -0.000 C 
BRANCH  22  23
ATOM     23  C   UNL     1     -99.656 150.374 234.243  1.00  0.00    -0.000 C 
BRANCH  23  24
ATOM     24  C   UNL     1    -100.933 151.012 233.655  1.00  0.00    -0.000 C 
BRANCH  24  25
ATOM     25  C   UNL     1    -102.036 151.206 234.711  1.00  0.00    -0.000 C 
BRANCH  25  26
ATOM     26  C   UNL     1    -102.605 152.636 234.737  1.00  0.00    -0.000 C 
BRANCH  26  27
ATOM     27  C   UNL     1    -102.845 153.221 236.142  1.00  0.00    -0.000 C 
BRANCH  27  28
ATOM     28  C   UNL     1    -101.736 152.938 237.174  1.00  0.00    -0.000 C 
BRANCH  28  29
ATOM     29  C   UNL     1    -102.239 152.269 238.471  1.00  0.00    -0.003 C 
ATOM     30  C   UNL     1    -102.474 150.765 238.315  1.00  0.00     0.004 C 
ENDBRANCH  28  29
ENDBRANCH  27  28
ENDBRANCH  26  27
ENDBRANCH  25  26
ENDBRANCH  24  25
ENDBRANCH  23  24
ENDBRANCH  22  23
ENDBRANCH  21  22
ENDBRANCH  20  21
ENDBRANCH  19  20
ENDBRANCH  18  19
ENDBRANCH  17  18
ENDBRANCH   1  17
TORSDOF 26
ENDMDL
MODEL 7
REMARK VINA RESULT:    -3.562      4.064      8.917
REMARK INTER + INTRA:         -13.010
REMARK INTER:                  -8.066
REMARK INTRA:                  -4.944
REMARK UNBOUND:                -4.034
REMARK SMILES CCCCCCCCCCCCCCCCCCCCCCCCCCCC(=O)[O-]
REMARK SMILES IDX 15 1 16 2 17 3 18 4 19 5 20 6 21 7 22 8 23 9 24 10 25 11
REMARK SMILES IDX 26 12 27 13 28 14 29 15 30 16 14 17 13 18 12 19 11 20 10 21
REMARK SMILES IDX 9 22 8 23 7 24 6 25 5 26 4 27 3 28 2 29 1 30
REMARK H PARENT
REMARK Flexibility Score: inf
ROOT
ATOM      1  C   UNL     1     -97.662 149.454 237.051  1.00  0.00     0.000 C 
ENDROOT
BRANCH   1   2
ATOM      2  C   UNL     1     -98.647 150.039 236.018  1.00  0.00     0.000 C 
BRANCH   2   3
ATOM      3  C   UNL     1     -99.159 151.450 236.373  1.00  0.00     0.000 C 
BRANCH   3   4
ATOM      4  C   UNL     1    -100.067 152.051 235.283  1.00  0.00     0.000 C 
BRANCH   4   5
ATOM      5  C   UNL     1    -100.171 151.153 234.039  1.00  0.00     0.000 C 
BRANCH   5   6
ATOM      6  C   UNL     1     -99.739 151.870 232.747  1.00  0.00     0.000 C 
BRANCH   6   7
ATOM      7  C   UNL     1     -99.624 153.394 232.933  1.00  0.00     0.000 C 
BRANCH   7   8
ATOM      8  C   UNL     1     -98.261 153.972 232.508  1.00  0.00     0.000 C 
BRANCH   8   9
ATOM      9  C   UNL     1     -97.115 152.957 232.677  1.00  0.00     0.000 C 
BRANCH   9  10
ATOM     10  C   UNL     1     -96.553 152.934 234.109  1.00  0.00     0.000 C 
BRANCH  10  11
ATOM     11  C   UNL     1     -95.783 151.638 234.414  1.00  0.00     0.000 C 
BRANCH  11  12
ATOM     12  C   UNL     1     -96.046 150.524 233.382  1.00  0.00     0.006 C 
BRANCH  12  13
ATOM     13  C   UNL     1     -94.848 149.587 233.159  1.00  0.00     0.053 C 
BRANCH  13  14
ATOM     14  C   UNL     1     -94.923 148.857 231.855  1.00  0.00     0.041 C 
ATOM     15  O   UNL     1     -93.946 148.871 231.060  1.00  0.00    -0.550 OA
ATOM     16  O   UNL     1     -96.068 148.147 231.521  1.00  0.00    -0.550 OA
ENDBRANCH  13  14
ENDBRANCH  12  13
ENDBRANCH  11  12
ENDBRANCH  10  11
ENDBRANCH   9  10
ENDBRANCH   8   9
ENDBRANCH   7   8
ENDBRANCH   6   7
ENDBRANCH   5   6
ENDBRANCH   4   5
ENDBRANCH   3   4
ENDBRANCH   2   3
ENDBRANCH   1   2
BRANCH   1  17
ATOM     17  C   UNL     1     -97.110 148.056 236.714  1.00  0.00     0.000 C 
BRANCH  17  18
ATOM     18  C   UNL     1     -95.589 148.004 236.471  1.00  0.00     0.000 C 
BRANCH  18  19
ATOM     19  C   UNL     1     -94.852 149.217 237.063  1.00  0.00     0.000 C 
BRANCH  19  20
ATOM     20  C   UNL     1     -94.106 148.884 238.366  1.00  0.00     0.000 C 
BRANCH  20  21
ATOM     21  C   UNL     1     -94.779 149.408 239.651  1.00  0.00     0.000 C 
BRANCH  21  22
ATOM     22  C   UNL     1     -95.654 148.386 240.400  1.00  0.00    -0.000 C 
BRANCH  22  23
ATOM     23  C   UNL     1     -96.987 148.935 240.947  1.00  0.00    -0.000 C 
BRANCH  23  24
ATOM     24  C   UNL     1     -97.227 150.426 240.627  1.00  0.00    -0.000 C 
BRANCH  24  25
ATOM     25  C   UNL     1     -98.700 150.731 240.306  1.00  0.00    -0.000 C 
BRANCH  25  26
ATOM     26  C   UNL     1     -99.558 149.463 240.138  1.00  0.00    -0.000 C 
BRANCH  26  27
ATOM     27  C   UNL     1    -100.797 149.384 241.049  1.00  0.00    -0.000 C 
BRANCH  27  28
ATOM     28  C   UNL     1    -100.776 150.315 242.277  1.00  0.00    -0.000 C 
BRANCH  28  29
ATOM     29  C   UNL     1    -100.003 149.744 243.486  1.00  0.00    -0.003 C 
ATOM     30  C   UNL     1     -98.950 150.711 244.032  1.00  0.00     0.004 C 
ENDBRANCH  28  29
ENDBRANCH  27  28
ENDBRANCH  26  27
ENDBRANCH  25  26
ENDBRANCH  24  25
ENDBRANCH  23  24
ENDBRANCH  22  23
ENDBRANCH  21  22
ENDBRANCH  20  21
ENDBRANCH  19  20
ENDBRANCH  18  19
ENDBRANCH  17  18
ENDBRANCH   1  17
TORSDOF 26
ENDMDL
MODEL 8
REMARK VINA RESULT:    -3.559      1.498      3.029
REMARK INTER + INTRA:         -13.002
REMARK INTER:                  -8.401
REMARK INTRA:                  -4.601
REMARK UNBOUND:                -4.034
REMARK SMILES CCCCCCCCCCCCCCCCCCCCCCCCCCCC(=O)[O-]
REMARK SMILES IDX 15 1 16 2 17 3 18 4 19 5 20 6 21 7 22 8 23 9 24 10 25 11
REMARK SMILES IDX 26 12 27 13 28 14 29 15 30 16 14 17 13 18 12 19 11 20 10 21
REMARK SMILES IDX 9 22 8 23 7 24 6 25 5 26 4 27 3 28 2 29 1 30
REMARK H PARENT
REMARK Flexibility Score: inf
ROOT
ATOM      1  C   UNL     1     -95.026 149.652 239.975  1.00  0.00     0.000 C 
ENDROOT
BRANCH   1   2
ATOM      2  C   UNL     1     -96.523 150.014 240.063  1.00  0.00     0.000 C 
BRANCH   2   3
ATOM      3  C   UNL     1     -97.441 149.069 239.261  1.00  0.00     0.000 C 
BRANCH   3   4
ATOM      4  C   UNL     1     -98.384 149.818 238.301  1.00  0.00     0.000 C 
BRANCH   4   5
ATOM      5  C   UNL     1     -99.082 151.015 238.971  1.00  0.00     0.000 C 
BRANCH   5   6
ATOM      6  C   UNL     1    -100.611 150.988 238.797  1.00  0.00     0.000 C 
BRANCH   6   7
ATOM      7  C   UNL     1    -101.293 149.989 239.749  1.00  0.00     0.000 C 
BRANCH   7   8
ATOM      8  C   UNL     1    -100.856 150.133 241.219  1.00  0.00     0.000 C 
BRANCH   8   9
ATOM      9  C   UNL     1    -100.260 148.830 241.784  1.00  0.00     0.000 C 
BRANCH   9  10
ATOM     10  C   UNL     1     -99.039 149.082 242.687  1.00  0.00     0.000 C 
BRANCH  10  11
ATOM     11  C   UNL     1     -98.727 150.580 242.844  1.00  0.00     0.000 C 
BRANCH  11  12
ATOM     12  C   UNL     1     -98.923 151.087 244.286  1.00  0.00     0.006 C 
BRANCH  12  13
ATOM     13  C   UNL     1    -100.397 151.204 244.709  1.00  0.00     0.053 C 
BRANCH  13  14
ATOM     14  C   UNL     1    -100.760 150.241 245.795  1.00  0.00     0.041 C 
ATOM     15  O   UNL     1     -99.910 149.910 246.664  1.00  0.00    -0.550 OA
ATOM     16  O   UNL     1    -102.044 149.717 245.859  1.00  0.00    -0.550 OA
ENDBRANCH  13  14
ENDBRANCH  12  13
ENDBRANCH  11  12
ENDBRANCH  10  11
ENDBRANCH   9  10
ENDBRANCH   8   9
ENDBRANCH   7   8
ENDBRANCH   6   7
ENDBRANCH   5   6
ENDBRANCH   4   5
ENDBRANCH   3   4
ENDBRANCH   2   3
ENDBRANCH   1   2
BRANCH   1  17
ATOM     17  C   UNL     1     -94.717 148.293 239.316  1.00  0.00     0.000 C 
BRANCH  17  18
ATOM     18  C   UNL     1     -94.018 148.384 237.945  1.00  0.00     0.000 C 
BRANCH  18  19
ATOM     19  C   UNL     1     -94.701 147.518 236.874  1.00  0.00     0.000 C 
BRANCH  19  20
ATOM     20  C   UNL     1     -95.710 148.308 236.024  1.00  0.00     0.000 C 
BRANCH  20  21
ATOM     21  C   UNL     1     -95.429 149.821 235.922  1.00  0.00     0.000 C 
BRANCH  21  22
ATOM     22  C   UNL     1     -96.368 150.602 234.984  1.00  0.00    -0.000 C 
BRANCH  22  23
ATOM     23  C   UNL     1     -95.697 151.203 233.733  1.00  0.00    -0.000 C 
BRANCH  23  24
ATOM     24  C   UNL     1     -96.365 152.500 233.227  1.00  0.00    -0.000 C 
BRANCH  24  25
ATOM     25  C   UNL     1     -96.709 153.471 234.369  1.00  0.00    -0.000 C 
BRANCH  25  26
ATOM     26  C   UNL     1     -98.009 154.259 234.124  1.00  0.00    -0.000 C 
BRANCH  26  27
ATOM     27  C   UNL     1     -99.302 153.424 234.176  1.00  0.00    -0.000 C 
BRANCH  27  28
ATOM     28  C   UNL     1     -99.479 152.557 235.439  1.00  0.00    -0.000 C 
BRANCH  28  29
ATOM     29  C   UNL     1     -99.994 151.130 235.154  1.00  0.00    -0.003 C 
ATOM     30  C   UNL     1     -99.827 150.715 233.691  1.00  0.00     0.004 C 
ENDBRANCH  28  29
ENDBRANCH  27  28
ENDBRANCH  26  27
ENDBRANCH  25  26
ENDBRANCH  24  25
ENDBRANCH  23  24
ENDBRANCH  22  23
ENDBRANCH  21  22
ENDBRANCH  20  21
ENDBRANCH  19  20
ENDBRANCH  18  19
ENDBRANCH  17  18
ENDBRANCH   1  17
TORSDOF 26
ENDMDL
MODEL 9
REMARK VINA RESULT:    -3.524      4.046      8.417
REMARK INTER + INTRA:         -12.915
REMARK INTER:                  -8.456
REMARK INTRA:                  -4.459
REMARK UNBOUND:                -4.034
REMARK SMILES CCCCCCCCCCCCCCCCCCCCCCCCCCCC(=O)[O-]
REMARK SMILES IDX 15 1 16 2 17 3 18 4 19 5 20 6 21 7 22 8 23 9 24 10 25 11
REMARK SMILES IDX 26 12 27 13 28 14 29 15 30 16 14 17 13 18 12 19 11 20 10 21
REMARK SMILES IDX 9 22 8 23 7 24 6 25 5 26 4 27 3 28 2 29 1 30
REMARK H PARENT
REMARK Flexibility Score: inf
ROOT
ATOM      1  C   UNL     1     -99.162 148.640 235.740  1.00  0.00     0.000 C 
ENDROOT
BRANCH   1   2
ATOM      2  C   UNL     1    -100.358 148.720 236.711  1.00  0.00     0.000 C 
BRANCH   2   3
ATOM      3  C   UNL     1     -99.957 149.019 238.171  1.00  0.00     0.000 C 
BRANCH   3   4
ATOM      4  C   UNL     1    -100.413 150.412 238.646  1.00  0.00     0.000 C 
BRANCH   4   5
ATOM      5  C   UNL     1     -99.477 151.536 238.169  1.00  0.00     0.000 C 
BRANCH   5   6
ATOM      6  C   UNL     1    -100.145 152.476 237.149  1.00  0.00     0.000 C 
BRANCH   6   7
ATOM      7  C   UNL     1     -99.524 152.354 235.746  1.00  0.00     0.000 C 
BRANCH   7   8
ATOM      8  C   UNL     1     -99.467 153.685 234.972  1.00  0.00     0.000 C 
BRANCH   8   9
ATOM      9  C   UNL     1     -98.032 154.232 234.852  1.00  0.00     0.000 C 
BRANCH   9  10
ATOM     10  C   UNL     1     -97.295 153.689 233.615  1.00  0.00     0.000 C 
BRANCH  10  11
ATOM     11  C   UNL     1     -96.299 152.572 233.972  1.00  0.00     0.000 C 
BRANCH  11  12
ATOM     12  C   UNL     1     -95.729 151.856 232.732  1.00  0.00     0.006 C 
BRANCH  12  13
ATOM     13  C   UNL     1     -96.347 150.472 232.473  1.00  0.00     0.053 C 
BRANCH  13  14
ATOM     14  C   UNL     1     -95.401 149.540 231.784  1.00  0.00     0.041 C 
ATOM     15  O   UNL     1     -95.051 149.753 230.592  1.00  0.00    -0.550 OA
ATOM     16  O   UNL     1     -94.891 148.442 232.462  1.00  0.00    -0.550 OA
ENDBRANCH  13  14
ENDBRANCH  12  13
ENDBRANCH  11  12
ENDBRANCH  10  11
ENDBRANCH   9  10
ENDBRANCH   8   9
ENDBRANCH   7   8
ENDBRANCH   6   7
ENDBRANCH   5   6
ENDBRANCH   4   5
ENDBRANCH   3   4
ENDBRANCH   2   3
ENDBRANCH   1   2
BRANCH   1  17
ATOM     17  C   UNL     1     -97.779 148.522 236.410  1.00  0.00     0.000 C 
BRANCH  17  18
ATOM     18  C   UNL     1     -96.821 149.696 236.126  1.00  0.00     0.000 C 
BRANCH  18  19
ATOM     19  C   UNL     1     -95.393 149.229 235.796  1.00  0.00     0.000 C 
BRANCH  19  20
ATOM     20  C   UNL     1     -95.184 147.727 236.050  1.00  0.00     0.000 C 
BRANCH  20  21
ATOM     21  C   UNL     1     -93.743 147.327 236.429  1.00  0.00     0.000 C 
BRANCH  21  22
ATOM     22  C   UNL     1     -93.494 147.115 237.934  1.00  0.00    -0.000 C 
BRANCH  22  23
ATOM     23  C   UNL     1     -94.008 148.243 238.851  1.00  0.00    -0.000 C 
BRANCH  23  24
ATOM     24  C   UNL     1     -94.959 147.757 239.967  1.00  0.00    -0.000 C 
BRANCH  24  25
ATOM     25  C   UNL     1     -96.387 148.306 239.806  1.00  0.00    -0.000 C 
BRANCH  25  26
ATOM     26  C   UNL     1     -96.435 149.839 239.672  1.00  0.00    -0.000 C 
BRANCH  26  27
ATOM     27  C   UNL     1     -97.258 150.567 240.751  1.00  0.00    -0.000 C 
BRANCH  27  28
ATOM     28  C   UNL     1     -98.006 149.652 241.741  1.00  0.00    -0.000 C 
BRANCH  28  29
ATOM     29  C   UNL     1     -98.687 150.406 242.904  1.00  0.00    -0.003 C 
ATOM     30  C   UNL     1     -99.576 149.504 243.761  1.00  0.00     0.004 C 
ENDBRANCH  28  29
ENDBRANCH  27  28
ENDBRANCH  26  27
ENDBRANCH  25  26
ENDBRANCH  24  25
ENDBRANCH  23  24
ENDBRANCH  22  23
ENDBRANCH  21  22
ENDBRANCH  20  21
ENDBRANCH  19  20
ENDBRANCH  18  19
ENDBRANCH  17  18
ENDBRANCH   1  17
TORSDOF 26
ENDMDL
