MODEL 1
REMARK VINA RESULT:    -3.478      0.000      0.000
REMARK INTER + INTRA:          -6.472
REMARK INTER:                  -5.307
REMARK INTRA:                  -1.164
REMARK UNBOUND:                -1.164
REMARK SMILES CCCCCCCCCCC(=O)[O-]
REMARK SMILES IDX 7 1 8 2 9 3 10 4 11 5 12 6 13 7 6 8 5 9 4 10 3 11 2 12 1 13
REMARK H PARENT
REMARK Flexibility Score: inf
ROOT
ATOM      1  C   UNL     1      -1.131   8.032  36.411  1.00  0.00     0.000 C 
ENDROOT
BRANCH   1   2
ATOM      2  C   UNL     1      -1.796   9.283  36.998  1.00  0.00     0.000 C 
BRANCH   2   3
ATOM      3  C   UNL     1      -2.299   9.022  38.422  1.00  0.00     0.006 C 
BRANCH   3   4
ATOM      4  C   UNL     1      -2.031   7.574  38.844  1.00  0.00     0.053 C 
BRANCH   4   5
ATOM      5  C   UNL     1      -3.017   7.139  39.881  1.00  0.00     0.041 C 
ATOM      6  O   UNL     1      -3.646   6.057  39.743  1.00  0.00    -0.550 OA
ATOM      7  O   UNL     1      -3.206   7.904  41.025  1.00  0.00    -0.550 OA
ENDBRANCH   4   5
ENDBRANCH   3   4
ENDBRANCH   2   3
ENDBRANCH   1   2
BRANCH   1   8
ATOM      8  C   UNL     1       0.144   8.397  35.639  1.00  0.00     0.000 C 
BRANCH   8   9
ATOM      9  C   UNL     1       0.958   9.458  36.394  1.00  0.00    -0.000 C 
BRANCH   9  10
ATOM     10  C   UNL     1       1.746   8.876  37.580  1.00  0.00    -0.000 C 
BRANCH  10  11
ATOM     11  C   UNL     1       1.543   9.608  38.922  1.00  0.00    -0.000 C 
BRANCH  11  12
ATOM     12  C   UNL     1       1.070   8.717  40.083  1.00  0.00    -0.003 C 
ATOM     13  C   UNL     1       0.231   9.472  41.112  1.00  0.00     0.004 C 
ENDBRANCH  11  12
ENDBRANCH  10  11
ENDBRANCH   9  10
ENDBRANCH   8   9
ENDBRANCH   1   8
TORSDOF 9
ENDMDL
MODEL 2
REMARK VINA RESULT:    -3.462      2.722      4.433
REMARK INTER + INTRA:          -6.448
REMARK INTER:                  -5.276
REMARK INTRA:                  -1.172
REMARK UNBOUND:                -1.164
REMARK SMILES CCCCCCCCCCC(=O)[O-]
REMARK SMILES IDX 7 1 8 2 9 3 10 4 11 5 12 6 13 7 6 8 5 9 4 10 3 11 2 12 1 13
REMARK H PARENT
REMARK Flexibility Score: inf
ROOT
ATOM      1  C   UNL     1      -0.033   9.318  38.911  1.00  0.00     0.000 C 
ENDROOT
BRANCH   1   2
ATOM      2  C   UNL     1      -1.214  10.112  38.340  1.00  0.00     0.000 C 
BRANCH   2   3
ATOM      3  C   UNL     1      -1.910   9.333  37.219  1.00  0.00     0.006 C 
BRANCH   3   4
ATOM      4  C   UNL     1      -1.264   7.959  37.020  1.00  0.00     0.053 C 
BRANCH   4   5
ATOM      5  C   UNL     1      -0.840   7.780  35.597  1.00  0.00     0.041 C 
ATOM      6  O   UNL     1      -0.109   8.641  35.040  1.00  0.00    -0.550 OA
ATOM      7  O   UNL     1      -1.212   6.638  34.899  1.00  0.00    -0.550 OA
ENDBRANCH   4   5
ENDBRANCH   3   4
ENDBRANCH   2   3
ENDBRANCH   1   2
BRANCH   1   8
ATOM      8  C   UNL     1       0.535   9.999  40.163  1.00  0.00     0.000 C 
BRANCH   8   9
ATOM      9  C   UNL     1       0.103   9.256  41.436  1.00  0.00    -0.000 C 
BRANCH   9  10
ATOM     10  C   UNL     1      -0.351   7.812  41.161  1.00  0.00    -0.000 C 
BRANCH  10  11
ATOM     11  C   UNL     1      -1.757   7.458  41.685  1.00  0.00    -0.000 C 
BRANCH  11  12
ATOM     12  C   UNL     1      -2.914   7.823  40.739  1.00  0.00    -0.003 C 
ATOM     13  C   UNL     1      -3.282   6.691  39.782  1.00  0.00     0.004 C 
ENDBRANCH  11  12
ENDBRANCH  10  11
ENDBRANCH   9  10
ENDBRANCH   8   9
ENDBRANCH   1   8
TORSDOF 9
ENDMDL
MODEL 3
REMARK VINA RESULT:    -3.459      2.801      4.280
REMARK INTER + INTRA:          -6.443
REMARK INTER:                  -5.294
REMARK INTRA:                  -1.148
REMARK UNBOUND:                -1.164
REMARK SMILES CCCCCCCCCCC(=O)[O-]
REMARK SMILES IDX 7 1 8 2 9 3 10 4 11 5 12 6 13 7 6 8 5 9 4 10 3 11 2 12 1 13
REMARK H PARENT
REMARK Flexibility Score: inf
ROOT
ATOM      1  C   UNL     1      -2.250   8.256  38.636  1.00  0.00     0.000 C 
ENDROOT
BRANCH   1   2
ATOM      2  C   UNL     1      -2.224   9.675  38.057  1.00  0.00     0.000 C 
BRANCH   2   3
ATOM      3  C   UNL     1      -1.731   9.669  36.606  1.00  0.00     0.006 C 
BRANCH   3   4
ATOM      4  C   UNL     1      -1.185   8.292  36.217  1.00  0.00     0.053 C 
BRANCH   4   5
ATOM      5  C   UNL     1       0.186   8.419  35.632  1.00  0.00     0.041 C 
ATOM      6  O   UNL     1       0.462   9.377  34.864  1.00  0.00    -0.550 OA
ATOM      7  O   UNL     1       1.176   7.505  35.975  1.00  0.00    -0.550 OA
ENDBRANCH   4   5
ENDBRANCH   3   4
ENDBRANCH   2   3
ENDBRANCH   1   2
BRANCH   1   8
ATOM      8  C   UNL     1      -2.784   8.257  40.074  1.00  0.00     0.000 C 
BRANCH   8   9
ATOM      9  C   UNL     1      -1.818   7.528  41.020  1.00  0.00    -0.000 C 
BRANCH   9  10
ATOM     10  C   UNL     1      -0.340   7.827  40.714  1.00  0.00    -0.000 C 
BRANCH  10  11
ATOM     11  C   UNL     1       0.171   9.188  41.229  1.00  0.00    -0.000 C 
BRANCH  11  12
ATOM     12  C   UNL     1       0.729  10.125  40.144  1.00  0.00    -0.003 C 
ATOM     13  C   UNL     1       1.443   9.378  39.019  1.00  0.00     0.004 C 
ENDBRANCH  11  12
ENDBRANCH  10  11
ENDBRANCH   9  10
ENDBRANCH   8   9
ENDBRANCH   1   8
TORSDOF 9
ENDMDL
MODEL 4
REMARK VINA RESULT:    -3.400      2.826      4.905
REMARK INTER + INTRA:          -6.353
REMARK INTER:                  -5.330
REMARK INTRA:                  -1.022
REMARK UNBOUND:                -1.164
REMARK SMILES CCCCCCCCCCC(=O)[O-]
REMARK SMILES IDX 7 1 8 2 9 3 10 4 11 5 12 6 13 7 6 8 5 9 4 10 3 11 2 12 1 13
REMARK H PARENT
REMARK Flexibility Score: inf
ROOT
ATOM      1  C   UNL     1      -2.255   9.439  38.502  1.00  0.00     0.000 C 
ENDROOT
BRANCH   1   2
ATOM      2  C   UNL     1      -1.731   9.739  37.092  1.00  0.00     0.000 C 
BRANCH   2   3
ATOM      3  C   UNL     1      -1.000   8.525  36.507  1.00  0.00     0.006 C 
BRANCH   3   4
ATOM      4  C   UNL     1       0.340   8.935  35.889  1.00  0.00     0.053 C 
BRANCH   4   5
ATOM      5  C   UNL     1       1.463   8.640  36.832  1.00  0.00     0.041 C 
ATOM      6  O   UNL     1       1.726   7.451  37.153  1.00  0.00    -0.550 OA
ATOM      7  O   UNL     1       2.252   9.674  37.320  1.00  0.00    -0.550 OA
ENDBRANCH   4   5
ENDBRANCH   3   4
ENDBRANCH   2   3
ENDBRANCH   1   2
BRANCH   1   8
ATOM      8  C   UNL     1      -1.118   8.986  39.426  1.00  0.00     0.000 C 
BRANCH   8   9
ATOM      9  C   UNL     1      -1.579   7.848  40.348  1.00  0.00    -0.000 C 
BRANCH   9  10
ATOM     10  C   UNL     1      -3.073   7.516  40.187  1.00  0.00    -0.000 C 
BRANCH  10  11
ATOM     11  C   UNL     1      -3.373   6.122  39.600  1.00  0.00    -0.000 C 
BRANCH  11  12
ATOM     12  C   UNL     1      -2.137   5.331  39.139  1.00  0.00    -0.003 C 
ATOM     13  C   UNL     1      -2.015   5.248  37.619  1.00  0.00     0.004 C 
ENDBRANCH  11  12
ENDBRANCH  10  11
ENDBRANCH   9  10
ENDBRANCH   8   9
ENDBRANCH   1   8
TORSDOF 9
ENDMDL
MODEL 5
REMARK VINA RESULT:    -3.398      2.539      4.347
REMARK INTER + INTRA:          -6.351
REMARK INTER:                  -4.985
REMARK INTRA:                  -1.366
REMARK UNBOUND:                -1.164
REMARK SMILES CCCCCCCCCCC(=O)[O-]
REMARK SMILES IDX 7 1 8 2 9 3 10 4 11 5 12 6 13 7 6 8 5 9 4 10 3 11 2 12 1 13
REMARK H PARENT
REMARK Flexibility Score: inf
ROOT
ATOM      1  C   UNL     1       1.119   7.688  39.711  1.00  0.00     0.000 C 
ENDROOT
BRANCH   1   2
ATOM      2  C   UNL     1       1.925   7.054  38.571  1.00  0.00     0.000 C 
BRANCH   2   3
ATOM      3  C   UNL     1       1.439   7.559  37.207  1.00  0.00     0.006 C 
BRANCH   3   4
ATOM      4  C   UNL     1       0.316   6.672  36.661  1.00  0.00     0.053 C 
BRANCH   4   5
ATOM      5  C   UNL     1      -0.541   7.441  35.706  1.00  0.00     0.041 C 
ATOM      6  O   UNL     1      -1.666   6.992  35.362  1.00  0.00    -0.550 OA
ATOM      7  O   UNL     1      -0.119   8.677  35.234  1.00  0.00    -0.550 OA
ENDBRANCH   4   5
ENDBRANCH   3   4
ENDBRANCH   2   3
ENDBRANCH   1   2
BRANCH   1   8
ATOM      8  C   UNL     1       1.159   9.219  39.629  1.00  0.00     0.000 C 
BRANCH   8   9
ATOM      9  C   UNL     1      -0.231   9.819  39.884  1.00  0.00    -0.000 C 
BRANCH   9  10
ATOM     10  C   UNL     1      -0.998  10.125  38.585  1.00  0.00    -0.000 C 
BRANCH  10  11
ATOM     11  C   UNL     1      -2.222   9.226  38.322  1.00  0.00    -0.000 C 
BRANCH  11  12
ATOM     12  C   UNL     1      -2.623   8.315  39.494  1.00  0.00    -0.003 C 
ATOM     13  C   UNL     1      -2.476   6.829  39.172  1.00  0.00     0.004 C 
ENDBRANCH  11  12
ENDBRANCH  10  11
ENDBRANCH   9  10
ENDBRANCH   8   9
ENDBRANCH   1   8
TORSDOF 9
ENDMDL
MODEL 6
REMARK VINA RESULT:    -3.388      2.746      4.452
REMARK INTER + INTRA:          -6.335
REMARK INTER:                  -5.156
REMARK INTRA:                  -1.179
REMARK UNBOUND:                -1.164
REMARK SMILES CCCCCCCCCCC(=O)[O-]
REMARK SMILES IDX 7 1 8 2 9 3 10 4 11 5 12 6 13 7 6 8 5 9 4 10 3 11 2 12 1 13
REMARK H PARENT
REMARK Flexibility Score: inf
ROOT
ATOM      1  C   UNL     1      -2.014   7.696  38.730  1.00  0.00     0.000 C 
ENDROOT
BRANCH   1   2
ATOM      2  C   UNL     1      -2.295   9.199  38.611  1.00  0.00     0.000 C 
BRANCH   2   3
ATOM      3  C   UNL     1      -1.006  10.014  38.775  1.00  0.00     0.006 C 
BRANCH   3   4
ATOM      4  C   UNL     1      -0.253  10.125  37.447  1.00  0.00     0.053 C 
BRANCH   4   5
ATOM      5  C   UNL     1       1.018   9.338  37.498  1.00  0.00     0.041 C 
ATOM      6  O   UNL     1       1.147   8.295  36.805  1.00  0.00    -0.550 OA
ATOM      7  O   UNL     1       2.081   9.783  38.275  1.00  0.00    -0.550 OA
ENDBRANCH   4   5
ENDBRANCH   3   4
ENDBRANCH   2   3
ENDBRANCH   1   2
BRANCH   1   8
ATOM      8  C   UNL     1      -2.957   7.039  39.745  1.00  0.00     0.000 C 
BRANCH   8   9
ATOM      9  C   UNL     1      -2.964   7.814  41.071  1.00  0.00    -0.000 C 
BRANCH   9  10
ATOM     10  C   UNL     1      -1.814   7.408  42.008  1.00  0.00    -0.000 C 
BRANCH  10  11
ATOM     11  C   UNL     1      -1.045   8.583  42.647  1.00  0.00    -0.000 C 
BRANCH  11  12
ATOM     12  C   UNL     1       0.288   8.933  41.966  1.00  0.00    -0.003 C 
ATOM     13  C   UNL     1       0.835   7.797  41.104  1.00  0.00     0.004 C 
ENDBRANCH  11  12
ENDBRANCH  10  11
ENDBRANCH   9  10
ENDBRANCH   8   9
ENDBRANCH   1   8
TORSDOF 9
ENDMDL
MODEL 7
REMARK VINA RESULT:    -3.373      1.895      3.335
REMARK INTER + INTRA:          -6.312
REMARK INTER:                  -4.997
REMARK INTRA:                  -1.315
REMARK UNBOUND:                -1.164
REMARK SMILES CCCCCCCCCCC(=O)[O-]
REMARK SMILES IDX 7 1 8 2 9 3 10 4 11 5 12 6 13 7 6 8 5 9 4 10 3 11 2 12 1 13
REMARK H PARENT
REMARK Flexibility Score: inf
ROOT
ATOM      1  C   UNL     1      -1.105   9.453  38.981  1.00  0.00     0.000 C 
ENDROOT
BRANCH   1   2
ATOM      2  C   UNL     1      -1.465   8.293  39.917  1.00  0.00     0.000 C 
BRANCH   2   3
ATOM      3  C   UNL     1      -2.980   8.059  39.945  1.00  0.00     0.006 C 
BRANCH   3   4
ATOM      4  C   UNL     1      -3.313   6.581  39.720  1.00  0.00     0.053 C 
BRANCH   4   5
ATOM      5  C   UNL     1      -2.656   5.732  40.762  1.00  0.00     0.041 C 
ATOM      6  O   UNL     1      -1.874   4.805  40.423  1.00  0.00    -0.550 OA
ATOM      7  O   UNL     1      -2.869   5.995  42.109  1.00  0.00    -0.550 OA
ENDBRANCH   4   5
ENDBRANCH   3   4
ENDBRANCH   2   3
ENDBRANCH   1   2
BRANCH   1   8
ATOM      8  C   UNL     1      -2.231   9.716  37.972  1.00  0.00     0.000 C 
BRANCH   8   9
ATOM      9  C   UNL     1      -1.689   9.728  36.535  1.00  0.00    -0.000 C 
BRANCH   9  10
ATOM     10  C   UNL     1      -0.775   8.529  36.230  1.00  0.00    -0.000 C 
BRANCH  10  11
ATOM     11  C   UNL     1      -1.490   7.294  35.646  1.00  0.00    -0.000 C 
BRANCH  11  12
ATOM     12  C   UNL     1      -1.522   6.064  36.569  1.00  0.00    -0.003 C 
ATOM     13  C   UNL     1      -0.254   5.914  37.407  1.00  0.00     0.004 C 
ENDBRANCH  11  12
ENDBRANCH  10  11
ENDBRANCH   9  10
ENDBRANCH   8   9
ENDBRANCH   1   8
TORSDOF 9
ENDMDL
MODEL 8
REMARK VINA RESULT:    -3.364      2.725      4.119
REMARK INTER + INTRA:          -6.298
REMARK INTER:                  -4.933
REMARK INTRA:                  -1.365
REMARK UNBOUND:                -1.164
REMARK SMILES CCCCCCCCCCC(=O)[O-]
REMARK SMILES IDX 7 1 8 2 9 3 10 4 11 5 12 6 13 7 6 8 5 9 4 10 3 11 2 12 1 13
REMARK H PARENT
REMARK Flexibility Score: inf
ROOT
ATOM      1  C   UNL     1      -3.340   6.347  39.734  1.00  0.00     0.000 C 
ENDROOT
BRANCH   1   2
ATOM      2  C   UNL     1      -2.072   5.525  39.476  1.00  0.00     0.000 C 
BRANCH   2   3
ATOM      3  C   UNL     1      -1.866   5.286  37.976  1.00  0.00     0.006 C 
BRANCH   3   4
ATOM      4  C   UNL     1      -0.532   5.872  37.504  1.00  0.00     0.053 C 
BRANCH   4   5
ATOM      5  C   UNL     1      -0.741   6.762  36.321  1.00  0.00     0.041 C 
ATOM      6  O   UNL     1       0.006   7.760  36.139  1.00  0.00    -0.550 OA
ATOM      7  O   UNL     1      -1.729   6.464  35.391  1.00  0.00    -0.550 OA
ENDBRANCH   4   5
ENDBRANCH   3   4
ENDBRANCH   2   3
ENDBRANCH   1   2
BRANCH   1   8
ATOM      8  C   UNL     1      -2.991   7.763  40.210  1.00  0.00     0.000 C 
BRANCH   8   9
ATOM      9  C   UNL     1      -2.635   8.670  39.022  1.00  0.00    -0.000 C 
BRANCH   9  10
ATOM     10  C   UNL     1      -1.206   9.235  39.109  1.00  0.00    -0.000 C 
BRANCH  10  11
ATOM     11  C   UNL     1      -0.470   8.952  40.434  1.00  0.00    -0.000 C 
BRANCH  11  12
ATOM     12  C   UNL     1       0.744   8.016  40.315  1.00  0.00    -0.003 C 
ATOM     13  C   UNL     1       0.764   6.926  41.386  1.00  0.00     0.004 C 
ENDBRANCH  11  12
ENDBRANCH  10  11
ENDBRANCH   9  10
ENDBRANCH   8   9
ENDBRANCH   1   8
TORSDOF 9
ENDMDL
