MODEL 1
REMARK VINA RESULT:    -3.270      0.000      0.000
REMARK INTER + INTRA:          -3.856
REMARK INTER:                  -4.034
REMARK INTRA:                   0.178
REMARK UNBOUND:                 0.178
REMARK SMILES O=c1c(O)c(-c2cc(O)c(O)c(O)c2)oc2cc(O)cc(O)c12
REMARK SMILES IDX 5 1 3 2 2 3 1 4 23 5 21 6 20 7 18 8 17 9 16 10 15 11 6 12
REMARK SMILES IDX 7 13 8 14 14 15 10 16 12 17 9 18 11 20 13 22 4 24 22 26
REMARK SMILES IDX 19 28
REMARK H PARENT 9 19 11 21 13 23 4 25 22 27 19 29
REMARK Flexibility Score: inf
ROOT
ATOM      1  C   UNL     1      27.444 -12.476  31.214  1.00  0.00     0.180 A 
ATOM      2  C   UNL     1      28.710 -11.945  30.898  1.00  0.00     0.208 A 
ATOM      3  C   UNL     1      29.205 -12.100  29.594  1.00  0.00     0.238 A 
ATOM      4  O   UNL     1      30.342 -11.638  29.303  1.00  0.00    -0.285 OA
ATOM      5  C   UNL     1      28.423 -12.763  28.625  1.00  0.00     0.111 A 
ATOM      6  C   UNL     1      28.847 -12.957  27.289  1.00  0.00     0.134 A 
ATOM      7  C   UNL     1      28.006 -13.620  26.382  1.00  0.00     0.093 A 
ATOM      8  C   UNL     1      26.754 -14.089  26.783  1.00  0.00     0.123 A 
ATOM      9  C   UNL     1      26.329 -13.900  28.103  1.00  0.00     0.094 A 
ATOM     10  C   UNL     1      27.153 -13.245  29.023  1.00  0.00     0.146 A 
ATOM     11  O   UNL     1      26.729 -13.082  30.271  1.00  0.00    -0.452 OA
ENDROOT
BRANCH   1  12
ATOM     12  C   UNL     1      26.862 -12.369  32.571  1.00  0.00     0.029 A 
ATOM     13  C   UNL     1      26.094 -13.408  33.121  1.00  0.00     0.062 A 
ATOM     14  C   UNL     1      25.528 -13.287  34.396  1.00  0.00     0.162 A 
ATOM     15  C   UNL     1      27.029 -11.185  33.301  1.00  0.00     0.062 A 
ATOM     16  C   UNL     1      25.725 -12.098  35.137  1.00  0.00     0.200 A 
ATOM     17  C   UNL     1      26.472 -11.052  34.579  1.00  0.00     0.162 A 
BRANCH  14  18
ATOM     18  O   UNL     1      24.779 -14.362  34.878  1.00  0.00    -0.504 OA
ATOM     19  H   UNL     1      24.424 -15.110  34.299  1.00  0.00     0.293 HD
ENDBRANCH  14  18
BRANCH  16  20
ATOM     20  O   UNL     1      25.197 -11.917  36.418  1.00  0.00    -0.502 OA
ATOM     21  H   UNL     1      25.104 -11.019  36.871  1.00  0.00     0.293 HD
ENDBRANCH  16  20
BRANCH  17  22
ATOM     22  O   UNL     1      26.658  -9.875  35.305  1.00  0.00    -0.504 OA
ATOM     23  H   UNL     1      27.405  -9.228  35.085  1.00  0.00     0.293 HD
ENDBRANCH  17  22
ENDBRANCH   1  12
BRANCH   2  24
ATOM     24  O   UNL     1      29.443 -11.249  31.863  1.00  0.00    -0.502 OA
ATOM     25  H   UNL     1      30.452 -11.315  31.929  1.00  0.00     0.293 HD
ENDBRANCH   2  24
BRANCH   6  26
ATOM     26  O   UNL     1      30.092 -12.500  26.857  1.00  0.00    -0.507 OA
ATOM     27  H   UNL     1      30.713 -13.082  26.306  1.00  0.00     0.293 HD
ENDBRANCH   6  26
BRANCH   8  28
ATOM     28  O   UNL     1      25.938 -14.744  25.863  1.00  0.00    -0.508 OA
ATOM     29  H   UNL     1      26.327 -15.256  25.080  1.00  0.00     0.293 HD
ENDBRANCH   8  28
TORSDOF 7
ENDMDL
MODEL 2
REMARK VINA RESULT:    -3.197      0.285      1.783
REMARK INTER + INTRA:          -3.766
REMARK INTER:                  -3.830
REMARK INTRA:                   0.064
REMARK UNBOUND:                 0.178
REMARK SMILES O=c1c(O)c(-c2cc(O)c(O)c(O)c2)oc2cc(O)cc(O)c12
REMARK SMILES IDX 5 1 3 2 2 3 1 4 23 5 21 6 20 7 18 8 17 9 16 10 15 11 6 12
REMARK SMILES IDX 7 13 8 14 14 15 10 16 12 17 9 18 11 20 13 22 4 24 22 26
REMARK SMILES IDX 19 28
REMARK H PARENT 9 19 11 21 13 23 4 25 22 27 19 29
REMARK Flexibility Score: inf
ROOT
ATOM      1  C   UNL     1      27.518 -12.557  31.297  1.00  0.00     0.180 A 
ATOM      2  C   UNL     1      28.863 -12.205  31.076  1.00  0.00     0.208 A 
ATOM      3  C   UNL     1      29.421 -12.416  29.806  1.00  0.00     0.238 A 
ATOM      4  O   UNL     1      30.628 -12.115  29.599  1.00  0.00    -0.285 OA
ATOM      5  C   UNL     1      28.623 -12.955  28.775  1.00  0.00     0.111 A 
ATOM      6  C   UNL     1      29.107 -13.194  27.467  1.00  0.00     0.134 A 
ATOM      7  C   UNL     1      28.246 -13.725  26.493  1.00  0.00     0.093 A 
ATOM      8  C   UNL     1      26.916 -14.018  26.802  1.00  0.00     0.123 A 
ATOM      9  C   UNL     1      26.433 -13.784  28.093  1.00  0.00     0.094 A 
ATOM     10  C   UNL     1      27.274 -13.258  29.078  1.00  0.00     0.146 A 
ATOM     11  O   UNL     1      26.792 -13.049  30.297  1.00  0.00    -0.452 OA
ENDROOT
BRANCH   1  12
ATOM     12  C   UNL     1      26.865 -12.382  32.614  1.00  0.00     0.029 A 
ATOM     13  C   UNL     1      27.044 -11.213  33.370  1.00  0.00     0.062 A 
ATOM     14  C   UNL     1      26.442 -11.067  34.626  1.00  0.00     0.162 A 
ATOM     15  C   UNL     1      26.099 -13.427  33.147  1.00  0.00     0.062 A 
ATOM     16  C   UNL     1      25.647 -12.118  35.144  1.00  0.00     0.200 A 
ATOM     17  C   UNL     1      25.486 -13.294  34.400  1.00  0.00     0.162 A 
BRANCH  14  18
ATOM     18  O   UNL     1      26.664  -9.876  35.318  1.00  0.00    -0.504 OA
ATOM     19  H   UNL     1      25.980  -9.432  35.914  1.00  0.00     0.293 HD
ENDBRANCH  14  18
BRANCH  16  20
ATOM     20  O   UNL     1      25.009 -12.033  36.384  1.00  0.00    -0.502 OA
ATOM     21  H   UNL     1      25.478 -11.802  37.248  1.00  0.00     0.293 HD
ENDBRANCH  16  20
BRANCH  17  22
ATOM     22  O   UNL     1      24.711 -14.333  34.915  1.00  0.00    -0.504 OA
ATOM     23  H   UNL     1      24.912 -14.748  35.817  1.00  0.00     0.293 HD
ENDBRANCH  17  22
ENDBRANCH   1  12
BRANCH   2  24
ATOM     24  O   UNL     1      29.618 -11.627  32.101  1.00  0.00    -0.502 OA
ATOM     25  H   UNL     1      30.150 -10.776  31.968  1.00  0.00     0.293 HD
ENDBRANCH   2  24
BRANCH   6  26
ATOM     26  O   UNL     1      30.429 -12.912  27.126  1.00  0.00    -0.507 OA
ATOM     27  H   UNL     1      30.667 -12.176  26.471  1.00  0.00     0.293 HD
ENDBRANCH   6  26
BRANCH   8  28
ATOM     28  O   UNL     1      26.082 -14.544  25.817  1.00  0.00    -0.508 OA
ATOM     29  H   UNL     1      25.073 -14.508  25.902  1.00  0.00     0.293 HD
ENDBRANCH   8  28
TORSDOF 7
ENDMDL
MODEL 3
REMARK VINA RESULT:    -2.908      1.976      3.497
REMARK INTER + INTRA:          -3.411
REMARK INTER:                  -3.842
REMARK INTRA:                   0.431
REMARK UNBOUND:                 0.178
REMARK SMILES O=c1c(O)c(-c2cc(O)c(O)c(O)c2)oc2cc(O)cc(O)c12
REMARK SMILES IDX 5 1 3 2 2 3 1 4 23 5 21 6 20 7 18 8 17 9 16 10 15 11 6 12
REMARK SMILES IDX 7 13 8 14 14 15 10 16 12 17 9 18 11 20 13 22 4 24 22 26
REMARK SMILES IDX 19 28
REMARK H PARENT 9 19 11 21 13 23 4 25 22 27 19 29
REMARK Flexibility Score: inf
ROOT
ATOM      1  C   UNL     1      26.674 -12.548  33.097  1.00  0.00     0.180 A 
ATOM      2  C   UNL     1      26.364 -13.650  32.277  1.00  0.00     0.208 A 
ATOM      3  C   UNL     1      27.012 -13.779  31.038  1.00  0.00     0.238 A 
ATOM      4  O   UNL     1      26.735 -14.756  30.291  1.00  0.00    -0.285 OA
ATOM      5  C   UNL     1      27.971 -12.819  30.650  1.00  0.00     0.111 A 
ATOM      6  C   UNL     1      28.671 -12.878  29.422  1.00  0.00     0.134 A 
ATOM      7  C   UNL     1      29.617 -11.888  29.113  1.00  0.00     0.093 A 
ATOM      8  C   UNL     1      29.875 -10.846  30.005  1.00  0.00     0.123 A 
ATOM      9  C   UNL     1      29.185 -10.782  31.221  1.00  0.00     0.094 A 
ATOM     10  C   UNL     1      28.238 -11.757  31.547  1.00  0.00     0.146 A 
ATOM     11  O   UNL     1      27.593 -11.671  32.704  1.00  0.00    -0.452 OA
ENDROOT
BRANCH   1  12
ATOM     12  C   UNL     1      26.019 -12.334  34.407  1.00  0.00     0.029 A 
ATOM     13  C   UNL     1      25.011 -13.195  34.871  1.00  0.00     0.062 A 
ATOM     14  C   UNL     1      24.380 -12.969  36.100  1.00  0.00     0.162 A 
ATOM     15  C   UNL     1      26.367 -11.216  35.177  1.00  0.00     0.062 A 
ATOM     16  C   UNL     1      24.758 -11.853  36.884  1.00  0.00     0.200 A 
ATOM     17  C   UNL     1      25.749 -10.981  36.411  1.00  0.00     0.162 A 
BRANCH  14  18
ATOM     18  O   UNL     1      23.389 -13.869  36.496  1.00  0.00    -0.504 OA
ATOM     19  H   UNL     1      23.054 -13.960  37.444  1.00  0.00     0.293 HD
ENDBRANCH  14  18
BRANCH  16  20
ATOM     20  O   UNL     1      24.178 -11.576  38.124  1.00  0.00    -0.502 OA
ATOM     21  H   UNL     1      23.850 -12.284  38.767  1.00  0.00     0.293 HD
ENDBRANCH  16  20
BRANCH  17  22
ATOM     22  O   UNL     1      26.114  -9.875  37.178  1.00  0.00    -0.504 OA
ATOM     23  H   UNL     1      25.447  -9.396  37.771  1.00  0.00     0.293 HD
ENDBRANCH  17  22
ENDBRANCH   1  12
BRANCH   2  24
ATOM     24  O   UNL     1      25.447 -14.613  32.706  1.00  0.00    -0.502 OA
ATOM     25  H   UNL     1      25.700 -15.353  33.351  1.00  0.00     0.293 HD
ENDBRANCH   2  24
BRANCH   6  26
ATOM     26  O   UNL     1      28.437 -13.906  28.510  1.00  0.00    -0.507 OA
ATOM     27  H   UNL     1      27.629 -14.513  28.584  1.00  0.00     0.293 HD
ENDBRANCH   6  26
BRANCH   8  28
ATOM     28  O   UNL     1      30.820  -9.875  29.674  1.00  0.00    -0.508 OA
ATOM     29  H   UNL     1      31.195  -9.800  28.736  1.00  0.00     0.293 HD
ENDBRANCH   8  28
TORSDOF 7
ENDMDL
MODEL 4
REMARK VINA RESULT:    -2.768      2.004      3.927
REMARK INTER + INTRA:          -3.238
REMARK INTER:                  -3.749
REMARK INTRA:                   0.511
REMARK UNBOUND:                 0.178
REMARK SMILES O=c1c(O)c(-c2cc(O)c(O)c(O)c2)oc2cc(O)cc(O)c12
REMARK SMILES IDX 5 1 3 2 2 3 1 4 23 5 21 6 20 7 18 8 17 9 16 10 15 11 6 12
REMARK SMILES IDX 7 13 8 14 14 15 10 16 12 17 9 18 11 20 13 22 4 24 22 26
REMARK SMILES IDX 19 28
REMARK H PARENT 9 19 11 21 13 23 4 25 22 27 19 29
REMARK Flexibility Score: inf
ROOT
ATOM      1  C   UNL     1      26.671 -12.497  33.118  1.00  0.00     0.180 A 
ATOM      2  C   UNL     1      26.371 -13.611  32.310  1.00  0.00     0.208 A 
ATOM      3  C   UNL     1      27.036 -13.757  31.082  1.00  0.00     0.238 A 
ATOM      4  O   UNL     1      26.769 -14.745  30.345  1.00  0.00    -0.285 OA
ATOM      5  C   UNL     1      28.001 -12.804  30.694  1.00  0.00     0.111 A 
ATOM      6  C   UNL     1      28.718 -12.880  29.476  1.00  0.00     0.134 A 
ATOM      7  C   UNL     1      29.668 -11.896  29.165  1.00  0.00     0.093 A 
ATOM      8  C   UNL     1      29.915 -10.840  30.046  1.00  0.00     0.123 A 
ATOM      9  C   UNL     1      29.209 -10.759  31.251  1.00  0.00     0.094 A 
ATOM     10  C   UNL     1      28.256 -11.729  31.578  1.00  0.00     0.146 A 
ATOM     11  O   UNL     1      27.596 -11.626  32.726  1.00  0.00    -0.452 OA
ENDROOT
BRANCH   1  12
ATOM     12  C   UNL     1      25.998 -12.264  34.416  1.00  0.00     0.029 A 
ATOM     13  C   UNL     1      26.345 -11.177  35.235  1.00  0.00     0.062 A 
ATOM     14  C   UNL     1      25.720 -10.979  36.472  1.00  0.00     0.162 A 
ATOM     15  C   UNL     1      25.037 -13.177  34.868  1.00  0.00     0.062 A 
ATOM     16  C   UNL     1      24.730 -11.892  36.907  1.00  0.00     0.200 A 
ATOM     17  C   UNL     1      24.399 -12.989  36.101  1.00  0.00     0.162 A 
BRANCH  14  18
ATOM     18  O   UNL     1      26.115  -9.875  37.230  1.00  0.00    -0.504 OA
ATOM     19  H   UNL     1      25.791  -8.933  37.068  1.00  0.00     0.293 HD
ENDBRANCH  14  18
BRANCH  16  20
ATOM     20  O   UNL     1      24.060 -11.746  38.125  1.00  0.00    -0.502 OA
ATOM     21  H   UNL     1      24.509 -11.796  39.028  1.00  0.00     0.293 HD
ENDBRANCH  16  20
BRANCH  17  22
ATOM     22  O   UNL     1      23.431 -13.895  36.534  1.00  0.00    -0.504 OA
ATOM     23  H   UNL     1      23.336 -14.143  37.511  1.00  0.00     0.293 HD
ENDBRANCH  17  22
ENDBRANCH   1  12
BRANCH   2  24
ATOM     24  O   UNL     1      25.448 -14.567  32.740  1.00  0.00    -0.502 OA
ATOM     25  H   UNL     1      25.227 -15.391  32.194  1.00  0.00     0.293 HD
ENDBRANCH   2  24
BRANCH   6  26
ATOM     26  O   UNL     1      28.496 -13.922  28.575  1.00  0.00    -0.507 OA
ATOM     27  H   UNL     1      27.759 -14.602  28.717  1.00  0.00     0.293 HD
ENDBRANCH   6  26
BRANCH   8  28
ATOM     28  O   UNL     1      30.864  -9.876  29.714  1.00  0.00    -0.508 OA
ATOM     29  H   UNL     1      31.475  -9.987  28.913  1.00  0.00     0.293 HD
ENDBRANCH   8  28
TORSDOF 7
ENDMDL
MODEL 5
REMARK VINA RESULT:    -2.669      1.948      7.242
REMARK INTER + INTRA:          -3.116
REMARK INTER:                  -2.991
REMARK INTRA:                  -0.125
REMARK UNBOUND:                 0.178
REMARK SMILES O=c1c(O)c(-c2cc(O)c(O)c(O)c2)oc2cc(O)cc(O)c12
REMARK SMILES IDX 5 1 3 2 2 3 1 4 23 5 21 6 20 7 18 8 17 9 16 10 15 11 6 12
REMARK SMILES IDX 7 13 8 14 14 15 10 16 12 17 9 18 11 20 13 22 4 24 22 26
REMARK SMILES IDX 19 28
REMARK H PARENT 9 19 11 21 13 23 4 25 22 27 19 29
REMARK Flexibility Score: inf
ROOT
ATOM      1  C   UNL     1      27.703 -13.010  32.118  1.00  0.00     0.180 A 
ATOM      2  C   UNL     1      26.879 -14.152  32.171  1.00  0.00     0.208 A 
ATOM      3  C   UNL     1      25.892 -14.231  33.166  1.00  0.00     0.238 A 
ATOM      4  O   UNL     1      25.156 -15.253  33.230  1.00  0.00    -0.285 OA
ATOM      5  C   UNL     1      25.731 -13.164  34.075  1.00  0.00     0.111 A 
ATOM      6  C   UNL     1      24.758 -13.164  35.103  1.00  0.00     0.134 A 
ATOM      7  C   UNL     1      24.655 -12.060  35.962  1.00  0.00     0.093 A 
ATOM      8  C   UNL     1      25.502 -10.960  35.814  1.00  0.00     0.123 A 
ATOM      9  C   UNL     1      26.466 -10.955  34.800  1.00  0.00     0.094 A 
ATOM     10  C   UNL     1      26.586 -12.046  33.934  1.00  0.00     0.146 A 
ATOM     11  O   UNL     1      27.512 -12.018  32.983  1.00  0.00    -0.452 OA
ENDROOT
BRANCH   1  12
ATOM     12  C   UNL     1      28.778 -12.862  31.111  1.00  0.00     0.029 A 
ATOM     13  C   UNL     1      28.502 -12.903  29.735  1.00  0.00     0.062 A 
ATOM     14  C   UNL     1      29.528 -12.786  28.791  1.00  0.00     0.162 A 
ATOM     15  C   UNL     1      30.107 -12.737  31.536  1.00  0.00     0.062 A 
ATOM     16  C   UNL     1      30.865 -12.633  29.229  1.00  0.00     0.200 A 
ATOM     17  C   UNL     1      31.144 -12.614  30.603  1.00  0.00     0.162 A 
BRANCH  14  18
ATOM     18  O   UNL     1      29.177 -12.834  27.440  1.00  0.00    -0.504 OA
ATOM     19  H   UNL     1      29.048 -13.689  26.919  1.00  0.00     0.293 HD
ENDBRANCH  14  18
BRANCH  16  20
ATOM     20  O   UNL     1      31.935 -12.499  28.340  1.00  0.00    -0.502 OA
ATOM     21  H   UNL     1      32.120 -11.668  27.797  1.00  0.00     0.293 HD
ENDBRANCH  16  20
BRANCH  17  22
ATOM     22  O   UNL     1      32.462 -12.473  31.035  1.00  0.00    -0.504 OA
ATOM     23  H   UNL     1      33.194 -12.152  30.413  1.00  0.00     0.293 HD
ENDBRANCH  17  22
ENDBRANCH   1  12
BRANCH   2  24
ATOM     24  O   UNL     1      27.027 -15.172  31.228  1.00  0.00    -0.502 OA
ATOM     25  H   UNL     1      26.363 -15.932  31.143  1.00  0.00     0.293 HD
ENDBRANCH   2  24
BRANCH   6  26
ATOM     26  O   UNL     1      23.896 -14.247  35.277  1.00  0.00    -0.507 OA
ATOM     27  H   UNL     1      22.979 -14.274  34.849  1.00  0.00     0.293 HD
ENDBRANCH   6  26
BRANCH   8  28
ATOM     28  O   UNL     1      25.378  -9.875  36.681  1.00  0.00    -0.508 OA
ATOM     29  H   UNL     1      24.872  -9.951  37.555  1.00  0.00     0.293 HD
ENDBRANCH   8  28
TORSDOF 7
ENDMDL
MODEL 6
REMARK VINA RESULT:    -2.401      1.719      3.341
REMARK INTER + INTRA:          -2.785
REMARK INTER:                  -2.774
REMARK INTRA:                  -0.011
REMARK UNBOUND:                 0.178
REMARK SMILES O=c1c(O)c(-c2cc(O)c(O)c(O)c2)oc2cc(O)cc(O)c12
REMARK SMILES IDX 5 1 3 2 2 3 1 4 23 5 21 6 20 7 18 8 17 9 16 10 15 11 6 12
REMARK SMILES IDX 7 13 8 14 14 15 10 16 12 17 9 18 11 20 13 22 4 24 22 26
REMARK SMILES IDX 19 28
REMARK H PARENT 9 19 11 21 13 23 4 25 22 27 19 29
REMARK Flexibility Score: inf
ROOT
ATOM      1  C   UNL     1      27.546 -12.869  32.014  1.00  0.00     0.180 A 
ATOM      2  C   UNL     1      27.015 -13.331  30.794  1.00  0.00     0.208 A 
ATOM      3  C   UNL     1      27.883 -13.530  29.709  1.00  0.00     0.238 A 
ATOM      4  O   UNL     1      27.418 -13.933  28.609  1.00  0.00    -0.285 OA
ATOM      5  C   UNL     1      29.264 -13.286  29.866  1.00  0.00     0.111 A 
ATOM      6  C   UNL     1      30.205 -13.467  28.825  1.00  0.00     0.134 A 
ATOM      7  C   UNL     1      31.563 -13.211  29.063  1.00  0.00     0.093 A 
ATOM      8  C   UNL     1      31.998 -12.780  30.318  1.00  0.00     0.123 A 
ATOM      9  C   UNL     1      31.072 -12.599  31.352  1.00  0.00     0.094 A 
ATOM     10  C   UNL     1      29.713 -12.847  31.134  1.00  0.00     0.146 A 
ATOM     11  O   UNL     1      28.855 -12.663  32.130  1.00  0.00    -0.452 OA
ENDROOT
BRANCH   1  12
ATOM     12  C   UNL     1      26.692 -12.616  33.198  1.00  0.00     0.029 A 
ATOM     13  C   UNL     1      25.767 -13.571  33.650  1.00  0.00     0.062 A 
ATOM     14  C   UNL     1      24.948 -13.313  34.755  1.00  0.00     0.162 A 
ATOM     15  C   UNL     1      26.764 -11.377  33.847  1.00  0.00     0.062 A 
ATOM     16  C   UNL     1      25.047 -12.068  35.421  1.00  0.00     0.200 A 
ATOM     17  C   UNL     1      25.954 -11.106  34.957  1.00  0.00     0.162 A 
BRANCH  14  18
ATOM     18  O   UNL     1      24.054 -14.310  35.148  1.00  0.00    -0.504 OA
ATOM     19  H   UNL     1      23.599 -14.340  36.049  1.00  0.00     0.293 HD
ENDBRANCH  14  18
BRANCH  16  20
ATOM     20  O   UNL     1      24.267 -11.750  36.537  1.00  0.00    -0.502 OA
ATOM     21  H   UNL     1      24.357 -10.895  37.065  1.00  0.00     0.293 HD
ENDBRANCH  16  20
BRANCH  17  22
ATOM     22  O   UNL     1      26.045  -9.875  35.607  1.00  0.00    -0.504 OA
ATOM     23  H   UNL     1      25.345  -9.574  36.274  1.00  0.00     0.293 HD
ENDBRANCH  17  22
ENDBRANCH   1  12
BRANCH   2  24
ATOM     24  O   UNL     1      25.652 -13.612  30.680  1.00  0.00    -0.502 OA
ATOM     25  H   UNL     1      25.024 -13.589  31.475  1.00  0.00     0.293 HD
ENDBRANCH   2  24
BRANCH   6  26
ATOM     26  O   UNL     1      29.803 -13.897  27.560  1.00  0.00    -0.507 OA
ATOM     27  H   UNL     1      28.829 -14.056  27.334  1.00  0.00     0.293 HD
ENDBRANCH   6  26
BRANCH   8  28
ATOM     28  O   UNL     1      33.353 -12.533  30.529  1.00  0.00    -0.508 OA
ATOM     29  H   UNL     1      33.925 -13.157  31.086  1.00  0.00     0.293 HD
ENDBRANCH   8  28
TORSDOF 7
ENDMDL
MODEL 7
REMARK VINA RESULT:    -2.121      2.171      2.630
REMARK INTER + INTRA:          -2.439
REMARK INTER:                  -2.293
REMARK INTRA:                  -0.146
REMARK UNBOUND:                 0.178
REMARK SMILES O=c1c(O)c(-c2cc(O)c(O)c(O)c2)oc2cc(O)cc(O)c12
REMARK SMILES IDX 5 1 3 2 2 3 1 4 23 5 21 6 20 7 18 8 17 9 16 10 15 11 6 12
REMARK SMILES IDX 7 13 8 14 14 15 10 16 12 17 9 18 11 20 13 22 4 24 22 26
REMARK SMILES IDX 19 28
REMARK H PARENT 9 19 11 21 13 23 4 25 22 27 19 29
REMARK Flexibility Score: inf
ROOT
ATOM      1  C   UNL     1      27.510 -11.829  31.922  1.00  0.00     0.180 A 
ATOM      2  C   UNL     1      27.224 -10.828  30.974  1.00  0.00     0.208 A 
ATOM      3  C   UNL     1      27.981 -10.774  29.794  1.00  0.00     0.238 A 
ATOM      4  O   UNL     1      27.740  -9.875  28.943  1.00  0.00    -0.285 OA
ATOM      5  C   UNL     1      28.995 -11.729  29.571  1.00  0.00     0.111 A 
ATOM      6  C   UNL     1      29.799 -11.746  28.407  1.00  0.00     0.134 A 
ATOM      7  C   UNL     1      30.783 -12.736  28.256  1.00  0.00     0.093 A 
ATOM      8  C   UNL     1      30.975 -13.706  29.243  1.00  0.00     0.123 A 
ATOM      9  C   UNL     1      30.183 -13.693  30.396  1.00  0.00     0.094 A 
ATOM     10  C   UNL     1      29.199 -12.714  30.566  1.00  0.00     0.146 A 
ATOM     11  O   UNL     1      28.464 -12.722  31.672  1.00  0.00    -0.452 OA
ENDROOT
BRANCH   1  12
ATOM     12  C   UNL     1      26.769 -11.940  33.199  1.00  0.00     0.029 A 
ATOM     13  C   UNL     1      25.996 -13.072  33.500  1.00  0.00     0.062 A 
ATOM     14  C   UNL     1      25.278 -13.157  34.700  1.00  0.00     0.162 A 
ATOM     15  C   UNL     1      26.788 -10.868  34.102  1.00  0.00     0.062 A 
ATOM     16  C   UNL     1      25.326 -12.081  35.618  1.00  0.00     0.200 A 
ATOM     17  C   UNL     1      26.080 -10.941  35.308  1.00  0.00     0.162 A 
BRANCH  14  18
ATOM     18  O   UNL     1      24.534 -14.315  34.931  1.00  0.00    -0.504 OA
ATOM     19  H   UNL     1      24.823 -15.059  35.549  1.00  0.00     0.293 HD
ENDBRANCH  14  18
BRANCH  16  20
ATOM     20  O   UNL     1      24.644 -12.105  36.837  1.00  0.00    -0.502 OA
ATOM     21  H   UNL     1      24.506 -12.937  37.393  1.00  0.00     0.293 HD
ENDBRANCH  16  20
BRANCH  17  22
ATOM     22  O   UNL     1      26.119  -9.876  36.208  1.00  0.00    -0.504 OA
ATOM     23  H   UNL     1      25.912  -8.928  35.919  1.00  0.00     0.293 HD
ENDBRANCH  17  22
ENDBRANCH   1  12
BRANCH   2  24
ATOM     24  O   UNL     1      26.181  -9.924  31.197  1.00  0.00    -0.502 OA
ATOM     25  H   UNL     1      25.648  -9.515  30.439  1.00  0.00     0.293 HD
ENDBRANCH   2  24
BRANCH   6  26
ATOM     26  O   UNL     1      29.632 -10.793  27.403  1.00  0.00    -0.507 OA
ATOM     27  H   UNL     1      29.474  -9.815  27.617  1.00  0.00     0.293 HD
ENDBRANCH   6  26
BRANCH   8  28
ATOM     28  O   UNL     1      31.958 -14.678  29.068  1.00  0.00    -0.508 OA
ATOM     29  H   UNL     1      32.482 -15.048  29.853  1.00  0.00     0.293 HD
ENDBRANCH   8  28
TORSDOF 7
ENDMDL
MODEL 8
REMARK VINA RESULT:    -1.319      1.366      2.709
REMARK INTER + INTRA:          -1.449
REMARK INTER:                  -1.880
REMARK INTRA:                   0.431
REMARK UNBOUND:                 0.178
REMARK SMILES O=c1c(O)c(-c2cc(O)c(O)c(O)c2)oc2cc(O)cc(O)c12
REMARK SMILES IDX 5 1 3 2 2 3 1 4 23 5 21 6 20 7 18 8 17 9 16 10 15 11 6 12
REMARK SMILES IDX 7 13 8 14 14 15 10 16 12 17 9 18 11 20 13 22 4 24 22 26
REMARK SMILES IDX 19 28
REMARK H PARENT 9 19 11 21 13 23 4 25 22 27 19 29
REMARK Flexibility Score: inf
ROOT
ATOM      1  C   UNL     1      26.738 -12.840  30.806  1.00  0.00     0.180 A 
ATOM      2  C   UNL     1      26.252 -14.002  30.176  1.00  0.00     0.208 A 
ATOM      3  C   UNL     1      26.498 -14.185  28.806  1.00  0.00     0.238 A 
ATOM      4  O   UNL     1      26.059 -15.216  28.229  1.00  0.00    -0.285 OA
ATOM      5  C   UNL     1      27.239 -13.217  28.096  1.00  0.00     0.111 A 
ATOM      6  C   UNL     1      27.533 -13.328  26.716  1.00  0.00     0.134 A 
ATOM      7  C   UNL     1      28.284 -12.326  26.083  1.00  0.00     0.093 A 
ATOM      8  C   UNL     1      28.745 -11.220  26.800  1.00  0.00     0.123 A 
ATOM      9  C   UNL     1      28.457 -11.105  28.164  1.00  0.00     0.094 A 
ATOM     10  C   UNL     1      27.708 -12.092  28.813  1.00  0.00     0.146 A 
ATOM     11  O   UNL     1      27.445 -11.956  30.108  1.00  0.00    -0.452 OA
ENDROOT
BRANCH   1  12
ATOM     12  C   UNL     1      26.503 -12.568  32.243  1.00  0.00     0.029 A 
ATOM     13  C   UNL     1      25.787 -13.466  33.050  1.00  0.00     0.062 A 
ATOM     14  C   UNL     1      25.550 -13.187  34.402  1.00  0.00     0.162 A 
ATOM     15  C   UNL     1      26.952 -11.362  32.797  1.00  0.00     0.062 A 
ATOM     16  C   UNL     1      26.030 -11.979  34.960  1.00  0.00     0.200 A 
ATOM     17  C   UNL     1      26.726 -11.072  34.148  1.00  0.00     0.162 A 
BRANCH  14  18
ATOM     18  O   UNL     1      24.833 -14.129  35.143  1.00  0.00    -0.504 OA
ATOM     19  H   UNL     1      24.426 -13.945  36.049  1.00  0.00     0.293 HD
ENDBRANCH  14  18
BRANCH  16  20
ATOM     20  O   UNL     1      25.838 -11.644  36.303  1.00  0.00    -0.502 OA
ATOM     21  H   UNL     1      25.211 -12.135  36.924  1.00  0.00     0.293 HD
ENDBRANCH  16  20
BRANCH  17  22
ATOM     22  O   UNL     1      27.191  -9.876  34.696  1.00  0.00    -0.504 OA
ATOM     23  H   UNL     1      27.769  -9.862  35.527  1.00  0.00     0.293 HD
ENDBRANCH  17  22
ENDBRANCH   1  12
BRANCH   2  24
ATOM     24  O   UNL     1      25.564 -14.969  30.914  1.00  0.00    -0.502 OA
ATOM     25  H   UNL     1      24.835 -15.543  30.508  1.00  0.00     0.293 HD
ENDBRANCH   2  24
BRANCH   6  26
ATOM     26  O   UNL     1      27.088 -14.420  25.971  1.00  0.00    -0.507 OA
ATOM     27  H   UNL     1      26.413 -14.316  25.223  1.00  0.00     0.293 HD
ENDBRANCH   6  26
BRANCH   8  28
ATOM     28  O   UNL     1      29.490 -10.239  26.147  1.00  0.00    -0.508 OA
ATOM     29  H   UNL     1      29.294  -9.253  26.276  1.00  0.00     0.293 HD
ENDBRANCH   8  28
TORSDOF 7
ENDMDL
