MODEL 1
REMARK VINA RESULT:    -4.851      0.000      0.000
REMARK INTER + INTRA:          -7.409
REMARK INTER:                  -6.978
REMARK INTRA:                  -0.431
REMARK UNBOUND:                -0.431
REMARK SMILES CC(C)=CCCC(C)=CCCC(C)=CCO
REMARK SMILES IDX 10 1 9 2 7 3 8 4 6 5 5 6 4 7 1 8 2 9 3 10 11 11 12 12 14 13
REMARK SMILES IDX 13 14 15 15 16 16
REMARK H PARENT 16 17
REMARK Flexibility Score: inf
ROOT
ATOM      1  C   UNL     1      12.043 -19.482  39.743  1.00  0.00     0.032 C 
ENDROOT
BRANCH   1   2
ATOM      2  C   UNL     1      11.966 -18.497  38.601  1.00  0.00    -0.028 C 
ATOM      3  C   UNL     1      10.907 -17.693  38.350  1.00  0.00    -0.077 C 
ATOM      4  C   UNL     1       9.699 -17.657  39.256  1.00  0.00     0.039 C 
BRANCH   3   5
ATOM      5  C   UNL     1      10.943 -16.792  37.135  1.00  0.00     0.034 C 
BRANCH   5   6
ATOM      6  C   UNL     1      11.681 -15.485  37.449  1.00  0.00     0.032 C 
BRANCH   6   7
ATOM      7  C   UNL     1      11.024 -14.765  38.600  1.00  0.00    -0.028 C 
ATOM      8  C   UNL     1      10.649 -14.103  40.937  1.00  0.00     0.039 C 
ATOM      9  C   UNL     1      11.430 -14.849  39.887  1.00  0.00    -0.080 C 
ATOM     10  C   UNL     1      12.644 -15.653  40.292  1.00  0.00     0.039 C 
ENDBRANCH   6   7
ENDBRANCH   5   6
ENDBRANCH   3   5
ENDBRANCH   1   2
BRANCH   1  11
ATOM     11  C   UNL     1      12.969 -18.985  40.864  1.00  0.00     0.034 C 
BRANCH  11  12
ATOM     12  C   UNL     1      12.255 -18.932  42.204  1.00  0.00    -0.075 C 
ATOM     13  C   UNL     1      12.326 -19.929  43.116  1.00  0.00    -0.000 C 
ATOM     14  C   UNL     1      11.399 -17.733  42.523  1.00  0.00     0.039 C 
BRANCH  13  15
ATOM     15  C   UNL     1      13.179 -21.163  42.980  1.00  0.00     0.183 C 
BRANCH  15  16
ATOM     16  O   UNL     1      14.269 -21.094  43.857  1.00  0.00    -0.392 OA
ATOM     17  H   UNL     1      14.484 -22.025  44.125  1.00  0.00     0.210 HD
ENDBRANCH  15  16
ENDBRANCH  13  15
ENDBRANCH  11  12
ENDBRANCH   1  11
TORSDOF 8
ENDMDL
MODEL 2
REMARK VINA RESULT:    -4.337      0.748      2.706
REMARK INTER + INTRA:          -6.670
REMARK INTER:                  -6.600
REMARK INTRA:                  -0.070
REMARK UNBOUND:                -0.431
REMARK SMILES CC(C)=CCCC(C)=CCCC(C)=CCO
REMARK SMILES IDX 10 1 9 2 7 3 8 4 6 5 5 6 4 7 1 8 2 9 3 10 11 11 12 12 14 13
REMARK SMILES IDX 13 14 15 15 16 16
REMARK H PARENT 16 17
REMARK Flexibility Score: inf
ROOT
ATOM      1  C   UNL     1      13.364 -16.671  40.938  1.00  0.00     0.032 C 
ENDROOT
BRANCH   1   2
ATOM      2  C   UNL     1      13.011 -16.122  39.576  1.00  0.00    -0.028 C 
ATOM      3  C   UNL     1      11.976 -15.286  39.330  1.00  0.00    -0.077 C 
ATOM      4  C   UNL     1      11.096 -14.755  40.437  1.00  0.00     0.039 C 
BRANCH   3   5
ATOM      5  C   UNL     1      11.704 -14.858  37.904  1.00  0.00     0.034 C 
BRANCH   5   6
ATOM      6  C   UNL     1      10.879 -15.918  37.166  1.00  0.00     0.032 C 
BRANCH   6   7
ATOM      7  C   UNL     1      11.427 -17.299  37.427  1.00  0.00    -0.028 C 
ATOM      8  C   UNL     1      11.621 -19.484  38.534  1.00  0.00     0.039 C 
ATOM      9  C   UNL     1      10.944 -18.149  38.360  1.00  0.00    -0.080 C 
ATOM     10  C   UNL     1       9.745 -17.805  39.213  1.00  0.00     0.039 C 
ENDBRANCH   6   7
ENDBRANCH   5   6
ENDBRANCH   3   5
ENDBRANCH   1   2
BRANCH   1  11
ATOM     11  C   UNL     1      13.041 -18.169  41.052  1.00  0.00     0.034 C 
BRANCH  11  12
ATOM     12  C   UNL     1      12.194 -18.472  42.275  1.00  0.00    -0.075 C 
ATOM     13  C   UNL     1      12.276 -19.638  42.957  1.00  0.00    -0.000 C 
ATOM     14  C   UNL     1      11.190 -17.446  42.735  1.00  0.00     0.039 C 
BRANCH  13  15
ATOM     15  C   UNL     1      13.262 -20.739  42.667  1.00  0.00     0.183 C 
BRANCH  15  16
ATOM     16  O   UNL     1      13.932 -21.107  43.841  1.00  0.00    -0.392 OA
ATOM     17  H   UNL     1      13.527 -20.585  44.581  1.00  0.00     0.210 HD
ENDBRANCH  15  16
ENDBRANCH  13  15
ENDBRANCH  11  12
ENDBRANCH   1  11
TORSDOF 8
ENDMDL
MODEL 3
REMARK VINA RESULT:    -4.336      2.409      4.836
REMARK INTER + INTRA:          -6.669
REMARK INTER:                  -6.190
REMARK INTRA:                  -0.479
REMARK UNBOUND:                -0.431
REMARK SMILES CC(C)=CCCC(C)=CCCC(C)=CCO
REMARK SMILES IDX 10 1 9 2 7 3 8 4 6 5 5 6 4 7 1 8 2 9 3 10 11 11 12 12 14 13
REMARK SMILES IDX 13 14 15 15 16 16
REMARK H PARENT 16 17
REMARK Flexibility Score: inf
ROOT
ATOM      1  C   UNL     1      11.192 -16.148  37.593  1.00  0.00     0.032 C 
ENDROOT
BRANCH   1   2
ATOM      2  C   UNL     1      11.613 -17.588  37.765  1.00  0.00    -0.028 C 
ATOM      3  C   UNL     1      11.018 -18.467  38.604  1.00  0.00    -0.077 C 
ATOM      4  C   UNL     1       9.800 -18.096  39.417  1.00  0.00     0.039 C 
BRANCH   3   5
ATOM      5  C   UNL     1      11.579 -19.867  38.716  1.00  0.00     0.034 C 
BRANCH   5   6
ATOM      6  C   UNL     1      12.480 -19.994  39.950  1.00  0.00     0.032 C 
BRANCH   6   7
ATOM      7  C   UNL     1      12.090 -18.985  41.002  1.00  0.00    -0.028 C 
ATOM      8  C   UNL     1      11.721 -18.107  43.267  1.00  0.00     0.039 C 
ATOM      9  C   UNL     1      12.187 -19.194  42.334  1.00  0.00    -0.080 C 
ATOM     10  C   UNL     1      12.758 -20.471  42.905  1.00  0.00     0.039 C 
ENDBRANCH   6   7
ENDBRANCH   5   6
ENDBRANCH   3   5
ENDBRANCH   1   2
BRANCH   1  11
ATOM     11  C   UNL     1      12.160 -15.182  38.294  1.00  0.00     0.034 C 
BRANCH  11  12
ATOM     12  C   UNL     1      12.577 -15.694  39.661  1.00  0.00    -0.075 C 
ATOM     13  C   UNL     1      11.849 -15.482  40.781  1.00  0.00    -0.000 C 
ATOM     14  C   UNL     1      13.879 -16.445  39.789  1.00  0.00     0.039 C 
BRANCH  13  15
ATOM     15  C   UNL     1      10.503 -14.806  40.820  1.00  0.00     0.183 C 
BRANCH  15  16
ATOM     16  O   UNL     1      10.664 -13.415  40.850  1.00  0.00    -0.392 OA
ATOM     17  H   UNL     1      10.341 -13.106  41.736  1.00  0.00     0.210 HD
ENDBRANCH  15  16
ENDBRANCH  13  15
ENDBRANCH  11  12
ENDBRANCH   1  11
TORSDOF 8
ENDMDL
MODEL 4
REMARK VINA RESULT:    -4.317      1.980      5.133
REMARK INTER + INTRA:          -6.641
REMARK INTER:                  -6.304
REMARK INTRA:                  -0.337
REMARK UNBOUND:                -0.431
REMARK SMILES CC(C)=CCCC(C)=CCCC(C)=CCO
REMARK SMILES IDX 10 1 9 2 7 3 8 4 6 5 5 6 4 7 1 8 2 9 3 10 11 11 12 12 14 13
REMARK SMILES IDX 13 14 15 15 16 16
REMARK H PARENT 16 17
REMARK Flexibility Score: inf
ROOT
ATOM      1  C   UNL     1      12.425 -15.554  38.607  1.00  0.00     0.032 C 
ENDROOT
BRANCH   1   2
ATOM      2  C   UNL     1      12.473 -16.084  40.020  1.00  0.00    -0.028 C 
ATOM      3  C   UNL     1      11.773 -15.569  41.057  1.00  0.00    -0.077 C 
ATOM      4  C   UNL     1      10.801 -14.427  40.877  1.00  0.00     0.039 C 
BRANCH   3   5
ATOM      5  C   UNL     1      11.960 -16.166  42.435  1.00  0.00     0.034 C 
BRANCH   5   6
ATOM      6  C   UNL     1      11.269 -17.531  42.534  1.00  0.00     0.032 C 
BRANCH   6   7
ATOM      7  C   UNL     1      12.266 -18.648  42.350  1.00  0.00    -0.028 C 
ATOM      8  C   UNL     1      13.451 -20.733  42.885  1.00  0.00     0.039 C 
ATOM      9  C   UNL     1      12.380 -19.714  43.174  1.00  0.00    -0.080 C 
ATOM     10  C   UNL     1      11.459 -19.915  44.355  1.00  0.00     0.039 C 
ENDBRANCH   6   7
ENDBRANCH   5   6
ENDBRANCH   3   5
ENDBRANCH   1   2
BRANCH   1  11
ATOM     11  C   UNL     1      11.494 -16.390  37.714  1.00  0.00     0.034 C 
BRANCH  11  12
ATOM     12  C   UNL     1      10.531 -17.231  38.534  1.00  0.00    -0.075 C 
ATOM     13  C   UNL     1      10.799 -18.503  38.908  1.00  0.00    -0.000 C 
ATOM     14  C   UNL     1       9.200 -16.639  38.921  1.00  0.00     0.039 C 
BRANCH  13  15
ATOM     15  C   UNL     1      12.099 -19.221  38.655  1.00  0.00     0.183 C 
BRANCH  15  16
ATOM     16  O   UNL     1      12.185 -19.603  37.310  1.00  0.00    -0.392 OA
ATOM     17  H   UNL     1      11.609 -20.403  37.199  1.00  0.00     0.210 HD
ENDBRANCH  15  16
ENDBRANCH  13  15
ENDBRANCH  11  12
ENDBRANCH   1  11
TORSDOF 8
ENDMDL
MODEL 5
REMARK VINA RESULT:    -4.216      1.922      5.072
REMARK INTER + INTRA:          -6.496
REMARK INTER:                  -5.936
REMARK INTRA:                  -0.559
REMARK UNBOUND:                -0.431
REMARK SMILES CC(C)=CCCC(C)=CCCC(C)=CCO
REMARK SMILES IDX 10 1 9 2 7 3 8 4 6 5 5 6 4 7 1 8 2 9 3 10 11 11 12 12 14 13
REMARK SMILES IDX 13 14 15 15 16 16
REMARK H PARENT 16 17
REMARK Flexibility Score: inf
ROOT
ATOM      1  C   UNL     1      10.021 -17.255  39.000  1.00  0.00     0.032 C 
ENDROOT
BRANCH   1   2
ATOM      2  C   UNL     1      10.625 -18.515  39.574  1.00  0.00    -0.028 C 
ATOM      3  C   UNL     1      11.471 -19.334  38.907  1.00  0.00    -0.077 C 
ATOM      4  C   UNL     1      11.957 -19.017  37.512  1.00  0.00     0.039 C 
BRANCH   3   5
ATOM      5  C   UNL     1      11.957 -20.595  39.586  1.00  0.00     0.034 C 
BRANCH   5   6
ATOM      6  C   UNL     1      12.978 -20.265  40.681  1.00  0.00     0.032 C 
BRANCH   6   7
ATOM      7  C   UNL     1      12.282 -19.816  41.942  1.00  0.00    -0.028 C 
ATOM      8  C   UNL     1      11.824 -19.699  44.353  1.00  0.00     0.039 C 
ATOM      9  C   UNL     1      12.639 -20.198  43.188  1.00  0.00    -0.080 C 
ATOM     10  C   UNL     1      13.832 -21.091  43.442  1.00  0.00     0.039 C 
ENDBRANCH   6   7
ENDBRANCH   5   6
ENDBRANCH   3   5
ENDBRANCH   1   2
BRANCH   1  11
ATOM     11  C   UNL     1      10.574 -15.995  39.683  1.00  0.00     0.034 C 
BRANCH  11  12
ATOM     12  C   UNL     1      11.747 -15.406  38.919  1.00  0.00    -0.075 C 
ATOM     13  C   UNL     1      13.032 -15.751  39.161  1.00  0.00    -0.000 C 
ATOM     14  C   UNL     1      11.475 -14.364  37.863  1.00  0.00     0.039 C 
BRANCH  13  15
ATOM     15  C   UNL     1      13.471 -16.814  40.134  1.00  0.00     0.183 C 
BRANCH  15  16
ATOM     16  O   UNL     1      14.863 -16.967  40.085  1.00  0.00    -0.392 OA
ATOM     17  H   UNL     1      15.090 -17.734  40.672  1.00  0.00     0.210 HD
ENDBRANCH  15  16
ENDBRANCH  13  15
ENDBRANCH  11  12
ENDBRANCH   1  11
TORSDOF 8
ENDMDL
MODEL 6
REMARK VINA RESULT:    -3.866      1.676      2.516
REMARK INTER + INTRA:          -5.992
REMARK INTER:                  -5.393
REMARK INTRA:                  -0.599
REMARK UNBOUND:                -0.431
REMARK SMILES CC(C)=CCCC(C)=CCCC(C)=CCO
REMARK SMILES IDX 10 1 9 2 7 3 8 4 6 5 5 6 4 7 1 8 2 9 3 10 11 11 12 12 14 13
REMARK SMILES IDX 13 14 15 15 16 16
REMARK H PARENT 16 17
REMARK Flexibility Score: inf
ROOT
ATOM      1  C   UNL     1      12.675 -20.347  40.042  1.00  0.00     0.032 C 
ENDROOT
BRANCH   1   2
ATOM      2  C   UNL     1      11.965 -19.410  39.095  1.00  0.00    -0.028 C 
ATOM      3  C   UNL     1      12.191 -18.078  39.020  1.00  0.00    -0.077 C 
ATOM      4  C   UNL     1      13.253 -17.399  39.853  1.00  0.00     0.039 C 
BRANCH   3   5
ATOM      5  C   UNL     1      11.366 -17.248  38.061  1.00  0.00     0.034 C 
BRANCH   5   6
ATOM      6  C   UNL     1       9.980 -16.957  38.647  1.00  0.00     0.032 C 
BRANCH   6   7
ATOM      7  C   UNL     1      10.071 -15.929  39.748  1.00  0.00    -0.028 C 
ATOM      8  C   UNL     1      10.798 -13.861  40.857  1.00  0.00     0.039 C 
ATOM      9  C   UNL     1      10.765 -14.773  39.658  1.00  0.00    -0.080 C 
ATOM     10  C   UNL     1      11.489 -14.370  38.395  1.00  0.00     0.039 C 
ENDBRANCH   6   7
ENDBRANCH   5   6
ENDBRANCH   3   5
ENDBRANCH   1   2
BRANCH   1  11
ATOM     11  C   UNL     1      11.858 -20.595  41.320  1.00  0.00     0.034 C 
BRANCH  11  12
ATOM     12  C   UNL     1      12.565 -20.063  42.554  1.00  0.00    -0.075 C 
ATOM     13  C   UNL     1      12.295 -18.852  43.094  1.00  0.00    -0.000 C 
ATOM     14  C   UNL     1      13.642 -20.904  43.192  1.00  0.00     0.039 C 
BRANCH  13  15
ATOM     15  C   UNL     1      11.213 -17.918  42.618  1.00  0.00     0.183 C 
BRANCH  15  16
ATOM     16  O   UNL     1      11.635 -16.588  42.746  1.00  0.00    -0.392 OA
ATOM     17  H   UNL     1      12.583 -16.612  43.038  1.00  0.00     0.210 HD
ENDBRANCH  15  16
ENDBRANCH  13  15
ENDBRANCH  11  12
ENDBRANCH   1  11
TORSDOF 8
ENDMDL
MODEL 7
REMARK VINA RESULT:    -3.779      2.437      5.778
REMARK INTER + INTRA:          -5.867
REMARK INTER:                  -5.301
REMARK INTRA:                  -0.565
REMARK UNBOUND:                -0.431
REMARK SMILES CC(C)=CCCC(C)=CCCC(C)=CCO
REMARK SMILES IDX 10 1 9 2 7 3 8 4 6 5 5 6 4 7 1 8 2 9 3 10 11 11 12 12 14 13
REMARK SMILES IDX 13 14 15 15 16 16
REMARK H PARENT 16 17
REMARK Flexibility Score: inf
ROOT
ATOM      1  C   UNL     1      11.520 -15.569  40.920  1.00  0.00     0.032 C 
ENDROOT
BRANCH   1   2
ATOM      2  C   UNL     1      11.596 -16.978  40.382  1.00  0.00    -0.028 C 
ATOM      3  C   UNL     1      12.733 -17.581  39.965  1.00  0.00    -0.077 C 
ATOM      4  C   UNL     1      14.080 -16.906  40.068  1.00  0.00     0.039 C 
BRANCH   3   5
ATOM      5  C   UNL     1      12.653 -18.980  39.396  1.00  0.00     0.034 C 
BRANCH   5   6
ATOM      6  C   UNL     1      11.788 -19.881  40.285  1.00  0.00     0.032 C 
BRANCH   6   7
ATOM      7  C   UNL     1      12.630 -20.557  41.339  1.00  0.00    -0.028 C 
ATOM      8  C   UNL     1      13.630 -20.903  43.557  1.00  0.00     0.039 C 
ATOM      9  C   UNL     1      12.714 -20.151  42.626  1.00  0.00    -0.080 C 
ATOM     10  C   UNL     1      11.911 -18.984  43.152  1.00  0.00     0.039 C 
ENDBRANCH   6   7
ENDBRANCH   5   6
ENDBRANCH   3   5
ENDBRANCH   1   2
BRANCH   1  11
ATOM     11  C   UNL     1      10.558 -14.695  40.101  1.00  0.00     0.034 C 
BRANCH  11  12
ATOM     12  C   UNL     1      11.153 -14.302  38.760  1.00  0.00    -0.075 C 
ATOM     13  C   UNL     1      11.113 -15.105  37.672  1.00  0.00    -0.000 C 
ATOM     14  C   UNL     1      11.852 -12.971  38.639  1.00  0.00     0.039 C 
BRANCH  13  15
ATOM     15  C   UNL     1      10.406 -16.434  37.607  1.00  0.00     0.183 C 
BRANCH  15  16
ATOM     16  O   UNL     1      11.187 -17.361  36.906  1.00  0.00    -0.392 OA
ATOM     17  H   UNL     1      10.569 -17.892  36.340  1.00  0.00     0.210 HD
ENDBRANCH  15  16
ENDBRANCH  13  15
ENDBRANCH  11  12
ENDBRANCH   1  11
TORSDOF 8
ENDMDL
MODEL 8
REMARK VINA RESULT:    -3.724      2.711      5.382
REMARK INTER + INTRA:          -5.788
REMARK INTER:                  -5.079
REMARK INTRA:                  -0.710
REMARK UNBOUND:                -0.431
REMARK SMILES CC(C)=CCCC(C)=CCCC(C)=CCO
REMARK SMILES IDX 10 1 9 2 7 3 8 4 6 5 5 6 4 7 1 8 2 9 3 10 11 11 12 12 14 13
REMARK SMILES IDX 13 14 15 15 16 16
REMARK H PARENT 16 17
REMARK Flexibility Score: inf
ROOT
ATOM      1  C   UNL     1       9.874 -17.214  38.999  1.00  0.00     0.032 C 
ENDROOT
BRANCH   1   2
ATOM      2  C   UNL     1      10.557 -18.446  39.545  1.00  0.00    -0.028 C 
ATOM      3  C   UNL     1      11.450 -19.196  38.859  1.00  0.00    -0.077 C 
ATOM      4  C   UNL     1      11.911 -18.820  37.471  1.00  0.00     0.039 C 
BRANCH   3   5
ATOM      5  C   UNL     1      12.016 -20.439  39.511  1.00  0.00     0.034 C 
BRANCH   5   6
ATOM      6  C   UNL     1      13.009 -20.068  40.619  1.00  0.00     0.032 C 
BRANCH   6   7
ATOM      7  C   UNL     1      12.280 -19.712  41.891  1.00  0.00    -0.028 C 
ATOM      8  C   UNL     1      11.784 -19.741  44.297  1.00  0.00     0.039 C 
ATOM      9  C   UNL     1      12.632 -20.149  43.121  1.00  0.00    -0.080 C 
ATOM     10  C   UNL     1      13.850 -21.016  43.345  1.00  0.00     0.039 C 
ENDBRANCH   6   7
ENDBRANCH   5   6
ENDBRANCH   3   5
ENDBRANCH   1   2
BRANCH   1  11
ATOM     11  C   UNL     1      10.089 -15.993  39.907  1.00  0.00     0.034 C 
BRANCH  11  12
ATOM     12  C   UNL     1      11.542 -15.845  40.320  1.00  0.00    -0.075 C 
ATOM     13  C   UNL     1      12.521 -15.489  39.458  1.00  0.00    -0.000 C 
ATOM     14  C   UNL     1      11.923 -16.139  41.749  1.00  0.00     0.039 C 
BRANCH  13  15
ATOM     15  C   UNL     1      12.304 -15.105  38.017  1.00  0.00     0.183 C 
BRANCH  15  16
ATOM     16  O   UNL     1      11.561 -13.920  37.941  1.00  0.00    -0.392 OA
ATOM     17  H   UNL     1      12.197 -13.171  38.079  1.00  0.00     0.210 HD
ENDBRANCH  15  16
ENDBRANCH  13  15
ENDBRANCH  11  12
ENDBRANCH   1  11
TORSDOF 8
ENDMDL
MODEL 9
REMARK VINA RESULT:    -3.446      1.756      3.560
REMARK INTER + INTRA:          -5.388
REMARK INTER:                  -4.834
REMARK INTRA:                  -0.553
REMARK UNBOUND:                -0.431
REMARK SMILES CC(C)=CCCC(C)=CCCC(C)=CCO
REMARK SMILES IDX 10 1 9 2 7 3 8 4 6 5 5 6 4 7 1 8 2 9 3 10 11 11 12 12 14 13
REMARK SMILES IDX 13 14 15 15 16 16
REMARK H PARENT 16 17
REMARK Flexibility Score: inf
ROOT
ATOM      1  C   UNL     1      12.121 -17.549  43.069  1.00  0.00     0.032 C 
ENDROOT
BRANCH   1   2
ATOM      2  C   UNL     1      11.427 -16.443  42.310  1.00  0.00    -0.028 C 
ATOM      3  C   UNL     1      11.905 -15.868  41.183  1.00  0.00    -0.077 C 
ATOM      4  C   UNL     1      13.179 -16.340  40.522  1.00  0.00     0.039 C 
BRANCH   3   5
ATOM      5  C   UNL     1      11.130 -14.730  40.556  1.00  0.00     0.034 C 
BRANCH   5   6
ATOM      6  C   UNL     1       9.853 -15.247  39.883  1.00  0.00     0.032 C 
BRANCH   6   7
ATOM      7  C   UNL     1      10.185 -16.253  38.809  1.00  0.00    -0.028 C 
ATOM      8  C   UNL     1      11.229 -17.109  36.756  1.00  0.00     0.039 C 
ATOM      9  C   UNL     1      11.025 -16.019  37.776  1.00  0.00    -0.080 C 
ATOM     10  C   UNL     1      11.767 -14.711  37.628  1.00  0.00     0.039 C 
ENDBRANCH   6   7
ENDBRANCH   5   6
ENDBRANCH   3   5
ENDBRANCH   1   2
BRANCH   1  11
ATOM     11  C   UNL     1      11.483 -18.919  42.794  1.00  0.00     0.034 C 
BRANCH  11  12
ATOM     12  C   UNL     1      12.494 -19.917  42.259  1.00  0.00    -0.075 C 
ATOM     13  C   UNL     1      12.651 -20.172  40.940  1.00  0.00    -0.000 C 
ATOM     14  C   UNL     1      13.342 -20.687  43.240  1.00  0.00     0.039 C 
BRANCH  13  15
ATOM     15  C   UNL     1      11.929 -19.451  39.831  1.00  0.00     0.183 C 
BRANCH  15  16
ATOM     16  O   UNL     1      12.422 -19.866  38.586  1.00  0.00    -0.392 OA
ATOM     17  H   UNL     1      12.305 -19.104  37.961  1.00  0.00     0.210 HD
ENDBRANCH  15  16
ENDBRANCH  13  15
ENDBRANCH  11  12
ENDBRANCH   1  11
TORSDOF 8
ENDMDL
