MODEL 1
REMARK VINA RESULT:    -3.330      0.000      0.000
REMARK INTER + INTRA:          -4.716
REMARK INTER:                  -4.303
REMARK INTRA:                  -0.413
REMARK UNBOUND:                -0.413
REMARK SMILES C=CC(=O)CCCCC
REMARK SMILES IDX 6 1 7 2 8 3 9 4 5 5 3 6 4 7 2 8 1 9
REMARK H PARENT
REMARK Flexibility Score: inf
ROOT
ATOM      1  C   UNL     1      23.411 -18.193   1.130  1.00  0.00     0.008 C 
ENDROOT
BRANCH   1   2
ATOM      2  C   UNL     1      23.036 -16.949   1.951  1.00  0.00     0.000 C 
BRANCH   2   3
ATOM      3  C   UNL     1      23.562 -17.013   3.392  1.00  0.00    -0.003 C 
ATOM      4  C   UNL     1      23.312 -18.386   4.009  1.00  0.00     0.004 C 
ENDBRANCH   2   3
ENDBRANCH   1   2
BRANCH   1   5
ATOM      5  C   UNL     1      24.802 -18.084   0.492  1.00  0.00     0.080 C 
BRANCH   5   6
ATOM      6  C   UNL     1      25.750 -19.056   1.129  1.00  0.00     0.155 C 
ATOM      7  O   UNL     1      26.963 -18.737   1.267  1.00  0.00    -0.295 OA
BRANCH   6   8
ATOM      8  C   UNL     1      25.254 -20.353   1.630  1.00  0.00     0.039 C 
ATOM      9  C   UNL     1      25.594 -21.512   1.071  1.00  0.00     0.012 C 
ENDBRANCH   6   8
ENDBRANCH   5   6
ENDBRANCH   1   5
TORSDOF 5
ENDMDL
MODEL 2
REMARK VINA RESULT:    -3.245      1.872      3.988
REMARK INTER + INTRA:          -4.607
REMARK INTER:                  -4.202
REMARK INTRA:                  -0.405
REMARK UNBOUND:                -0.413
REMARK SMILES C=CC(=O)CCCCC
REMARK SMILES IDX 6 1 7 2 8 3 9 4 5 5 3 6 4 7 2 8 1 9
REMARK H PARENT
REMARK Flexibility Score: inf
ROOT
ATOM      1  C   UNL     1      24.773 -17.699   0.678  1.00  0.00     0.008 C 
ENDROOT
BRANCH   1   2
ATOM      2  C   UNL     1      25.711 -18.820   1.150  1.00  0.00     0.000 C 
BRANCH   2   3
ATOM      3  C   UNL     1      24.956 -20.107   1.515  1.00  0.00    -0.003 C 
ATOM      4  C   UNL     1      25.745 -21.344   1.096  1.00  0.00     0.004 C 
ENDBRANCH   2   3
ENDBRANCH   1   2
BRANCH   1   5
ATOM      5  C   UNL     1      23.313 -17.936   1.087  1.00  0.00     0.080 C 
BRANCH   5   6
ATOM      6  C   UNL     1      22.857 -16.876   2.044  1.00  0.00     0.155 C 
ATOM      7  O   UNL     1      22.228 -15.875   1.603  1.00  0.00    -0.295 OA
BRANCH   6   8
ATOM      8  C   UNL     1      23.104 -17.030   3.491  1.00  0.00     0.039 C 
ATOM      9  C   UNL     1      23.321 -18.215   4.057  1.00  0.00     0.012 C 
ENDBRANCH   6   8
ENDBRANCH   5   6
ENDBRANCH   1   5
TORSDOF 5
ENDMDL
MODEL 3
REMARK VINA RESULT:    -3.080     17.831     19.030
REMARK INTER + INTRA:          -4.394
REMARK INTER:                  -4.039
REMARK INTRA:                  -0.355
REMARK UNBOUND:                -0.413
REMARK SMILES C=CC(=O)CCCCC
REMARK SMILES IDX 6 1 7 2 8 3 9 4 5 5 3 6 4 7 2 8 1 9
REMARK H PARENT
REMARK Flexibility Score: inf
ROOT
ATOM      1  C   UNL     1      14.865 -16.539 -14.539  1.00  0.00     0.008 C 
ENDROOT
BRANCH   1   2
ATOM      2  C   UNL     1      15.586 -17.682 -15.270  1.00  0.00     0.000 C 
BRANCH   2   3
ATOM      3  C   UNL     1      17.031 -17.873 -14.787  1.00  0.00    -0.003 C 
ATOM      4  C   UNL     1      17.346 -16.946 -13.616  1.00  0.00     0.004 C 
ENDBRANCH   2   3
ENDBRANCH   1   2
BRANCH   1   5
ATOM      5  C   UNL     1      13.339 -16.620 -14.672  1.00  0.00     0.080 C 
BRANCH   5   6
ATOM      6  C   UNL     1      12.699 -16.733 -13.321  1.00  0.00     0.155 C 
ATOM      7  O   UNL     1      11.443 -16.659 -13.224  1.00  0.00    -0.295 OA
BRANCH   6   8
ATOM      8  C   UNL     1      13.531 -16.973 -12.126  1.00  0.00     0.039 C 
ATOM      9  C   UNL     1      13.528 -16.154 -11.076  1.00  0.00     0.012 C 
ENDBRANCH   6   8
ENDBRANCH   5   6
ENDBRANCH   1   5
TORSDOF 5
ENDMDL
MODEL 4
REMARK VINA RESULT:    -3.053     17.571     18.186
REMARK INTER + INTRA:          -4.359
REMARK INTER:                  -4.182
REMARK INTRA:                  -0.177
REMARK UNBOUND:                -0.413
REMARK SMILES C=CC(=O)CCCCC
REMARK SMILES IDX 6 1 7 2 8 3 9 4 5 5 3 6 4 7 2 8 1 9
REMARK H PARENT
REMARK Flexibility Score: inf
ROOT
ATOM      1  C   UNL     1      14.299 -16.947 -13.356  1.00  0.00     0.008 C 
ENDROOT
BRANCH   1   2
ATOM      2  C   UNL     1      13.519 -17.032 -12.035  1.00  0.00     0.000 C 
BRANCH   2   3
ATOM      3  C   UNL     1      12.212 -16.225 -12.069  1.00  0.00    -0.003 C 
ATOM      4  C   UNL     1      11.026 -17.116 -12.430  1.00  0.00     0.004 C 
ENDBRANCH   2   3
ENDBRANCH   1   2
BRANCH   1   5
ATOM      5  C   UNL     1      15.608 -16.158 -13.221  1.00  0.00     0.080 C 
BRANCH   5   6
ATOM      6  C   UNL     1      16.739 -16.902 -13.866  1.00  0.00     0.155 C 
ATOM      7  O   UNL     1      17.839 -17.004 -13.255  1.00  0.00    -0.295 OA
BRANCH   6   8
ATOM      8  C   UNL     1      16.547 -17.547 -15.179  1.00  0.00     0.039 C 
ATOM      9  C   UNL     1      17.040 -18.751 -15.463  1.00  0.00     0.012 C 
ENDBRANCH   6   8
ENDBRANCH   5   6
ENDBRANCH   1   5
TORSDOF 5
ENDMDL
MODEL 5
REMARK VINA RESULT:    -3.018      1.723      4.164
REMARK INTER + INTRA:          -4.314
REMARK INTER:                  -4.003
REMARK INTRA:                  -0.310
REMARK UNBOUND:                -0.413
REMARK SMILES C=CC(=O)CCCCC
REMARK SMILES IDX 6 1 7 2 8 3 9 4 5 5 3 6 4 7 2 8 1 9
REMARK H PARENT
REMARK Flexibility Score: inf
ROOT
ATOM      1  C   UNL     1      24.203 -19.406   1.619  1.00  0.00     0.008 C 
ENDROOT
BRANCH   1   2
ATOM      2  C   UNL     1      25.652 -19.138   1.184  1.00  0.00     0.000 C 
BRANCH   2   3
ATOM      3  C   UNL     1      26.522 -20.403   1.221  1.00  0.00    -0.003 C 
ATOM      4  C   UNL     1      25.661 -21.662   1.264  1.00  0.00     0.004 C 
ENDBRANCH   2   3
ENDBRANCH   1   2
BRANCH   1   5
ATOM      5  C   UNL     1      23.887 -18.840   3.010  1.00  0.00     0.080 C 
BRANCH   5   6
ATOM      6  C   UNL     1      23.592 -17.372   2.924  1.00  0.00     0.155 C 
ATOM      7  O   UNL     1      24.203 -16.573   3.686  1.00  0.00    -0.295 OA
BRANCH   6   8
ATOM      8  C   UNL     1      22.629 -16.868   1.926  1.00  0.00     0.039 C 
ATOM      9  C   UNL     1      22.978 -16.018   0.962  1.00  0.00     0.012 C 
ENDBRANCH   6   8
ENDBRANCH   5   6
ENDBRANCH   1   5
TORSDOF 5
ENDMDL
MODEL 6
REMARK VINA RESULT:    -3.018     17.949     18.763
REMARK INTER + INTRA:          -4.313
REMARK INTER:                  -4.139
REMARK INTRA:                  -0.175
REMARK UNBOUND:                -0.413
REMARK SMILES C=CC(=O)CCCCC
REMARK SMILES IDX 6 1 7 2 8 3 9 4 5 5 3 6 4 7 2 8 1 9
REMARK H PARENT
REMARK Flexibility Score: inf
ROOT
ATOM      1  C   UNL     1      13.272 -17.075 -12.002  1.00  0.00     0.008 C 
ENDROOT
BRANCH   1   2
ATOM      2  C   UNL     1      11.929 -16.329 -12.004  1.00  0.00     0.000 C 
BRANCH   2   3
ATOM      3  C   UNL     1      10.937 -16.901 -13.026  1.00  0.00    -0.003 C 
ATOM      4  C   UNL     1       9.920 -17.817 -12.351  1.00  0.00     0.004 C 
ENDBRANCH   2   3
ENDBRANCH   1   2
BRANCH   1   5
ATOM      5  C   UNL     1      14.433 -16.207 -12.507  1.00  0.00     0.080 C 
BRANCH   5   6
ATOM      6  C   UNL     1      15.052 -16.817 -13.729  1.00  0.00     0.155 C 
ATOM      7  O   UNL     1      14.320 -17.102 -14.716  1.00  0.00    -0.295 OA
BRANCH   6   8
ATOM      8  C   UNL     1      16.511 -17.035 -13.788  1.00  0.00     0.039 C 
ATOM      9  C   UNL     1      17.075 -17.856 -14.672  1.00  0.00     0.012 C 
ENDBRANCH   6   8
ENDBRANCH   5   6
ENDBRANCH   1   5
TORSDOF 5
ENDMDL
MODEL 7
REMARK VINA RESULT:    -2.949     17.621     18.873
REMARK INTER + INTRA:          -4.225
REMARK INTER:                  -4.093
REMARK INTRA:                  -0.132
REMARK UNBOUND:                -0.413
REMARK SMILES C=CC(=O)CCCCC
REMARK SMILES IDX 6 1 7 2 8 3 9 4 5 5 3 6 4 7 2 8 1 9
REMARK H PARENT
REMARK Flexibility Score: inf
ROOT
ATOM      1  C   UNL     1      14.791 -16.993 -13.468  1.00  0.00     0.008 C 
ENDROOT
BRANCH   1   2
ATOM      2  C   UNL     1      15.450 -17.327 -14.814  1.00  0.00     0.000 C 
BRANCH   2   3
ATOM      3  C   UNL     1      16.939 -17.675 -14.672  1.00  0.00    -0.003 C 
ATOM      4  C   UNL     1      17.573 -16.914 -13.510  1.00  0.00     0.004 C 
ENDBRANCH   2   3
ENDBRANCH   1   2
BRANCH   1   5
ATOM      5  C   UNL     1      13.294 -16.683 -13.603  1.00  0.00     0.080 C 
BRANCH   5   6
ATOM      6  C   UNL     1      12.644 -16.635 -12.252  1.00  0.00     0.155 C 
ATOM      7  O   UNL     1      13.367 -16.637 -11.218  1.00  0.00    -0.295 OA
BRANCH   6   8
ATOM      8  C   UNL     1      11.175 -16.538 -12.141  1.00  0.00     0.039 C 
ATOM      9  C   UNL     1      10.371 -17.573 -12.374  1.00  0.00     0.012 C 
ENDBRANCH   6   8
ENDBRANCH   5   6
ENDBRANCH   1   5
TORSDOF 5
ENDMDL
MODEL 8
REMARK VINA RESULT:    -2.938     17.577     18.547
REMARK INTER + INTRA:          -4.210
REMARK INTER:                  -3.774
REMARK INTRA:                  -0.437
REMARK UNBOUND:                -0.413
REMARK SMILES C=CC(=O)CCCCC
REMARK SMILES IDX 6 1 7 2 8 3 9 4 5 5 3 6 4 7 2 8 1 9
REMARK H PARENT
REMARK Flexibility Score: inf
ROOT
ATOM      1  C   UNL     1      14.170 -16.122 -14.571  1.00  0.00     0.008 C 
ENDROOT
BRANCH   1   2
ATOM      2  C   UNL     1      12.830 -16.619 -14.007  1.00  0.00     0.000 C 
BRANCH   2   3
ATOM      3  C   UNL     1      12.928 -17.030 -12.531  1.00  0.00    -0.003 C 
ATOM      4  C   UNL     1      13.573 -15.928 -11.695  1.00  0.00     0.004 C 
ENDBRANCH   2   3
ENDBRANCH   1   2
BRANCH   1   5
ATOM      5  C   UNL     1      14.884 -17.180 -15.422  1.00  0.00     0.080 C 
BRANCH   5   6
ATOM      6  C   UNL     1      16.187 -17.571 -14.791  1.00  0.00     0.155 C 
ATOM      7  O   UNL     1      16.950 -18.373 -15.395  1.00  0.00    -0.295 OA
BRANCH   6   8
ATOM      8  C   UNL     1      16.587 -16.984 -13.497  1.00  0.00     0.039 C 
ATOM      9  C   UNL     1      17.776 -16.415 -13.308  1.00  0.00     0.012 C 
ENDBRANCH   6   8
ENDBRANCH   5   6
ENDBRANCH   1   5
TORSDOF 5
ENDMDL
MODEL 9
REMARK VINA RESULT:    -2.922     18.136     19.169
REMARK INTER + INTRA:          -4.190
REMARK INTER:                  -3.906
REMARK INTRA:                  -0.284
REMARK UNBOUND:                -0.413
REMARK SMILES C=CC(=O)CCCCC
REMARK SMILES IDX 6 1 7 2 8 3 9 4 5 5 3 6 4 7 2 8 1 9
REMARK H PARENT
REMARK Flexibility Score: inf
ROOT
ATOM      1  C   UNL     1      13.017 -17.101 -12.054  1.00  0.00     0.008 C 
ENDROOT
BRANCH   1   2
ATOM      2  C   UNL     1      11.735 -16.256 -11.998  1.00  0.00     0.000 C 
BRANCH   2   3
ATOM      3  C   UNL     1      10.643 -16.775 -12.945  1.00  0.00    -0.003 C 
ATOM      4  C   UNL     1       9.890 -17.948 -12.325  1.00  0.00     0.004 C 
ENDBRANCH   2   3
ENDBRANCH   1   2
BRANCH   1   5
ATOM      5  C   UNL     1      14.256 -16.274 -12.421  1.00  0.00     0.080 C 
BRANCH   5   6
ATOM      6  C   UNL     1      14.851 -16.763 -13.708  1.00  0.00     0.155 C 
ATOM      7  O   UNL     1      16.040 -17.186 -13.718  1.00  0.00    -0.295 OA
BRANCH   6   8
ATOM      8  C   UNL     1      14.035 -16.790 -14.938  1.00  0.00     0.039 C 
ATOM      9  C   UNL     1      14.491 -17.284 -16.087  1.00  0.00     0.012 C 
ENDBRANCH   6   8
ENDBRANCH   5   6
ENDBRANCH   1   5
TORSDOF 5
ENDMDL
