MODEL 1
REMARK VINA RESULT:    -4.530      0.000      0.000
REMARK INTER + INTRA:          -8.078
REMARK INTER:                  -6.913
REMARK INTRA:                  -1.165
REMARK UNBOUND:                -1.165
REMARK SMILES CCCCCCCCCCC(=O)[O-]
REMARK SMILES IDX 7 1 8 2 9 3 10 4 11 5 12 6 13 7 6 8 5 9 4 10 3 11 2 12 1 13
REMARK H PARENT
REMARK Flexibility Score: inf
ROOT
ATOM      1  C   UNL     1      12.619  13.368  34.289  1.00  0.00     0.000 C 
ENDROOT
BRANCH   1   2
ATOM      2  C   UNL     1      13.342  13.999  35.489  1.00  0.00     0.000 C 
BRANCH   2   3
ATOM      3  C   UNL     1      13.331  13.053  36.695  1.00  0.00     0.006 C 
BRANCH   3   4
ATOM      4  C   UNL     1      12.118  12.120  36.652  1.00  0.00     0.053 C 
BRANCH   4   5
ATOM      5  C   UNL     1      11.474  12.034  38.001  1.00  0.00     0.041 C 
ATOM      6  O   UNL     1      10.411  12.667  38.236  1.00  0.00    -0.550 OA
ATOM      7  O   UNL     1      12.021  11.217  38.982  1.00  0.00    -0.550 OA
ENDBRANCH   4   5
ENDBRANCH   3   4
ENDBRANCH   2   3
ENDBRANCH   1   2
BRANCH   1   8
ATOM      8  C   UNL     1      13.591  12.779  33.254  1.00  0.00     0.000 C 
BRANCH   8   9
ATOM      9  C   UNL     1      13.493  11.249  33.153  1.00  0.00    -0.000 C 
BRANCH   9  10
ATOM     10  C   UNL     1      14.825  10.588  33.530  1.00  0.00    -0.000 C 
BRANCH  10  11
ATOM     11  C   UNL     1      15.988  11.583  33.405  1.00  0.00    -0.000 C 
BRANCH  11  12
ATOM     12  C   UNL     1      16.784  11.727  34.712  1.00  0.00    -0.003 C 
ATOM     13  C   UNL     1      16.162  10.950  35.872  1.00  0.00     0.004 C 
ENDBRANCH  11  12
ENDBRANCH  10  11
ENDBRANCH   9  10
ENDBRANCH   8   9
ENDBRANCH   1   8
TORSDOF 9
ENDMDL
MODEL 2
REMARK VINA RESULT:    -4.468     13.308     14.248
REMARK INTER + INTRA:          -7.984
REMARK INTER:                  -7.541
REMARK INTRA:                  -0.442
REMARK UNBOUND:                -1.165
REMARK SMILES CCCCCCCCCCC(=O)[O-]
REMARK SMILES IDX 7 1 8 2 9 3 10 4 11 5 12 6 13 7 6 8 5 9 4 10 3 11 2 12 1 13
REMARK H PARENT
REMARK Flexibility Score: inf
ROOT
ATOM      1  C   UNL     1      20.449  22.545  40.348  1.00  0.00     0.000 C 
ENDROOT
BRANCH   1   2
ATOM      2  C   UNL     1      19.801  23.461  41.398  1.00  0.00     0.000 C 
BRANCH   2   3
ATOM      3  C   UNL     1      18.879  22.664  42.328  1.00  0.00     0.006 C 
BRANCH   3   4
ATOM      4  C   UNL     1      18.484  21.326  41.696  1.00  0.00     0.053 C 
BRANCH   4   5
ATOM      5  C   UNL     1      17.631  20.534  42.636  1.00  0.00     0.041 C 
ATOM      6  O   UNL     1      16.719  21.101  43.294  1.00  0.00    -0.550 OA
ATOM      7  O   UNL     1      17.810  19.161  42.748  1.00  0.00    -0.550 OA
ENDBRANCH   4   5
ENDBRANCH   3   4
ENDBRANCH   2   3
ENDBRANCH   1   2
BRANCH   1   8
ATOM      8  C   UNL     1      21.956  22.800  40.188  1.00  0.00     0.000 C 
BRANCH   8   9
ATOM      9  C   UNL     1      22.268  23.851  39.113  1.00  0.00    -0.000 C 
BRANCH   9  10
ATOM     10  C   UNL     1      23.777  23.937  38.849  1.00  0.00    -0.000 C 
BRANCH  10  11
ATOM     11  C   UNL     1      24.572  23.292  39.993  1.00  0.00    -0.000 C 
BRANCH  11  12
ATOM     12  C   UNL     1      25.658  24.223  40.556  1.00  0.00    -0.003 C 
ATOM     13  C   UNL     1      25.656  24.277  42.083  1.00  0.00     0.004 C 
ENDBRANCH  11  12
ENDBRANCH  10  11
ENDBRANCH   9  10
ENDBRANCH   8   9
ENDBRANCH   1   8
TORSDOF 9
ENDMDL
MODEL 3
REMARK VINA RESULT:    -4.461     14.302     15.819
REMARK INTER + INTRA:          -7.972
REMARK INTER:                  -7.540
REMARK INTRA:                  -0.432
REMARK UNBOUND:                -1.165
REMARK SMILES CCCCCCCCCCC(=O)[O-]
REMARK SMILES IDX 7 1 8 2 9 3 10 4 11 5 12 6 13 7 6 8 5 9 4 10 3 11 2 12 1 13
REMARK H PARENT
REMARK Flexibility Score: inf
ROOT
ATOM      1  C   UNL     1      21.144  22.642  40.559  1.00  0.00     0.000 C 
ENDROOT
BRANCH   1   2
ATOM      2  C   UNL     1      21.688  23.610  39.497  1.00  0.00     0.000 C 
BRANCH   2   3
ATOM      3  C   UNL     1      23.221  23.579  39.461  1.00  0.00     0.006 C 
BRANCH   3   4
ATOM      4  C   UNL     1      23.760  24.413  38.295  1.00  0.00     0.053 C 
BRANCH   4   5
ATOM      5  C   UNL     1      25.256  24.417  38.301  1.00  0.00     0.041 C 
ATOM      6  O   UNL     1      25.887  25.507  38.295  1.00  0.00    -0.550 OA
ATOM      7  O   UNL     1      25.954  23.218  38.365  1.00  0.00    -0.550 OA
ENDBRANCH   4   5
ENDBRANCH   3   4
ENDBRANCH   2   3
ENDBRANCH   1   2
BRANCH   1   8
ATOM      8  C   UNL     1      19.692  22.954  40.957  1.00  0.00     0.000 C 
BRANCH   8   9
ATOM      9  C   UNL     1      19.595  24.042  42.037  1.00  0.00    -0.000 C 
BRANCH   9  10
ATOM     10  C   UNL     1      19.064  23.463  43.354  1.00  0.00    -0.000 C 
BRANCH  10  11
ATOM     11  C   UNL     1      17.802  22.622  43.116  1.00  0.00    -0.000 C 
BRANCH  11  12
ATOM     12  C   UNL     1      17.903  21.218  43.732  1.00  0.00    -0.003 C 
ATOM     13  C   UNL     1      17.670  20.105  42.710  1.00  0.00     0.004 C 
ENDBRANCH  11  12
ENDBRANCH  10  11
ENDBRANCH   9  10
ENDBRANCH   8   9
ENDBRANCH   1   8
TORSDOF 9
ENDMDL
MODEL 4
REMARK VINA RESULT:    -4.437     13.953     15.440
REMARK INTER + INTRA:          -7.937
REMARK INTER:                  -7.528
REMARK INTRA:                  -0.408
REMARK UNBOUND:                -1.165
REMARK SMILES CCCCCCCCCCC(=O)[O-]
REMARK SMILES IDX 7 1 8 2 9 3 10 4 11 5 12 6 13 7 6 8 5 9 4 10 3 11 2 12 1 13
REMARK H PARENT
REMARK Flexibility Score: inf
ROOT
ATOM      1  C   UNL     1      21.201  22.725  39.659  1.00  0.00     0.000 C 
ENDROOT
BRANCH   1   2
ATOM      2  C   UNL     1      22.673  23.148  39.534  1.00  0.00     0.000 C 
BRANCH   2   3
ATOM      3  C   UNL     1      23.407  22.984  40.870  1.00  0.00     0.006 C 
BRANCH   3   4
ATOM      4  C   UNL     1      24.761  23.700  40.846  1.00  0.00     0.053 C 
BRANCH   4   5
ATOM      5  C   UNL     1      25.876  22.717  41.015  1.00  0.00     0.041 C 
ATOM      6  O   UNL     1      26.959  22.876  40.392  1.00  0.00    -0.550 OA
ATOM      7  O   UNL     1      25.739  21.654  41.898  1.00  0.00    -0.550 OA
ENDBRANCH   4   5
ENDBRANCH   3   4
ENDBRANCH   2   3
ENDBRANCH   1   2
BRANCH   1   8
ATOM      8  C   UNL     1      20.509  23.343  40.884  1.00  0.00     0.000 C 
BRANCH   8   9
ATOM      9  C   UNL     1      19.302  22.519  41.359  1.00  0.00    -0.000 C 
BRANCH   9  10
ATOM     10  C   UNL     1      18.901  22.906  42.788  1.00  0.00    -0.000 C 
BRANCH  10  11
ATOM     11  C   UNL     1      17.928  21.878  43.383  1.00  0.00    -0.000 C 
BRANCH  11  12
ATOM     12  C   UNL     1      17.549  20.775  42.382  1.00  0.00    -0.003 C 
ATOM     13  C   UNL     1      17.687  19.371  42.970  1.00  0.00     0.004 C 
ENDBRANCH  11  12
ENDBRANCH  10  11
ENDBRANCH   9  10
ENDBRANCH   8   9
ENDBRANCH   1   8
TORSDOF 9
ENDMDL
MODEL 5
REMARK VINA RESULT:    -4.401      1.023      2.028
REMARK INTER + INTRA:          -7.882
REMARK INTER:                  -6.732
REMARK INTRA:                  -1.150
REMARK UNBOUND:                -1.165
REMARK SMILES CCCCCCCCCCC(=O)[O-]
REMARK SMILES IDX 7 1 8 2 9 3 10 4 11 5 12 6 13 7 6 8 5 9 4 10 3 11 2 12 1 13
REMARK H PARENT
REMARK Flexibility Score: inf
ROOT
ATOM      1  C   UNL     1      13.667  13.839  35.588  1.00  0.00     0.000 C 
ENDROOT
BRANCH   1   2
ATOM      2  C   UNL     1      12.526  13.003  34.989  1.00  0.00     0.000 C 
BRANCH   2   3
ATOM      3  C   UNL     1      12.003  11.980  36.004  1.00  0.00     0.006 C 
BRANCH   3   4
ATOM      4  C   UNL     1      12.286  12.435  37.439  1.00  0.00     0.053 C 
BRANCH   4   5
ATOM      5  C   UNL     1      11.293  11.835  38.384  1.00  0.00     0.041 C 
ATOM      6  O   UNL     1      10.206  12.425  38.619  1.00  0.00    -0.550 OA
ATOM      7  O   UNL     1      11.548  10.600  38.967  1.00  0.00    -0.550 OA
ENDBRANCH   4   5
ENDBRANCH   3   4
ENDBRANCH   2   3
ENDBRANCH   1   2
BRANCH   1   8
ATOM      8  C   UNL     1      14.998  13.647  34.843  1.00  0.00     0.000 C 
BRANCH   8   9
ATOM      9  C   UNL     1      15.915  12.622  35.527  1.00  0.00    -0.000 C 
BRANCH   9  10
ATOM     10  C   UNL     1      15.876  11.276  34.794  1.00  0.00    -0.000 C 
BRANCH  10  11
ATOM     11  C   UNL     1      15.815  11.478  33.274  1.00  0.00    -0.000 C 
BRANCH  11  12
ATOM     12  C   UNL     1      14.631  10.741  32.626  1.00  0.00    -0.003 C 
ATOM     13  C   UNL     1      13.908   9.814  33.603  1.00  0.00     0.004 C 
ENDBRANCH  11  12
ENDBRANCH  10  11
ENDBRANCH   9  10
ENDBRANCH   8   9
ENDBRANCH   1   8
TORSDOF 9
ENDMDL
MODEL 6
REMARK VINA RESULT:    -4.393      3.503      5.118
REMARK INTER + INTRA:          -7.869
REMARK INTER:                  -6.609
REMARK INTRA:                  -1.260
REMARK UNBOUND:                -1.165
REMARK SMILES CCCCCCCCCCC(=O)[O-]
REMARK SMILES IDX 7 1 8 2 9 3 10 4 11 5 12 6 13 7 6 8 5 9 4 10 3 11 2 12 1 13
REMARK H PARENT
REMARK Flexibility Score: inf
ROOT
ATOM      1  C   UNL     1      15.860  11.539  33.806  1.00  0.00     0.000 C 
ENDROOT
BRANCH   1   2
ATOM      2  C   UNL     1      16.304  11.181  35.233  1.00  0.00     0.000 C 
BRANCH   2   3
ATOM      3  C   UNL     1      16.857  12.412  35.961  1.00  0.00     0.006 C 
BRANCH   3   4
ATOM      4  C   UNL     1      16.765  13.661  35.078  1.00  0.00     0.053 C 
BRANCH   4   5
ATOM      5  C   UNL     1      18.050  14.426  35.117  1.00  0.00     0.041 C 
ATOM      6  O   UNL     1      18.465  15.018  34.086  1.00  0.00    -0.550 OA
ATOM      7  O   UNL     1      18.764  14.526  36.304  1.00  0.00    -0.550 OA
ENDBRANCH   4   5
ENDBRANCH   3   4
ENDBRANCH   2   3
ENDBRANCH   1   2
BRANCH   1   8
ATOM      8  C   UNL     1      14.719  10.644  33.298  1.00  0.00     0.000 C 
BRANCH   8   9
ATOM      9  C   UNL     1      13.487  11.449  32.857  1.00  0.00    -0.000 C 
BRANCH   9  10
ATOM     10  C   UNL     1      13.598  12.912  33.303  1.00  0.00    -0.000 C 
BRANCH  10  11
ATOM     11  C   UNL     1      12.493  13.266  34.308  1.00  0.00    -0.000 C 
BRANCH  11  12
ATOM     12  C   UNL     1      13.044  13.923  35.584  1.00  0.00    -0.003 C 
ATOM     13  C   UNL     1      13.258  12.921  36.719  1.00  0.00     0.004 C 
ENDBRANCH  11  12
ENDBRANCH  10  11
ENDBRANCH   9  10
ENDBRANCH   8   9
ENDBRANCH   1   8
TORSDOF 9
ENDMDL
MODEL 7
REMARK VINA RESULT:    -4.319      3.244      5.043
REMARK INTER + INTRA:          -7.756
REMARK INTER:                  -6.479
REMARK INTRA:                  -1.277
REMARK UNBOUND:                -1.165
REMARK SMILES CCCCCCCCCCC(=O)[O-]
REMARK SMILES IDX 7 1 8 2 9 3 10 4 11 5 12 6 13 7 6 8 5 9 4 10 3 11 2 12 1 13
REMARK H PARENT
REMARK Flexibility Score: inf
ROOT
ATOM      1  C   UNL     1      13.412  12.964  33.343  1.00  0.00     0.000 C 
ENDROOT
BRANCH   1   2
ATOM      2  C   UNL     1      13.459  11.442  33.140  1.00  0.00     0.000 C 
BRANCH   2   3
ATOM      3  C   UNL     1      14.899  10.960  32.933  1.00  0.00     0.006 C 
BRANCH   3   4
ATOM      4  C   UNL     1      15.773  11.302  34.143  1.00  0.00     0.053 C 
BRANCH   4   5
ATOM      5  C   UNL     1      16.919  12.172  33.733  1.00  0.00     0.041 C 
ATOM      6  O   UNL     1      17.885  11.684  33.088  1.00  0.00    -0.550 OA
ATOM      7  O   UNL     1      16.899  13.530  34.020  1.00  0.00    -0.550 OA
ENDBRANCH   4   5
ENDBRANCH   3   4
ENDBRANCH   2   3
ENDBRANCH   1   2
BRANCH   1   8
ATOM      8  C   UNL     1      12.520  13.378  34.524  1.00  0.00     0.000 C 
BRANCH   8   9
ATOM      9  C   UNL     1      13.331  13.784  35.764  1.00  0.00    -0.000 C 
BRANCH   9  10
ATOM     10  C   UNL     1      13.341  12.660  36.807  1.00  0.00    -0.000 C 
BRANCH  10  11
ATOM     11  C   UNL     1      12.109  11.756  36.653  1.00  0.00    -0.000 C 
BRANCH  11  12
ATOM     12  C   UNL     1      12.477  10.266  36.567  1.00  0.00    -0.003 C 
ATOM     13  C   UNL     1      13.918   9.987  36.995  1.00  0.00     0.004 C 
ENDBRANCH  11  12
ENDBRANCH  10  11
ENDBRANCH   9  10
ENDBRANCH   8   9
ENDBRANCH   1   8
TORSDOF 9
ENDMDL
MODEL 8
REMARK VINA RESULT:    -4.231      3.220      4.887
REMARK INTER + INTRA:          -7.621
REMARK INTER:                  -6.399
REMARK INTRA:                  -1.222
REMARK UNBOUND:                -1.165
REMARK SMILES CCCCCCCCCCC(=O)[O-]
REMARK SMILES IDX 7 1 8 2 9 3 10 4 11 5 12 6 13 7 6 8 5 9 4 10 3 11 2 12 1 13
REMARK H PARENT
REMARK Flexibility Score: inf
ROOT
ATOM      1  C   UNL     1      14.316  11.476  36.479  1.00  0.00     0.000 C 
ENDROOT
BRANCH   1   2
ATOM      2  C   UNL     1      15.789  11.046  36.415  1.00  0.00     0.000 C 
BRANCH   2   3
ATOM      3  C   UNL     1      16.717  12.266  36.389  1.00  0.00     0.006 C 
BRANCH   3   4
ATOM      4  C   UNL     1      17.302  12.482  34.990  1.00  0.00     0.053 C 
BRANCH   4   5
ATOM      5  C   UNL     1      17.245  13.929  34.615  1.00  0.00     0.041 C 
ATOM      6  O   UNL     1      16.319  14.355  33.875  1.00  0.00    -0.550 OA
ATOM      7  O   UNL     1      18.184  14.817  35.124  1.00  0.00    -0.550 OA
ENDBRANCH   4   5
ENDBRANCH   3   4
ENDBRANCH   2   3
ENDBRANCH   1   2
BRANCH   1   8
ATOM      8  C   UNL     1      14.148  12.975  36.777  1.00  0.00     0.000 C 
BRANCH   8   9
ATOM      9  C   UNL     1      13.368  13.713  35.679  1.00  0.00    -0.000 C 
BRANCH   9  10
ATOM     10  C   UNL     1      12.661  12.722  34.746  1.00  0.00    -0.000 C 
BRANCH  10  11
ATOM     11  C   UNL     1      13.261  12.772  33.334  1.00  0.00    -0.000 C 
BRANCH  11  12
ATOM     12  C   UNL     1      13.463  11.374  32.728  1.00  0.00    -0.003 C 
ATOM     13  C   UNL     1      14.912  10.895  32.819  1.00  0.00     0.004 C 
ENDBRANCH  11  12
ENDBRANCH  10  11
ENDBRANCH   9  10
ENDBRANCH   8   9
ENDBRANCH   1   8
TORSDOF 9
ENDMDL
MODEL 9
REMARK VINA RESULT:    -4.151      3.662      5.608
REMARK INTER + INTRA:          -7.500
REMARK INTER:                  -6.147
REMARK INTRA:                  -1.354
REMARK UNBOUND:                -1.165
REMARK SMILES CCCCCCCCCCC(=O)[O-]
REMARK SMILES IDX 7 1 8 2 9 3 10 4 11 5 12 6 13 7 6 8 5 9 4 10 3 11 2 12 1 13
REMARK H PARENT
REMARK Flexibility Score: inf
ROOT
ATOM      1  C   UNL     1      15.702  12.046  36.318  1.00  0.00     0.000 C 
ENDROOT
BRANCH   1   2
ATOM      2  C   UNL     1      16.390  11.322  35.150  1.00  0.00     0.000 C 
BRANCH   2   3
ATOM      3  C   UNL     1      16.830  12.317  34.070  1.00  0.00     0.006 C 
BRANCH   3   4
ATOM      4  C   UNL     1      16.700  13.760  34.566  1.00  0.00     0.053 C 
BRANCH   4   5
ATOM      5  C   UNL     1      18.049  14.396  34.686  1.00  0.00     0.041 C 
ATOM      6  O   UNL     1      18.997  13.771  35.232  1.00  0.00    -0.550 OA
ATOM      7  O   UNL     1      18.273  15.658  34.152  1.00  0.00    -0.550 OA
ENDBRANCH   4   5
ENDBRANCH   3   4
ENDBRANCH   2   3
ENDBRANCH   1   2
BRANCH   1   8
ATOM      8  C   UNL     1      14.608  11.195  36.982  1.00  0.00     0.000 C 
BRANCH   8   9
ATOM      9  C   UNL     1      13.232  11.877  36.961  1.00  0.00    -0.000 C 
BRANCH   9  10
ATOM     10  C   UNL     1      13.329  13.290  36.374  1.00  0.00    -0.000 C 
BRANCH  10  11
ATOM     11  C   UNL     1      12.385  13.453  35.173  1.00  0.00    -0.000 C 
BRANCH  11  12
ATOM     12  C   UNL     1      13.125  13.392  33.828  1.00  0.00    -0.003 C 
ATOM     13  C   UNL     1      13.198  11.976  33.257  1.00  0.00     0.004 C 
ENDBRANCH  11  12
ENDBRANCH  10  11
ENDBRANCH   9  10
ENDBRANCH   8   9
ENDBRANCH   1   8
TORSDOF 9
ENDMDL
