MODEL 1
REMARK VINA RESULT:    -0.850      0.000      0.000
REMARK INTER + INTRA:          -2.242
REMARK INTER:                  -1.148
REMARK INTRA:                  -1.094
REMARK UNBOUND:                -1.094
REMARK SMILES CC[C@@H](CC[C@@H](C)[C@H]1CC[C@H]2[C@@H]3CC(=O)C4=CC(=O)CC[C@]4(C)[C@@H]3CC[C@]12C)C(C)C
REMARK SMILES IDX 4 1 3 2 2 3 1 4 29 5 30 6 31 7 5 8 6 9 7 10 8 11 9 12 27 13
REMARK SMILES IDX 10 14 11 15 26 16 28 17 12 18 25 19 24 20 13 21 22 22 14 23
REMARK SMILES IDX 16 24 21 25 23 26 15 27 17 28 20 29 18 30 19 31
REMARK H PARENT
REMARK Flexibility Score: inf
ROOT
ATOM      1  C   UNL     1      78.150  80.879  82.246  1.00  0.00     0.004 C 
ENDROOT
BRANCH   1   2
ATOM      2  C   UNL     1      78.099  82.272  82.960  1.00  0.00    -0.009 C 
BRANCH   2   3
ATOM      3  C   UNL     1      77.969  83.422  81.917  1.00  0.00     0.000 C 
ATOM      4  C   UNL     1      77.125  83.050  80.696  1.00  0.00     0.004 C 
ENDBRANCH   2   3
BRANCH   2   5
ATOM      5  C   UNL     1      79.341  82.451  83.903  1.00  0.00    -0.014 C 
ATOM      6  C   UNL     1      79.725  83.939  84.027  1.00  0.00     0.007 C 
ATOM      7  C   UNL     1      80.587  81.670  83.447  1.00  0.00     0.007 C 
ENDBRANCH   2   5
ENDBRANCH   1   2
BRANCH   1   8
ATOM      8  C   UNL     1      76.915  80.008  82.556  1.00  0.00     0.004 C 
BRANCH   8   9
ATOM      9  C   UNL     1      77.313  78.577  83.020  1.00  0.00    -0.011 C 
ATOM     10  C   UNL     1      78.486  78.689  84.011  1.00  0.00     0.008 C 
BRANCH   9  11
ATOM     11  C   UNL     1      76.093  77.815  83.643  1.00  0.00    -0.002 C 
ATOM     12  C   UNL     1      74.771  78.631  83.570  1.00  0.00     0.005 C 
ATOM     13  C   UNL     1      75.704  76.434  83.021  1.00  0.00    -0.026 C 
ATOM     14  C   UNL     1      73.623  77.628  83.374  1.00  0.00     0.005 C 
ATOM     15  C   UNL     1      74.283  76.275  83.573  1.00  0.00    -0.001 C 
ATOM     16  C   UNL     1      76.552  75.222  83.543  1.00  0.00     0.007 C 
ATOM     17  C   UNL     1      75.711  76.533  81.456  1.00  0.00     0.012 C 
ATOM     18  C   UNL     1      73.519  75.002  83.079  1.00  0.00     0.004 C 
ATOM     19  C   UNL     1      75.729  73.920  83.808  1.00  0.00     0.005 C 
ATOM     20  C   UNL     1      74.515  73.801  82.845  1.00  0.00     0.003 C 
ATOM     21  C   UNL     1      72.428  74.677  84.125  1.00  0.00     0.085 C 
ATOM     22  C   UNL     1      73.820  72.378  82.678  1.00  0.00    -0.000 C 
ATOM     23  C   UNL     1      71.776  73.363  83.898  1.00  0.00     0.159 C 
ATOM     24  C   UNL     1      72.608  72.193  83.585  1.00  0.00     0.005 C 
ATOM     25  C   UNL     1      74.831  71.217  82.938  1.00  0.00     0.020 C 
ATOM     26  C   UNL     1      73.297  72.271  81.217  1.00  0.00     0.017 C 
ATOM     27  O   UNL     1      70.531  73.243  84.073  1.00  0.00    -0.295 OA
ATOM     28  C   UNL     1      72.173  70.964  83.927  1.00  0.00     0.055 C 
ATOM     29  C   UNL     1      74.202  69.824  82.798  1.00  0.00     0.081 C 
ATOM     30  C   UNL     1      72.915  69.745  83.559  1.00  0.00     0.156 C 
ATOM     31  O   UNL     1      72.447  68.617  83.867  1.00  0.00    -0.295 OA
ENDBRANCH   9  11
ENDBRANCH   8   9
ENDBRANCH   1   8
TORSDOF 6
ENDMDL
MODEL 2
REMARK VINA RESULT:    -0.708      3.254     10.532
REMARK INTER + INTRA:          -2.050
REMARK INTER:                  -1.179
REMARK INTRA:                  -0.872
REMARK UNBOUND:                -1.094
REMARK SMILES CC[C@@H](CC[C@@H](C)[C@H]1CC[C@H]2[C@@H]3CC(=O)C4=CC(=O)CC[C@]4(C)[C@@H]3CC[C@]12C)C(C)C
REMARK SMILES IDX 4 1 3 2 2 3 1 4 29 5 30 6 31 7 5 8 6 9 7 10 8 11 9 12 27 13
REMARK SMILES IDX 10 14 11 15 26 16 28 17 12 18 25 19 24 20 13 21 22 22 14 23
REMARK SMILES IDX 16 24 21 25 23 26 15 27 17 28 20 29 18 30 19 31
REMARK H PARENT
REMARK Flexibility Score: inf
ROOT
ATOM      1  C   UNL     1      72.091  68.791  82.181  1.00  0.00     0.004 C 
ENDROOT
BRANCH   1   2
ATOM      2  C   UNL     1      71.359  67.495  82.666  1.00  0.00    -0.009 C 
BRANCH   2   3
ATOM      3  C   UNL     1      71.106  66.525  81.474  1.00  0.00     0.000 C 
ATOM      4  C   UNL     1      72.209  65.480  81.288  1.00  0.00     0.004 C 
ENDBRANCH   2   3
BRANCH   2   5
ATOM      5  C   UNL     1      70.040  67.864  83.434  1.00  0.00    -0.014 C 
ATOM      6  C   UNL     1      69.111  66.639  83.544  1.00  0.00     0.007 C 
ATOM      7  C   UNL     1      69.246  69.013  82.789  1.00  0.00     0.007 C 
ENDBRANCH   2   5
ENDBRANCH   1   2
BRANCH   1   8
ATOM      8  C   UNL     1      72.780  69.551  83.333  1.00  0.00     0.004 C 
BRANCH   8   9
ATOM      9  C   UNL     1      72.446  71.071  83.310  1.00  0.00    -0.011 C 
ATOM     10  C   UNL     1      71.158  71.305  84.120  1.00  0.00     0.008 C 
BRANCH   9  11
ATOM     11  C   UNL     1      73.641  71.929  83.851  1.00  0.00    -0.002 C 
ATOM     12  C   UNL     1      75.018  71.231  83.667  1.00  0.00     0.005 C 
ATOM     13  C   UNL     1      73.862  73.345  83.224  1.00  0.00    -0.026 C 
ATOM     14  C   UNL     1      76.058  72.331  83.400  1.00  0.00     0.005 C 
ATOM     15  C   UNL     1      75.303  73.620  83.671  1.00  0.00    -0.001 C 
ATOM     16  C   UNL     1      72.956  74.474  83.827  1.00  0.00     0.007 C 
ATOM     17  C   UNL     1      73.745  73.260  81.663  1.00  0.00     0.012 C 
ATOM     18  C   UNL     1      75.916  74.959  83.141  1.00  0.00     0.004 C 
ATOM     19  C   UNL     1      73.683  75.839  84.051  1.00  0.00     0.005 C 
ATOM     20  C   UNL     1      74.806  76.072  83.001  1.00  0.00     0.003 C 
ATOM     21  C   UNL     1      77.051  75.367  84.107  1.00  0.00     0.085 C 
ATOM     22  C   UNL     1      75.362  77.551  82.805  1.00  0.00    -0.000 C 
ATOM     23  C   UNL     1      77.570  76.735  83.852  1.00  0.00     0.159 C 
ATOM     24  C   UNL     1      76.620  77.831  83.622  1.00  0.00     0.005 C 
ATOM     25  C   UNL     1      74.279  78.618  83.159  1.00  0.00     0.020 C 
ATOM     26  C   UNL     1      75.761  77.716  81.311  1.00  0.00     0.017 C 
ATOM     27  O   UNL     1      78.810  76.959  83.935  1.00  0.00    -0.295 OA
ATOM     28  C   UNL     1      76.973  79.090  83.950  1.00  0.00     0.055 C 
ATOM     29  C   UNL     1      74.774  80.061  82.994  1.00  0.00     0.081 C 
ATOM     30  C   UNL     1      76.105  80.244  83.658  1.00  0.00     0.156 C 
ATOM     31  O   UNL     1      76.497  81.405  83.948  1.00  0.00    -0.295 OA
ENDBRANCH   9  11
ENDBRANCH   8   9
ENDBRANCH   1   8
TORSDOF 6
ENDMDL
MODEL 3
REMARK VINA RESULT:    -0.347      3.223     10.656
REMARK INTER + INTRA:          -1.563
REMARK INTER:                  -0.385
REMARK INTRA:                  -1.178
REMARK UNBOUND:                -1.094
REMARK SMILES CC[C@@H](CC[C@@H](C)[C@H]1CC[C@H]2[C@@H]3CC(=O)C4=CC(=O)CC[C@]4(C)[C@@H]3CC[C@]12C)C(C)C
REMARK SMILES IDX 4 1 3 2 2 3 1 4 29 5 30 6 31 7 5 8 6 9 7 10 8 11 9 12 27 13
REMARK SMILES IDX 10 14 11 15 26 16 28 17 12 18 25 19 24 20 13 21 22 22 14 23
REMARK SMILES IDX 16 24 21 25 23 26 15 27 17 28 20 29 18 30 19 31
REMARK H PARENT
REMARK Flexibility Score: inf
ROOT
ATOM      1  C   UNL     1      71.231  68.599  82.046  1.00  0.00     0.004 C 
ENDROOT
BRANCH   1   2
ATOM      2  C   UNL     1      70.472  67.291  82.451  1.00  0.00    -0.009 C 
BRANCH   2   3
ATOM      3  C   UNL     1      69.525  67.555  83.659  1.00  0.00     0.000 C 
ATOM      4  C   UNL     1      68.297  68.398  83.303  1.00  0.00     0.004 C 
ENDBRANCH   2   3
BRANCH   2   5
ATOM      5  C   UNL     1      71.489  66.128  82.725  1.00  0.00    -0.014 C 
ATOM      6  C   UNL     1      71.536  65.148  81.536  1.00  0.00     0.007 C 
ATOM      7  C   UNL     1      71.182  65.321  84.000  1.00  0.00     0.007 C 
ENDBRANCH   2   5
ENDBRANCH   1   2
BRANCH   1   8
ATOM      8  C   UNL     1      71.986  69.238  83.230  1.00  0.00     0.004 C 
BRANCH   8   9
ATOM      9  C   UNL     1      71.794  70.782  83.277  1.00  0.00    -0.011 C 
ATOM     10  C   UNL     1      70.548  71.098  84.125  1.00  0.00     0.008 C 
BRANCH   9  11
ATOM     11  C   UNL     1      73.073  71.503  83.827  1.00  0.00    -0.002 C 
ATOM     12  C   UNL     1      74.370  70.670  83.622  1.00  0.00     0.005 C 
ATOM     13  C   UNL     1      73.436  72.899  83.224  1.00  0.00    -0.026 C 
ATOM     14  C   UNL     1      75.517  71.662  83.370  1.00  0.00     0.005 C 
ATOM     15  C   UNL     1      74.899  73.017  83.667  1.00  0.00    -0.001 C 
ATOM     16  C   UNL     1      72.653  74.104  83.852  1.00  0.00     0.007 C 
ATOM     17  C   UNL     1      73.304  72.856  81.662  1.00  0.00     0.012 C 
ATOM     18  C   UNL     1      75.644  74.295  83.157  1.00  0.00     0.004 C 
ATOM     19  C   UNL     1      73.517  75.383  84.097  1.00  0.00     0.005 C 
ATOM     20  C   UNL     1      74.654  75.518  83.044  1.00  0.00     0.003 C 
ATOM     21  C   UNL     1      76.819  74.567  84.124  1.00  0.00     0.085 C 
ATOM     22  C   UNL     1      75.358  76.936  82.871  1.00  0.00    -0.000 C 
ATOM     23  C   UNL     1      77.475  75.878  83.891  1.00  0.00     0.159 C 
ATOM     24  C   UNL     1      76.642  77.071  83.686  1.00  0.00     0.005 C 
ATOM     25  C   UNL     1      74.392  78.102  83.250  1.00  0.00     0.020 C 
ATOM     26  C   UNL     1      75.766  77.087  81.378  1.00  0.00     0.017 C 
ATOM     27  O   UNL     1      78.731  75.972  83.971  1.00  0.00    -0.295 OA
ATOM     28  C   UNL     1      77.123  78.280  84.034  1.00  0.00     0.055 C 
ATOM     29  C   UNL     1      75.032  79.489  83.109  1.00  0.00     0.081 C 
ATOM     30  C   UNL     1      76.377  79.523  83.768  1.00  0.00     0.156 C 
ATOM     31  O   UNL     1      76.888  80.631  84.076  1.00  0.00    -0.295 OA
ENDBRANCH   9  11
ENDBRANCH   8   9
ENDBRANCH   1   8
TORSDOF 6
ENDMDL
MODEL 4
REMARK VINA RESULT:    -0.183      3.590     10.147
REMARK INTER + INTRA:          -1.342
REMARK INTER:                  -0.792
REMARK INTRA:                  -0.550
REMARK UNBOUND:                -1.094
REMARK SMILES CC[C@@H](CC[C@@H](C)[C@H]1CC[C@H]2[C@@H]3CC(=O)C4=CC(=O)CC[C@]4(C)[C@@H]3CC[C@]12C)C(C)C
REMARK SMILES IDX 4 1 3 2 2 3 1 4 29 5 30 6 31 7 5 8 6 9 7 10 8 11 9 12 27 13
REMARK SMILES IDX 10 14 11 15 26 16 28 17 12 18 25 19 24 20 13 21 22 22 14 23
REMARK SMILES IDX 16 24 21 25 23 26 15 27 17 28 20 29 18 30 19 31
REMARK H PARENT
REMARK Flexibility Score: inf
ROOT
ATOM      1  C   UNL     1      73.697  72.396  82.531  1.00  0.00     0.004 C 
ENDROOT
BRANCH   1   2
ATOM      2  C   UNL     1      72.896  71.100  82.892  1.00  0.00    -0.009 C 
BRANCH   2   3
ATOM      3  C   UNL     1      71.508  71.460  83.500  1.00  0.00     0.000 C 
ATOM      4  C   UNL     1      70.464  70.350  83.345  1.00  0.00     0.004 C 
ENDBRANCH   2   3
BRANCH   2   5
ATOM      5  C   UNL     1      73.745  70.175  83.835  1.00  0.00    -0.014 C 
ATOM      6  C   UNL     1      75.171  69.988  83.280  1.00  0.00     0.007 C 
ATOM      7  C   UNL     1      73.130  68.782  84.058  1.00  0.00     0.007 C 
ENDBRANCH   2   5
ENDBRANCH   1   2
BRANCH   1   8
ATOM      8  C   UNL     1      74.090  73.217  83.776  1.00  0.00     0.004 C 
BRANCH   8   9
ATOM      9  C   UNL     1      74.103  74.746  83.485  1.00  0.00    -0.011 C 
ATOM     10  C   UNL     1      72.854  75.380  84.125  1.00  0.00     0.008 C 
BRANCH   9  11
ATOM     11  C   UNL     1      75.424  75.417  83.995  1.00  0.00    -0.002 C 
ATOM     12  C   UNL     1      76.668  74.496  83.839  1.00  0.00     0.005 C 
ATOM     13  C   UNL     1      75.871  76.752  83.314  1.00  0.00    -0.026 C 
ATOM     14  C   UNL     1      77.873  75.400  83.532  1.00  0.00     0.005 C 
ATOM     15  C   UNL     1      77.339  76.805  83.752  1.00  0.00    -0.001 C 
ATOM     16  C   UNL     1      75.165  78.037  83.874  1.00  0.00     0.007 C 
ATOM     17  C   UNL     1      75.733  76.630  81.758  1.00  0.00     0.012 C 
ATOM     18  C   UNL     1      78.161  78.004  83.172  1.00  0.00     0.004 C 
ATOM     19  C   UNL     1      76.107  79.272  84.046  1.00  0.00     0.005 C 
ATOM     20  C   UNL     1      77.247  79.278  82.990  1.00  0.00     0.003 C 
ATOM     21  C   UNL     1      79.352  78.257  84.124  1.00  0.00     0.085 C 
ATOM     22  C   UNL     1      78.037  80.638  82.738  1.00  0.00    -0.000 C 
ATOM     23  C   UNL     1      80.087  79.510  83.818  1.00  0.00     0.159 C 
ATOM     24  C   UNL     1      79.328  80.738  83.545  1.00  0.00     0.005 C 
ATOM     25  C   UNL     1      77.145  81.880  83.050  1.00  0.00     0.020 C 
ATOM     26  C   UNL     1      78.450  80.679  81.239  1.00  0.00     0.017 C 
ATOM     27  O   UNL     1      81.347  79.532  83.894  1.00  0.00    -0.295 OA
ATOM     28  C   UNL     1      79.884  81.934  83.826  1.00  0.00     0.055 C 
ATOM     29  C   UNL     1      77.868  83.215  82.831  1.00  0.00     0.081 C 
ATOM     30  C   UNL     1      79.214  83.203  83.489  1.00  0.00     0.156 C 
ATOM     31  O   UNL     1      79.793  84.294  83.735  1.00  0.00    -0.295 OA
ENDBRANCH   9  11
ENDBRANCH   8   9
ENDBRANCH   1   8
TORSDOF 6
ENDMDL
MODEL 5
REMARK VINA RESULT:     0.852      2.794      5.963
REMARK INTER + INTRA:           0.057
REMARK INTER:                  -1.602
REMARK INTRA:                   1.659
REMARK UNBOUND:                -1.094
REMARK SMILES CC[C@@H](CC[C@@H](C)[C@H]1CC[C@H]2[C@@H]3CC(=O)C4=CC(=O)CC[C@]4(C)[C@@H]3CC[C@]12C)C(C)C
REMARK SMILES IDX 4 1 3 2 2 3 1 4 29 5 30 6 31 7 5 8 6 9 7 10 8 11 9 12 27 13
REMARK SMILES IDX 10 14 11 15 26 16 28 17 12 18 25 19 24 20 13 21 22 22 14 23
REMARK SMILES IDX 16 24 21 25 23 26 15 27 17 28 20 29 18 30 19 31
REMARK H PARENT
REMARK Flexibility Score: inf
ROOT
ATOM      1  C   UNL     1      82.736  81.312  82.017  1.00  0.00     0.004 C 
ENDROOT
BRANCH   1   2
ATOM      2  C   UNL     1      84.301  81.273  82.003  1.00  0.00    -0.009 C 
BRANCH   2   3
ATOM      3  C   UNL     1      84.828  80.015  82.755  1.00  0.00     0.000 C 
ATOM      4  C   UNL     1      83.728  79.213  83.456  1.00  0.00     0.004 C 
ENDBRANCH   2   3
BRANCH   2   5
ATOM      5  C   UNL     1      84.889  82.610  82.579  1.00  0.00    -0.014 C 
ATOM      6  C   UNL     1      84.633  82.713  84.095  1.00  0.00     0.007 C 
ATOM      7  C   UNL     1      84.326  83.876  81.910  1.00  0.00     0.007 C 
ENDBRANCH   2   5
ENDBRANCH   1   2
BRANCH   1   8
ATOM      8  C   UNL     1      82.157  81.411  83.444  1.00  0.00     0.004 C 
BRANCH   8   9
ATOM      9  C   UNL     1      81.240  82.658  83.616  1.00  0.00    -0.011 C 
ATOM     10  C   UNL     1      81.206  83.431  82.285  1.00  0.00     0.008 C 
BRANCH   9  11
ATOM     11  C   UNL     1      79.804  82.252  84.093  1.00  0.00    -0.002 C 
ATOM     12  C   UNL     1      78.763  83.393  83.910  1.00  0.00     0.005 C 
ATOM     13  C   UNL     1      79.127  81.025  83.399  1.00  0.00    -0.026 C 
ATOM     14  C   UNL     1      77.415  82.734  83.573  1.00  0.00     0.005 C 
ATOM     15  C   UNL     1      77.665  81.254  83.802  1.00  0.00    -0.001 C 
ATOM     16  C   UNL     1      79.562  79.631  83.971  1.00  0.00     0.007 C 
ATOM     17  C   UNL     1      79.322  81.117  81.846  1.00  0.00     0.012 C 
ATOM     18  C   UNL     1      76.645  80.232  83.200  1.00  0.00     0.004 C 
ATOM     19  C   UNL     1      78.399  78.598  84.118  1.00  0.00     0.005 C 
ATOM     20  C   UNL     1      77.303  78.808  83.035  1.00  0.00     0.003 C 
ATOM     21  C   UNL     1      75.405  80.213  84.123  1.00  0.00     0.085 C 
ATOM     22  C   UNL     1      76.275  77.622  82.762  1.00  0.00    -0.000 C 
ATOM     23  C   UNL     1      74.452  79.121  83.797  1.00  0.00     0.159 C 
ATOM     24  C   UNL     1      74.970  77.771  83.538  1.00  0.00     0.005 C 
ATOM     25  C   UNL     1      76.906  76.234  83.091  1.00  0.00     0.020 C 
ATOM     26  C   UNL     1      75.896  77.658  81.253  1.00  0.00     0.017 C 
ATOM     27  O   UNL     1      73.210  79.341  83.843  1.00  0.00    -0.295 OA
ATOM     28  C   UNL     1      74.190  76.703  83.803  1.00  0.00     0.055 C 
ATOM     29  C   UNL     1      75.947  75.060  82.852  1.00  0.00     0.081 C 
ATOM     30  C   UNL     1      74.613  75.330  83.478  1.00  0.00     0.156 C 
ATOM     31  O   UNL     1      73.832  74.370  83.708  1.00  0.00    -0.295 OA
ENDBRANCH   9  11
ENDBRANCH   8   9
ENDBRANCH   1   8
TORSDOF 6
ENDMDL
