MODEL 1
REMARK VINA RESULT:    -5.163      0.000      0.000
REMARK INTER + INTRA:          -6.391
REMARK INTER:                  -6.219
REMARK INTRA:                  -0.172
REMARK UNBOUND:                -0.172
REMARK SMILES CCCCc1oc(O)c2ccccc12
REMARK SMILES IDX 4 1 5 2 7 3 6 4 9 5 14 6 10 7 13 8 11 9 12 10 8 11 3 13 2 14
REMARK SMILES IDX 1 15
REMARK H PARENT 8 12
REMARK Flexibility Score: inf
ROOT
ATOM      1  C   UNL     1     -43.934  24.719  10.094  1.00  0.00     0.076 C 
ENDROOT
BRANCH   1   2
ATOM      2  C   UNL     1     -45.303  25.226   9.751  1.00  0.00     0.116 A 
ATOM      3  C   UNL     1     -47.133  25.502   8.666  1.00  0.00     0.290 A 
ATOM      4  O   UNL     1     -45.985  24.851   8.682  1.00  0.00    -0.430 OA
ATOM      5  C   UNL     1     -47.209  26.336   9.757  1.00  0.00     0.066 A 
ATOM      6  C   UNL     1     -46.042  26.163  10.451  1.00  0.00     0.027 A 
ATOM      7  C   UNL     1     -48.198  27.222  10.181  1.00  0.00     0.016 A 
ATOM      8  C   UNL     1     -45.776  26.869  11.624  1.00  0.00     0.012 A 
ATOM      9  C   UNL     1     -47.960  27.949  11.362  1.00  0.00     0.001 A 
ATOM     10  C   UNL     1     -46.755  27.773  12.081  1.00  0.00     0.001 A 
BRANCH   3  11
ATOM     11  O   UNL     1     -48.105  25.356   7.684  1.00  0.00    -0.480 OA
ATOM     12  H   UNL     1     -49.058  25.651   7.858  1.00  0.00     0.297 HD
ENDBRANCH   3  11
ENDBRANCH   1   2
BRANCH   1  13
ATOM     13  C   UNL     1     -43.546  23.506   9.239  1.00  0.00     0.008 C 
BRANCH  13  14
ATOM     14  C   UNL     1     -42.705  22.488  10.023  1.00  0.00    -0.003 C 
ATOM     15  C   UNL     1     -43.109  21.059   9.677  1.00  0.00     0.004 C 
ENDBRANCH  13  14
ENDBRANCH   1  13
TORSDOF 4
ENDMDL
MODEL 2
REMARK VINA RESULT:    -5.040      2.876      3.961
REMARK INTER + INTRA:          -6.243
REMARK INTER:                  -5.790
REMARK INTRA:                  -0.453
REMARK UNBOUND:                -0.172
REMARK SMILES CCCCc1oc(O)c2ccccc12
REMARK SMILES IDX 4 1 5 2 7 3 6 4 9 5 14 6 10 7 13 8 11 9 12 10 8 11 3 13 2 14
REMARK SMILES IDX 1 15
REMARK H PARENT 8 12
REMARK Flexibility Score: inf
ROOT
ATOM      1  C   UNL     1     -46.722  26.949  12.069  1.00  0.00     0.076 C 
ENDROOT
BRANCH   1   2
ATOM      2  C   UNL     1     -47.166  26.580  10.684  1.00  0.00     0.116 A 
ATOM      3  C   UNL     1     -47.164  25.651   8.752  1.00  0.00     0.290 A 
ATOM      4  O   UNL     1     -46.526  25.727   9.905  1.00  0.00    -0.430 OA
ATOM      5  C   UNL     1     -48.258  26.484   8.771  1.00  0.00     0.066 A 
ATOM      6  C   UNL     1     -48.262  27.079  10.003  1.00  0.00     0.027 A 
ATOM      7  C   UNL     1     -49.230  26.761   7.811  1.00  0.00     0.016 A 
ATOM      8  C   UNL     1     -49.242  28.003  10.367  1.00  0.00     0.012 A 
ATOM      9  C   UNL     1     -50.234  27.688   8.148  1.00  0.00     0.001 A 
ATOM     10  C   UNL     1     -50.241  28.306   9.420  1.00  0.00     0.001 A 
BRANCH   3  11
ATOM     11  O   UNL     1     -46.771  24.846   7.688  1.00  0.00    -0.480 OA
ATOM     12  H   UNL     1     -45.867  24.391   7.697  1.00  0.00     0.297 HD
ENDBRANCH   3  11
ENDBRANCH   1   2
BRANCH   1  13
ATOM     13  C   UNL     1     -45.280  27.471  12.084  1.00  0.00     0.008 C 
BRANCH  13  14
ATOM     14  C   UNL     1     -45.088  28.672  11.145  1.00  0.00    -0.003 C 
ATOM     15  C   UNL     1     -43.935  28.434  10.177  1.00  0.00     0.004 C 
ENDBRANCH  13  14
ENDBRANCH   1  13
TORSDOF 4
ENDMDL
MODEL 3
REMARK VINA RESULT:    -4.928     10.544     12.529
REMARK INTER + INTRA:          -6.109
REMARK INTER:                  -5.761
REMARK INTRA:                  -0.348
REMARK UNBOUND:                -0.172
REMARK SMILES CCCCc1oc(O)c2ccccc12
REMARK SMILES IDX 4 1 5 2 7 3 6 4 9 5 14 6 10 7 13 8 11 9 12 10 8 11 3 13 2 14
REMARK SMILES IDX 1 15
REMARK H PARENT 8 12
REMARK Flexibility Score: inf
ROOT
ATOM      1  C   UNL     1     -48.838  27.966  -2.912  1.00  0.00     0.076 C 
ENDROOT
BRANCH   1   2
ATOM      2  C   UNL     1     -47.627  27.206  -2.456  1.00  0.00     0.116 A 
ATOM      3  C   UNL     1     -46.160  25.647  -2.330  1.00  0.00     0.290 A 
ATOM      4  O   UNL     1     -47.238  26.054  -2.974  1.00  0.00    -0.430 OA
ATOM      5  C   UNL     1     -45.830  26.558  -1.354  1.00  0.00     0.066 A 
ATOM      6  C   UNL     1     -46.766  27.554  -1.431  1.00  0.00     0.027 A 
ATOM      7  C   UNL     1     -44.799  26.581  -0.417  1.00  0.00     0.016 A 
ATOM      8  C   UNL     1     -46.739  28.651  -0.570  1.00  0.00     0.012 A 
ATOM      9  C   UNL     1     -44.745  27.675   0.466  1.00  0.00     0.001 A 
ATOM     10  C   UNL     1     -45.710  28.706   0.390  1.00  0.00     0.001 A 
BRANCH   3  11
ATOM     11  O   UNL     1     -45.477  24.469  -2.610  1.00  0.00    -0.480 OA
ATOM     12  H   UNL     1     -45.336  24.173  -3.568  1.00  0.00     0.297 HD
ENDBRANCH   3  11
ENDBRANCH   1   2
BRANCH   1  13
ATOM     13  C   UNL     1     -50.138  27.266  -2.497  1.00  0.00     0.008 C 
BRANCH  13  14
ATOM     14  C   UNL     1     -50.598  27.681  -1.091  1.00  0.00    -0.003 C 
ATOM     15  C   UNL     1     -52.120  27.707  -0.996  1.00  0.00     0.004 C 
ENDBRANCH  13  14
ENDBRANCH   1  13
TORSDOF 4
ENDMDL
MODEL 4
REMARK VINA RESULT:    -4.813      2.119      5.320
REMARK INTER + INTRA:          -5.970
REMARK INTER:                  -5.700
REMARK INTRA:                  -0.270
REMARK UNBOUND:                -0.172
REMARK SMILES CCCCc1oc(O)c2ccccc12
REMARK SMILES IDX 4 1 5 2 7 3 6 4 9 5 14 6 10 7 13 8 11 9 12 10 8 11 3 13 2 14
REMARK SMILES IDX 1 15
REMARK H PARENT 8 12
REMARK Flexibility Score: inf
ROOT
ATOM      1  C   UNL     1     -49.400  28.245  10.345  1.00  0.00     0.076 C 
ENDROOT
BRANCH   1   2
ATOM      2  C   UNL     1     -48.287  27.321   9.949  1.00  0.00     0.116 A 
ATOM      3  C   UNL     1     -47.217  25.807   8.872  1.00  0.00     0.290 A 
ATOM      4  O   UNL     1     -48.346  26.488   8.925  1.00  0.00    -0.430 OA
ATOM      5  C   UNL     1     -46.387  26.202   9.895  1.00  0.00     0.066 A 
ATOM      6  C   UNL     1     -47.068  27.168  10.586  1.00  0.00     0.027 A 
ATOM      7  C   UNL     1     -45.110  25.787  10.267  1.00  0.00     0.016 A 
ATOM      8  C   UNL     1     -46.519  27.792  11.706  1.00  0.00     0.012 A 
ATOM      9  C   UNL     1     -44.528  26.398  11.393  1.00  0.00     0.001 A 
ATOM     10  C   UNL     1     -45.229  27.396  12.110  1.00  0.00     0.001 A 
BRANCH   3  11
ATOM     11  O   UNL     1     -46.928  24.837   7.918  1.00  0.00    -0.480 OA
ATOM     12  H   UNL     1     -47.263  23.889   8.034  1.00  0.00     0.297 HD
ENDBRANCH   3  11
ENDBRANCH   1   2
BRANCH   1  13
ATOM     13  C   UNL     1     -50.007  28.958   9.130  1.00  0.00     0.008 C 
BRANCH  13  14
ATOM     14  C   UNL     1     -51.376  28.380   8.741  1.00  0.00    -0.003 C 
ATOM     15  C   UNL     1     -51.293  27.601   7.433  1.00  0.00     0.004 C 
ENDBRANCH  13  14
ENDBRANCH   1  13
TORSDOF 4
ENDMDL
MODEL 5
REMARK VINA RESULT:    -4.810      2.346      3.748
REMARK INTER + INTRA:          -5.966
REMARK INTER:                  -5.751
REMARK INTRA:                  -0.215
REMARK UNBOUND:                -0.172
REMARK SMILES CCCCc1oc(O)c2ccccc12
REMARK SMILES IDX 4 1 5 2 7 3 6 4 9 5 14 6 10 7 13 8 11 9 12 10 8 11 3 13 2 14
REMARK SMILES IDX 1 15
REMARK H PARENT 8 12
REMARK Flexibility Score: inf
ROOT
ATOM      1  C   UNL     1     -47.044  26.603  10.874  1.00  0.00     0.076 C 
ENDROOT
BRANCH   1   2
ATOM      2  C   UNL     1     -48.025  26.802   9.757  1.00  0.00     0.116 A 
ATOM      3  C   UNL     1     -48.885  26.709   7.794  1.00  0.00     0.290 A 
ATOM      4  O   UNL     1     -47.855  26.336   8.532  1.00  0.00    -0.430 OA
ATOM      5  C   UNL     1     -49.760  27.447   8.557  1.00  0.00     0.066 A 
ATOM      6  C   UNL     1     -49.213  27.509   9.810  1.00  0.00     0.027 A 
ATOM      7  C   UNL     1     -50.971  28.062   8.246  1.00  0.00     0.016 A 
ATOM      8  C   UNL     1     -49.840  28.197  10.849  1.00  0.00     0.012 A 
ATOM      9  C   UNL     1     -51.629  28.763   9.273  1.00  0.00     0.001 A 
ATOM     10  C   UNL     1     -51.067  28.830  10.569  1.00  0.00     0.001 A 
BRANCH   3  11
ATOM     11  O   UNL     1     -49.042  26.395   6.449  1.00  0.00    -0.480 OA
ATOM     12  H   UNL     1     -48.324  26.640   5.779  1.00  0.00     0.297 HD
ENDBRANCH   3  11
ENDBRANCH   1   2
BRANCH   1  13
ATOM     13  C   UNL     1     -45.643  27.100  10.496  1.00  0.00     0.008 C 
BRANCH  13  14
ATOM     14  C   UNL     1     -44.589  25.986  10.581  1.00  0.00    -0.003 C 
ATOM     15  C   UNL     1     -43.799  26.075  11.883  1.00  0.00     0.004 C 
ENDBRANCH  13  14
ENDBRANCH   1  13
TORSDOF 4
ENDMDL
MODEL 6
REMARK VINA RESULT:    -4.806      1.932      2.899
REMARK INTER + INTRA:          -5.962
REMARK INTER:                  -5.791
REMARK INTRA:                  -0.171
REMARK UNBOUND:                -0.172
REMARK SMILES CCCCc1oc(O)c2ccccc12
REMARK SMILES IDX 4 1 5 2 7 3 6 4 9 5 14 6 10 7 13 8 11 9 12 10 8 11 3 13 2 14
REMARK SMILES IDX 1 15
REMARK H PARENT 8 12
REMARK Flexibility Score: inf
ROOT
ATOM      1  C   UNL     1     -43.900  23.380   9.258  1.00  0.00     0.076 C 
ENDROOT
BRANCH   1   2
ATOM      2  C   UNL     1     -44.289  24.684   9.890  1.00  0.00     0.116 A 
ATOM      3  C   UNL     1     -44.206  26.401  11.172  1.00  0.00     0.290 A 
ATOM      4  O   UNL     1     -43.571  25.301  10.813  1.00  0.00    -0.430 OA
ATOM      5  C   UNL     1     -45.382  26.511  10.466  1.00  0.00     0.066 A 
ATOM      6  C   UNL     1     -45.438  25.415   9.648  1.00  0.00     0.027 A 
ATOM      7  C   UNL     1     -46.390  27.473  10.487  1.00  0.00     0.016 A 
ATOM      8  C   UNL     1     -46.514  25.199   8.787  1.00  0.00     0.012 A 
ATOM      9  C   UNL     1     -47.489  27.283   9.629  1.00  0.00     0.001 A 
ATOM     10  C   UNL     1     -47.551  26.152   8.782  1.00  0.00     0.001 A 
BRANCH   3  11
ATOM     11  O   UNL     1     -43.742  27.301  12.125  1.00  0.00    -0.480 OA
ATOM     12  H   UNL     1     -43.961  27.168  13.104  1.00  0.00     0.297 HD
ENDBRANCH   3  11
ENDBRANCH   1   2
BRANCH   1  13
ATOM     13  C   UNL     1     -42.710  22.732   9.977  1.00  0.00     0.008 C 
BRANCH  13  14
ATOM     14  C   UNL     1     -42.739  21.200   9.882  1.00  0.00    -0.003 C 
ATOM     15  C   UNL     1     -41.853  20.566  10.949  1.00  0.00     0.004 C 
ENDBRANCH  13  14
ENDBRANCH   1  13
TORSDOF 4
ENDMDL
MODEL 7
REMARK VINA RESULT:    -4.800      2.743      4.162
REMARK INTER + INTRA:          -5.954
REMARK INTER:                  -5.756
REMARK INTRA:                  -0.198
REMARK UNBOUND:                -0.172
REMARK SMILES CCCCc1oc(O)c2ccccc12
REMARK SMILES IDX 4 1 5 2 7 3 6 4 9 5 14 6 10 7 13 8 11 9 12 10 8 11 3 13 2 14
REMARK SMILES IDX 1 15
REMARK H PARENT 8 12
REMARK Flexibility Score: inf
ROOT
ATOM      1  C   UNL     1     -46.580  26.114   9.734  1.00  0.00     0.076 C 
ENDROOT
BRANCH   1   2
ATOM      2  C   UNL     1     -47.773  26.975  10.026  1.00  0.00     0.116 A 
ATOM      3  C   UNL     1     -49.112  28.260  11.101  1.00  0.00     0.290 A 
ATOM      4  O   UNL     1     -47.957  27.624  11.163  1.00  0.00    -0.430 OA
ATOM      5  C   UNL     1     -49.710  28.021   9.886  1.00  0.00     0.066 A 
ATOM      6  C   UNL     1     -48.859  27.200   9.197  1.00  0.00     0.027 A 
ATOM      7  C   UNL     1     -50.921  28.452   9.347  1.00  0.00     0.016 A 
ATOM      8  C   UNL     1     -49.158  26.745   7.913  1.00  0.00     0.012 A 
ATOM      9  C   UNL     1     -51.251  28.011   8.052  1.00  0.00     0.001 A 
ATOM     10  C   UNL     1     -50.374  27.162   7.337  1.00  0.00     0.001 A 
BRANCH   3  11
ATOM     11  O   UNL     1     -49.631  29.047  12.122  1.00  0.00    -0.480 OA
ATOM     12  H   UNL     1     -50.009  29.965  11.921  1.00  0.00     0.297 HD
ENDBRANCH   3  11
ENDBRANCH   1   2
BRANCH   1  13
ATOM     13  C   UNL     1     -45.277  26.768  10.211  1.00  0.00     0.008 C 
BRANCH  13  14
ATOM     14  C   UNL     1     -44.217  25.729  10.607  1.00  0.00    -0.003 C 
ATOM     15  C   UNL     1     -44.248  24.527   9.669  1.00  0.00     0.004 C 
ENDBRANCH  13  14
ENDBRANCH   1  13
TORSDOF 4
ENDMDL
MODEL 8
REMARK VINA RESULT:    -4.773      1.372      2.114
REMARK INTER + INTRA:          -5.922
REMARK INTER:                  -5.753
REMARK INTRA:                  -0.169
REMARK UNBOUND:                -0.172
REMARK SMILES CCCCc1oc(O)c2ccccc12
REMARK SMILES IDX 4 1 5 2 7 3 6 4 9 5 14 6 10 7 13 8 11 9 12 10 8 11 3 13 2 14
REMARK SMILES IDX 1 15
REMARK H PARENT 8 12
REMARK Flexibility Score: inf
ROOT
ATOM      1  C   UNL     1     -45.667  25.778  10.150  1.00  0.00     0.076 C 
ENDROOT
BRANCH   1   2
ATOM      2  C   UNL     1     -46.919  26.332   9.537  1.00  0.00     0.116 A 
ATOM      3  C   UNL     1     -48.350  26.890   8.040  1.00  0.00     0.290 A 
ATOM      4  O   UNL     1     -47.188  26.296   8.243  1.00  0.00    -0.430 OA
ATOM      5  C   UNL     1     -48.861  27.334   9.237  1.00  0.00     0.066 A 
ATOM      6  C   UNL     1     -47.949  26.981  10.195  1.00  0.00     0.027 A 
ATOM      7  C   UNL     1     -50.036  28.015   9.548  1.00  0.00     0.016 A 
ATOM      8  C   UNL     1     -48.146  27.287  11.541  1.00  0.00     0.012 A 
ATOM      9  C   UNL     1     -50.264  28.338  10.899  1.00  0.00     0.001 A 
ATOM     10  C   UNL     1     -49.324  27.975  11.892  1.00  0.00     0.001 A 
BRANCH   3  11
ATOM     11  O   UNL     1     -48.949  27.036   6.794  1.00  0.00    -0.480 OA
ATOM     12  H   UNL     1     -49.831  26.582   6.594  1.00  0.00     0.297 HD
ENDBRANCH   3  11
ENDBRANCH   1   2
BRANCH   1  13
ATOM     13  C   UNL     1     -45.102  24.611   9.330  1.00  0.00     0.008 C 
BRANCH  13  14
ATOM     14  C   UNL     1     -43.755  24.115   9.877  1.00  0.00    -0.003 C 
ATOM     15  C   UNL     1     -43.161  23.034   8.980  1.00  0.00     0.004 C 
ENDBRANCH  13  14
ENDBRANCH   1  13
TORSDOF 4
ENDMDL
MODEL 9
REMARK VINA RESULT:    -3.505      2.849      5.508
REMARK INTER + INTRA:          -4.395
REMARK INTER:                  -3.916
REMARK INTRA:                  -0.479
REMARK UNBOUND:                -0.172
REMARK SMILES CCCCc1oc(O)c2ccccc12
REMARK SMILES IDX 4 1 5 2 7 3 6 4 9 5 14 6 10 7 13 8 11 9 12 10 8 11 3 13 2 14
REMARK SMILES IDX 1 15
REMARK H PARENT 8 12
REMARK Flexibility Score: inf
ROOT
ATOM      1  C   UNL     1     -49.500  26.566   7.159  1.00  0.00     0.076 C 
ENDROOT
BRANCH   1   2
ATOM      2  C   UNL     1     -48.561  26.575   8.329  1.00  0.00     0.116 A 
ATOM      3  C   UNL     1     -46.846  26.123   9.535  1.00  0.00     0.290 A 
ATOM      4  O   UNL     1     -47.408  25.928   8.356  1.00  0.00    -0.430 OA
ATOM      5  C   UNL     1     -47.655  26.921  10.310  1.00  0.00     0.066 A 
ATOM      6  C   UNL     1     -48.751  27.210   9.543  1.00  0.00     0.027 A 
ATOM      7  C   UNL     1     -47.514  27.400  11.610  1.00  0.00     0.016 A 
ATOM      8  C   UNL     1     -49.793  28.003  10.025  1.00  0.00     0.012 A 
ATOM      9  C   UNL     1     -48.548  28.204  12.125  1.00  0.00     0.001 A 
ATOM     10  C   UNL     1     -49.682  28.505  11.336  1.00  0.00     0.001 A 
BRANCH   3  11
ATOM     11  O   UNL     1     -45.620  25.591   9.918  1.00  0.00    -0.480 OA
ATOM     12  H   UNL     1     -45.330  25.619  10.887  1.00  0.00     0.297 HD
ENDBRANCH   3  11
ENDBRANCH   1   2
BRANCH   1  13
ATOM     13  C   UNL     1     -49.436  27.880   6.370  1.00  0.00     0.008 C 
BRANCH  13  14
ATOM     14  C   UNL     1     -50.825  28.505   6.169  1.00  0.00    -0.003 C 
ATOM     15  C   UNL     1     -51.892  27.736   6.941  1.00  0.00     0.004 C 
ENDBRANCH  13  14
ENDBRANCH   1  13
TORSDOF 4
ENDMDL
