MODEL 1
REMARK VINA RESULT:    -2.121      0.000      0.000
REMARK INTER + INTRA:          -2.121
REMARK INTER:                  -2.121
REMARK INTRA:                   0.000
REMARK UNBOUND:                 0.000
REMARK SMILES CC(=O)[O-]
REMARK SMILES IDX 1 1 2 2 3 3 4 4
REMARK H PARENT
REMARK Flexibility Score: inf
ROOT
ATOM      1  C   UNL     1       0.217  25.153  20.765  1.00  0.00     0.063 C 
ATOM      2  C   UNL     1      -1.266  25.263  20.660  1.00  0.00     0.038 C 
ATOM      3  O   UNL     1      -1.894  24.552  19.833  1.00  0.00    -0.550 OA
ATOM      4  O   UNL     1      -1.963  26.111  21.511  1.00  0.00    -0.550 OA
ENDROOT
TORSDOF 0
ENDMDL
MODEL 2
REMARK VINA RESULT:    -2.077      6.108      6.108
REMARK INTER + INTRA:          -2.077
REMARK INTER:                  -2.077
REMARK INTRA:                   0.000
REMARK UNBOUND:                 0.000
REMARK SMILES CC(=O)[O-]
REMARK SMILES IDX 1 1 2 2 3 3 4 4
REMARK H PARENT
REMARK Flexibility Score: inf
ROOT
ATOM      1  C   UNL     1       1.380  30.363  16.630  1.00  0.00     0.063 C 
ATOM      2  C   UNL     1       0.030  29.956  17.111  1.00  0.00     0.038 C 
ATOM      3  O   UNL     1      -0.269  28.737  17.196  1.00  0.00    -0.550 OA
ATOM      4  O   UNL     1      -0.885  30.920  17.517  1.00  0.00    -0.550 OA
ENDROOT
TORSDOF 0
ENDMDL
MODEL 3
REMARK VINA RESULT:    -2.053     13.928     14.514
REMARK INTER + INTRA:          -2.053
REMARK INTER:                  -2.053
REMARK INTRA:                   0.000
REMARK UNBOUND:                 0.000
REMARK SMILES CC(=O)[O-]
REMARK SMILES IDX 1 1 2 2 3 3 4 4
REMARK H PARENT
REMARK Flexibility Score: inf
ROOT
ATOM      1  C   UNL     1      -7.086  27.646  34.631  1.00  0.00     0.063 C 
ATOM      2  C   UNL     1      -6.008  28.369  33.900  1.00  0.00     0.038 C 
ATOM      3  O   UNL     1      -5.287  27.757  33.070  1.00  0.00    -0.550 OA
ATOM      4  O   UNL     1      -5.830  29.734  34.093  1.00  0.00    -0.550 OA
ENDROOT
TORSDOF 0
ENDMDL
MODEL 4
REMARK VINA RESULT:    -2.041     10.913     11.243
REMARK INTER + INTRA:          -2.041
REMARK INTER:                  -2.041
REMARK INTRA:                   0.000
REMARK UNBOUND:                 0.000
REMARK SMILES CC(=O)[O-]
REMARK SMILES IDX 1 1 2 2 3 3 4 4
REMARK H PARENT
REMARK Flexibility Score: inf
ROOT
ATOM      1  C   UNL     1      -5.626  21.930  29.401  1.00  0.00     0.063 C 
ATOM      2  C   UNL     1      -6.534  22.808  30.193  1.00  0.00     0.038 C 
ATOM      3  O   UNL     1      -6.059  23.740  30.892  1.00  0.00    -0.550 OA
ATOM      4  O   UNL     1      -7.910  22.633  30.120  1.00  0.00    -0.550 OA
ENDROOT
TORSDOF 0
ENDMDL
MODEL 5
REMARK VINA RESULT:    -2.031     16.757     17.158
REMARK INTER + INTRA:          -2.031
REMARK INTER:                  -2.031
REMARK INTRA:                   0.000
REMARK UNBOUND:                 0.000
REMARK SMILES CC(=O)[O-]
REMARK SMILES IDX 1 1 2 2 3 3 4 4
REMARK H PARENT
REMARK Flexibility Score: inf
ROOT
ATOM      1  C   UNL     1      -7.548  33.629  34.853  1.00  0.00     0.063 C 
ATOM      2  C   UNL     1      -6.117  33.214  34.891  1.00  0.00     0.038 C 
ATOM      3  O   UNL     1      -5.207  34.082  34.860  1.00  0.00    -0.550 OA
ATOM      4  O   UNL     1      -5.785  31.870  35.014  1.00  0.00    -0.550 OA
ENDROOT
TORSDOF 0
ENDMDL
MODEL 6
REMARK VINA RESULT:    -2.027     13.923     14.518
REMARK INTER + INTRA:          -2.027
REMARK INTER:                  -2.027
REMARK INTRA:                   0.000
REMARK UNBOUND:                 0.000
REMARK SMILES CC(=O)[O-]
REMARK SMILES IDX 1 1 2 2 3 3 4 4
REMARK H PARENT
REMARK Flexibility Score: inf
ROOT
ATOM      1  C   UNL     1      -7.671  39.230  21.894  1.00  0.00     0.063 C 
ATOM      2  C   UNL     1      -6.743  38.394  22.707  1.00  0.00     0.038 C 
ATOM      3  O   UNL     1      -6.698  37.149  22.532  1.00  0.00    -0.550 OA
ATOM      4  O   UNL     1      -5.888  38.993  23.623  1.00  0.00    -0.550 OA
ENDROOT
TORSDOF 0
ENDMDL
MODEL 7
REMARK VINA RESULT:    -1.994     14.090     14.717
REMARK INTER + INTRA:          -1.994
REMARK INTER:                  -1.994
REMARK INTRA:                   0.000
REMARK UNBOUND:                 0.000
REMARK SMILES CC(=O)[O-]
REMARK SMILES IDX 1 1 2 2 3 3 4 4
REMARK H PARENT
REMARK Flexibility Score: inf
ROOT
ATOM      1  C   UNL     1      -7.110  38.897  19.966  1.00  0.00     0.063 C 
ATOM      2  C   UNL     1      -7.169  38.602  21.426  1.00  0.00     0.038 C 
ATOM      3  O   UNL     1      -7.856  39.328  22.190  1.00  0.00    -0.550 OA
ATOM      4  O   UNL     1      -6.508  37.492  21.939  1.00  0.00    -0.550 OA
ENDROOT
TORSDOF 0
ENDMDL
MODEL 8
REMARK VINA RESULT:    -1.992     10.842     11.385
REMARK INTER + INTRA:          -1.992
REMARK INTER:                  -1.992
REMARK INTRA:                   0.000
REMARK UNBOUND:                 0.000
REMARK SMILES CC(=O)[O-]
REMARK SMILES IDX 1 1 2 2 3 3 4 4
REMARK H PARENT
REMARK Flexibility Score: inf
ROOT
ATOM      1  C   UNL     1      -7.744  22.198  30.501  1.00  0.00     0.063 C 
ATOM      2  C   UNL     1      -6.390  22.748  30.209  1.00  0.00     0.038 C 
ATOM      3  O   UNL     1      -6.048  23.866  30.676  1.00  0.00    -0.550 OA
ATOM      4  O   UNL     1      -5.482  22.005  29.465  1.00  0.00    -0.550 OA
ENDROOT
TORSDOF 0
ENDMDL
MODEL 9
REMARK VINA RESULT:    -1.973      6.495      6.607
REMARK INTER + INTRA:          -1.973
REMARK INTER:                  -1.973
REMARK INTRA:                   0.000
REMARK UNBOUND:                 0.000
REMARK SMILES CC(=O)[O-]
REMARK SMILES IDX 1 1 2 2 3 3 4 4
REMARK H PARENT
REMARK Flexibility Score: inf
ROOT
ATOM      1  C   UNL     1      -0.512  31.289  17.362  1.00  0.00     0.063 C 
ATOM      2  C   UNL     1       0.383  30.140  17.043  1.00  0.00     0.038 C 
ATOM      3  O   UNL     1       1.582  30.344  16.722  1.00  0.00    -0.550 OA
ATOM      4  O   UNL     1      -0.091  28.838  17.151  1.00  0.00    -0.550 OA
ENDROOT
TORSDOF 0
ENDMDL
