MODEL 1
REMARK VINA RESULT:    -5.053      0.000      0.000
REMARK INTER + INTRA:          -8.204
REMARK INTER:                  -7.712
REMARK INTRA:                  -0.492
REMARK UNBOUND:                -0.492
REMARK SMILES O=C([O-])CCCCCCCCC(=O)[O-]
REMARK SMILES IDX 7 1 6 2 5 3 4 4 2 5 1 6 3 7 8 8 9 9 10 10 11 11 12 12 13 13
REMARK SMILES IDX 14 14
REMARK H PARENT
REMARK Flexibility Score: inf
ROOT
ATOM      1  C   UNL     1       3.410  47.800  25.635  1.00  0.00     0.000 C 
ENDROOT
BRANCH   1   2
ATOM      2  C   UNL     1       2.332  47.076  24.813  1.00  0.00     0.000 C 
BRANCH   2   3
ATOM      3  C   UNL     1       1.597  48.017  23.846  1.00  0.00     0.006 C 
BRANCH   3   4
ATOM      4  C   UNL     1       1.788  47.569  22.394  1.00  0.00     0.053 C 
BRANCH   4   5
ATOM      5  C   UNL     1       0.464  47.345  21.736  1.00  0.00     0.041 C 
ATOM      6  O   UNL     1       0.378  47.313  20.480  1.00  0.00    -0.550 OA
ATOM      7  O   UNL     1      -0.669  47.121  22.509  1.00  0.00    -0.550 OA
ENDBRANCH   4   5
ENDBRANCH   3   4
ENDBRANCH   2   3
ENDBRANCH   1   2
BRANCH   1   8
ATOM      8  C   UNL     1       4.298  48.714  24.773  1.00  0.00     0.000 C 
BRANCH   8   9
ATOM      9  C   UNL     1       5.270  47.923  23.881  1.00  0.00     0.000 C 
BRANCH   9  10
ATOM     10  C   UNL     1       6.704  48.471  23.940  1.00  0.00     0.006 C 
BRANCH  10  11
ATOM     11  C   UNL     1       6.831  49.562  25.006  1.00  0.00     0.053 C 
BRANCH  11  12
ATOM     12  C   UNL     1       7.956  49.252  25.942  1.00  0.00     0.041 C 
ATOM     13  O   UNL     1       9.145  49.494  25.606  1.00  0.00    -0.550 OA
ATOM     14  O   UNL     1       7.687  48.741  27.206  1.00  0.00    -0.550 OA
ENDBRANCH  11  12
ENDBRANCH  10  11
ENDBRANCH   9  10
ENDBRANCH   8   9
ENDBRANCH   1   8
TORSDOF 9
ENDMDL
MODEL 2
REMARK VINA RESULT:    -4.957      1.244      7.189
REMARK INTER + INTRA:          -8.058
REMARK INTER:                  -7.529
REMARK INTRA:                  -0.530
REMARK UNBOUND:                -0.492
REMARK SMILES O=C([O-])CCCCCCCCC(=O)[O-]
REMARK SMILES IDX 7 1 6 2 5 3 4 4 2 5 1 6 3 7 8 8 9 9 10 10 11 11 12 12 13 13
REMARK SMILES IDX 14 14
REMARK H PARENT
REMARK Flexibility Score: inf
ROOT
ATOM      1  C   UNL     1       5.897  47.825  22.791  1.00  0.00     0.000 C 
ENDROOT
BRANCH   1   2
ATOM      2  C   UNL     1       5.437  47.239  24.135  1.00  0.00     0.000 C 
BRANCH   2   3
ATOM      3  C   UNL     1       5.445  48.278  25.266  1.00  0.00     0.006 C 
BRANCH   3   4
ATOM      4  C   UNL     1       6.457  49.391  24.980  1.00  0.00     0.053 C 
BRANCH   4   5
ATOM      5  C   UNL     1       7.686  49.207  25.814  1.00  0.00     0.041 C 
ATOM      6  O   UNL     1       7.589  48.825  27.010  1.00  0.00    -0.550 OA
ATOM      7  O   UNL     1       8.943  49.409  25.256  1.00  0.00    -0.550 OA
ENDBRANCH   4   5
ENDBRANCH   3   4
ENDBRANCH   2   3
ENDBRANCH   1   2
BRANCH   1   8
ATOM      8  C   UNL     1       4.786  47.806  21.726  1.00  0.00     0.000 C 
BRANCH   8   9
ATOM      9  C   UNL     1       3.478  47.191  22.247  1.00  0.00     0.000 C 
BRANCH   9  10
ATOM     10  C   UNL     1       2.403  48.250  22.539  1.00  0.00     0.006 C 
BRANCH  10  11
ATOM     11  C   UNL     1       1.029  47.600  22.722  1.00  0.00     0.053 C 
BRANCH  11  12
ATOM     12  C   UNL     1       0.222  47.715  21.468  1.00  0.00     0.041 C 
ATOM     13  O   UNL     1       0.526  47.035  20.454  1.00  0.00    -0.550 OA
ATOM     14  O   UNL     1      -0.897  48.537  21.436  1.00  0.00    -0.550 OA
ENDBRANCH  11  12
ENDBRANCH  10  11
ENDBRANCH   9  10
ENDBRANCH   8   9
ENDBRANCH   1   8
TORSDOF 9
ENDMDL
MODEL 3
REMARK VINA RESULT:    -4.936      1.791      2.629
REMARK INTER + INTRA:          -8.025
REMARK INTER:                  -7.464
REMARK INTRA:                  -0.561
REMARK UNBOUND:                -0.492
REMARK SMILES O=C([O-])CCCCCCCCC(=O)[O-]
REMARK SMILES IDX 7 1 6 2 5 3 4 4 2 5 1 6 3 7 8 8 9 9 10 10 11 11 12 12 13 13
REMARK SMILES IDX 14 14
REMARK H PARENT
REMARK Flexibility Score: inf
ROOT
ATOM      1  C   UNL     1       4.386  47.905  21.630  1.00  0.00     0.000 C 
ENDROOT
BRANCH   1   2
ATOM      2  C   UNL     1       3.197  47.054  21.161  1.00  0.00     0.000 C 
BRANCH   2   3
ATOM      3  C   UNL     1       1.896  47.395  21.904  1.00  0.00     0.006 C 
BRANCH   3   4
ATOM      4  C   UNL     1       2.157  48.395  23.034  1.00  0.00     0.053 C 
BRANCH   4   5
ATOM      5  C   UNL     1       1.956  47.745  24.366  1.00  0.00     0.041 C 
ATOM      6  O   UNL     1       0.931  47.046  24.581  1.00  0.00    -0.550 OA
ATOM      7  O   UNL     1       2.925  47.869  25.355  1.00  0.00    -0.550 OA
ENDBRANCH   4   5
ENDBRANCH   3   4
ENDBRANCH   2   3
ENDBRANCH   1   2
BRANCH   1   8
ATOM      8  C   UNL     1       5.524  47.056  22.226  1.00  0.00     0.000 C 
BRANCH   8   9
ATOM      9  C   UNL     1       5.829  47.420  23.688  1.00  0.00     0.000 C 
BRANCH   9  10
ATOM     10  C   UNL     1       6.938  48.475  23.815  1.00  0.00     0.006 C 
BRANCH  10  11
ATOM     11  C   UNL     1       6.640  49.449  24.958  1.00  0.00     0.053 C 
BRANCH  11  12
ATOM     12  C   UNL     1       7.763  49.459  25.946  1.00  0.00     0.041 C 
ATOM     13  O   UNL     1       8.789  50.157  25.732  1.00  0.00    -0.550 OA
ATOM     14  O   UNL     1       7.656  48.735  27.126  1.00  0.00    -0.550 OA
ENDBRANCH  11  12
ENDBRANCH  10  11
ENDBRANCH   9  10
ENDBRANCH   8   9
ENDBRANCH   1   8
TORSDOF 9
ENDMDL
MODEL 4
REMARK VINA RESULT:    -4.915      1.916      6.228
REMARK INTER + INTRA:          -7.993
REMARK INTER:                  -7.312
REMARK INTRA:                  -0.681
REMARK UNBOUND:                -0.492
REMARK SMILES O=C([O-])CCCCCCCCC(=O)[O-]
REMARK SMILES IDX 7 1 6 2 5 3 4 4 2 5 1 6 3 7 8 8 9 9 10 10 11 11 12 12 13 13
REMARK SMILES IDX 14 14
REMARK H PARENT
REMARK Flexibility Score: inf
ROOT
ATOM      1  C   UNL     1       3.917  46.893  25.851  1.00  0.00     0.000 C 
ENDROOT
BRANCH   1   2
ATOM      2  C   UNL     1       5.387  47.223  25.550  1.00  0.00     0.000 C 
BRANCH   2   3
ATOM      3  C   UNL     1       5.608  48.711  25.239  1.00  0.00     0.006 C 
BRANCH   3   4
ATOM      4  C   UNL     1       7.054  48.972  24.808  1.00  0.00     0.053 C 
BRANCH   4   5
ATOM      5  C   UNL     1       7.867  49.454  25.968  1.00  0.00     0.041 C 
ATOM      6  O   UNL     1       8.576  50.489  25.857  1.00  0.00    -0.550 OA
ATOM      7  O   UNL     1       7.804  48.791  27.187  1.00  0.00    -0.550 OA
ENDBRANCH   4   5
ENDBRANCH   3   4
ENDBRANCH   2   3
ENDBRANCH   1   2
BRANCH   1   8
ATOM      8  C   UNL     1       2.947  47.945  25.283  1.00  0.00     0.000 C 
BRANCH   8   9
ATOM      9  C   UNL     1       1.729  47.313  24.592  1.00  0.00     0.000 C 
BRANCH   9  10
ATOM     10  C   UNL     1       1.740  47.520  23.069  1.00  0.00     0.006 C 
BRANCH  10  11
ATOM     11  C   UNL     1       2.908  48.414  22.647  1.00  0.00     0.053 C 
BRANCH  11  12
ATOM     12  C   UNL     1       3.846  47.666  21.753  1.00  0.00     0.041 C 
ATOM     13  O   UNL     1       3.419  47.117  20.704  1.00  0.00    -0.550 OA
ATOM     14  O   UNL     1       5.201  47.617  22.054  1.00  0.00    -0.550 OA
ENDBRANCH  11  12
ENDBRANCH  10  11
ENDBRANCH   9  10
ENDBRANCH   8   9
ENDBRANCH   1   8
TORSDOF 9
ENDMDL
MODEL 5
REMARK VINA RESULT:    -4.860      1.201      7.151
REMARK INTER + INTRA:          -7.909
REMARK INTER:                  -7.399
REMARK INTRA:                  -0.510
REMARK UNBOUND:                -0.492
REMARK SMILES O=C([O-])CCCCCCCCC(=O)[O-]
REMARK SMILES IDX 7 1 6 2 5 3 4 4 2 5 1 6 3 7 8 8 9 9 10 10 11 11 12 12 13 13
REMARK SMILES IDX 14 14
REMARK H PARENT
REMARK Flexibility Score: inf
ROOT
ATOM      1  C   UNL     1       3.656  48.016  25.893  1.00  0.00     0.000 C 
ENDROOT
BRANCH   1   2
ATOM      2  C   UNL     1       5.089  47.463  25.903  1.00  0.00     0.000 C 
BRANCH   2   3
ATOM      3  C   UNL     1       6.121  48.486  25.405  1.00  0.00     0.006 C 
BRANCH   3   4
ATOM      4  C   UNL     1       7.217  48.712  26.450  1.00  0.00     0.053 C 
BRANCH   4   5
ATOM      5  C   UNL     1       8.276  49.621  25.911  1.00  0.00     0.041 C 
ATOM      6  O   UNL     1       8.074  50.863  25.849  1.00  0.00    -0.550 OA
ATOM      7  O   UNL     1       9.505  49.103  25.521  1.00  0.00    -0.550 OA
ENDBRANCH   4   5
ENDBRANCH   3   4
ENDBRANCH   2   3
ENDBRANCH   1   2
BRANCH   1   8
ATOM      8  C   UNL     1       2.706  47.185  25.011  1.00  0.00     0.000 C 
BRANCH   8   9
ATOM      9  C   UNL     1       3.232  47.012  23.577  1.00  0.00     0.000 C 
BRANCH   9  10
ATOM     10  C   UNL     1       2.848  48.184  22.662  1.00  0.00     0.006 C 
BRANCH  10  11
ATOM     11  C   UNL     1       1.363  48.529  22.806  1.00  0.00     0.053 C 
BRANCH  11  12
ATOM     12  C   UNL     1       0.525  47.590  21.998  1.00  0.00     0.041 C 
ATOM     13  O   UNL     1      -0.575  47.175  22.448  1.00  0.00    -0.550 OA
ATOM     14  O   UNL     1       0.936  47.212  20.726  1.00  0.00    -0.550 OA
ENDBRANCH  11  12
ENDBRANCH  10  11
ENDBRANCH   9  10
ENDBRANCH   8   9
ENDBRANCH   1   8
TORSDOF 9
ENDMDL
MODEL 6
REMARK VINA RESULT:    -4.850      1.949      2.326
REMARK INTER + INTRA:          -7.894
REMARK INTER:                  -7.203
REMARK INTRA:                  -0.691
REMARK UNBOUND:                -0.492
REMARK SMILES O=C([O-])CCCCCCCCC(=O)[O-]
REMARK SMILES IDX 7 1 6 2 5 3 4 4 2 5 1 6 3 7 8 8 9 9 10 10 11 11 12 12 13 13
REMARK SMILES IDX 14 14
REMARK H PARENT
REMARK Flexibility Score: inf
ROOT
ATOM      1  C   UNL     1       3.419  48.068  25.258  1.00  0.00     0.000 C 
ENDROOT
BRANCH   1   2
ATOM      2  C   UNL     1       2.115  47.394  24.803  1.00  0.00     0.000 C 
BRANCH   2   3
ATOM      3  C   UNL     1       1.847  47.578  23.302  1.00  0.00     0.006 C 
BRANCH   3   4
ATOM      4  C   UNL     1       2.938  48.435  22.652  1.00  0.00     0.053 C 
BRANCH   4   5
ATOM      5  C   UNL     1       3.792  47.600  21.751  1.00  0.00     0.041 C 
ATOM      6  O   UNL     1       3.267  46.924  20.828  1.00  0.00    -0.550 OA
ATOM      7  O   UNL     1       5.174  47.608  21.898  1.00  0.00    -0.550 OA
ENDBRANCH   4   5
ENDBRANCH   3   4
ENDBRANCH   2   3
ENDBRANCH   1   2
BRANCH   1   8
ATOM      8  C   UNL     1       4.422  47.069  25.862  1.00  0.00     0.000 C 
BRANCH   8   9
ATOM      9  C   UNL     1       5.847  47.639  25.944  1.00  0.00     0.000 C 
BRANCH   9  10
ATOM     10  C   UNL     1       6.018  48.924  25.119  1.00  0.00     0.006 C 
BRANCH  10  11
ATOM     11  C   UNL     1       7.403  48.980  24.471  1.00  0.00     0.053 C 
BRANCH  11  12
ATOM     12  C   UNL     1       8.413  49.515  25.436  1.00  0.00     0.041 C 
ATOM     13  O   UNL     1       9.479  48.882  25.654  1.00  0.00    -0.550 OA
ATOM     14  O   UNL     1       8.199  50.738  26.059  1.00  0.00    -0.550 OA
ENDBRANCH  11  12
ENDBRANCH  10  11
ENDBRANCH   9  10
ENDBRANCH   8   9
ENDBRANCH   1   8
TORSDOF 9
ENDMDL
MODEL 7
REMARK VINA RESULT:    -4.800     10.472     11.112
REMARK INTER + INTRA:          -7.818
REMARK INTER:                  -7.147
REMARK INTRA:                  -0.671
REMARK UNBOUND:                -0.492
REMARK SMILES O=C([O-])CCCCCCCCC(=O)[O-]
REMARK SMILES IDX 7 1 6 2 5 3 4 4 2 5 1 6 3 7 8 8 9 9 10 10 11 11 12 12 13 13
REMARK SMILES IDX 14 14
REMARK H PARENT
REMARK Flexibility Score: inf
ROOT
ATOM      1  C   UNL     1       2.870  59.039  23.314  1.00  0.00     0.000 C 
ENDROOT
BRANCH   1   2
ATOM      2  C   UNL     1       2.739  60.511  22.895  1.00  0.00     0.000 C 
BRANCH   2   3
ATOM      3  C   UNL     1       1.614  61.241  23.645  1.00  0.00     0.006 C 
BRANCH   3   4
ATOM      4  C   UNL     1       0.363  60.364  23.744  1.00  0.00     0.053 C 
BRANCH   4   5
ATOM      5  C   UNL     1       0.010  60.114  25.176  1.00  0.00     0.041 C 
ATOM      6  O   UNL     1      -0.180  61.082  25.960  1.00  0.00    -0.550 OA
ATOM      7  O   UNL     1      -0.159  58.814  25.636  1.00  0.00    -0.550 OA
ENDBRANCH   4   5
ENDBRANCH   3   4
ENDBRANCH   2   3
ENDBRANCH   1   2
BRANCH   1   8
ATOM      8  C   UNL     1       3.283  58.126  22.146  1.00  0.00     0.000 C 
BRANCH   8   9
ATOM      9  C   UNL     1       2.163  57.160  21.726  1.00  0.00     0.000 C 
BRANCH   9  10
ATOM     10  C   UNL     1       1.583  56.377  22.914  1.00  0.00     0.006 C 
BRANCH  10  11
ATOM     11  C   UNL     1       2.298  55.034  23.087  1.00  0.00     0.053 C 
BRANCH  11  12
ATOM     12  C   UNL     1       3.130  55.040  24.329  1.00  0.00     0.041 C 
ATOM     13  O   UNL     1       4.059  54.201  24.474  1.00  0.00    -0.550 OA
ATOM     14  O   UNL     1       2.913  56.002  25.307  1.00  0.00    -0.550 OA
ENDBRANCH  11  12
ENDBRANCH  10  11
ENDBRANCH   9  10
ENDBRANCH   8   9
ENDBRANCH   1   8
TORSDOF 9
ENDMDL
MODEL 8
REMARK VINA RESULT:    -4.711     10.512     11.373
REMARK INTER + INTRA:          -7.681
REMARK INTER:                  -6.928
REMARK INTRA:                  -0.754
REMARK UNBOUND:                -0.492
REMARK SMILES O=C([O-])CCCCCCCCC(=O)[O-]
REMARK SMILES IDX 7 1 6 2 5 3 4 4 2 5 1 6 3 7 8 8 9 9 10 10 11 11 12 12 13 13
REMARK SMILES IDX 14 14
REMARK H PARENT
REMARK Flexibility Score: inf
ROOT
ATOM      1  C   UNL     1       3.191  58.108  22.080  1.00  0.00     0.000 C 
ENDROOT
BRANCH   1   2
ATOM      2  C   UNL     1       1.895  57.350  21.752  1.00  0.00     0.000 C 
BRANCH   2   3
ATOM      3  C   UNL     1       1.434  56.444  22.904  1.00  0.00     0.006 C 
BRANCH   3   4
ATOM      4  C   UNL     1       2.318  55.198  23.009  1.00  0.00     0.053 C 
BRANCH   4   5
ATOM      5  C   UNL     1       3.052  55.186  24.313  1.00  0.00     0.041 C 
ATOM      6  O   UNL     1       3.916  54.300  24.545  1.00  0.00    -0.550 OA
ATOM      7  O   UNL     1       2.818  56.181  25.254  1.00  0.00    -0.550 OA
ENDBRANCH   4   5
ENDBRANCH   3   4
ENDBRANCH   2   3
ENDBRANCH   1   2
BRANCH   1   8
ATOM      8  C   UNL     1       3.024  59.083  23.259  1.00  0.00     0.000 C 
BRANCH   8   9
ATOM      9  C   UNL     1       2.737  60.522  22.800  1.00  0.00     0.000 C 
BRANCH   9  10
ATOM     10  C   UNL     1       1.606  61.183  23.601  1.00  0.00     0.006 C 
BRANCH  10  11
ATOM     11  C   UNL     1       0.395  60.253  23.710  1.00  0.00     0.053 C 
BRANCH  11  12
ATOM     12  C   UNL     1      -0.003  60.074  25.141  1.00  0.00     0.041 C 
ATOM     13  O   UNL     1      -0.177  61.078  25.880  1.00  0.00    -0.550 OA
ATOM     14  O   UNL     1      -0.231  58.800  25.645  1.00  0.00    -0.550 OA
ENDBRANCH  11  12
ENDBRANCH  10  11
ENDBRANCH   9  10
ENDBRANCH   8   9
ENDBRANCH   1   8
TORSDOF 9
ENDMDL
MODEL 9
REMARK VINA RESULT:    -4.699     10.325     11.169
REMARK INTER + INTRA:          -7.663
REMARK INTER:                  -7.011
REMARK INTRA:                  -0.652
REMARK UNBOUND:                -0.492
REMARK SMILES O=C([O-])CCCCCCCCC(=O)[O-]
REMARK SMILES IDX 7 1 6 2 5 3 4 4 2 5 1 6 3 7 8 8 9 9 10 10 11 11 12 12 13 13
REMARK SMILES IDX 14 14
REMARK H PARENT
REMARK Flexibility Score: inf
ROOT
ATOM      1  C   UNL     1       0.005  58.703  25.519  1.00  0.00     0.000 C 
ENDROOT
BRANCH   1   2
ATOM      2  C   UNL     1       0.031  60.175  25.081  1.00  0.00     0.000 C 
BRANCH   2   3
ATOM      3  C   UNL     1       0.579  60.359  23.658  1.00  0.00     0.006 C 
BRANCH   3   4
ATOM      4  C   UNL     1       1.850  61.214  23.667  1.00  0.00     0.053 C 
BRANCH   4   5
ATOM      5  C   UNL     1       2.833  60.701  22.663  1.00  0.00     0.041 C 
ATOM      6  O   UNL     1       3.042  59.463  22.556  1.00  0.00    -0.550 OA
ATOM      7  O   UNL     1       3.483  61.584  21.809  1.00  0.00    -0.550 OA
ENDBRANCH   4   5
ENDBRANCH   3   4
ENDBRANCH   2   3
ENDBRANCH   1   2
BRANCH   1   8
ATOM      8  C   UNL     1       0.865  57.801  24.615  1.00  0.00     0.000 C 
BRANCH   8   9
ATOM      9  C   UNL     1       2.126  57.283  25.326  1.00  0.00     0.000 C 
BRANCH   9  10
ATOM     10  C   UNL     1       3.087  56.560  24.370  1.00  0.00     0.006 C 
BRANCH  10  11
ATOM     11  C   UNL     1       2.316  55.820  23.274  1.00  0.00     0.053 C 
BRANCH  11  12
ATOM     12  C   UNL     1       2.657  54.363  23.284  1.00  0.00     0.041 C 
ATOM     13  O   UNL     1       3.624  53.943  23.973  1.00  0.00    -0.550 OA
ATOM     14  O   UNL     1       1.877  53.462  22.571  1.00  0.00    -0.550 OA
ENDBRANCH  11  12
ENDBRANCH  10  11
ENDBRANCH   9  10
ENDBRANCH   8   9
ENDBRANCH   1   8
TORSDOF 9
ENDMDL
