MODEL 1
REMARK VINA RESULT:    -7.426      0.000      0.000
REMARK INTER + INTRA:          -7.426
REMARK INTER:                  -7.426
REMARK INTRA:                   0.000
REMARK UNBOUND:                 0.000
REMARK SMILES CC1=CC[C@@]23C[C@@H]1C(C)(C)[C@@H]2CC[C@@H]3C
REMARK SMILES IDX 15 1 14 2 13 3 12 4 11 5 5 6 4 7 3 8 2 9 7 10 6 11 8 12 9 13
REMARK SMILES IDX 10 14 1 15
REMARK H PARENT
REMARK Flexibility Score: inf
ROOT
ATOM      1  C   UNL     1     109.871 112.506 111.970  1.00  0.00     0.008 C 
ATOM      2  C   UNL     1     110.778 111.399 112.528  1.00  0.00    -0.007 C 
ATOM      3  C   UNL     1     112.258 111.746 112.423  1.00  0.00     0.004 C 
ATOM      4  C   UNL     1     112.954 110.838 113.429  1.00  0.00     0.005 C 
ATOM      5  C   UNL     1     111.909 110.490 114.516  1.00  0.00     0.002 C 
ATOM      6  C   UNL     1     110.560 111.060 114.016  1.00  0.00    -0.020 C 
ATOM      7  C   UNL     1     109.407 110.042 114.251  1.00  0.00     0.035 C 
ATOM      8  C   UNL     1     109.110 109.860 115.732  1.00  0.00    -0.027 C 
ATOM      9  C   UNL     1     109.656 110.667 116.674  1.00  0.00    -0.074 C 
ATOM     10  C   UNL     1     110.712 111.705 116.274  1.00  0.00     0.021 C 
ATOM     11  C   UNL     1     110.305 112.274 114.923  1.00  0.00     0.016 C 
ATOM     12  C   UNL     1     112.098 111.057 115.971  1.00  0.00    -0.025 C 
ATOM     13  C   UNL     1     112.453 109.924 116.965  1.00  0.00     0.012 C 
ATOM     14  C   UNL     1     113.200 112.141 116.100  1.00  0.00     0.012 C 
ATOM     15  C   UNL     1     109.248 110.517 118.113  1.00  0.00     0.039 C 
ENDROOT
TORSDOF 0
ENDMDL
MODEL 2
REMARK VINA RESULT:    -7.413      1.354      3.838
REMARK INTER + INTRA:          -7.413
REMARK INTER:                  -7.413
REMARK INTRA:                   0.000
REMARK UNBOUND:                 0.000
REMARK SMILES CC1=CC[C@@]23C[C@@H]1C(C)(C)[C@@H]2CC[C@@H]3C
REMARK SMILES IDX 15 1 14 2 13 3 12 4 11 5 5 6 4 7 3 8 2 9 7 10 6 11 8 12 9 13
REMARK SMILES IDX 10 14 1 15
REMARK H PARENT
REMARK Flexibility Score: inf
ROOT
ATOM      1  C   UNL     1     110.830 110.718 118.005  1.00  0.00     0.008 C 
ATOM      2  C   UNL     1     111.383 111.745 117.005  1.00  0.00    -0.007 C 
ATOM      3  C   UNL     1     112.907 111.765 116.969  1.00  0.00     0.004 C 
ATOM      4  C   UNL     1     113.266 112.420 115.640  1.00  0.00     0.005 C 
ATOM      5  C   UNL     1     112.076 112.170 114.683  1.00  0.00     0.002 C 
ATOM      6  C   UNL     1     110.959 111.528 115.540  1.00  0.00    -0.020 C 
ATOM      7  C   UNL     1     109.574 112.153 115.202  1.00  0.00     0.035 C 
ATOM      8  C   UNL     1     109.113 111.777 113.802  1.00  0.00    -0.027 C 
ATOM      9  C   UNL     1     109.758 110.838 113.067  1.00  0.00    -0.074 C 
ATOM     10  C   UNL     1     111.068 110.229 113.580  1.00  0.00     0.021 C 
ATOM     11  C   UNL     1     110.933 110.060 115.086  1.00  0.00     0.016 C 
ATOM     12  C   UNL     1     112.271 111.212 113.451  1.00  0.00    -0.025 C 
ATOM     13  C   UNL     1     112.247 112.007 112.122  1.00  0.00     0.012 C 
ATOM     14  C   UNL     1     113.592 110.398 113.472  1.00  0.00     0.012 C 
ATOM     15  C   UNL     1     109.201 110.424 111.733  1.00  0.00     0.039 C 
ENDROOT
TORSDOF 0
ENDMDL
MODEL 3
REMARK VINA RESULT:    -7.409      2.670      4.315
REMARK INTER + INTRA:          -7.409
REMARK INTER:                  -7.409
REMARK INTRA:                   0.000
REMARK UNBOUND:                 0.000
REMARK SMILES CC1=CC[C@@]23C[C@@H]1C(C)(C)[C@@H]2CC[C@@H]3C
REMARK SMILES IDX 15 1 14 2 13 3 12 4 11 5 5 6 4 7 3 8 2 9 7 10 6 11 8 12 9 13
REMARK SMILES IDX 10 14 1 15
REMARK H PARENT
REMARK Flexibility Score: inf
ROOT
ATOM      1  C   UNL     1     109.086 110.925 107.723  1.00  0.00     0.008 C 
ATOM      2  C   UNL     1     110.107 110.191 108.606  1.00  0.00    -0.007 C 
ATOM      3  C   UNL     1     111.535 110.341 108.096  1.00  0.00     0.004 C 
ATOM      4  C   UNL     1     112.422 110.016 109.293  1.00  0.00     0.005 C 
ATOM      5  C   UNL     1     111.593 110.330 110.561  1.00  0.00     0.002 C 
ATOM      6  C   UNL     1     110.162 110.660 110.072  1.00  0.00    -0.020 C 
ATOM      7  C   UNL     1     109.097 109.975 110.976  1.00  0.00     0.035 C 
ATOM      8  C   UNL     1     109.069 110.580 112.372  1.00  0.00    -0.027 C 
ATOM      9  C   UNL     1     109.750 111.714 112.671  1.00  0.00    -0.074 C 
ATOM     10  C   UNL     1     110.691 112.339 111.634  1.00  0.00     0.021 C 
ATOM     11  C   UNL     1     110.037 112.179 110.269  1.00  0.00     0.016 C 
ATOM     12  C   UNL     1     112.018 111.537 111.476  1.00  0.00    -0.025 C 
ATOM     13  C   UNL     1     112.573 111.035 112.832  1.00  0.00     0.012 C 
ATOM     14  C   UNL     1     113.097 112.465 110.856  1.00  0.00     0.012 C 
ATOM     15  C   UNL     1     109.605 112.333 114.034  1.00  0.00     0.039 C 
ENDROOT
TORSDOF 0
ENDMDL
MODEL 4
REMARK VINA RESULT:    -7.395      1.256      3.221
REMARK INTER + INTRA:          -7.395
REMARK INTER:                  -7.395
REMARK INTRA:                   0.000
REMARK UNBOUND:                 0.000
REMARK SMILES CC1=CC[C@@]23C[C@@H]1C(C)(C)[C@@H]2CC[C@@H]3C
REMARK SMILES IDX 15 1 14 2 13 3 12 4 11 5 5 6 4 7 3 8 2 9 7 10 6 11 8 12 9 13
REMARK SMILES IDX 10 14 1 15
REMARK H PARENT
REMARK Flexibility Score: inf
ROOT
ATOM      1  C   UNL     1     112.489 109.583 111.692  1.00  0.00     0.008 C 
ATOM      2  C   UNL     1     111.532 110.672 112.200  1.00  0.00    -0.007 C 
ATOM      3  C   UNL     1     110.068 110.261 112.093  1.00  0.00     0.004 C 
ATOM      4  C   UNL     1     109.324 111.176 113.058  1.00  0.00     0.005 C 
ATOM      5  C   UNL     1     110.342 111.605 114.142  1.00  0.00     0.002 C 
ATOM      6  C   UNL     1     111.719 111.072 113.676  1.00  0.00    -0.020 C 
ATOM      7  C   UNL     1     112.827 112.145 113.886  1.00  0.00     0.035 C 
ATOM      8  C   UNL     1     113.100 112.392 115.362  1.00  0.00    -0.027 C 
ATOM      9  C   UNL     1     112.575 111.597 116.327  1.00  0.00    -0.074 C 
ATOM     10  C   UNL     1     111.567 110.504 115.956  1.00  0.00     0.021 C 
ATOM     11  C   UNL     1     112.012 109.903 114.630  1.00  0.00     0.016 C 
ATOM     12  C   UNL     1     110.160 111.084 115.615  1.00  0.00    -0.025 C 
ATOM     13  C   UNL     1     109.748 112.237 116.563  1.00  0.00     0.012 C 
ATOM     14  C   UNL     1     109.100 109.961 115.772  1.00  0.00     0.012 C 
ATOM     15  C   UNL     1     112.961 111.816 117.764  1.00  0.00     0.039 C 
ENDROOT
TORSDOF 0
ENDMDL
MODEL 5
REMARK VINA RESULT:    -7.380      3.376      6.530
REMARK INTER + INTRA:          -7.380
REMARK INTER:                  -7.380
REMARK INTRA:                   0.000
REMARK UNBOUND:                 0.000
REMARK SMILES CC1=CC[C@@]23C[C@@H]1C(C)(C)[C@@H]2CC[C@@H]3C
REMARK SMILES IDX 15 1 14 2 13 3 12 4 11 5 5 6 4 7 3 8 2 9 7 10 6 11 8 12 9 13
REMARK SMILES IDX 10 14 1 15
REMARK H PARENT
REMARK Flexibility Score: inf
ROOT
ATOM      1  C   UNL     1     110.757 110.766 113.011  1.00  0.00     0.008 C 
ATOM      2  C   UNL     1     111.296 111.800 112.010  1.00  0.00    -0.007 C 
ATOM      3  C   UNL     1     112.819 111.873 112.009  1.00  0.00     0.004 C 
ATOM      4  C   UNL     1     113.186 112.523 110.680  1.00  0.00     0.005 C 
ATOM      5  C   UNL     1     112.029 112.220 109.699  1.00  0.00     0.002 C 
ATOM      6  C   UNL     1     110.915 111.549 110.539  1.00  0.00    -0.020 C 
ATOM      7  C   UNL     1     109.517 112.119 110.161  1.00  0.00     0.035 C 
ATOM      8  C   UNL     1     109.102 111.709 108.756  1.00  0.00    -0.027 C 
ATOM      9  C   UNL     1     109.797 110.785 108.048  1.00  0.00    -0.074 C 
ATOM     10  C   UNL     1     111.116 110.229 108.600  1.00  0.00     0.021 C 
ATOM     11  C   UNL     1     110.952 110.075 110.105  1.00  0.00     0.016 C 
ATOM     12  C   UNL     1     112.286 111.254 108.485  1.00  0.00    -0.025 C 
ATOM     13  C   UNL     1     112.265 112.030 107.145  1.00  0.00     0.012 C 
ATOM     14  C   UNL     1     113.634 110.487 108.548  1.00  0.00     0.012 C 
ATOM     15  C   UNL     1     109.287 110.334 106.707  1.00  0.00     0.039 C 
ENDROOT
TORSDOF 0
ENDMDL
MODEL 6
REMARK VINA RESULT:    -7.374      2.916      5.470
REMARK INTER + INTRA:          -7.374
REMARK INTER:                  -7.374
REMARK INTRA:                   0.000
REMARK UNBOUND:                 0.000
REMARK SMILES CC1=CC[C@@]23C[C@@H]1C(C)(C)[C@@H]2CC[C@@H]3C
REMARK SMILES IDX 15 1 14 2 13 3 12 4 11 5 5 6 4 7 3 8 2 9 7 10 6 11 8 12 9 13
REMARK SMILES IDX 10 14 1 15
REMARK H PARENT
REMARK Flexibility Score: inf
ROOT
ATOM      1  C   UNL     1     112.898 111.539 107.335  1.00  0.00     0.008 C 
ATOM      2  C   UNL     1     111.834 112.145 108.264  1.00  0.00    -0.007 C 
ATOM      3  C   UNL     1     110.413 111.867 107.786  1.00  0.00     0.004 C 
ATOM      4  C   UNL     1     109.533 112.070 109.013  1.00  0.00     0.005 C 
ATOM      5  C   UNL     1     110.423 111.807 110.251  1.00  0.00     0.002 C 
ATOM      6  C   UNL     1     111.865 111.635 109.717  1.00  0.00    -0.020 C 
ATOM      7  C   UNL     1     112.882 112.399 110.614  1.00  0.00     0.035 C 
ATOM      8  C   UNL     1     113.008 111.763 111.990  1.00  0.00    -0.027 C 
ATOM      9  C   UNL     1     112.451 110.560 112.274  1.00  0.00    -0.074 C 
ATOM     10  C   UNL     1     111.549 109.871 111.243  1.00  0.00     0.021 C 
ATOM     11  C   UNL     1     112.145 110.131 109.868  1.00  0.00     0.016 C 
ATOM     12  C   UNL     1     110.144 110.541 111.141  1.00  0.00    -0.025 C 
ATOM     13  C   UNL     1     109.580 110.949 112.524  1.00  0.00     0.012 C 
ATOM     14  C   UNL     1     109.146 109.527 110.521  1.00  0.00     0.012 C 
ATOM     15  C   UNL     1     112.694 109.923 113.614  1.00  0.00     0.039 C 
ENDROOT
TORSDOF 0
ENDMDL
MODEL 7
REMARK VINA RESULT:    -7.300      1.290      4.635
REMARK INTER + INTRA:          -7.300
REMARK INTER:                  -7.300
REMARK INTRA:                   0.000
REMARK UNBOUND:                 0.000
REMARK SMILES CC1=CC[C@@]23C[C@@H]1C(C)(C)[C@@H]2CC[C@@H]3C
REMARK SMILES IDX 15 1 14 2 13 3 12 4 11 5 5 6 4 7 3 8 2 9 7 10 6 11 8 12 9 13
REMARK SMILES IDX 10 14 1 15
REMARK H PARENT
REMARK Flexibility Score: inf
ROOT
ATOM      1  C   UNL     1     113.244 112.109 116.246  1.00  0.00     0.008 C 
ATOM      2  C   UNL     1     112.051 111.216 115.874  1.00  0.00    -0.007 C 
ATOM      3  C   UNL     1     110.711 111.856 116.217  1.00  0.00     0.004 C 
ATOM      4  C   UNL     1     109.686 111.118 115.364  1.00  0.00     0.005 C 
ATOM      5  C   UNL     1     110.441 110.576 114.127  1.00  0.00     0.002 C 
ATOM      6  C   UNL     1     111.942 110.855 114.380  1.00  0.00    -0.020 C 
ATOM      7  C   UNL     1     112.808 109.626 113.981  1.00  0.00     0.035 C 
ATOM      8  C   UNL     1     112.809 109.402 112.476  1.00  0.00    -0.027 C 
ATOM      9  C   UNL     1     112.286 110.314 111.619  1.00  0.00    -0.074 C 
ATOM     10  C   UNL     1     111.545 111.540 112.164  1.00  0.00     0.021 C 
ATOM     11  C   UNL     1     112.280 112.001 113.414  1.00  0.00     0.016 C 
ATOM     12  C   UNL     1     110.128 111.184 112.711  1.00  0.00    -0.025 C 
ATOM     13  C   UNL     1     109.389 110.157 111.818  1.00  0.00     0.012 C 
ATOM     14  C   UNL     1     109.261 112.471 112.741  1.00  0.00     0.012 C 
ATOM     15  C   UNL     1     112.407 110.098 110.136  1.00  0.00     0.039 C 
ENDROOT
TORSDOF 0
ENDMDL
MODEL 8
REMARK VINA RESULT:    -7.287      4.786      7.815
REMARK INTER + INTRA:          -7.287
REMARK INTER:                  -7.287
REMARK INTRA:                   0.000
REMARK UNBOUND:                 0.000
REMARK SMILES CC1=CC[C@@]23C[C@@H]1C(C)(C)[C@@H]2CC[C@@H]3C
REMARK SMILES IDX 15 1 14 2 13 3 12 4 11 5 5 6 4 7 3 8 2 9 7 10 6 11 8 12 9 13
REMARK SMILES IDX 10 14 1 15
REMARK H PARENT
REMARK Flexibility Score: inf
ROOT
ATOM      1  C   UNL     1     108.988 109.849 110.832  1.00  0.00     0.008 C 
ATOM      2  C   UNL     1     110.224 110.698 110.497  1.00  0.00    -0.007 C 
ATOM      3  C   UNL     1     111.528 109.932 110.687  1.00  0.00     0.004 C 
ATOM      4  C   UNL     1     112.561 110.695 109.866  1.00  0.00     0.005 C 
ATOM      5  C   UNL     1     111.789 111.429 108.745  1.00  0.00     0.002 C 
ATOM      6  C   UNL     1     110.286 111.224 109.050  1.00  0.00    -0.020 C 
ATOM      7  C   UNL     1     109.493 112.548 108.844  1.00  0.00     0.035 C 
ATOM      8  C   UNL     1     109.435 112.947 107.378  1.00  0.00    -0.027 C 
ATOM      9  C   UNL     1     109.847 112.110 106.393  1.00  0.00    -0.074 C 
ATOM     10  C   UNL     1     110.521 110.780 106.751  1.00  0.00     0.021 C 
ATOM     11  C   UNL     1     109.816 110.226 107.980  1.00  0.00     0.016 C 
ATOM     12  C   UNL     1     111.986 110.973 107.252  1.00  0.00    -0.025 C 
ATOM     13  C   UNL     1     112.754 112.045 106.442  1.00  0.00     0.012 C 
ATOM     14  C   UNL     1     112.755 109.635 107.086  1.00  0.00     0.012 C 
ATOM     15  C   UNL     1     109.670 112.507 104.954  1.00  0.00     0.039 C 
ENDROOT
TORSDOF 0
ENDMDL
MODEL 9
REMARK VINA RESULT:    -7.280      4.846      8.003
REMARK INTER + INTRA:          -7.280
REMARK INTER:                  -7.280
REMARK INTRA:                   0.000
REMARK UNBOUND:                 0.000
REMARK SMILES CC1=CC[C@@]23C[C@@H]1C(C)(C)[C@@H]2CC[C@@H]3C
REMARK SMILES IDX 15 1 14 2 13 3 12 4 11 5 5 6 4 7 3 8 2 9 7 10 6 11 8 12 9 13
REMARK SMILES IDX 10 14 1 15
REMARK H PARENT
REMARK Flexibility Score: inf
ROOT
ATOM      1  C   UNL     1     113.258 112.480 110.860  1.00  0.00     0.008 C 
ATOM      2  C   UNL     1     112.021 111.626 110.541  1.00  0.00    -0.007 C 
ATOM      3  C   UNL     1     110.716 112.389 110.737  1.00  0.00     0.004 C 
ATOM      4  C   UNL     1     109.678 111.619 109.930  1.00  0.00     0.005 C 
ATOM      5  C   UNL     1     110.443 110.880 108.806  1.00  0.00     0.002 C 
ATOM      6  C   UNL     1     111.948 111.091 109.098  1.00  0.00    -0.020 C 
ATOM      7  C   UNL     1     112.742 109.768 108.893  1.00  0.00     0.035 C 
ATOM      8  C   UNL     1     112.789 109.360 107.428  1.00  0.00    -0.027 C 
ATOM      9  C   UNL     1     112.367 110.190 106.443  1.00  0.00    -0.074 C 
ATOM     10  C   UNL     1     111.691 111.520 106.798  1.00  0.00     0.021 C 
ATOM     11  C   UNL     1     112.406 112.084 108.017  1.00  0.00     0.016 C 
ATOM     12  C   UNL     1     110.232 111.327 107.313  1.00  0.00    -0.025 C 
ATOM     13  C   UNL     1     109.460 110.247 106.516  1.00  0.00     0.012 C 
ATOM     14  C   UNL     1     109.458 112.661 107.145  1.00  0.00     0.012 C 
ATOM     15  C   UNL     1     112.533 109.785 105.004  1.00  0.00     0.039 C 
ENDROOT
TORSDOF 0
ENDMDL
