MODEL 1
REMARK VINA RESULT:    -4.176      0.000      0.000
REMARK INTER + INTRA:          -5.753
REMARK INTER:                  -5.640
REMARK INTRA:                  -0.112
REMARK UNBOUND:                -0.112
REMARK SMILES CCCCCCCC=O
REMARK SMILES IDX 5 1 4 2 3 3 2 4 1 5 6 6 7 7 8 8 9 9
REMARK H PARENT
REMARK Flexibility Score: inf
ROOT
ATOM      1  C   UNL     1      25.544  58.053  -9.032  1.00  0.00     0.000 C 
ENDROOT
BRANCH   1   2
ATOM      2  C   UNL     1      26.797  58.489  -9.809  1.00  0.00     0.000 C 
BRANCH   2   3
ATOM      3  C   UNL     1      27.117  59.982  -9.622  1.00  0.00    -0.000 C 
BRANCH   3   4
ATOM      4  C   UNL     1      28.256  60.458 -10.537  1.00  0.00    -0.003 C 
ATOM      5  C   UNL     1      29.270  59.356 -10.845  1.00  0.00     0.004 C 
ENDBRANCH   3   4
ENDBRANCH   2   3
ENDBRANCH   1   2
BRANCH   1   6
ATOM      6  C   UNL     1      25.607  56.582  -8.581  1.00  0.00     0.008 C 
BRANCH   6   7
ATOM      7  C   UNL     1      24.272  55.855  -8.797  1.00  0.00     0.072 C 
BRANCH   7   8
ATOM      8  C   UNL     1      23.649  55.409  -7.506  1.00  0.00     0.224 C 
ATOM      9  O   UNL     1      22.727  54.610  -7.520  1.00  0.00    -0.303 OA
ENDBRANCH   7   8
ENDBRANCH   6   7
ENDBRANCH   1   6
TORSDOF 6
ENDMDL
MODEL 2
REMARK VINA RESULT:    -4.085      3.140      5.854
REMARK INTER + INTRA:          -5.630
REMARK INTER:                  -5.451
REMARK INTRA:                  -0.178
REMARK UNBOUND:                -0.112
REMARK SMILES CCCCCCCC=O
REMARK SMILES IDX 5 1 4 2 3 3 2 4 1 5 6 6 7 7 8 8 9 9
REMARK H PARENT
REMARK Flexibility Score: inf
ROOT
ATOM      1  C   UNL     1      25.501  58.517  -8.979  1.00  0.00     0.000 C 
ENDROOT
BRANCH   1   2
ATOM      2  C   UNL     1      25.889  57.062  -9.287  1.00  0.00     0.000 C 
BRANCH   2   3
ATOM      3  C   UNL     1      25.410  56.082  -8.202  1.00  0.00    -0.000 C 
BRANCH   3   4
ATOM      4  C   UNL     1      24.026  55.491  -8.514  1.00  0.00    -0.003 C 
ATOM      5  C   UNL     1      23.250  55.100  -7.257  1.00  0.00     0.004 C 
ENDBRANCH   3   4
ENDBRANCH   2   3
ENDBRANCH   1   2
BRANCH   1   6
ATOM      6  C   UNL     1      26.532  59.532  -9.508  1.00  0.00     0.008 C 
BRANCH   6   7
ATOM      7  C   UNL     1      27.526  58.888 -10.484  1.00  0.00     0.072 C 
BRANCH   7   8
ATOM      8  C   UNL     1      28.848  59.602 -10.506  1.00  0.00     0.224 C 
ATOM      9  O   UNL     1      29.726  59.230 -11.266  1.00  0.00    -0.303 OA
ENDBRANCH   7   8
ENDBRANCH   6   7
ENDBRANCH   1   6
TORSDOF 6
ENDMDL
MODEL 3
REMARK VINA RESULT:    -3.937      0.707      1.343
REMARK INTER + INTRA:          -5.431
REMARK INTER:                  -5.261
REMARK INTRA:                  -0.170
REMARK UNBOUND:                -0.112
REMARK SMILES CCCCCCCC=O
REMARK SMILES IDX 5 1 4 2 3 3 2 4 1 5 6 6 7 7 8 8 9 9
REMARK H PARENT
REMARK Flexibility Score: inf
ROOT
ATOM      1  C   UNL     1      26.674  58.411  -9.805  1.00  0.00     0.000 C 
ENDROOT
BRANCH   1   2
ATOM      2  C   UNL     1      26.951  59.910  -9.604  1.00  0.00     0.000 C 
BRANCH   2   3
ATOM      3  C   UNL     1      28.141  60.407 -10.443  1.00  0.00    -0.000 C 
BRANCH   3   4
ATOM      4  C   UNL     1      29.386  59.520 -10.280  1.00  0.00    -0.003 C 
ATOM      5  C   UNL     1      30.045  59.171 -11.614  1.00  0.00     0.004 C 
ENDBRANCH   3   4
ENDBRANCH   2   3
ENDBRANCH   1   2
BRANCH   1   6
ATOM      6  C   UNL     1      25.516  57.898  -8.930  1.00  0.00     0.008 C 
BRANCH   6   7
ATOM      7  C   UNL     1      25.639  56.397  -8.632  1.00  0.00     0.072 C 
BRANCH   7   8
ATOM      8  C   UNL     1      24.554  55.906  -7.715  1.00  0.00     0.224 C 
ATOM      9  O   UNL     1      23.655  55.211  -8.156  1.00  0.00    -0.303 OA
ENDBRANCH   7   8
ENDBRANCH   6   7
ENDBRANCH   1   6
TORSDOF 6
ENDMDL
MODEL 4
REMARK VINA RESULT:    -3.834      3.318      6.023
REMARK INTER + INTRA:          -5.291
REMARK INTER:                  -5.162
REMARK INTRA:                  -0.128
REMARK UNBOUND:                -0.112
REMARK SMILES CCCCCCCC=O
REMARK SMILES IDX 5 1 4 2 3 3 2 4 1 5 6 6 7 7 8 8 9 9
REMARK H PARENT
REMARK Flexibility Score: inf
ROOT
ATOM      1  C   UNL     1      26.980  58.477 -10.389  1.00  0.00     0.000 C 
ENDROOT
BRANCH   1   2
ATOM      2  C   UNL     1      25.949  58.392  -9.252  1.00  0.00     0.000 C 
BRANCH   2   3
ATOM      3  C   UNL     1      25.765  56.957  -8.729  1.00  0.00    -0.000 C 
BRANCH   3   4
ATOM      4  C   UNL     1      24.336  56.433  -8.942  1.00  0.00    -0.003 C 
ATOM      5  C   UNL     1      23.956  55.328  -7.957  1.00  0.00     0.004 C 
ENDBRANCH   3   4
ENDBRANCH   2   3
ENDBRANCH   1   2
BRANCH   1   6
ATOM      6  C   UNL     1      27.791  59.785 -10.359  1.00  0.00     0.008 C 
BRANCH   6   7
ATOM      7  C   UNL     1      29.166  59.596  -9.704  1.00  0.00     0.072 C 
BRANCH   7   8
ATOM      8  C   UNL     1      30.277  59.535 -10.713  1.00  0.00     0.224 C 
ATOM      9  O   UNL     1      30.021  59.317 -11.886  1.00  0.00    -0.303 OA
ENDBRANCH   7   8
ENDBRANCH   6   7
ENDBRANCH   1   6
TORSDOF 6
ENDMDL
MODEL 5
REMARK VINA RESULT:    -3.762     15.032     16.704
REMARK INTER + INTRA:          -5.194
REMARK INTER:                  -5.028
REMARK INTRA:                  -0.166
REMARK UNBOUND:                -0.112
REMARK SMILES CCCCCCCC=O
REMARK SMILES IDX 5 1 4 2 3 3 2 4 1 5 6 6 7 7 8 8 9 9
REMARK H PARENT
REMARK Flexibility Score: inf
ROOT
ATOM      1  C   UNL     1      31.681  45.245   0.816  1.00  0.00     0.000 C 
ENDROOT
BRANCH   1   2
ATOM      2  C   UNL     1      32.491  45.276   2.122  1.00  0.00     0.000 C 
BRANCH   2   3
ATOM      3  C   UNL     1      32.948  46.696   2.498  1.00  0.00    -0.000 C 
BRANCH   3   4
ATOM      4  C   UNL     1      32.613  47.055   3.955  1.00  0.00    -0.003 C 
ATOM      5  C   UNL     1      32.179  48.510   4.123  1.00  0.00     0.004 C 
ENDBRANCH   3   4
ENDBRANCH   2   3
ENDBRANCH   1   2
BRANCH   1   6
ATOM      6  C   UNL     1      30.163  45.328   1.055  1.00  0.00     0.008 C 
BRANCH   6   7
ATOM      7  C   UNL     1      29.361  45.081  -0.230  1.00  0.00     0.072 C 
BRANCH   7   8
ATOM      8  C   UNL     1      28.139  45.951  -0.317  1.00  0.00     0.224 C 
ATOM      9  O   UNL     1      27.850  46.488  -1.373  1.00  0.00    -0.303 OA
ENDBRANCH   7   8
ENDBRANCH   6   7
ENDBRANCH   1   6
TORSDOF 6
ENDMDL
MODEL 6
REMARK VINA RESULT:    -3.761     15.395     17.346
REMARK INTER + INTRA:          -5.192
REMARK INTER:                  -5.037
REMARK INTRA:                  -0.155
REMARK UNBOUND:                -0.112
REMARK SMILES CCCCCCCC=O
REMARK SMILES IDX 5 1 4 2 3 3 2 4 1 5 6 6 7 7 8 8 9 9
REMARK H PARENT
REMARK Flexibility Score: inf
ROOT
ATOM      1  C   UNL     1      32.514  45.246   2.021  1.00  0.00     0.000 C 
ENDROOT
BRANCH   1   2
ATOM      2  C   UNL     1      31.666  45.325   0.741  1.00  0.00     0.000 C 
BRANCH   2   3
ATOM      3  C   UNL     1      30.157  45.374   1.035  1.00  0.00    -0.000 C 
BRANCH   3   4
ATOM      4  C   UNL     1      29.307  44.992  -0.187  1.00  0.00    -0.003 C 
ATOM      5  C   UNL     1      28.150  45.960  -0.431  1.00  0.00     0.004 C 
ENDBRANCH   3   4
ENDBRANCH   2   3
ENDBRANCH   1   2
BRANCH   1   6
ATOM      6  C   UNL     1      33.033  46.622   2.475  1.00  0.00     0.008 C 
BRANCH   6   7
ATOM      7  C   UNL     1      32.709  46.905   3.949  1.00  0.00     0.072 C 
BRANCH   7   8
ATOM      8  C   UNL     1      31.685  47.992   4.110  1.00  0.00     0.224 C 
ATOM      9  O   UNL     1      32.005  49.157   3.946  1.00  0.00    -0.303 OA
ENDBRANCH   7   8
ENDBRANCH   6   7
ENDBRANCH   1   6
TORSDOF 6
ENDMDL
MODEL 7
REMARK VINA RESULT:    -3.678     17.764     19.162
REMARK INTER + INTRA:          -5.080
REMARK INTER:                  -4.782
REMARK INTRA:                  -0.298
REMARK UNBOUND:                -0.112
REMARK SMILES CCCCCCCC=O
REMARK SMILES IDX 5 1 4 2 3 3 2 4 1 5 6 6 7 7 8 8 9 9
REMARK H PARENT
REMARK Flexibility Score: inf
ROOT
ATOM      1  C   UNL     1      17.877  44.364   0.041  1.00  0.00     0.000 C 
ENDROOT
BRANCH   1   2
ATOM      2  C   UNL     1      17.171  43.740   1.256  1.00  0.00     0.000 C 
BRANCH   2   3
ATOM      3  C   UNL     1      15.884  44.490   1.639  1.00  0.00    -0.000 C 
BRANCH   3   4
ATOM      4  C   UNL     1      15.326  45.329   0.479  1.00  0.00    -0.003 C 
ATOM      5  C   UNL     1      13.974  45.964   0.802  1.00  0.00     0.004 C 
ENDBRANCH   3   4
ENDBRANCH   2   3
ENDBRANCH   1   2
BRANCH   1   6
ATOM      6  C   UNL     1      19.377  44.607   0.286  1.00  0.00     0.008 C 
BRANCH   6   7
ATOM      7  C   UNL     1      19.905  43.804   1.482  1.00  0.00     0.072 C 
BRANCH   7   8
ATOM      8  C   UNL     1      20.984  42.835   1.089  1.00  0.00     0.224 C 
ATOM      9  O   UNL     1      20.888  42.211   0.045  1.00  0.00    -0.303 OA
ENDBRANCH   7   8
ENDBRANCH   6   7
ENDBRANCH   1   6
TORSDOF 6
ENDMDL
MODEL 8
REMARK VINA RESULT:    -3.646      3.541      6.098
REMARK INTER + INTRA:          -5.037
REMARK INTER:                  -4.898
REMARK INTRA:                  -0.139
REMARK UNBOUND:                -0.112
REMARK SMILES CCCCCCCC=O
REMARK SMILES IDX 5 1 4 2 3 3 2 4 1 5 6 6 7 7 8 8 9 9
REMARK H PARENT
REMARK Flexibility Score: inf
ROOT
ATOM      1  C   UNL     1      27.685  59.850  -9.825  1.00  0.00     0.000 C 
ENDROOT
BRANCH   1   2
ATOM      2  C   UNL     1      26.909  58.572 -10.184  1.00  0.00     0.000 C 
BRANCH   2   3
ATOM      3  C   UNL     1      25.854  58.206  -9.126  1.00  0.00    -0.000 C 
BRANCH   3   4
ATOM      4  C   UNL     1      25.377  56.750  -9.251  1.00  0.00    -0.003 C 
ATOM      5  C   UNL     1      25.616  55.935  -7.981  1.00  0.00     0.004 C 
ENDBRANCH   3   4
ENDBRANCH   2   3
ENDBRANCH   1   2
BRANCH   1   6
ATOM      6  C   UNL     1      28.804  60.169 -10.833  1.00  0.00     0.008 C 
BRANCH   6   7
ATOM      7  C   UNL     1      30.160  59.603 -10.388  1.00  0.00     0.072 C 
BRANCH   7   8
ATOM      8  C   UNL     1      30.896  58.934 -11.514  1.00  0.00     0.224 C 
ATOM      9  O   UNL     1      30.409  58.915 -12.632  1.00  0.00    -0.303 OA
ENDBRANCH   7   8
ENDBRANCH   6   7
ENDBRANCH   1   6
TORSDOF 6
ENDMDL
MODEL 9
REMARK VINA RESULT:    -3.430     16.817     18.446
REMARK INTER + INTRA:          -4.746
REMARK INTER:                  -4.391
REMARK INTRA:                  -0.355
REMARK UNBOUND:                -0.112
REMARK SMILES CCCCCCCC=O
REMARK SMILES IDX 5 1 4 2 3 3 2 4 1 5 6 6 7 7 8 8 9 9
REMARK H PARENT
REMARK Flexibility Score: inf
ROOT
ATOM      1  C   UNL     1      15.905  44.573   1.552  1.00  0.00     0.000 C 
ENDROOT
BRANCH   1   2
ATOM      2  C   UNL     1      16.986  43.779   0.802  1.00  0.00     0.000 C 
BRANCH   2   3
ATOM      3  C   UNL     1      18.348  43.817   1.516  1.00  0.00    -0.000 C 
BRANCH   3   4
ATOM      4  C   UNL     1      19.516  44.047   0.542  1.00  0.00    -0.003 C 
ATOM      5  C   UNL     1      19.339  45.302  -0.311  1.00  0.00     0.004 C 
ENDBRANCH   3   4
ENDBRANCH   2   3
ENDBRANCH   1   2
BRANCH   1   6
ATOM      6  C   UNL     1      15.036  45.428   0.613  1.00  0.00     0.008 C 
BRANCH   6   7
ATOM      7  C   UNL     1      15.705  45.651  -0.751  1.00  0.00     0.072 C 
BRANCH   7   8
ATOM      8  C   UNL     1      14.718  46.033  -1.816  1.00  0.00     0.224 C 
ATOM      9  O   UNL     1      15.097  46.195  -2.965  1.00  0.00    -0.303 OA
ENDBRANCH   7   8
ENDBRANCH   6   7
ENDBRANCH   1   6
TORSDOF 6
ENDMDL
