MODEL 1
REMARK VINA RESULT:    -4.924      0.000      0.000
REMARK INTER + INTRA:          -7.175
REMARK INTER:                  -6.940
REMARK INTRA:                  -0.236
REMARK UNBOUND:                -0.236
REMARK SMILES C=CCCCCCCC(=O)[O-]
REMARK SMILES IDX 6 1 7 2 8 3 9 4 10 5 11 6 5 7 4 8 3 9 2 10 1 11
REMARK H PARENT
REMARK Flexibility Score: inf
ROOT
ATOM      1  C   UNL     1    -143.562 101.528  33.560  1.00  0.00     0.000 C 
ENDROOT
BRANCH   1   2
ATOM      2  C   UNL     1    -143.181 100.473  32.512  1.00  0.00     0.006 C 
BRANCH   2   3
ATOM      3  C   UNL     1    -143.028  99.092  33.154  1.00  0.00     0.053 C 
BRANCH   3   4
ATOM      4  C   UNL     1    -142.017  99.136  34.256  1.00  0.00     0.041 C 
ATOM      5  O   UNL     1    -142.376  98.978  35.453  1.00  0.00    -0.550 OA
ATOM      6  O   UNL     1    -140.684  99.400  33.966  1.00  0.00    -0.550 OA
ENDBRANCH   3   4
ENDBRANCH   2   3
ENDBRANCH   1   2
BRANCH   1   7
ATOM      7  C   UNL     1    -143.029 102.913  33.165  1.00  0.00     0.000 C 
BRANCH   7   8
ATOM      8  C   UNL     1    -142.432 103.690  34.352  1.00  0.00     0.004 C 
BRANCH   8   9
ATOM      9  C   UNL     1    -142.326 105.208  34.117  1.00  0.00     0.027 C 
BRANCH   9  10
ATOM     10  C   UNL     1    -141.966 105.973  35.362  1.00  0.00    -0.035 C 
ATOM     11  C   UNL     1    -142.396 105.595  36.571  1.00  0.00     0.004 C 
ENDBRANCH   9  10
ENDBRANCH   8   9
ENDBRANCH   7   8
ENDBRANCH   1   7
TORSDOF 7
ENDMDL
MODEL 2
REMARK VINA RESULT:    -4.593     19.181     21.237
REMARK INTER + INTRA:          -6.708
REMARK INTER:                  -6.300
REMARK INTRA:                  -0.407
REMARK UNBOUND:                -0.236
REMARK SMILES C=CCCCCCCC(=O)[O-]
REMARK SMILES IDX 6 1 7 2 8 3 9 4 10 5 11 6 5 7 4 8 3 9 2 10 1 11
REMARK H PARENT
REMARK Flexibility Score: inf
ROOT
ATOM      1  C   UNL     1    -130.195 116.468  42.798  1.00  0.00     0.000 C 
ENDROOT
BRANCH   1   2
ATOM      2  C   UNL     1    -129.421 115.259  42.258  1.00  0.00     0.006 C 
BRANCH   2   3
ATOM      3  C   UNL     1    -130.169 113.955  42.545  1.00  0.00     0.053 C 
BRANCH   3   4
ATOM      4  C   UNL     1    -129.483 113.186  43.630  1.00  0.00     0.041 C 
ATOM      5  O   UNL     1    -129.019 113.784  44.636  1.00  0.00    -0.550 OA
ATOM      6  O   UNL     1    -129.313 111.812  43.507  1.00  0.00    -0.550 OA
ENDBRANCH   3   4
ENDBRANCH   2   3
ENDBRANCH   1   2
BRANCH   1   7
ATOM      7  C   UNL     1    -129.236 117.559  43.296  1.00  0.00     0.000 C 
BRANCH   7   8
ATOM      8  C   UNL     1    -129.454 117.925  44.775  1.00  0.00     0.004 C 
BRANCH   8   9
ATOM      9  C   UNL     1    -130.150 116.824  45.596  1.00  0.00     0.027 C 
BRANCH   9  10
ATOM     10  C   UNL     1    -130.912 117.363  46.777  1.00  0.00    -0.035 C 
ATOM     11  C   UNL     1    -130.898 118.663  47.091  1.00  0.00     0.004 C 
ENDBRANCH   9  10
ENDBRANCH   8   9
ENDBRANCH   7   8
ENDBRANCH   1   7
TORSDOF 7
ENDMDL
MODEL 3
REMARK VINA RESULT:    -4.515      3.010      5.514
REMARK INTER + INTRA:          -6.598
REMARK INTER:                  -6.100
REMARK INTRA:                  -0.499
REMARK UNBOUND:                -0.236
REMARK SMILES C=CCCCCCCC(=O)[O-]
REMARK SMILES IDX 6 1 7 2 8 3 9 4 10 5 11 6 5 7 4 8 3 9 2 10 1 11
REMARK H PARENT
REMARK Flexibility Score: inf
ROOT
ATOM      1  C   UNL     1    -143.631 102.318  34.855  1.00  0.00     0.000 C 
ENDROOT
BRANCH   1   2
ATOM      2  C   UNL     1    -142.402 103.080  34.340  1.00  0.00     0.006 C 
BRANCH   2   3
ATOM      3  C   UNL     1    -142.732 104.554  34.096  1.00  0.00     0.053 C 
BRANCH   3   4
ATOM      4  C   UNL     1    -142.171 105.406  35.191  1.00  0.00     0.041 C 
ATOM      5  O   UNL     1    -141.340 106.314  34.925  1.00  0.00    -0.550 OA
ATOM      6  O   UNL     1    -142.527 105.163  36.511  1.00  0.00    -0.550 OA
ENDBRANCH   3   4
ENDBRANCH   2   3
ENDBRANCH   1   2
BRANCH   1   7
ATOM      7  C   UNL     1    -143.304 100.835  35.080  1.00  0.00     0.000 C 
BRANCH   7   8
ATOM      8  C   UNL     1    -142.312 100.272  34.046  1.00  0.00     0.004 C 
BRANCH   8   9
ATOM      9  C   UNL     1    -142.966  99.389  32.968  1.00  0.00     0.027 C 
BRANCH   9  10
ATOM     10  C   UNL     1    -142.942 100.015  31.599  1.00  0.00    -0.035 C 
ATOM     11  C   UNL     1    -143.287 101.292  31.402  1.00  0.00     0.004 C 
ENDBRANCH   9  10
ENDBRANCH   8   9
ENDBRANCH   7   8
ENDBRANCH   1   7
TORSDOF 7
ENDMDL
MODEL 4
REMARK VINA RESULT:    -4.495     19.923     21.953
REMARK INTER + INTRA:          -6.570
REMARK INTER:                  -6.107
REMARK INTRA:                  -0.463
REMARK UNBOUND:                -0.236
REMARK SMILES C=CCCCCCCC(=O)[O-]
REMARK SMILES IDX 6 1 7 2 8 3 9 4 10 5 11 6 5 7 4 8 3 9 2 10 1 11
REMARK H PARENT
REMARK Flexibility Score: inf
ROOT
ATOM      1  C   UNL     1    -129.230 117.613  43.236  1.00  0.00     0.000 C 
ENDROOT
BRANCH   1   2
ATOM      2  C   UNL     1    -129.366 117.897  44.737  1.00  0.00     0.006 C 
BRANCH   2   3
ATOM      3  C   UNL     1    -129.983 116.701  45.467  1.00  0.00     0.053 C 
BRANCH   3   4
ATOM      4  C   UNL     1    -130.761 117.161  46.661  1.00  0.00     0.041 C 
ATOM      5  O   UNL     1    -131.425 116.335  47.341  1.00  0.00    -0.550 OA
ATOM      6  O   UNL     1    -130.791 118.509  46.993  1.00  0.00    -0.550 OA
ENDBRANCH   3   4
ENDBRANCH   2   3
ENDBRANCH   1   2
BRANCH   1   7
ATOM      7  C   UNL     1    -130.182 116.491  42.798  1.00  0.00     0.000 C 
BRANCH   7   8
ATOM      8  C   UNL     1    -129.453 115.299  42.152  1.00  0.00     0.004 C 
BRANCH   8   9
ATOM      9  C   UNL     1    -130.141 113.942  42.388  1.00  0.00     0.027 C 
BRANCH   9  10
ATOM     10  C   UNL     1    -129.386 113.057  43.343  1.00  0.00    -0.035 C 
ATOM     11  C   UNL     1    -129.334 113.317  44.654  1.00  0.00     0.004 C 
ENDBRANCH   9  10
ENDBRANCH   8   9
ENDBRANCH   7   8
ENDBRANCH   1   7
TORSDOF 7
ENDMDL
MODEL 5
REMARK VINA RESULT:    -4.408     19.217     21.322
REMARK INTER + INTRA:          -6.447
REMARK INTER:                  -6.203
REMARK INTRA:                  -0.244
REMARK UNBOUND:                -0.236
REMARK SMILES C=CCCCCCCC(=O)[O-]
REMARK SMILES IDX 6 1 7 2 8 3 9 4 10 5 11 6 5 7 4 8 3 9 2 10 1 11
REMARK H PARENT
REMARK Flexibility Score: inf
ROOT
ATOM      1  C   UNL     1    -129.795 117.141  43.571  1.00  0.00     0.000 C 
ENDROOT
BRANCH   1   2
ATOM      2  C   UNL     1    -129.687 115.868  42.723  1.00  0.00     0.006 C 
BRANCH   2   3
ATOM      3  C   UNL     1    -129.391 114.648  43.599  1.00  0.00     0.053 C 
BRANCH   3   4
ATOM      4  C   UNL     1    -129.755 113.386  42.881  1.00  0.00     0.041 C 
ATOM      5  O   UNL     1    -130.423 113.433  41.815  1.00  0.00    -0.550 OA
ATOM      6  O   UNL     1    -129.399 112.155  43.417  1.00  0.00    -0.550 OA
ENDBRANCH   3   4
ENDBRANCH   2   3
ENDBRANCH   1   2
BRANCH   1   7
ATOM      7  C   UNL     1    -129.738 116.811  45.070  1.00  0.00     0.000 C 
BRANCH   7   8
ATOM      8  C   UNL     1    -130.231 117.966  45.961  1.00  0.00     0.004 C 
BRANCH   8   9
ATOM      9  C   UNL     1    -131.413 117.592  46.874  1.00  0.00     0.027 C 
BRANCH   9  10
ATOM     10  C   UNL     1    -132.195 118.789  47.344  1.00  0.00    -0.035 C 
ATOM     11  C   UNL     1    -133.531 118.779  47.409  1.00  0.00     0.004 C 
ENDBRANCH   9  10
ENDBRANCH   8   9
ENDBRANCH   7   8
ENDBRANCH   1   7
TORSDOF 7
ENDMDL
MODEL 6
REMARK VINA RESULT:    -4.398     14.319     16.056
REMARK INTER + INTRA:          -6.433
REMARK INTER:                  -6.077
REMARK INTRA:                  -0.356
REMARK UNBOUND:                -0.236
REMARK SMILES C=CCCCCCCC(=O)[O-]
REMARK SMILES IDX 6 1 7 2 8 3 9 4 10 5 11 6 5 7 4 8 3 9 2 10 1 11
REMARK H PARENT
REMARK Flexibility Score: inf
ROOT
ATOM      1  C   UNL     1    -127.875 106.794  41.747  1.00  0.00     0.000 C 
ENDROOT
BRANCH   1   2
ATOM      2  C   UNL     1    -129.193 106.293  41.141  1.00  0.00     0.006 C 
BRANCH   2   3
ATOM      3  C   UNL     1    -128.932 105.328  39.982  1.00  0.00     0.053 C 
BRANCH   3   4
ATOM      4  C   UNL     1    -129.683 105.758  38.762  1.00  0.00     0.041 C 
ATOM      5  O   UNL     1    -129.701 105.027  37.737  1.00  0.00    -0.550 OA
ATOM      6  O   UNL     1    -130.323 106.991  38.739  1.00  0.00    -0.550 OA
ENDBRANCH   3   4
ENDBRANCH   2   3
ENDBRANCH   1   2
BRANCH   1   7
ATOM      7  C   UNL     1    -128.007 108.248  42.226  1.00  0.00     0.000 C 
BRANCH   7   8
ATOM      8  C   UNL     1    -129.469 108.716  42.336  1.00  0.00     0.004 C 
BRANCH   8   9
ATOM      9  C   UNL     1    -129.818 109.367  43.687  1.00  0.00     0.027 C 
BRANCH   9  10
ATOM     10  C   UNL     1    -130.806 108.563  44.489  1.00  0.00    -0.035 C 
ATOM     11  C   UNL     1    -130.910 108.693  45.816  1.00  0.00     0.004 C 
ENDBRANCH   9  10
ENDBRANCH   8   9
ENDBRANCH   7   8
ENDBRANCH   1   7
TORSDOF 7
ENDMDL
MODEL 7
REMARK VINA RESULT:    -4.368     13.361     15.120
REMARK INTER + INTRA:          -6.391
REMARK INTER:                  -5.733
REMARK INTRA:                  -0.658
REMARK UNBOUND:                -0.236
REMARK SMILES C=CCCCCCCC(=O)[O-]
REMARK SMILES IDX 6 1 7 2 8 3 9 4 10 5 11 6 5 7 4 8 3 9 2 10 1 11
REMARK H PARENT
REMARK Flexibility Score: inf
ROOT
ATOM      1  C   UNL     1    -129.390 107.527  42.100  1.00  0.00     0.000 C 
ENDROOT
BRANCH   1   2
ATOM      2  C   UNL     1    -128.661 106.774  40.979  1.00  0.00     0.006 C 
BRANCH   2   3
ATOM      3  C   UNL     1    -129.441 105.526  40.559  1.00  0.00     0.053 C 
BRANCH   3   4
ATOM      4  C   UNL     1    -129.412 105.367  39.071  1.00  0.00     0.041 C 
ATOM      5  O   UNL     1    -129.249 106.370  38.329  1.00  0.00    -0.550 OA
ATOM      6  O   UNL     1    -129.617 104.116  38.503  1.00  0.00    -0.550 OA
ENDBRANCH   3   4
ENDBRANCH   2   3
ENDBRANCH   1   2
BRANCH   1   7
ATOM      7  C   UNL     1    -129.777 108.944  41.650  1.00  0.00     0.000 C 
BRANCH   7   8
ATOM      8  C   UNL     1    -129.251 109.295  40.247  1.00  0.00     0.004 C 
BRANCH   8   9
ATOM      9  C   UNL     1    -130.221 110.150  39.411  1.00  0.00     0.027 C 
BRANCH   9  10
ATOM     10  C   UNL     1    -131.626 109.611  39.406  1.00  0.00    -0.035 C 
ATOM     11  C   UNL     1    -132.000 108.621  38.588  1.00  0.00     0.004 C 
ENDBRANCH   9  10
ENDBRANCH   8   9
ENDBRANCH   7   8
ENDBRANCH   1   7
TORSDOF 7
ENDMDL
MODEL 8
REMARK VINA RESULT:    -4.325     14.195     15.660
REMARK INTER + INTRA:          -6.331
REMARK INTER:                  -6.066
REMARK INTRA:                  -0.265
REMARK UNBOUND:                -0.236
REMARK SMILES C=CCCCCCCC(=O)[O-]
REMARK SMILES IDX 6 1 7 2 8 3 9 4 10 5 11 6 5 7 4 8 3 9 2 10 1 11
REMARK H PARENT
REMARK Flexibility Score: inf
ROOT
ATOM      1  C   UNL     1    -129.654 108.560  40.760  1.00  0.00     0.000 C 
ENDROOT
BRANCH   1   2
ATOM      2  C   UNL     1    -129.337 107.085  40.486  1.00  0.00     0.006 C 
BRANCH   2   3
ATOM      3  C   UNL     1    -129.790 106.677  39.082  1.00  0.00     0.053 C 
BRANCH   3   4
ATOM      4  C   UNL     1    -129.640 105.200  38.891  1.00  0.00     0.041 C 
ATOM      5  O   UNL     1    -129.797 104.689  37.751  1.00  0.00    -0.550 OA
ATOM      6  O   UNL     1    -129.377 104.382  39.983  1.00  0.00    -0.550 OA
ENDBRANCH   3   4
ENDBRANCH   2   3
ENDBRANCH   1   2
BRANCH   1   7
ATOM      7  C   UNL     1    -129.955 109.311  39.454  1.00  0.00     0.000 C 
BRANCH   7   8
ATOM      8  C   UNL     1    -129.352 110.727  39.420  1.00  0.00     0.004 C 
BRANCH   8   9
ATOM      9  C   UNL     1    -128.225 110.903  38.386  1.00  0.00     0.027 C 
BRANCH   9  10
ATOM     10  C   UNL     1    -127.967 112.344  38.036  1.00  0.00    -0.035 C 
ATOM     11  C   UNL     1    -128.417 112.885  36.899  1.00  0.00     0.004 C 
ENDBRANCH   9  10
ENDBRANCH   8   9
ENDBRANCH   7   8
ENDBRANCH   1   7
TORSDOF 7
ENDMDL
MODEL 9
REMARK VINA RESULT:    -4.277     14.432     15.725
REMARK INTER + INTRA:          -6.263
REMARK INTER:                  -5.957
REMARK INTRA:                  -0.306
REMARK UNBOUND:                -0.236
REMARK SMILES C=CCCCCCCC(=O)[O-]
REMARK SMILES IDX 6 1 7 2 8 3 9 4 10 5 11 6 5 7 4 8 3 9 2 10 1 11
REMARK H PARENT
REMARK Flexibility Score: inf
ROOT
ATOM      1  C   UNL     1    -129.435 107.493  41.746  1.00  0.00     0.000 C 
ENDROOT
BRANCH   1   2
ATOM      2  C   UNL     1    -128.665 106.397  40.999  1.00  0.00     0.006 C 
BRANCH   2   3
ATOM      3  C   UNL     1    -129.606 105.283  40.534  1.00  0.00     0.053 C 
BRANCH   3   4
ATOM      4  C   UNL     1    -129.428 105.023  39.071  1.00  0.00     0.041 C 
ATOM      5  O   UNL     1    -129.435 103.843  38.632  1.00  0.00    -0.550 OA
ATOM      6  O   UNL     1    -129.205 106.081  38.199  1.00  0.00    -0.550 OA
ENDBRANCH   3   4
ENDBRANCH   2   3
ENDBRANCH   1   2
BRANCH   1   7
ATOM      7  C   UNL     1    -129.041 108.888  41.237  1.00  0.00     0.000 C 
BRANCH   7   8
ATOM      8  C   UNL     1    -129.586 109.192  39.830  1.00  0.00     0.004 C 
BRANCH   8   9
ATOM      9  C   UNL     1    -129.490 110.676  39.429  1.00  0.00     0.027 C 
BRANCH   9  10
ATOM     10  C   UNL     1    -128.371 110.952  38.461  1.00  0.00    -0.035 C 
ATOM     11  C   UNL     1    -128.068 112.194  38.069  1.00  0.00     0.004 C 
ENDBRANCH   9  10
ENDBRANCH   8   9
ENDBRANCH   7   8
ENDBRANCH   1   7
TORSDOF 7
ENDMDL
