MODEL 1
REMARK VINA RESULT:    -3.085      0.000      0.000
REMARK INTER + INTRA:          -3.176
REMARK INTER:                  -3.176
REMARK INTRA:                   0.000
REMARK UNBOUND:                 0.000
REMARK SMILES CC1(C)[C@@H]2CC[C@@](C)(C2)[C@@H]1O
REMARK SMILES IDX 1 1 2 2 4 3 5 4 6 5 7 6 9 7 10 8 8 9 3 10 11 11
REMARK H PARENT 11 12
REMARK Flexibility Score: inf
ROOT
ATOM      1  C   UNL     1     132.842 145.012 139.064  1.00  0.00     0.014 C 
ATOM      2  C   UNL     1     131.736 146.075 139.292  1.00  0.00    -0.006 C 
ATOM      3  C   UNL     1     130.717 145.695 140.423  1.00  0.00    -0.002 C 
ATOM      4  C   UNL     1     130.187 144.255 140.246  1.00  0.00     0.005 C 
ATOM      5  C   UNL     1     129.304 144.367 138.993  1.00  0.00     0.010 C 
ATOM      6  C   UNL     1     129.384 145.875 138.646  1.00  0.00    -0.006 C 
ATOM      7  C   UNL     1     129.471 146.479 140.033  1.00  0.00     0.013 C 
ATOM      8  C   UNL     1     130.774 146.281 138.072  1.00  0.00     0.126 C 
ATOM      9  C   UNL     1     128.199 146.384 137.819  1.00  0.00     0.014 C 
ATOM     10  C   UNL     1     132.453 147.399 139.656  1.00  0.00     0.014 C 
ENDROOT
BRANCH   8  11
ATOM     11  O   UNL     1     131.144 145.620 136.882  1.00  0.00    -0.392 OA
ATOM     12  H   UNL     1     132.020 145.950 136.574  1.00  0.00     0.211 HD
ENDBRANCH   8  11
TORSDOF 1
ENDMDL
MODEL 2
REMARK VINA RESULT:    -2.711      0.974      3.367
REMARK INTER + INTRA:          -2.791
REMARK INTER:                  -2.791
REMARK INTRA:                   0.000
REMARK UNBOUND:                 0.000
REMARK SMILES CC1(C)[C@@H]2CC[C@@](C)(C2)[C@@H]1O
REMARK SMILES IDX 1 1 2 2 4 3 5 4 6 5 7 6 9 7 10 8 8 9 3 10 11 11
REMARK H PARENT 11 12
REMARK Flexibility Score: inf
ROOT
ATOM      1  C   UNL     1     129.051 146.187 138.154  1.00  0.00     0.014 C 
ATOM      2  C   UNL     1     129.872 145.162 138.980  1.00  0.00    -0.006 C 
ATOM      3  C   UNL     1     130.415 145.733 140.336  1.00  0.00    -0.002 C 
ATOM      4  C   UNL     1     131.117 147.093 140.137  1.00  0.00     0.005 C 
ATOM      5  C   UNL     1     132.395 146.711 139.373  1.00  0.00     0.010 C 
ATOM      6  C   UNL     1     132.299 145.167 139.289  1.00  0.00    -0.006 C 
ATOM      7  C   UNL     1     131.628 144.854 140.611  1.00  0.00     0.013 C 
ATOM      8  C   UNL     1     131.199 144.692 138.293  1.00  0.00     0.126 C 
ATOM      9  C   UNL     1     133.651 144.472 139.097  1.00  0.00     0.014 C 
ATOM     10  C   UNL     1     128.938 143.956 139.254  1.00  0.00     0.014 C 
ENDROOT
BRANCH   8  11
ATOM     11  O   UNL     1     131.382 145.112 136.959  1.00  0.00    -0.392 OA
ATOM     12  H   UNL     1     130.511 145.147 136.497  1.00  0.00     0.211 HD
ENDBRANCH   8  11
TORSDOF 1
ENDMDL
MODEL 3
REMARK VINA RESULT:    -2.672      1.553      2.535
REMARK INTER + INTRA:          -2.750
REMARK INTER:                  -2.750
REMARK INTRA:                   0.000
REMARK UNBOUND:                 0.000
REMARK SMILES CC1(C)[C@@H]2CC[C@@](C)(C2)[C@@H]1O
REMARK SMILES IDX 1 1 2 2 4 3 5 4 6 5 7 6 9 7 10 8 8 9 3 10 11 11
REMARK H PARENT 11 12
REMARK Flexibility Score: inf
ROOT
ATOM      1  C   UNL     1     132.501 143.961 140.215  1.00  0.00     0.014 C 
ATOM      2  C   UNL     1     131.837 144.462 138.905  1.00  0.00    -0.006 C 
ATOM      3  C   UNL     1     131.990 146.006 138.670  1.00  0.00    -0.002 C 
ATOM      4  C   UNL     1     131.598 146.811 139.927  1.00  0.00     0.005 C 
ATOM      5  C   UNL     1     130.076 146.610 140.002  1.00  0.00     0.010 C 
ATOM      6  C   UNL     1     129.775 145.768 138.738  1.00  0.00    -0.006 C 
ATOM      7  C   UNL     1     130.801 146.330 137.775  1.00  0.00     0.013 C 
ATOM      8  C   UNL     1     130.280 144.300 138.865  1.00  0.00     0.126 C 
ATOM      9  C   UNL     1     128.329 145.886 138.245  1.00  0.00     0.014 C 
ATOM     10  C   UNL     1     132.501 143.686 137.740  1.00  0.00     0.014 C 
ENDROOT
BRANCH   8  11
ATOM     11  O   UNL     1     129.712 143.565 139.927  1.00  0.00    -0.392 OA
ATOM     12  H   UNL     1     128.903 144.022 140.256  1.00  0.00     0.211 HD
ENDBRANCH   8  11
TORSDOF 1
ENDMDL
MODEL 4
REMARK VINA RESULT:    -2.641     10.886     12.753
REMARK INTER + INTRA:          -2.719
REMARK INTER:                  -2.719
REMARK INTRA:                   0.000
REMARK UNBOUND:                 0.000
REMARK SMILES CC1(C)[C@@H]2CC[C@@](C)(C2)[C@@H]1O
REMARK SMILES IDX 1 1 2 2 4 3 5 4 6 5 7 6 9 7 10 8 8 9 3 10 11 11
REMARK H PARENT 11 12
REMARK Flexibility Score: inf
ROOT
ATOM      1  C   UNL     1     141.207 144.816 140.304  1.00  0.00     0.014 C 
ATOM      2  C   UNL     1     142.529 144.766 139.495  1.00  0.00    -0.006 C 
ATOM      3  C   UNL     1     143.721 145.519 140.184  1.00  0.00    -0.002 C 
ATOM      4  C   UNL     1     143.308 146.936 140.638  1.00  0.00     0.005 C 
ATOM      5  C   UNL     1     143.134 147.685 139.306  1.00  0.00     0.010 C 
ATOM      6  C   UNL     1     143.535 146.620 138.255  1.00  0.00    -0.006 C 
ATOM      7  C   UNL     1     144.620 145.876 139.008  1.00  0.00     0.013 C 
ATOM      8  C   UNL     1     142.468 145.495 138.110  1.00  0.00     0.126 C 
ATOM      9  C   UNL     1     143.998 147.212 136.920  1.00  0.00     0.014 C 
ATOM     10  C   UNL     1     142.889 143.270 139.314  1.00  0.00     0.014 C 
ENDROOT
BRANCH   8  11
ATOM     11  O   UNL     1     141.191 145.934 137.704  1.00  0.00    -0.392 OA
ATOM     12  H   UNL     1     140.892 145.416 136.920  1.00  0.00     0.211 HD
ENDBRANCH   8  11
TORSDOF 1
ENDMDL
MODEL 5
REMARK VINA RESULT:    -2.622      1.522      3.378
REMARK INTER + INTRA:          -2.699
REMARK INTER:                  -2.699
REMARK INTRA:                   0.000
REMARK UNBOUND:                 0.000
REMARK SMILES CC1(C)[C@@H]2CC[C@@](C)(C2)[C@@H]1O
REMARK SMILES IDX 1 1 2 2 4 3 5 4 6 5 7 6 9 7 10 8 8 9 3 10 11 11
REMARK H PARENT 11 12
REMARK Flexibility Score: inf
ROOT
ATOM      1  C   UNL     1     128.290 146.245 138.033  1.00  0.00     0.014 C 
ATOM      2  C   UNL     1     129.085 145.756 139.272  1.00  0.00    -0.006 C 
ATOM      3  C   UNL     1     130.518 146.384 139.392  1.00  0.00    -0.002 C 
ATOM      4  C   UNL     1     131.293 146.283 138.061  1.00  0.00     0.005 C 
ATOM      5  C   UNL     1     131.572 144.776 137.941  1.00  0.00     0.010 C 
ATOM      6  C   UNL     1     130.979 144.208 139.255  1.00  0.00    -0.006 C 
ATOM      7  C   UNL     1     131.274 145.347 140.211  1.00  0.00     0.013 C 
ATOM      8  C   UNL     1     129.422 144.227 139.263  1.00  0.00     0.126 C 
ATOM      9  C   UNL     1     131.586 142.867 139.679  1.00  0.00     0.014 C 
ATOM     10  C   UNL     1     128.244 146.126 140.520  1.00  0.00     0.014 C 
ENDROOT
BRANCH   8  11
ATOM     11  O   UNL     1     128.812 143.471 138.240  1.00  0.00    -0.392 OA
ATOM     12  H   UNL     1     129.502 143.004 137.712  1.00  0.00     0.211 HD
ENDBRANCH   8  11
TORSDOF 1
ENDMDL
MODEL 6
REMARK VINA RESULT:    -2.614      1.725      3.018
REMARK INTER + INTRA:          -2.691
REMARK INTER:                  -2.691
REMARK INTRA:                   0.000
REMARK UNBOUND:                 0.000
REMARK SMILES CC1(C)[C@@H]2CC[C@@](C)(C2)[C@@H]1O
REMARK SMILES IDX 1 1 2 2 4 3 5 4 6 5 7 6 9 7 10 8 8 9 3 10 11 11
REMARK H PARENT 11 12
REMARK Flexibility Score: inf
ROOT
ATOM      1  C   UNL     1     130.926 146.211 137.183  1.00  0.00     0.014 C 
ATOM      2  C   UNL     1     131.152 145.616 138.598  1.00  0.00    -0.006 C 
ATOM      3  C   UNL     1     132.425 144.705 138.705  1.00  0.00    -0.002 C 
ATOM      4  C   UNL     1     132.474 143.665 137.565  1.00  0.00     0.005 C 
ATOM      5  C   UNL     1     131.322 142.712 137.920  1.00  0.00     0.010 C 
ATOM      6  C   UNL     1     130.797 143.287 139.259  1.00  0.00    -0.006 C 
ATOM      7  C   UNL     1     132.087 143.789 139.875  1.00  0.00     0.013 C 
ATOM      8  C   UNL     1     130.030 144.629 139.071  1.00  0.00     0.126 C 
ATOM      9  C   UNL     1     130.053 142.263 140.123  1.00  0.00     0.014 C 
ATOM     10  C   UNL     1     131.279 146.812 139.574  1.00  0.00     0.014 C 
ENDROOT
BRANCH   8  11
ATOM     11  O   UNL     1     128.891 144.554 138.244  1.00  0.00    -0.392 OA
ATOM     12  H   UNL     1     129.147 144.711 137.305  1.00  0.00     0.211 HD
ENDBRANCH   8  11
TORSDOF 1
ENDMDL
MODEL 7
REMARK VINA RESULT:    -2.564      9.398     11.425
REMARK INTER + INTRA:          -2.638
REMARK INTER:                  -2.638
REMARK INTRA:                   0.000
REMARK UNBOUND:                 0.000
REMARK SMILES CC1(C)[C@@H]2CC[C@@](C)(C2)[C@@H]1O
REMARK SMILES IDX 1 1 2 2 4 3 5 4 6 5 7 6 9 7 10 8 8 9 3 10 11 11
REMARK H PARENT 11 12
REMARK Flexibility Score: inf
ROOT
ATOM      1  C   UNL     1     143.650 146.696 137.404  1.00  0.00     0.014 C 
ATOM      2  C   UNL     1     143.040 146.289 138.771  1.00  0.00    -0.006 C 
ATOM      3  C   UNL     1     142.589 144.788 138.841  1.00  0.00    -0.002 C 
ATOM      4  C   UNL     1     141.727 144.399 137.620  1.00  0.00     0.005 C 
ATOM      5  C   UNL     1     140.423 145.174 137.861  1.00  0.00     0.010 C 
ATOM      6  C   UNL     1     140.674 145.861 139.227  1.00  0.00    -0.006 C 
ATOM      7  C   UNL     1     141.515 144.807 139.920  1.00  0.00     0.013 C 
ATOM      8  C   UNL     1     141.704 147.025 139.127  1.00  0.00     0.126 C 
ATOM      9  C   UNL     1     139.392 146.228 139.980  1.00  0.00     0.014 C 
ATOM     10  C   UNL     1     144.122 146.563 139.845  1.00  0.00     0.014 C 
ENDROOT
BRANCH   8  11
ATOM     11  O   UNL     1     141.333 148.076 138.263  1.00  0.00    -0.392 OA
ATOM     12  H   UNL     1     141.113 148.881 138.789  1.00  0.00     0.211 HD
ENDBRANCH   8  11
TORSDOF 1
ENDMDL
MODEL 8
REMARK VINA RESULT:    -2.563      1.660      2.746
REMARK INTER + INTRA:          -2.638
REMARK INTER:                  -2.638
REMARK INTRA:                   0.000
REMARK UNBOUND:                 0.000
REMARK SMILES CC1(C)[C@@H]2CC[C@@](C)(C2)[C@@H]1O
REMARK SMILES IDX 1 1 2 2 4 3 5 4 6 5 7 6 9 7 10 8 8 9 3 10 11 11
REMARK H PARENT 11 12
REMARK Flexibility Score: inf
ROOT
ATOM      1  C   UNL     1     132.656 147.374 139.645  1.00  0.00     0.014 C 
ATOM      2  C   UNL     1     132.245 145.878 139.603  1.00  0.00    -0.006 C 
ATOM      3  C   UNL     1     131.782 145.389 138.186  1.00  0.00    -0.002 C 
ATOM      4  C   UNL     1     130.743 146.350 137.568  1.00  0.00     0.005 C 
ATOM      5  C   UNL     1     129.502 146.124 138.447  1.00  0.00     0.010 C 
ATOM      6  C   UNL     1     129.965 145.011 139.420  1.00  0.00    -0.006 C 
ATOM      7  C   UNL     1     130.878 144.208 138.515  1.00  0.00     0.013 C 
ATOM      8  C   UNL     1     130.990 145.527 140.472  1.00  0.00     0.126 C 
ATOM      9  C   UNL     1     128.814 144.198 140.022  1.00  0.00     0.014 C 
ATOM     10  C   UNL     1     133.478 145.060 140.063  1.00  0.00     0.014 C 
ENDROOT
BRANCH   8  11
ATOM     11  O   UNL     1     130.516 146.559 141.309  1.00  0.00    -0.392 OA
ATOM     12  H   UNL     1     130.131 147.284 140.763  1.00  0.00     0.211 HD
ENDBRANCH   8  11
TORSDOF 1
ENDMDL
MODEL 9
REMARK VINA RESULT:    -2.524      1.556      3.058
REMARK INTER + INTRA:          -2.597
REMARK INTER:                  -2.597
REMARK INTRA:                   0.000
REMARK UNBOUND:                 0.000
REMARK SMILES CC1(C)[C@@H]2CC[C@@](C)(C2)[C@@H]1O
REMARK SMILES IDX 1 1 2 2 4 3 5 4 6 5 7 6 9 7 10 8 8 9 3 10 11 11
REMARK H PARENT 11 12
REMARK Flexibility Score: inf
ROOT
ATOM      1  C   UNL     1     130.877 146.329 137.497  1.00  0.00     0.014 C 
ATOM      2  C   UNL     1     131.378 145.591 138.766  1.00  0.00    -0.006 C 
ATOM      3  C   UNL     1     130.224 145.001 139.650  1.00  0.00    -0.002 C 
ATOM      4  C   UNL     1     129.124 146.050 139.919  1.00  0.00     0.005 C 
ATOM      5  C   UNL     1     129.822 147.045 140.860  1.00  0.00     0.010 C 
ATOM      6  C   UNL     1     131.217 146.405 141.068  1.00  0.00    -0.006 C 
ATOM      7  C   UNL     1     130.860 144.933 141.033  1.00  0.00     0.013 C 
ATOM      8  C   UNL     1     132.115 146.509 139.800  1.00  0.00     0.126 C 
ATOM      9  C   UNL     1     131.914 146.845 142.359  1.00  0.00     0.014 C 
ATOM     10  C   UNL     1     132.307 144.449 138.285  1.00  0.00     0.014 C 
ENDROOT
BRANCH   8  11
ATOM     11  O   UNL     1     132.386 147.824 139.368  1.00  0.00    -0.392 OA
ATOM     12  H   UNL     1     131.715 148.444 139.739  1.00  0.00     0.211 HD
ENDBRANCH   8  11
TORSDOF 1
ENDMDL
