MODEL 1
REMARK VINA RESULT:    27.985      0.000      0.000
REMARK INTER + INTRA:          32.692
REMARK INTER:                  32.893
REMARK INTRA:                  -0.201
REMARK UNBOUND:                -0.201
REMARK SMILES C=C(C)[C@@H]1CC[C@]2(C(=O)[O-])CC[C@]3(C)[C@@H](CC[C@H]4[C@]5(C)C[C@@H](O)[C@@H](O)C(C)(C)[C@@H]5CC[C@]43C)[C@H]12
REMARK SMILES IDX 7 1 6 2 34 3 11 4 5 5 15 6 4 7 12 8 16 9 13 10 17 11 32 12
REMARK SMILES IDX 14 13 18 14 31 15 33 16 19 17 30 18 29 19 21 20 20 21 26 22
REMARK SMILES IDX 22 23 24 24 27 25 28 26 8 27 9 28 10 29 2 30 3 31 1 32 23 33
REMARK SMILES IDX 25 35
REMARK H PARENT 23 34 25 36
REMARK Flexibility Score: inf
ROOT
ATOM      1  C   UNL     1      20.008  53.410  54.727  1.00  0.00     0.014 C 
ATOM      2  C   UNL     1      20.006  54.066  56.117  1.00  0.00     0.014 C 
ATOM      3  C   UNL     1      21.249  53.987  53.968  1.00  0.00     0.012 C 
ATOM      4  C   UNL     1      20.115  51.879  54.847  1.00  0.00     0.014 C 
ATOM      5  C   UNL     1      20.716  55.394  55.945  1.00  0.00     0.009 C 
ATOM      6  C   UNL     1      22.332  52.926  53.498  1.00  0.00     0.000 C 
ATOM      7  C   UNL     1      21.772  55.172  54.857  1.00  0.00     0.018 C 
ATOM      8  C   UNL     1      20.362  51.280  53.460  1.00  0.00     0.008 C 
ATOM      9  C   UNL     1      23.343  53.574  52.565  1.00  0.00     0.005 C 
ATOM     10  C   UNL     1      21.806  51.549  52.884  1.00  0.00    -0.024 C 
ATOM     11  C   UNL     1      22.745  53.898  51.200  1.00  0.00     0.005 C 
ATOM     12  C   UNL     1      21.838  51.462  51.237  1.00  0.00    -0.024 C 
ATOM     13  C   UNL     1      22.706  50.413  53.469  1.00  0.00     0.012 C 
ATOM     14  C   UNL     1      21.664  52.906  50.606  1.00  0.00     0.002 C 
ATOM     15  C   UNL     1      23.172  50.909  50.636  1.00  0.00     0.008 C 
ATOM     16  C   UNL     1      20.730  50.434  50.806  1.00  0.00     0.012 C 
ATOM     17  C   UNL     1      21.677  53.029  48.996  1.00  0.00    -0.023 C 
ATOM     18  C   UNL     1      23.241  50.931  49.093  1.00  0.00     0.005 C 
ATOM     19  C   UNL     1      22.961  52.305  48.401  1.00  0.00     0.004 C 
ATOM     20  C   UNL     1      20.362  52.481  48.340  1.00  0.00     0.042 C 
ATOM     21  C   UNL     1      21.690  54.566  48.670  1.00  0.00     0.012 C 
ATOM     22  C   UNL     1      22.983  52.174  46.811  1.00  0.00    -0.003 C 
ATOM     23  C   UNL     1      20.372  52.317  46.800  1.00  0.00     0.144 C 
ATOM     24  C   UNL     1      21.630  51.592  46.285  1.00  0.00     0.149 C 
ATOM     25  C   UNL     1      24.124  51.217  46.352  1.00  0.00     0.014 C 
ATOM     26  C   UNL     1      23.320  53.534  46.132  1.00  0.00     0.014 C 
ENDROOT
BRANCH   1  27
ATOM     27  C   UNL     1      18.698  53.809  54.038  1.00  0.00     0.048 C 
ATOM     28  O   UNL     1      18.714  54.479  52.970  1.00  0.00    -0.550 OA
ATOM     29  O   UNL     1      17.470  53.537  54.632  1.00  0.00    -0.550 OA
ENDBRANCH   1  27
BRANCH   7  30
ATOM     30  C   UNL     1      23.169  55.055  55.486  1.00  0.00    -0.077 C 
ATOM     31  C   UNL     1      23.676  53.707  55.936  1.00  0.00     0.039 C 
ATOM     32  C   UNL     1      24.012  56.100  55.567  1.00  0.00     0.008 C 
ENDBRANCH   7  30
BRANCH  23  33
ATOM     33  O   UNL     1      20.176  53.534  46.129  1.00  0.00    -0.390 OA
ATOM     34  H   UNL     1      19.446  53.389  45.471  1.00  0.00     0.211 HD
ENDBRANCH  23  33
BRANCH  24  35
ATOM     35  O   UNL     1      21.601  51.590  44.877  1.00  0.00    -0.390 OA
ATOM     36  H   UNL     1      22.094  50.784  44.570  1.00  0.00     0.211 HD
ENDBRANCH  24  35
TORSDOF 4
ENDMDL
