MODEL 1
REMARK VINA RESULT:    -3.545      0.000      0.000
REMARK INTER + INTRA:          -3.774
REMARK INTER:                  -3.752
REMARK INTRA:                  -0.021
REMARK UNBOUND:                -0.021
REMARK SMILES O=C([O-])c1cccnc1
REMARK SMILES IDX 4 1 5 2 9 3 6 4 8 5 7 6 2 7 1 8 3 9
REMARK H PARENT
REMARK Flexibility Score: inf
ROOT
ATOM      1  C   UNL     1      16.805  44.626   0.795  1.00  0.00     0.016 A 
ATOM      2  C   UNL     1      15.824  44.563   1.800  1.00  0.00     0.013 A 
ATOM      3  C   UNL     1      16.489  45.279  -0.408  1.00  0.00     0.120 A 
ATOM      4  C   UNL     1      14.571  45.141   1.591  1.00  0.00     0.021 A 
ATOM      5  N   UNL     1      15.259  45.834  -0.585  1.00  0.00    -0.264 NA
ATOM      6  C   UNL     1      14.304  45.778   0.380  1.00  0.00     0.111 A 
ENDROOT
BRANCH   1   7
ATOM      7  C   UNL     1      18.140  44.020   0.995  1.00  0.00     0.073 C 
ATOM      8  O   UNL     1      18.779  43.543   0.019  1.00  0.00    -0.545 OA
ATOM      9  O   UNL     1      18.706  43.967   2.263  1.00  0.00    -0.545 OA
ENDBRANCH   1   7
TORSDOF 1
ENDMDL
MODEL 2
REMARK VINA RESULT:    -3.471      0.910      1.929
REMARK INTER + INTRA:          -3.695
REMARK INTER:                  -3.674
REMARK INTRA:                  -0.021
REMARK UNBOUND:                -0.021
REMARK SMILES O=C([O-])c1cccnc1
REMARK SMILES IDX 4 1 5 2 9 3 6 4 8 5 7 6 2 7 1 8 3 9
REMARK H PARENT
REMARK Flexibility Score: inf
ROOT
ATOM      1  C   UNL     1      16.838  44.600   0.830  1.00  0.00     0.016 A 
ATOM      2  C   UNL     1      16.570  45.254  -0.385  1.00  0.00     0.013 A 
ATOM      3  C   UNL     1      15.823  44.549   1.800  1.00  0.00     0.120 A 
ATOM      4  C   UNL     1      15.319  45.833  -0.607  1.00  0.00     0.021 A 
ATOM      5  N   UNL     1      14.613  45.121   1.558  1.00  0.00    -0.264 NA
ATOM      6  C   UNL     1      14.343  45.756   0.387  1.00  0.00     0.111 A 
ENDROOT
BRANCH   1   7
ATOM      7  C   UNL     1      18.157  43.980   1.086  1.00  0.00     0.073 C 
ATOM      8  O   UNL     1      18.639  43.960   2.249  1.00  0.00    -0.545 OA
ATOM      9  O   UNL     1      18.882  43.413   0.044  1.00  0.00    -0.545 OA
ENDBRANCH   1   7
TORSDOF 1
ENDMDL
MODEL 3
REMARK VINA RESULT:    -3.418     23.564     24.297
REMARK INTER + INTRA:          -3.639
REMARK INTER:                  -3.621
REMARK INTRA:                  -0.017
REMARK UNBOUND:                -0.021
REMARK SMILES O=C([O-])c1cccnc1
REMARK SMILES IDX 4 1 5 2 9 3 6 4 8 5 7 6 2 7 1 8 3 9
REMARK H PARENT
REMARK Flexibility Score: inf
ROOT
ATOM      1  C   UNL     1      31.429  58.445 -12.668  1.00  0.00     0.016 A 
ATOM      2  C   UNL     1      30.093  58.874 -12.602  1.00  0.00     0.013 A 
ATOM      3  C   UNL     1      32.258  58.663 -11.555  1.00  0.00     0.120 A 
ATOM      4  C   UNL     1      29.616  59.501 -11.449  1.00  0.00     0.021 A 
ATOM      5  N   UNL     1      31.768  59.277 -10.445  1.00  0.00    -0.264 NA
ATOM      6  C   UNL     1      30.477  59.696 -10.370  1.00  0.00     0.111 A 
ENDROOT
BRANCH   1   7
ATOM      7  C   UNL     1      31.955  57.778 -13.880  1.00  0.00     0.073 C 
ATOM      8  O   UNL     1      31.502  56.660 -14.243  1.00  0.00    -0.545 OA
ATOM      9  O   UNL     1      32.957  58.377 -14.634  1.00  0.00    -0.545 OA
ENDBRANCH   1   7
TORSDOF 1
ENDMDL
MODEL 4
REMARK VINA RESULT:    -3.355     23.315     24.095
REMARK INTER + INTRA:          -3.572
REMARK INTER:                  -3.551
REMARK INTRA:                  -0.021
REMARK UNBOUND:                -0.021
REMARK SMILES O=C([O-])c1cccnc1
REMARK SMILES IDX 4 1 5 2 9 3 6 4 8 5 7 6 2 7 1 8 3 9
REMARK H PARENT
REMARK Flexibility Score: inf
ROOT
ATOM      1  C   UNL     1      30.800  58.752 -12.019  1.00  0.00     0.016 A 
ATOM      2  C   UNL     1      30.356  58.001 -13.121  1.00  0.00     0.013 A 
ATOM      3  C   UNL     1      32.168  58.728 -11.701  1.00  0.00     0.120 A 
ATOM      4  C   UNL     1      31.266  57.255 -13.872  1.00  0.00     0.021 A 
ATOM      5  N   UNL     1      33.033  57.993 -12.449  1.00  0.00    -0.264 NA
ATOM      6  C   UNL     1      32.615  57.263 -13.517  1.00  0.00     0.111 A 
ENDROOT
BRANCH   1   7
ATOM      7  C   UNL     1      29.852  59.549 -11.210  1.00  0.00     0.073 C 
ATOM      8  O   UNL     1      30.220  60.627 -10.671  1.00  0.00    -0.545 OA
ATOM      9  O   UNL     1      28.542  59.119 -11.033  1.00  0.00    -0.545 OA
ENDBRANCH   1   7
TORSDOF 1
ENDMDL
MODEL 5
REMARK VINA RESULT:    -3.343     12.396     13.910
REMARK INTER + INTRA:          -3.560
REMARK INTER:                  -3.537
REMARK INTRA:                  -0.023
REMARK UNBOUND:                -0.021
REMARK SMILES O=C([O-])c1cccnc1
REMARK SMILES IDX 4 1 5 2 9 3 6 4 8 5 7 6 2 7 1 8 3 9
REMARK H PARENT
REMARK Flexibility Score: inf
ROOT
ATOM      1  C   UNL     1      29.667  45.284   0.038  1.00  0.00     0.016 A 
ATOM      2  C   UNL     1      30.394  45.840   1.104  1.00  0.00     0.013 A 
ATOM      3  C   UNL     1      30.171  44.130  -0.586  1.00  0.00     0.120 A 
ATOM      4  C   UNL     1      31.586  45.247   1.523  1.00  0.00     0.021 A 
ATOM      5  N   UNL     1      31.336  43.573  -0.158  1.00  0.00    -0.264 NA
ATOM      6  C   UNL     1      32.047  44.102   0.872  1.00  0.00     0.111 A 
ENDROOT
BRANCH   1   7
ATOM      7  C   UNL     1      28.401  45.896  -0.422  1.00  0.00     0.073 C 
ATOM      8  O   UNL     1      28.163  47.114  -0.203  1.00  0.00    -0.545 OA
ATOM      9  O   UNL     1      27.456  45.135  -1.099  1.00  0.00    -0.545 OA
ENDBRANCH   1   7
TORSDOF 1
ENDMDL
MODEL 6
REMARK VINA RESULT:    -3.319      2.606      3.835
REMARK INTER + INTRA:          -3.534
REMARK INTER:                  -3.515
REMARK INTRA:                  -0.019
REMARK UNBOUND:                -0.021
REMARK SMILES O=C([O-])c1cccnc1
REMARK SMILES IDX 4 1 5 2 9 3 6 4 8 5 7 6 2 7 1 8 3 9
REMARK H PARENT
REMARK Flexibility Score: inf
ROOT
ATOM      1  C   UNL     1      16.824  43.984   0.739  1.00  0.00     0.016 A 
ATOM      2  C   UNL     1      17.927  43.859   1.600  1.00  0.00     0.013 A 
ATOM      3  C   UNL     1      16.799  43.209  -0.433  1.00  0.00     0.120 A 
ATOM      4  C   UNL     1      18.966  42.982   1.285  1.00  0.00     0.021 A 
ATOM      5  N   UNL     1      17.825  42.362  -0.716  1.00  0.00    -0.264 NA
ATOM      6  C   UNL     1      18.897  42.234   0.109  1.00  0.00     0.111 A 
ENDROOT
BRANCH   1   7
ATOM      7  C   UNL     1      15.712  44.908   1.054  1.00  0.00     0.073 C 
ATOM      8  O   UNL     1      15.134  44.855   2.172  1.00  0.00    -0.545 OA
ATOM      9  O   UNL     1      15.290  45.846   0.119  1.00  0.00    -0.545 OA
ENDBRANCH   1   7
TORSDOF 1
ENDMDL
MODEL 7
REMARK VINA RESULT:    -3.216     14.352     15.491
REMARK INTER + INTRA:          -3.425
REMARK INTER:                  -3.402
REMARK INTRA:                  -0.023
REMARK UNBOUND:                -0.021
REMARK SMILES O=C([O-])c1cccnc1
REMARK SMILES IDX 4 1 5 2 9 3 6 4 8 5 7 6 2 7 1 8 3 9
REMARK H PARENT
REMARK Flexibility Score: inf
ROOT
ATOM      1  C   UNL     1      31.967  45.466   1.270  1.00  0.00     0.016 A 
ATOM      2  C   UNL     1      30.597  45.616   0.993  1.00  0.00     0.013 A 
ATOM      3  C   UNL     1      32.680  44.464   0.591  1.00  0.00     0.120 A 
ATOM      4  C   UNL     1      29.976  44.782   0.063  1.00  0.00     0.021 A 
ATOM      5  N   UNL     1      32.050  43.664  -0.310  1.00  0.00    -0.264 NA
ATOM      6  C   UNL     1      30.726  43.801  -0.586  1.00  0.00     0.111 A 
ENDROOT
BRANCH   1   7
ATOM      7  C   UNL     1      32.645  46.340   2.252  1.00  0.00     0.073 C 
ATOM      8  O   UNL     1      33.902  46.410   2.286  1.00  0.00    -0.545 OA
ATOM      9  O   UNL     1      31.903  47.094   3.154  1.00  0.00    -0.545 OA
ENDBRANCH   1   7
TORSDOF 1
ENDMDL
MODEL 8
REMARK VINA RESULT:    -3.191     23.044     24.009
REMARK INTER + INTRA:          -3.399
REMARK INTER:                  -3.378
REMARK INTRA:                  -0.022
REMARK UNBOUND:                -0.021
REMARK SMILES O=C([O-])c1cccnc1
REMARK SMILES IDX 4 1 5 2 9 3 6 4 8 5 7 6 2 7 1 8 3 9
REMARK H PARENT
REMARK Flexibility Score: inf
ROOT
ATOM      1  C   UNL     1      30.317  59.146 -11.873  1.00  0.00     0.016 A 
ATOM      2  C   UNL     1      31.657  59.525 -11.680  1.00  0.00     0.013 A 
ATOM      3  C   UNL     1      30.020  58.242 -12.907  1.00  0.00     0.120 A 
ATOM      4  C   UNL     1      32.657  59.006 -12.504  1.00  0.00     0.021 A 
ATOM      5  N   UNL     1      31.014  57.751 -13.695  1.00  0.00    -0.264 NA
ATOM      6  C   UNL     1      32.313  58.111 -13.518  1.00  0.00     0.111 A 
ENDROOT
BRANCH   1   7
ATOM      7  C   UNL     1      29.242  59.685 -11.012  1.00  0.00     0.073 C 
ATOM      8  O   UNL     1      28.195  59.017 -10.803  1.00  0.00    -0.545 OA
ATOM      9  O   UNL     1      29.373  60.937 -10.422  1.00  0.00    -0.545 OA
ENDBRANCH   1   7
TORSDOF 1
ENDMDL
MODEL 9
REMARK VINA RESULT:    -3.188     21.555     22.230
REMARK INTER + INTRA:          -3.396
REMARK INTER:                  -3.374
REMARK INTRA:                  -0.022
REMARK UNBOUND:                -0.021
REMARK SMILES O=C([O-])c1cccnc1
REMARK SMILES IDX 4 1 5 2 9 3 6 4 8 5 7 6 2 7 1 8 3 9
REMARK H PARENT
REMARK Flexibility Score: inf
ROOT
ATOM      1  C   UNL     1      33.004  59.269   0.808  1.00  0.00     0.016 A 
ATOM      2  C   UNL     1      32.264  59.130  -0.379  1.00  0.00     0.013 A 
ATOM      3  C   UNL     1      33.780  60.428   0.980  1.00  0.00     0.120 A 
ATOM      4  C   UNL     1      32.309  60.129  -1.353  1.00  0.00     0.021 A 
ATOM      5  N   UNL     1      33.806  61.385   0.014  1.00  0.00    -0.264 NA
ATOM      6  C   UNL     1      33.095  61.261  -1.137  1.00  0.00     0.111 A 
ENDROOT
BRANCH   1   7
ATOM      7  C   UNL     1      32.970  58.223   1.853  1.00  0.00     0.073 C 
ATOM      8  O   UNL     1      33.942  58.075   2.642  1.00  0.00    -0.545 OA
ATOM      9  O   UNL     1      31.866  57.388   1.978  1.00  0.00    -0.545 OA
ENDBRANCH   1   7
TORSDOF 1
ENDMDL
