MODEL 1
REMARK VINA RESULT:    -3.912      0.000      0.000
REMARK INTER + INTRA:          -5.090
REMARK INTER:                  -4.826
REMARK INTRA:                  -0.264
REMARK UNBOUND:                -0.264
REMARK SMILES CCCCC=CC(C)=O
REMARK SMILES IDX 4 1 3 2 2 3 1 4 5 5 6 6 7 7 9 8 8 9
REMARK H PARENT
REMARK Flexibility Score: inf
ROOT
ATOM      1  C   UNL     1      15.787 -38.834  27.724  1.00  0.00     0.027 C 
ENDROOT
BRANCH   1   2
ATOM      2  C   UNL     1      16.227 -39.124  29.168  1.00  0.00     0.004 C 
BRANCH   2   3
ATOM      3  C   UNL     1      17.141 -38.045  29.773  1.00  0.00    -0.003 C 
ATOM      4  C   UNL     1      18.481 -38.603  30.253  1.00  0.00     0.004 C 
ENDBRANCH   2   3
ENDBRANCH   1   2
BRANCH   1   5
ATOM      5  C   UNL     1      16.939 -38.378  26.873  1.00  0.00    -0.023 C 
ATOM      6  C   UNL     1      16.875 -37.254  26.151  1.00  0.00     0.042 C 
BRANCH   6   7
ATOM      7  C   UNL     1      17.982 -36.811  25.283  1.00  0.00     0.152 C 
ATOM      8  O   UNL     1      17.757 -36.113  24.257  1.00  0.00    -0.295 OA
ATOM      9  C   UNL     1      19.386 -37.192  25.623  1.00  0.00     0.093 C 
ENDBRANCH   6   7
ENDBRANCH   1   5
TORSDOF 4
ENDMDL
MODEL 2
REMARK VINA RESULT:    -3.854      8.208      9.937
REMARK INTER + INTRA:          -5.019
REMARK INTER:                  -4.748
REMARK INTRA:                  -0.271
REMARK UNBOUND:                -0.264
REMARK SMILES CCCCC=CC(C)=O
REMARK SMILES IDX 4 1 3 2 2 3 1 4 5 5 6 6 7 7 9 8 8 9
REMARK H PARENT
REMARK Flexibility Score: inf
ROOT
ATOM      1  C   UNL     1      15.294 -31.232  23.538  1.00  0.00     0.027 C 
ENDROOT
BRANCH   1   2
ATOM      2  C   UNL     1      14.417 -32.462  23.254  1.00  0.00     0.004 C 
BRANCH   2   3
ATOM      3  C   UNL     1      14.485 -32.958  21.799  1.00  0.00    -0.003 C 
ATOM      4  C   UNL     1      13.576 -32.167  20.858  1.00  0.00     0.004 C 
ENDBRANCH   2   3
ENDBRANCH   1   2
BRANCH   1   5
ATOM      5  C   UNL     1      14.468 -29.992  23.730  1.00  0.00    -0.023 C 
ATOM      6  C   UNL     1      13.215 -30.049  24.194  1.00  0.00     0.042 C 
BRANCH   6   7
ATOM      7  C   UNL     1      12.378 -28.845  24.355  1.00  0.00     0.152 C 
ATOM      8  O   UNL     1      11.270 -28.747  23.761  1.00  0.00    -0.295 OA
ATOM      9  C   UNL     1      12.847 -27.730  25.231  1.00  0.00     0.093 C 
ENDBRANCH   6   7
ENDBRANCH   1   5
TORSDOF 4
ENDMDL
MODEL 3
REMARK VINA RESULT:    -3.813      8.639     10.028
REMARK INTER + INTRA:          -4.969
REMARK INTER:                  -4.834
REMARK INTRA:                  -0.135
REMARK UNBOUND:                -0.264
REMARK SMILES CCCCC=CC(C)=O
REMARK SMILES IDX 4 1 3 2 2 3 1 4 5 5 6 6 7 7 9 8 8 9
REMARK H PARENT
REMARK Flexibility Score: inf
ROOT
ATOM      1  C   UNL     1      13.592 -29.487  24.010  1.00  0.00     0.027 C 
ENDROOT
BRANCH   1   2
ATOM      2  C   UNL     1      12.314 -28.800  24.516  1.00  0.00     0.004 C 
BRANCH   2   3
ATOM      3  C   UNL     1      12.568 -27.495  25.289  1.00  0.00    -0.003 C 
ATOM      4  C   UNL     1      13.874 -26.811  24.887  1.00  0.00     0.004 C 
ENDBRANCH   2   3
ENDBRANCH   1   2
BRANCH   1   5
ATOM      5  C   UNL     1      13.279 -30.656  23.118  1.00  0.00    -0.023 C 
ATOM      6  C   UNL     1      14.124 -31.054  22.161  1.00  0.00     0.042 C 
BRANCH   6   7
ATOM      7  C   UNL     1      13.817 -32.175  21.254  1.00  0.00     0.152 C 
ATOM      8  O   UNL     1      12.878 -32.088  20.417  1.00  0.00    -0.295 OA
ATOM      9  C   UNL     1      14.628 -33.428  21.326  1.00  0.00     0.093 C 
ENDBRANCH   6   7
ENDBRANCH   1   5
TORSDOF 4
ENDMDL
MODEL 4
REMARK VINA RESULT:    -3.680      3.164      5.230
REMARK INTER + INTRA:          -4.805
REMARK INTER:                  -4.648
REMARK INTRA:                  -0.157
REMARK UNBOUND:                -0.264
REMARK SMILES CCCCC=CC(C)=O
REMARK SMILES IDX 4 1 3 2 2 3 1 4 5 5 6 6 7 7 9 8 8 9
REMARK H PARENT
REMARK Flexibility Score: inf
ROOT
ATOM      1  C   UNL     1      17.462 -38.719  30.293  1.00  0.00     0.027 C 
ENDROOT
BRANCH   1   2
ATOM      2  C   UNL     1      16.809 -37.902  29.166  1.00  0.00     0.004 C 
BRANCH   2   3
ATOM      3  C   UNL     1      16.490 -38.720  27.902  1.00  0.00    -0.003 C 
ATOM      4  C   UNL     1      17.504 -38.500  26.781  1.00  0.00     0.004 C 
ENDBRANCH   2   3
ENDBRANCH   1   2
BRANCH   1   5
ATOM      5  C   UNL     1      18.962 -38.664  30.222  1.00  0.00    -0.023 C 
ATOM      6  C   UNL     1      19.722 -38.842  31.308  1.00  0.00     0.042 C 
BRANCH   6   7
ATOM      7  C   UNL     1      21.193 -38.756  31.263  1.00  0.00     0.152 C 
ATOM      8  O   UNL     1      21.815 -38.908  30.176  1.00  0.00    -0.295 OA
ATOM      9  C   UNL     1      21.957 -38.483  32.518  1.00  0.00     0.093 C 
ENDBRANCH   6   7
ENDBRANCH   1   5
TORSDOF 4
ENDMDL
MODEL 5
REMARK VINA RESULT:    -3.676     12.023     13.976
REMARK INTER + INTRA:          -4.799
REMARK INTER:                  -4.588
REMARK INTRA:                  -0.211
REMARK UNBOUND:                -0.264
REMARK SMILES CCCCC=CC(C)=O
REMARK SMILES IDX 4 1 3 2 2 3 1 4 5 5 6 6 7 7 9 8 8 9
REMARK H PARENT
REMARK Flexibility Score: inf
ROOT
ATOM      1  C   UNL     1      20.184 -26.717  21.173  1.00  0.00     0.027 C 
ENDROOT
BRANCH   1   2
ATOM      2  C   UNL     1      19.467 -27.895  20.494  1.00  0.00     0.004 C 
BRANCH   2   3
ATOM      3  C   UNL     1      19.633 -29.237  21.228  1.00  0.00    -0.003 C 
ATOM      4  C   UNL     1      21.049 -29.803  21.118  1.00  0.00     0.004 C 
ENDBRANCH   2   3
ENDBRANCH   1   2
BRANCH   1   5
ATOM      5  C   UNL     1      21.150 -26.041  20.240  1.00  0.00    -0.023 C 
ATOM      6  C   UNL     1      22.406 -25.767  20.608  1.00  0.00     0.042 C 
BRANCH   6   7
ATOM      7  C   UNL     1      23.354 -25.073  19.718  1.00  0.00     0.152 C 
ATOM      8  O   UNL     1      23.534 -25.468  18.534  1.00  0.00    -0.295 OA
ATOM      9  C   UNL     1      24.111 -23.888  20.224  1.00  0.00     0.093 C 
ENDBRANCH   6   7
ENDBRANCH   1   5
TORSDOF 4
ENDMDL
MODEL 6
REMARK VINA RESULT:    -3.646      7.378      8.783
REMARK INTER + INTRA:          -4.762
REMARK INTER:                  -4.668
REMARK INTRA:                  -0.094
REMARK UNBOUND:                -0.264
REMARK SMILES CCCCC=CC(C)=O
REMARK SMILES IDX 4 1 3 2 2 3 1 4 5 5 6 6 7 7 9 8 8 9
REMARK H PARENT
REMARK Flexibility Score: inf
ROOT
ATOM      1  C   UNL     1      13.867 -31.414  24.276  1.00  0.00     0.027 C 
ENDROOT
BRANCH   1   2
ATOM      2  C   UNL     1      13.872 -29.916  23.932  1.00  0.00     0.004 C 
BRANCH   2   3
ATOM      3  C   UNL     1      12.567 -29.185  24.296  1.00  0.00    -0.003 C 
ATOM      4  C   UNL     1      12.804 -27.932  25.138  1.00  0.00     0.004 C 
ENDBRANCH   2   3
ENDBRANCH   1   2
BRANCH   1   5
ATOM      5  C   UNL     1      13.811 -32.268  23.040  1.00  0.00    -0.023 C 
ATOM      6  C   UNL     1      14.882 -32.938  22.601  1.00  0.00     0.042 C 
BRANCH   6   7
ATOM      7  C   UNL     1      14.854 -33.750  21.371  1.00  0.00     0.152 C 
ATOM      8  O   UNL     1      14.170 -33.389  20.375  1.00  0.00    -0.295 OA
ATOM      9  C   UNL     1      15.646 -35.015  21.303  1.00  0.00     0.093 C 
ENDBRANCH   6   7
ENDBRANCH   1   5
TORSDOF 4
ENDMDL
MODEL 7
REMARK VINA RESULT:    -3.629      6.863      8.286
REMARK INTER + INTRA:          -4.742
REMARK INTER:                  -4.561
REMARK INTRA:                  -0.181
REMARK UNBOUND:                -0.264
REMARK SMILES CCCCC=CC(C)=O
REMARK SMILES IDX 4 1 3 2 2 3 1 4 5 5 6 6 7 7 9 8 8 9
REMARK H PARENT
REMARK Flexibility Score: inf
ROOT
ATOM      1  C   UNL     1      13.462 -31.789  21.713  1.00  0.00     0.027 C 
ENDROOT
BRANCH   1   2
ATOM      2  C   UNL     1      13.440 -31.660  23.245  1.00  0.00     0.004 C 
BRANCH   2   3
ATOM      3  C   UNL     1      13.966 -30.311  23.768  1.00  0.00    -0.003 C 
ATOM      4  C   UNL     1      12.860 -29.423  24.337  1.00  0.00     0.004 C 
ENDBRANCH   2   3
ENDBRANCH   1   2
BRANCH   1   5
ATOM      5  C   UNL     1      14.279 -32.970  21.268  1.00  0.00    -0.023 C 
ATOM      6  C   UNL     1      14.973 -33.711  22.138  1.00  0.00     0.042 C 
BRANCH   6   7
ATOM      7  C   UNL     1      15.807 -34.850  21.713  1.00  0.00     0.152 C 
ATOM      8  O   UNL     1      16.613 -35.394  22.516  1.00  0.00    -0.295 OA
ATOM      9  C   UNL     1      15.695 -35.368  20.316  1.00  0.00     0.093 C 
ENDBRANCH   6   7
ENDBRANCH   1   5
TORSDOF 4
ENDMDL
MODEL 8
REMARK VINA RESULT:    -3.547      7.935      8.909
REMARK INTER + INTRA:          -4.640
REMARK INTER:                  -4.544
REMARK INTRA:                  -0.096
REMARK UNBOUND:                -0.264
REMARK SMILES CCCCC=CC(C)=O
REMARK SMILES IDX 4 1 3 2 2 3 1 4 5 5 6 6 7 7 9 8 8 9
REMARK H PARENT
REMARK Flexibility Score: inf
ROOT
ATOM      1  C   UNL     1      14.965 -34.258  20.110  1.00  0.00     0.027 C 
ENDROOT
BRANCH   1   2
ATOM      2  C   UNL     1      15.909 -35.375  20.584  1.00  0.00     0.004 C 
BRANCH   2   3
ATOM      3  C   UNL     1      17.035 -35.708  19.589  1.00  0.00    -0.003 C 
ATOM      4  C   UNL     1      17.239 -37.212  19.405  1.00  0.00     0.004 C 
ENDBRANCH   2   3
ENDBRANCH   1   2
BRANCH   1   5
ATOM      5  C   UNL     1      14.561 -33.355  21.242  1.00  0.00    -0.023 C 
ATOM      6  C   UNL     1      13.795 -32.277  21.039  1.00  0.00     0.042 C 
BRANCH   6   7
ATOM      7  C   UNL     1      13.420 -31.361  22.131  1.00  0.00     0.152 C 
ATOM      8  O   UNL     1      12.213 -31.216  22.465  1.00  0.00    -0.295 OA
ATOM      9  C   UNL     1      14.482 -30.596  22.853  1.00  0.00     0.093 C 
ENDBRANCH   6   7
ENDBRANCH   1   5
TORSDOF 4
ENDMDL
