MODEL 1
REMARK VINA RESULT:    -3.960      0.000      0.000
REMARK INTER + INTRA:          -6.853
REMARK INTER:                  -6.044
REMARK INTRA:                  -0.809
REMARK UNBOUND:                -0.809
REMARK SMILES CCCCCCCCCC=CC(=O)[O-]
REMARK SMILES IDX 7 1 8 2 9 3 10 4 11 5 12 6 13 7 14 8 6 9 5 10 4 11 3 12 2 13
REMARK SMILES IDX 1 14
REMARK H PARENT
REMARK Flexibility Score: inf
ROOT
ATOM      1  C   UNL     1    -104.728  21.696  11.945  1.00  0.00     0.000 C 
ENDROOT
BRANCH   1   2
ATOM      2  C   UNL     1    -103.349  22.372  11.876  1.00  0.00     0.004 C 
BRANCH   2   3
ATOM      3  C   UNL     1    -103.118  23.357  13.034  1.00  0.00     0.027 C 
BRANCH   3   4
ATOM      4  C   UNL     1    -103.477  22.732  14.355  1.00  0.00    -0.025 C 
ATOM      5  C   UNL     1    -103.227  23.256  15.567  1.00  0.00     0.020 C 
BRANCH   5   6
ATOM      6  C   UNL     1    -102.523  24.523  15.853  1.00  0.00     0.064 C 
ATOM      7  O   UNL     1    -101.267  24.592  15.918  1.00  0.00    -0.545 OA
ATOM      8  O   UNL     1    -103.271  25.671  16.078  1.00  0.00    -0.545 OA
ENDBRANCH   5   6
ENDBRANCH   3   4
ENDBRANCH   2   3
ENDBRANCH   1   2
BRANCH   1   9
ATOM      9  C   UNL     1    -104.627  20.166  12.050  1.00  0.00     0.000 C 
BRANCH   9  10
ATOM     10  C   UNL     1    -105.390  19.649  13.275  1.00  0.00     0.000 C 
BRANCH  10  11
ATOM     11  C   UNL     1    -104.628  18.507  13.957  1.00  0.00    -0.000 C 
BRANCH  11  12
ATOM     12  C   UNL     1    -103.945  18.991  15.242  1.00  0.00    -0.000 C 
BRANCH  12  13
ATOM     13  C   UNL     1    -103.044  17.899  15.831  1.00  0.00    -0.003 C 
ATOM     14  C   UNL     1    -103.869  16.740  16.381  1.00  0.00     0.004 C 
ENDBRANCH  12  13
ENDBRANCH  11  12
ENDBRANCH  10  11
ENDBRANCH   9  10
ENDBRANCH   1   9
TORSDOF 9
ENDMDL
MODEL 2
REMARK VINA RESULT:    -3.875      2.178      3.783
REMARK INTER + INTRA:          -6.722
REMARK INTER:                  -6.167
REMARK INTRA:                  -0.555
REMARK UNBOUND:                -0.809
REMARK SMILES CCCCCCCCCC=CC(=O)[O-]
REMARK SMILES IDX 7 1 8 2 9 3 10 4 11 5 12 6 13 7 14 8 6 9 5 10 4 11 3 12 2 13
REMARK SMILES IDX 1 14
REMARK H PARENT
REMARK Flexibility Score: inf
ROOT
ATOM      1  C   UNL     1    -104.521  19.155  14.722  1.00  0.00     0.000 C 
ENDROOT
BRANCH   1   2
ATOM      2  C   UNL     1    -104.642  19.081  13.192  1.00  0.00     0.004 C 
BRANCH   2   3
ATOM      3  C   UNL     1    -105.241  20.361  12.587  1.00  0.00     0.027 C 
BRANCH   3   4
ATOM      4  C   UNL     1    -104.188  21.168  11.876  1.00  0.00    -0.025 C 
ATOM      5  C   UNL     1    -103.583  22.268  12.356  1.00  0.00     0.020 C 
BRANCH   5   6
ATOM      6  C   UNL     1    -103.849  22.928  13.651  1.00  0.00     0.064 C 
ATOM      7  O   UNL     1    -103.146  22.709  14.672  1.00  0.00    -0.545 OA
ATOM      8  O   UNL     1    -104.923  23.803  13.750  1.00  0.00    -0.545 OA
ENDBRANCH   5   6
ENDBRANCH   3   4
ENDBRANCH   2   3
ENDBRANCH   1   2
BRANCH   1   9
ATOM      9  C   UNL     1    -105.051  17.890  15.415  1.00  0.00     0.000 C 
BRANCH   9  10
ATOM     10  C   UNL     1    -104.294  17.621  16.721  1.00  0.00     0.000 C 
BRANCH  10  11
ATOM     11  C   UNL     1    -104.354  16.136  17.096  1.00  0.00    -0.000 C 
BRANCH  11  12
ATOM     12  C   UNL     1    -105.028  15.939  18.459  1.00  0.00    -0.000 C 
BRANCH  12  13
ATOM     13  C   UNL     1    -105.397  17.286  19.091  1.00  0.00    -0.003 C 
ATOM     14  C   UNL     1    -106.269  17.094  20.329  1.00  0.00     0.004 C 
ENDBRANCH  12  13
ENDBRANCH  11  12
ENDBRANCH  10  11
ENDBRANCH   9  10
ENDBRANCH   1   9
TORSDOF 9
ENDMDL
MODEL 3
REMARK VINA RESULT:    -3.874      1.327      2.081
REMARK INTER + INTRA:          -6.721
REMARK INTER:                  -5.933
REMARK INTRA:                  -0.788
REMARK UNBOUND:                -0.809
REMARK SMILES CCCCCCCCCC=CC(=O)[O-]
REMARK SMILES IDX 7 1 8 2 9 3 10 4 11 5 12 6 13 7 14 8 6 9 5 10 4 11 3 12 2 13
REMARK SMILES IDX 1 14
REMARK H PARENT
REMARK Flexibility Score: inf
ROOT
ATOM      1  C   UNL     1    -103.495  22.373  12.413  1.00  0.00     0.000 C 
ENDROOT
BRANCH   1   2
ATOM      2  C   UNL     1    -103.395  23.297  13.637  1.00  0.00     0.004 C 
BRANCH   2   3
ATOM      3  C   UNL     1    -103.607  22.546  14.961  1.00  0.00     0.027 C 
BRANCH   3   4
ATOM      4  C   UNL     1    -102.699  23.079  16.036  1.00  0.00    -0.025 C 
ATOM      5  C   UNL     1    -103.064  23.894  17.041  1.00  0.00     0.020 C 
BRANCH   5   6
ATOM      6  C   UNL     1    -104.409  24.460  17.275  1.00  0.00     0.064 C 
ATOM      7  O   UNL     1    -104.774  25.551  16.765  1.00  0.00    -0.545 OA
ATOM      8  O   UNL     1    -105.289  23.776  18.103  1.00  0.00    -0.545 OA
ENDBRANCH   5   6
ENDBRANCH   3   4
ENDBRANCH   2   3
ENDBRANCH   1   2
BRANCH   1   9
ATOM      9  C   UNL     1    -104.874  21.706  12.291  1.00  0.00     0.000 C 
BRANCH   9  10
ATOM     10  C   UNL     1    -104.737  20.185  12.150  1.00  0.00     0.000 C 
BRANCH  10  11
ATOM     11  C   UNL     1    -105.289  19.466  13.386  1.00  0.00    -0.000 C 
BRANCH  11  12
ATOM     12  C   UNL     1    -104.348  18.341  13.835  1.00  0.00    -0.000 C 
BRANCH  12  13
ATOM     13  C   UNL     1    -103.898  18.546  15.286  1.00  0.00    -0.003 C 
ATOM     14  C   UNL     1    -102.818  17.541  15.676  1.00  0.00     0.004 C 
ENDBRANCH  12  13
ENDBRANCH  11  12
ENDBRANCH  10  11
ENDBRANCH   9  10
ENDBRANCH   1   9
TORSDOF 9
ENDMDL
MODEL 4
REMARK VINA RESULT:    -3.860      3.201      5.596
REMARK INTER + INTRA:          -6.700
REMARK INTER:                  -6.021
REMARK INTRA:                  -0.679
REMARK UNBOUND:                -0.809
REMARK SMILES CCCCCCCCCC=CC(=O)[O-]
REMARK SMILES IDX 7 1 8 2 9 3 10 4 11 5 12 6 13 7 14 8 6 9 5 10 4 11 3 12 2 13
REMARK SMILES IDX 1 14
REMARK H PARENT
REMARK Flexibility Score: inf
ROOT
ATOM      1  C   UNL     1    -104.662  20.714  12.907  1.00  0.00     0.000 C 
ENDROOT
BRANCH   1   2
ATOM      2  C   UNL     1    -104.596  19.242  12.468  1.00  0.00     0.004 C 
BRANCH   2   3
ATOM      3  C   UNL     1    -105.170  18.286  13.527  1.00  0.00     0.027 C 
BRANCH   3   4
ATOM      4  C   UNL     1    -105.101  18.897  14.900  1.00  0.00    -0.025 C 
ATOM      5  C   UNL     1    -104.356  18.448  15.925  1.00  0.00     0.020 C 
BRANCH   5   6
ATOM      6  C   UNL     1    -103.487  17.253  15.927  1.00  0.00     0.064 C 
ATOM      7  O   UNL     1    -103.872  16.145  16.383  1.00  0.00    -0.545 OA
ATOM      8  O   UNL     1    -102.194  17.363  15.431  1.00  0.00    -0.545 OA
ENDBRANCH   5   6
ENDBRANCH   3   4
ENDBRANCH   2   3
ENDBRANCH   1   2
BRANCH   1   9
ATOM      9  C   UNL     1    -103.985  21.657  11.900  1.00  0.00     0.000 C 
BRANCH   9  10
ATOM     10  C   UNL     1    -103.314  22.834  12.617  1.00  0.00     0.000 C 
BRANCH  10  11
ATOM     11  C   UNL     1    -103.480  22.720  14.136  1.00  0.00    -0.000 C 
BRANCH  11  12
ATOM     12  C   UNL     1    -102.728  23.844  14.859  1.00  0.00    -0.000 C 
BRANCH  12  13
ATOM     13  C   UNL     1    -102.461  23.475  16.323  1.00  0.00    -0.003 C 
ATOM     14  C   UNL     1    -103.444  24.176  17.257  1.00  0.00     0.004 C 
ENDBRANCH  12  13
ENDBRANCH  11  12
ENDBRANCH  10  11
ENDBRANCH   9  10
ENDBRANCH   1   9
TORSDOF 9
ENDMDL
MODEL 5
REMARK VINA RESULT:    -3.808      2.899      5.688
REMARK INTER + INTRA:          -6.621
REMARK INTER:                  -6.014
REMARK INTRA:                  -0.607
REMARK UNBOUND:                -0.809
REMARK SMILES CCCCCCCCCC=CC(=O)[O-]
REMARK SMILES IDX 7 1 8 2 9 3 10 4 11 5 12 6 13 7 14 8 6 9 5 10 4 11 3 12 2 13
REMARK SMILES IDX 1 14
REMARK H PARENT
REMARK Flexibility Score: inf
ROOT
ATOM      1  C   UNL     1    -103.122  22.962  12.293  1.00  0.00     0.000 C 
ENDROOT
BRANCH   1   2
ATOM      2  C   UNL     1    -103.872  21.685  11.881  1.00  0.00     0.004 C 
BRANCH   2   3
ATOM      3  C   UNL     1    -104.571  21.004  13.068  1.00  0.00     0.027 C 
BRANCH   3   4
ATOM      4  C   UNL     1    -104.986  19.600  12.719  1.00  0.00    -0.025 C 
ATOM      5  C   UNL     1    -104.969  18.545  13.551  1.00  0.00     0.020 C 
BRANCH   5   6
ATOM      6  C   UNL     1    -104.508  18.534  14.955  1.00  0.00     0.064 C 
ATOM      7  O   UNL     1    -103.375  18.098  15.285  1.00  0.00    -0.545 OA
ATOM      8  O   UNL     1    -105.363  19.001  15.945  1.00  0.00    -0.545 OA
ENDBRANCH   5   6
ENDBRANCH   3   4
ENDBRANCH   2   3
ENDBRANCH   1   2
BRANCH   1   9
ATOM      9  C   UNL     1    -103.260  23.267  13.792  1.00  0.00     0.000 C 
BRANCH   9  10
ATOM     10  C   UNL     1    -102.511  24.552  14.162  1.00  0.00     0.000 C 
BRANCH  10  11
ATOM     11  C   UNL     1    -102.320  24.661  15.679  1.00  0.00    -0.000 C 
BRANCH  11  12
ATOM     12  C   UNL     1    -103.115  25.840  16.251  1.00  0.00    -0.000 C 
BRANCH  12  13
ATOM     13  C   UNL     1    -104.448  25.369  16.845  1.00  0.00    -0.003 C 
ATOM     14  C   UNL     1    -104.236  24.239  17.849  1.00  0.00     0.004 C 
ENDBRANCH  12  13
ENDBRANCH  11  12
ENDBRANCH  10  11
ENDBRANCH   9  10
ENDBRANCH   1   9
TORSDOF 9
ENDMDL
MODEL 6
REMARK VINA RESULT:    -3.754      3.412      5.625
REMARK INTER + INTRA:          -6.537
REMARK INTER:                  -5.315
REMARK INTRA:                  -1.223
REMARK UNBOUND:                -0.809
REMARK SMILES CCCCCCCCCC=CC(=O)[O-]
REMARK SMILES IDX 7 1 8 2 9 3 10 4 11 5 12 6 13 7 14 8 6 9 5 10 4 11 3 12 2 13
REMARK SMILES IDX 1 14
REMARK H PARENT
REMARK Flexibility Score: inf
ROOT
ATOM      1  C   UNL     1    -104.937  18.985  12.874  1.00  0.00     0.000 C 
ENDROOT
BRANCH   1   2
ATOM      2  C   UNL     1    -105.927  19.432  13.962  1.00  0.00     0.004 C 
BRANCH   2   3
ATOM      3  C   UNL     1    -105.258  19.599  15.335  1.00  0.00     0.027 C 
BRANCH   3   4
ATOM      4  C   UNL     1    -103.868  19.021  15.332  1.00  0.00    -0.025 C 
ATOM      5  C   UNL     1    -103.488  17.883  15.938  1.00  0.00     0.020 C 
BRANCH   5   6
ATOM      6  C   UNL     1    -104.337  16.991  16.755  1.00  0.00     0.064 C 
ATOM      7  O   UNL     1    -104.816  15.920  16.299  1.00  0.00    -0.545 OA
ATOM      8  O   UNL     1    -104.634  17.358  18.061  1.00  0.00    -0.545 OA
ENDBRANCH   5   6
ENDBRANCH   3   4
ENDBRANCH   2   3
ENDBRANCH   1   2
BRANCH   1   9
ATOM      9  C   UNL     1    -104.616  20.108  11.875  1.00  0.00     0.000 C 
BRANCH   9  10
ATOM     10  C   UNL     1    -105.681  21.209  11.927  1.00  0.00     0.000 C 
BRANCH  10  11
ATOM     11  C   UNL     1    -105.035  22.595  12.040  1.00  0.00    -0.000 C 
BRANCH  11  12
ATOM     12  C   UNL     1    -103.507  22.488  12.091  1.00  0.00    -0.000 C 
BRANCH  12  13
ATOM     13  C   UNL     1    -102.943  23.237  13.304  1.00  0.00    -0.003 C 
ATOM     14  C   UNL     1    -103.721  22.898  14.572  1.00  0.00     0.004 C 
ENDBRANCH  12  13
ENDBRANCH  11  12
ENDBRANCH  10  11
ENDBRANCH   9  10
ENDBRANCH   1   9
TORSDOF 9
ENDMDL
MODEL 7
REMARK VINA RESULT:    -3.749      1.900      3.318
REMARK INTER + INTRA:          -6.530
REMARK INTER:                  -5.906
REMARK INTRA:                  -0.624
REMARK UNBOUND:                -0.809
REMARK SMILES CCCCCCCCCC=CC(=O)[O-]
REMARK SMILES IDX 7 1 8 2 9 3 10 4 11 5 12 6 13 7 14 8 6 9 5 10 4 11 3 12 2 13
REMARK SMILES IDX 1 14
REMARK H PARENT
REMARK Flexibility Score: inf
ROOT
ATOM      1  C   UNL     1    -102.931  23.459  13.806  1.00  0.00     0.000 C 
ENDROOT
BRANCH   1   2
ATOM      2  C   UNL     1    -101.983  24.618  14.153  1.00  0.00     0.004 C 
BRANCH   2   3
ATOM      3  C   UNL     1    -102.123  25.077  15.613  1.00  0.00     0.027 C 
BRANCH   3   4
ATOM      4  C   UNL     1    -103.541  24.927  16.093  1.00  0.00    -0.025 C 
ATOM      5  C   UNL     1    -104.436  25.921  16.228  1.00  0.00     0.020 C 
BRANCH   5   6
ATOM      6  C   UNL     1    -104.205  27.358  15.971  1.00  0.00     0.064 C 
ATOM      7  O   UNL     1    -104.691  27.946  14.970  1.00  0.00    -0.545 OA
ATOM      8  O   UNL     1    -103.408  28.077  16.852  1.00  0.00    -0.545 OA
ENDBRANCH   5   6
ENDBRANCH   3   4
ENDBRANCH   2   3
ENDBRANCH   1   2
BRANCH   1   9
ATOM      9  C   UNL     1    -102.993  23.182  12.296  1.00  0.00     0.000 C 
BRANCH   9  10
ATOM     10  C   UNL     1    -103.766  21.890  12.007  1.00  0.00     0.000 C 
BRANCH  10  11
ATOM     11  C   UNL     1    -104.702  21.537  13.168  1.00  0.00    -0.000 C 
BRANCH  11  12
ATOM     12  C   UNL     1    -105.554  20.306  12.836  1.00  0.00    -0.000 C 
BRANCH  12  13
ATOM     13  C   UNL     1    -104.679  19.056  12.682  1.00  0.00    -0.003 C 
ATOM     14  C   UNL     1    -104.655  18.239  13.971  1.00  0.00     0.004 C 
ENDBRANCH  12  13
ENDBRANCH  11  12
ENDBRANCH  10  11
ENDBRANCH   9  10
ENDBRANCH   1   9
TORSDOF 9
ENDMDL
MODEL 8
REMARK VINA RESULT:    -3.709      3.135      6.320
REMARK INTER + INTRA:          -6.470
REMARK INTER:                  -5.390
REMARK INTRA:                  -1.080
REMARK UNBOUND:                -0.809
REMARK SMILES CCCCCCCCCC=CC(=O)[O-]
REMARK SMILES IDX 7 1 8 2 9 3 10 4 11 5 12 6 13 7 14 8 6 9 5 10 4 11 3 12 2 13
REMARK SMILES IDX 1 14
REMARK H PARENT
REMARK Flexibility Score: inf
ROOT
ATOM      1  C   UNL     1    -103.331  22.789  15.248  1.00  0.00     0.000 C 
ENDROOT
BRANCH   1   2
ATOM      2  C   UNL     1    -103.054  23.226  13.800  1.00  0.00     0.004 C 
BRANCH   2   3
ATOM      3  C   UNL     1    -104.267  23.017  12.880  1.00  0.00     0.027 C 
BRANCH   3   4
ATOM      4  C   UNL     1    -104.013  21.911  11.892  1.00  0.00    -0.025 C 
ATOM      5  C   UNL     1    -104.412  20.634  12.020  1.00  0.00     0.020 C 
BRANCH   5   6
ATOM      6  C   UNL     1    -105.143  20.048  13.163  1.00  0.00     0.064 C 
ATOM      7  O   UNL     1    -106.395  20.123  13.266  1.00  0.00    -0.545 OA
ATOM      8  O   UNL     1    -104.423  19.413  14.166  1.00  0.00    -0.545 OA
ENDBRANCH   5   6
ENDBRANCH   3   4
ENDBRANCH   2   3
ENDBRANCH   1   2
BRANCH   1   9
ATOM      9  C   UNL     1    -102.519  23.598  16.271  1.00  0.00     0.000 C 
BRANCH   9  10
ATOM     10  C   UNL     1    -103.430  24.182  17.357  1.00  0.00     0.000 C 
BRANCH  10  11
ATOM     11  C   UNL     1    -104.482  25.116  16.749  1.00  0.00    -0.000 C 
BRANCH  11  12
ATOM     12  C   UNL     1    -103.876  26.484  16.414  1.00  0.00    -0.000 C 
BRANCH  12  13
ATOM     13  C   UNL     1    -104.689  27.196  15.326  1.00  0.00    -0.003 C 
ATOM     14  C   UNL     1    -104.260  26.743  13.933  1.00  0.00     0.004 C 
ENDBRANCH  12  13
ENDBRANCH  11  12
ENDBRANCH  10  11
ENDBRANCH   9  10
ENDBRANCH   1   9
TORSDOF 9
ENDMDL
MODEL 9
REMARK VINA RESULT:    -3.688      4.231      6.721
REMARK INTER + INTRA:          -6.437
REMARK INTER:                  -5.106
REMARK INTRA:                  -1.332
REMARK UNBOUND:                -0.809
REMARK SMILES CCCCCCCCCC=CC(=O)[O-]
REMARK SMILES IDX 7 1 8 2 9 3 10 4 11 5 12 6 13 7 14 8 6 9 5 10 4 11 3 12 2 13
REMARK SMILES IDX 1 14
REMARK H PARENT
REMARK Flexibility Score: inf
ROOT
ATOM      1  C   UNL     1    -104.541  15.976  17.222  1.00  0.00     0.000 C 
ENDROOT
BRANCH   1   2
ATOM      2  C   UNL     1    -105.632  15.827  16.149  1.00  0.00     0.004 C 
BRANCH   2   3
ATOM      3  C   UNL     1    -106.113  17.183  15.607  1.00  0.00     0.027 C 
BRANCH   3   4
ATOM      4  C   UNL     1    -105.061  18.242  15.789  1.00  0.00    -0.025 C 
ATOM      5  C   UNL     1    -104.589  19.056  14.829  1.00  0.00     0.020 C 
BRANCH   5   6
ATOM      6  C   UNL     1    -104.974  19.055  13.402  1.00  0.00     0.064 C 
ATOM      7  O   UNL     1    -104.555  18.183  12.596  1.00  0.00    -0.545 OA
ATOM      8  O   UNL     1    -105.808  20.060  12.932  1.00  0.00    -0.545 OA
ENDBRANCH   5   6
ENDBRANCH   3   4
ENDBRANCH   2   3
ENDBRANCH   1   2
BRANCH   1   9
ATOM      9  C   UNL     1    -105.085  15.770  18.644  1.00  0.00     0.000 C 
BRANCH   9  10
ATOM     10  C   UNL     1    -105.415  17.113  19.305  1.00  0.00     0.000 C 
BRANCH  10  11
ATOM     11  C   UNL     1    -106.822  17.098  19.911  1.00  0.00    -0.000 C 
BRANCH  11  12
ATOM     12  C   UNL     1    -107.856  17.639  18.917  1.00  0.00    -0.000 C 
BRANCH  12  13
ATOM     13  C   UNL     1    -109.080  16.719  18.838  1.00  0.00    -0.003 C 
ATOM     14  C   UNL     1    -108.714  15.365  18.235  1.00  0.00     0.004 C 
ENDBRANCH  12  13
ENDBRANCH  11  12
ENDBRANCH  10  11
ENDBRANCH   9  10
ENDBRANCH   1   9
TORSDOF 9
ENDMDL
