MODEL 1
REMARK VINA RESULT:    -6.862      0.000      0.000
REMARK INTER + INTRA:          -8.361
REMARK INTER:                  -8.065
REMARK INTRA:                  -0.296
REMARK UNBOUND:                -0.296
REMARK SMILES O=c1c(O)c(-c2ccc(O)cc2)oc2cc(O)cc(O)c12
REMARK SMILES IDX 5 1 3 2 2 3 1 4 21 5 19 6 18 7 16 8 15 9 14 10 13 11 6 12
REMARK SMILES IDX 7 13 8 14 9 15 12 16 11 17 10 18 4 20 20 22 17 24
REMARK H PARENT 10 19 4 21 20 23 17 25
REMARK Flexibility Score: inf
ROOT
ATOM      1  C   UNL     1       7.401   7.771 -14.563  1.00  0.00     0.180 A 
ATOM      2  C   UNL     1       6.940   8.206 -13.309  1.00  0.00     0.208 A 
ATOM      3  C   UNL     1       7.171   9.536 -12.923  1.00  0.00     0.238 A 
ATOM      4  O   UNL     1       6.691   9.940 -11.832  1.00  0.00    -0.285 OA
ATOM      5  C   UNL     1       7.910  10.397 -13.770  1.00  0.00     0.111 A 
ATOM      6  C   UNL     1       8.243  11.752 -13.460  1.00  0.00     0.134 A 
ATOM      7  C   UNL     1       8.887  12.541 -14.422  1.00  0.00     0.093 A 
ATOM      8  C   UNL     1       9.266  12.009 -15.656  1.00  0.00     0.123 A 
ATOM      9  C   UNL     1       8.995  10.674 -15.945  1.00  0.00     0.094 A 
ATOM     10  C   UNL     1       8.319   9.871 -15.023  1.00  0.00     0.146 A 
ATOM     11  O   UNL     1       8.062   8.610 -15.349  1.00  0.00    -0.452 OA
ENDROOT
BRANCH   1  12
ATOM     12  C   UNL     1       7.183   6.388 -15.047  1.00  0.00     0.021 A 
ATOM     13  C   UNL     1       6.047   6.046 -15.802  1.00  0.00     0.016 A 
ATOM     14  C   UNL     1       5.875   4.739 -16.270  1.00  0.00     0.047 A 
ATOM     15  C   UNL     1       6.841   3.761 -15.999  1.00  0.00     0.115 A 
ATOM     16  C   UNL     1       8.157   5.407 -14.797  1.00  0.00     0.016 A 
ATOM     17  C   UNL     1       7.982   4.100 -15.264  1.00  0.00     0.047 A 
BRANCH  15  18
ATOM     18  O   UNL     1       6.681   2.456 -16.457  1.00  0.00    -0.508 OA
ATOM     19  H   UNL     1       5.802   1.963 -16.353  1.00  0.00     0.293 HD
ENDBRANCH  15  18
ENDBRANCH   1  12
BRANCH   2  20
ATOM     20  O   UNL     1       6.279   7.318 -12.455  1.00  0.00    -0.502 OA
ATOM     21  H   UNL     1       6.106   6.352 -12.703  1.00  0.00     0.293 HD
ENDBRANCH   2  20
BRANCH   6  22
ATOM     22  O   UNL     1       7.990  12.357 -12.225  1.00  0.00    -0.507 OA
ATOM     23  H   UNL     1       7.194  12.164 -11.639  1.00  0.00     0.293 HD
ENDBRANCH   6  22
BRANCH   8  24
ATOM     24  O   UNL     1       9.921  12.797 -16.598  1.00  0.00    -0.508 OA
ATOM     25  H   UNL     1       9.680  13.771 -16.735  1.00  0.00     0.293 HD
ENDBRANCH   8  24
TORSDOF 5
ENDMDL
MODEL 2
REMARK VINA RESULT:    -6.723      6.000     11.070
REMARK INTER + INTRA:          -8.199
REMARK INTER:                  -7.968
REMARK INTRA:                  -0.231
REMARK UNBOUND:                -0.296
REMARK SMILES O=c1c(O)c(-c2ccc(O)cc2)oc2cc(O)cc(O)c12
REMARK SMILES IDX 5 1 3 2 2 3 1 4 21 5 19 6 18 7 16 8 15 9 14 10 13 11 6 12
REMARK SMILES IDX 7 13 8 14 9 15 12 16 11 17 10 18 4 20 20 22 17 24
REMARK H PARENT 10 19 4 21 20 23 17 25
REMARK Flexibility Score: inf
ROOT
ATOM      1  C   UNL     1       8.588  16.645 -18.816  1.00  0.00     0.180 A 
ATOM      2  C   UNL     1       8.380  16.226 -20.140  1.00  0.00     0.208 A 
ATOM      3  C   UNL     1       8.560  14.871 -20.463  1.00  0.00     0.238 A 
ATOM      4  O   UNL     1       8.299  14.490 -21.634  1.00  0.00    -0.285 OA
ATOM      5  C   UNL     1       9.000  13.963 -19.469  1.00  0.00     0.111 A 
ATOM      6  C   UNL     1       9.258  12.576 -19.694  1.00  0.00     0.134 A 
ATOM      7  C   UNL     1       9.586  11.751 -18.610  1.00  0.00     0.093 A 
ATOM      8  C   UNL     1       9.729  12.274 -17.323  1.00  0.00     0.123 A 
ATOM      9  C   UNL     1       9.534  13.635 -17.104  1.00  0.00     0.094 A 
ATOM     10  C   UNL     1       9.166  14.477 -18.157  1.00  0.00     0.146 A 
ATOM     11  O   UNL     1       8.969  15.765 -17.899  1.00  0.00    -0.452 OA
ENDROOT
BRANCH   1  12
ATOM     12  C   UNL     1       8.405  18.054 -18.396  1.00  0.00     0.021 A 
ATOM     13  C   UNL     1       7.293  18.453 -17.633  1.00  0.00     0.016 A 
ATOM     14  C   UNL     1       7.155  19.784 -17.227  1.00  0.00     0.047 A 
ATOM     15  C   UNL     1       8.132  20.729 -17.568  1.00  0.00     0.115 A 
ATOM     16  C   UNL     1       9.391  19.003 -18.716  1.00  0.00     0.016 A 
ATOM     17  C   UNL     1       9.249  20.334 -18.310  1.00  0.00     0.047 A 
BRANCH  15  18
ATOM     18  O   UNL     1       8.004  22.058 -17.171  1.00  0.00    -0.508 OA
ATOM     19  H   UNL     1       7.096  22.476 -17.004  1.00  0.00     0.293 HD
ENDBRANCH  15  18
ENDBRANCH   1  12
BRANCH   2  20
ATOM     20  O   UNL     1       8.021  17.153 -21.124  1.00  0.00    -0.502 OA
ATOM     21  H   UNL     1       7.148  17.666 -21.094  1.00  0.00     0.293 HD
ENDBRANCH   2  20
BRANCH   6  22
ATOM     22  O   UNL     1       9.230  11.968 -20.952  1.00  0.00    -0.507 OA
ATOM     23  H   UNL     1       9.620  12.364 -21.794  1.00  0.00     0.293 HD
ENDBRANCH   6  22
BRANCH   8  24
ATOM     24  O   UNL     1      10.074  11.449 -16.255  1.00  0.00    -0.508 OA
ATOM     25  H   UNL     1       9.821  11.681 -15.302  1.00  0.00     0.293 HD
ENDBRANCH   8  24
TORSDOF 5
ENDMDL
MODEL 3
REMARK VINA RESULT:    -6.716      2.854      7.467
REMARK INTER + INTRA:          -8.191
REMARK INTER:                  -7.904
REMARK INTRA:                  -0.286
REMARK UNBOUND:                -0.296
REMARK SMILES O=c1c(O)c(-c2ccc(O)cc2)oc2cc(O)cc(O)c12
REMARK SMILES IDX 5 1 3 2 2 3 1 4 21 5 19 6 18 7 16 8 15 9 14 10 13 11 6 12
REMARK SMILES IDX 7 13 8 14 9 15 12 16 11 17 10 18 4 20 20 22 17 24
REMARK H PARENT 10 19 4 21 20 23 17 25
REMARK Flexibility Score: inf
ROOT
ATOM      1  C   UNL     1       9.652  11.714 -16.047  1.00  0.00     0.180 A 
ATOM      2  C   UNL     1      10.289  10.525 -16.438  1.00  0.00     0.208 A 
ATOM      3  C   UNL     1       9.953   9.327 -15.788  1.00  0.00     0.238 A 
ATOM      4  O   UNL     1      10.472   8.254 -16.194  1.00  0.00    -0.285 OA
ATOM      5  C   UNL     1       9.026   9.342 -14.718  1.00  0.00     0.111 A 
ATOM      6  C   UNL     1       8.644   8.194 -13.958  1.00  0.00     0.134 A 
ATOM      7  C   UNL     1       7.637   8.310 -12.991  1.00  0.00     0.093 A 
ATOM      8  C   UNL     1       7.044   9.543 -12.712  1.00  0.00     0.123 A 
ATOM      9  C   UNL     1       7.449  10.678 -13.409  1.00  0.00     0.094 A 
ATOM     10  C   UNL     1       8.423  10.588 -14.407  1.00  0.00     0.146 A 
ATOM     11  O   UNL     1       8.763  11.692 -15.062  1.00  0.00    -0.452 OA
ENDROOT
BRANCH   1  12
ATOM     12  C   UNL     1       9.942  13.015 -16.694  1.00  0.00     0.021 A 
ATOM     13  C   UNL     1      10.938  13.875 -16.197  1.00  0.00     0.016 A 
ATOM     14  C   UNL     1      11.212  15.086 -16.840  1.00  0.00     0.047 A 
ATOM     15  C   UNL     1      10.504  15.447 -17.994  1.00  0.00     0.115 A 
ATOM     16  C   UNL     1       9.251  13.374 -17.864  1.00  0.00     0.016 A 
ATOM     17  C   UNL     1       9.527  14.587 -18.504  1.00  0.00     0.047 A 
BRANCH  15  18
ATOM     18  O   UNL     1      10.766  16.651 -18.642  1.00  0.00    -0.508 OA
ATOM     19  H   UNL     1      11.281  16.682 -19.514  1.00  0.00     0.293 HD
ENDBRANCH  15  18
ENDBRANCH   1  12
BRANCH   2  20
ATOM     20  O   UNL     1      11.258  10.544 -17.446  1.00  0.00    -0.502 OA
ATOM     21  H   UNL     1      11.906  11.313 -17.563  1.00  0.00     0.293 HD
ENDBRANCH   2  20
BRANCH   6  22
ATOM     22  O   UNL     1       9.234   6.933 -14.093  1.00  0.00    -0.507 OA
ATOM     23  H   UNL     1      10.227   6.762 -14.145  1.00  0.00     0.293 HD
ENDBRANCH   6  22
BRANCH   8  24
ATOM     24  O   UNL     1       6.056   9.652 -11.736  1.00  0.00    -0.508 OA
ATOM     25  H   UNL     1       6.286   9.841 -10.769  1.00  0.00     0.293 HD
ENDBRANCH   8  24
TORSDOF 5
ENDMDL
MODEL 4
REMARK VINA RESULT:    -6.667      3.625      6.516
REMARK INTER + INTRA:          -8.132
REMARK INTER:                  -7.847
REMARK INTRA:                  -0.286
REMARK UNBOUND:                -0.296
REMARK SMILES O=c1c(O)c(-c2ccc(O)cc2)oc2cc(O)cc(O)c12
REMARK SMILES IDX 5 1 3 2 2 3 1 4 21 5 19 6 18 7 16 8 15 9 14 10 13 11 6 12
REMARK SMILES IDX 7 13 8 14 9 15 12 16 11 17 10 18 4 20 20 22 17 24
REMARK H PARENT 10 19 4 21 20 23 17 25
REMARK Flexibility Score: inf
ROOT
ATOM      1  C   UNL     1       9.732  12.357 -17.091  1.00  0.00     0.180 A 
ATOM      2  C   UNL     1      10.311  13.489 -16.491  1.00  0.00     0.208 A 
ATOM      3  C   UNL     1      10.282  14.713 -17.177  1.00  0.00     0.238 A 
ATOM      4  O   UNL     1      10.735  15.738 -16.603  1.00  0.00    -0.285 OA
ATOM      5  C   UNL     1       9.726  14.779 -18.478  1.00  0.00     0.111 A 
ATOM      6  C   UNL     1       9.684  15.958 -19.285  1.00  0.00     0.134 A 
ATOM      7  C   UNL     1       9.013  15.928 -20.514  1.00  0.00     0.093 A 
ATOM      8  C   UNL     1       8.439  14.749 -20.995  1.00  0.00     0.123 A 
ATOM      9  C   UNL     1       8.524  13.582 -20.241  1.00  0.00     0.094 A 
ATOM     10  C   UNL     1       9.152  13.588 -18.993  1.00  0.00     0.146 A 
ATOM     11  O   UNL     1       9.190  12.457 -18.298  1.00  0.00    -0.452 OA
ENDROOT
BRANCH   1  12
ATOM     12  C   UNL     1       9.711  11.035 -16.424  1.00  0.00     0.021 A 
ATOM     13  C   UNL     1      10.737  10.095 -16.628  1.00  0.00     0.016 A 
ATOM     14  C   UNL     1      10.707   8.862 -15.967  1.00  0.00     0.047 A 
ATOM     15  C   UNL     1       9.661   8.560 -15.086  1.00  0.00     0.115 A 
ATOM     16  C   UNL     1       8.676  10.733 -15.523  1.00  0.00     0.016 A 
ATOM     17  C   UNL     1       8.649   9.499 -14.865  1.00  0.00     0.047 A 
BRANCH  15  18
ATOM     18  O   UNL     1       9.620   7.335 -14.424  1.00  0.00    -0.508 OA
ATOM     19  H   UNL     1       8.928   7.143 -13.710  1.00  0.00     0.293 HD
ENDBRANCH  15  18
ENDBRANCH   1  12
BRANCH   2  20
ATOM     20  O   UNL     1      10.923  13.386 -15.238  1.00  0.00    -0.502 OA
ATOM     21  H   UNL     1      11.858  13.731 -15.060  1.00  0.00     0.293 HD
ENDBRANCH   2  20
BRANCH   6  22
ATOM     22  O   UNL     1      10.300  17.164 -18.941  1.00  0.00    -0.507 OA
ATOM     23  H   UNL     1       9.887  17.881 -18.365  1.00  0.00     0.293 HD
ENDBRANCH   6  22
BRANCH   8  24
ATOM     24  O   UNL     1       7.790  14.727 -22.227  1.00  0.00    -0.508 OA
ATOM     25  H   UNL     1       8.106  14.131 -22.982  1.00  0.00     0.293 HD
ENDBRANCH   8  24
TORSDOF 5
ENDMDL
MODEL 5
REMARK VINA RESULT:    -6.265      3.844      8.101
REMARK INTER + INTRA:          -7.660
REMARK INTER:                  -7.652
REMARK INTRA:                  -0.008
REMARK UNBOUND:                -0.296
REMARK SMILES O=c1c(O)c(-c2ccc(O)cc2)oc2cc(O)cc(O)c12
REMARK SMILES IDX 5 1 3 2 2 3 1 4 21 5 19 6 18 7 16 8 15 9 14 10 13 11 6 12
REMARK SMILES IDX 7 13 8 14 9 15 12 16 11 17 10 18 4 20 20 22 17 24
REMARK H PARENT 10 19 4 21 20 23 17 25
REMARK Flexibility Score: inf
ROOT
ATOM      1  C   UNL     1       8.902  12.966 -18.344  1.00  0.00     0.180 A 
ATOM      2  C   UNL     1       9.380  11.668 -18.589  1.00  0.00     0.208 A 
ATOM      3  C   UNL     1       9.386  10.735 -17.539  1.00  0.00     0.238 A 
ATOM      4  O   UNL     1       9.745   9.554 -17.784  1.00  0.00    -0.285 OA
ATOM      5  C   UNL     1       8.969  11.129 -16.245  1.00  0.00     0.111 A 
ATOM      6  C   UNL     1       8.976  10.280 -15.096  1.00  0.00     0.134 A 
ATOM      7  C   UNL     1       8.439  10.747 -13.889  1.00  0.00     0.093 A 
ATOM      8  C   UNL     1       7.955  12.052 -13.772  1.00  0.00     0.123 A 
ATOM      9  C   UNL     1       7.995  12.905 -14.872  1.00  0.00     0.094 A 
ATOM     10  C   UNL     1       8.488  12.456 -16.100  1.00  0.00     0.146 A 
ATOM     11  O   UNL     1       8.487  13.297 -17.128  1.00  0.00    -0.452 OA
ENDROOT
BRANCH   1  12
ATOM     12  C   UNL     1       8.851  14.001 -19.403  1.00  0.00     0.021 A 
ATOM     13  C   UNL     1       8.230  13.753 -20.640  1.00  0.00     0.016 A 
ATOM     14  C   UNL     1       8.171  14.754 -21.616  1.00  0.00     0.047 A 
ATOM     15  C   UNL     1       8.722  16.017 -21.362  1.00  0.00     0.115 A 
ATOM     16  C   UNL     1       9.382  15.277 -19.149  1.00  0.00     0.016 A 
ATOM     17  C   UNL     1       9.324  16.275 -20.127  1.00  0.00     0.047 A 
BRANCH  15  18
ATOM     18  O   UNL     1       8.672  17.021 -22.326  1.00  0.00    -0.508 OA
ATOM     19  H   UNL     1       8.410  16.821 -23.285  1.00  0.00     0.293 HD
ENDBRANCH  15  18
ENDBRANCH   1  12
BRANCH   2  20
ATOM     20  O   UNL     1       9.860  11.321 -19.856  1.00  0.00    -0.502 OA
ATOM     21  H   UNL     1      10.662  10.716 -19.986  1.00  0.00     0.293 HD
ENDBRANCH   2  20
BRANCH   6  22
ATOM     22  O   UNL     1       9.516   8.990 -15.078  1.00  0.00    -0.507 OA
ATOM     23  H   UNL     1      10.209   8.645 -15.724  1.00  0.00     0.293 HD
ENDBRANCH   6  22
BRANCH   8  24
ATOM     24  O   UNL     1       7.440  12.513 -12.563  1.00  0.00    -0.508 OA
ATOM     25  H   UNL     1       8.044  12.771 -11.793  1.00  0.00     0.293 HD
ENDBRANCH   8  24
TORSDOF 5
ENDMDL
MODEL 6
REMARK VINA RESULT:    -6.228      1.804      6.814
REMARK INTER + INTRA:          -7.617
REMARK INTER:                  -7.336
REMARK INTRA:                  -0.281
REMARK UNBOUND:                -0.296
REMARK SMILES O=c1c(O)c(-c2ccc(O)cc2)oc2cc(O)cc(O)c12
REMARK SMILES IDX 5 1 3 2 2 3 1 4 21 5 19 6 18 7 16 8 15 9 14 10 13 11 6 12
REMARK SMILES IDX 7 13 8 14 9 15 12 16 11 17 10 18 4 20 20 22 17 24
REMARK H PARENT 10 19 4 21 20 23 17 25
REMARK Flexibility Score: inf
ROOT
ATOM      1  C   UNL     1       8.572  11.416 -15.083  1.00  0.00     0.180 A 
ATOM      2  C   UNL     1       8.200  11.462 -13.729  1.00  0.00     0.208 A 
ATOM      3  C   UNL     1       7.649  10.316 -13.134  1.00  0.00     0.238 A 
ATOM      4  O   UNL     1       7.388  10.342 -11.903  1.00  0.00    -0.285 OA
ATOM      5  C   UNL     1       7.424   9.157 -13.915  1.00  0.00     0.111 A 
ATOM      6  C   UNL     1       6.830   7.952 -13.427  1.00  0.00     0.134 A 
ATOM      7  C   UNL     1       6.755   6.831 -14.264  1.00  0.00     0.093 A 
ATOM      8  C   UNL     1       7.194   6.890 -15.589  1.00  0.00     0.123 A 
ATOM      9  C   UNL     1       7.724   8.077 -16.089  1.00  0.00     0.094 A 
ATOM     10  C   UNL     1       7.848   9.200 -15.268  1.00  0.00     0.146 A 
ATOM     11  O   UNL     1       8.379  10.304 -15.781  1.00  0.00    -0.452 OA
ENDROOT
BRANCH   1  12
ATOM     12  C   UNL     1       9.172  12.579 -15.777  1.00  0.00     0.021 A 
ATOM     13  C   UNL     1      10.564  12.693 -15.946  1.00  0.00     0.016 A 
ATOM     14  C   UNL     1      11.106  13.788 -16.627  1.00  0.00     0.047 A 
ATOM     15  C   UNL     1      10.265  14.775 -17.157  1.00  0.00     0.115 A 
ATOM     16  C   UNL     1       8.334  13.562 -16.330  1.00  0.00     0.016 A 
ATOM     17  C   UNL     1       8.879  14.656 -17.008  1.00  0.00     0.047 A 
BRANCH  15  18
ATOM     18  O   UNL     1      10.793  15.870 -17.835  1.00  0.00    -0.508 OA
ATOM     19  H   UNL     1      11.010  16.735 -17.355  1.00  0.00     0.293 HD
ENDBRANCH  15  18
ENDBRANCH   1  12
BRANCH   2  20
ATOM     20  O   UNL     1       8.359  12.642 -12.995  1.00  0.00    -0.502 OA
ATOM     21  H   UNL     1       9.126  12.780 -12.347  1.00  0.00     0.293 HD
ENDBRANCH   2  20
BRANCH   6  22
ATOM     22  O   UNL     1       6.279   7.812 -12.150  1.00  0.00    -0.507 OA
ATOM     23  H   UNL     1       6.797   7.566 -11.320  1.00  0.00     0.293 HD
ENDBRANCH   6  22
BRANCH   8  24
ATOM     24  O   UNL     1       7.099   5.776 -16.418  1.00  0.00    -0.508 OA
ATOM     25  H   UNL     1       6.421   5.730 -17.169  1.00  0.00     0.293 HD
ENDBRANCH   8  24
TORSDOF 5
ENDMDL
MODEL 7
REMARK VINA RESULT:    -6.160      2.552      6.948
REMARK INTER + INTRA:          -7.537
REMARK INTER:                  -7.268
REMARK INTRA:                  -0.269
REMARK UNBOUND:                -0.296
REMARK SMILES O=c1c(O)c(-c2ccc(O)cc2)oc2cc(O)cc(O)c12
REMARK SMILES IDX 5 1 3 2 2 3 1 4 21 5 19 6 18 7 16 8 15 9 14 10 13 11 6 12
REMARK SMILES IDX 7 13 8 14 9 15 12 16 11 17 10 18 4 20 20 22 17 24
REMARK H PARENT 10 19 4 21 20 23 17 25
REMARK Flexibility Score: inf
ROOT
ATOM      1  C   UNL     1       8.540  12.272 -15.696  1.00  0.00     0.180 A 
ATOM      2  C   UNL     1       7.644  12.664 -14.688  1.00  0.00     0.208 A 
ATOM      3  C   UNL     1       7.203  11.710 -13.758  1.00  0.00     0.238 A 
ATOM      4  O   UNL     1       6.460  12.085 -12.813  1.00  0.00    -0.285 OA
ATOM      5  C   UNL     1       7.620  10.362 -13.881  1.00  0.00     0.111 A 
ATOM      6  C   UNL     1       7.201   9.301 -13.021  1.00  0.00     0.134 A 
ATOM      7  C   UNL     1       7.763   8.026 -13.174  1.00  0.00     0.093 A 
ATOM      8  C   UNL     1       8.679   7.760 -14.193  1.00  0.00     0.123 A 
ATOM      9  C   UNL     1       9.051   8.774 -15.071  1.00  0.00     0.094 A 
ATOM     10  C   UNL     1       8.539  10.066 -14.921  1.00  0.00     0.146 A 
ATOM     11  O   UNL     1       8.938  11.008 -15.767  1.00  0.00    -0.452 OA
ENDROOT
BRANCH   1  12
ATOM     12  C   UNL     1       9.059  13.224 -16.705  1.00  0.00     0.021 A 
ATOM     13  C   UNL     1       8.465  13.344 -17.974  1.00  0.00     0.016 A 
ATOM     14  C   UNL     1       8.958  14.269 -18.900  1.00  0.00     0.047 A 
ATOM     15  C   UNL     1      10.041  15.092 -18.566  1.00  0.00     0.115 A 
ATOM     16  C   UNL     1      10.132  14.068 -16.370  1.00  0.00     0.016 A 
ATOM     17  C   UNL     1      10.623  14.990 -17.299  1.00  0.00     0.047 A 
BRANCH  15  18
ATOM     18  O   UNL     1      10.542  16.015 -19.481  1.00  0.00    -0.508 OA
ATOM     19  H   UNL     1      11.535  16.199 -19.557  1.00  0.00     0.293 HD
ENDBRANCH  15  18
ENDBRANCH   1  12
BRANCH   2  20
ATOM     20  O   UNL     1       7.184  13.984 -14.630  1.00  0.00    -0.502 OA
ATOM     21  H   UNL     1       7.812  14.778 -14.603  1.00  0.00     0.293 HD
ENDBRANCH   2  20
BRANCH   6  22
ATOM     22  O   UNL     1       6.227   9.436 -12.027  1.00  0.00    -0.507 OA
ATOM     23  H   UNL     1       5.377   8.897 -11.974  1.00  0.00     0.293 HD
ENDBRANCH   6  22
BRANCH   8  24
ATOM     24  O   UNL     1       9.218   6.485 -14.348  1.00  0.00    -0.508 OA
ATOM     25  H   UNL     1      10.219   6.330 -14.355  1.00  0.00     0.293 HD
ENDBRANCH   8  24
TORSDOF 5
ENDMDL
MODEL 8
REMARK VINA RESULT:    -6.026      4.497      7.608
REMARK INTER + INTRA:          -7.379
REMARK INTER:                  -7.091
REMARK INTRA:                  -0.289
REMARK UNBOUND:                -0.296
REMARK SMILES O=c1c(O)c(-c2ccc(O)cc2)oc2cc(O)cc(O)c12
REMARK SMILES IDX 5 1 3 2 2 3 1 4 21 5 19 6 18 7 16 8 15 9 14 10 13 11 6 12
REMARK SMILES IDX 7 13 8 14 9 15 12 16 11 17 10 18 4 20 20 22 17 24
REMARK H PARENT 10 19 4 21 20 23 17 25
REMARK Flexibility Score: inf
ROOT
ATOM      1  C   UNL     1       8.943  13.097 -18.407  1.00  0.00     0.180 A 
ATOM      2  C   UNL     1       9.014  13.151 -19.809  1.00  0.00     0.208 A 
ATOM      3  C   UNL     1       8.795  14.378 -20.456  1.00  0.00     0.238 A 
ATOM      4  O   UNL     1       8.934  14.434 -21.705  1.00  0.00    -0.285 OA
ATOM      5  C   UNL     1       8.452  15.523 -19.696  1.00  0.00     0.111 A 
ATOM      6  C   UNL     1       8.164  16.808 -20.250  1.00  0.00     0.134 A 
ATOM      7  C   UNL     1       7.941  17.894 -19.393  1.00  0.00     0.093 A 
ATOM      8  C   UNL     1       7.932  17.729 -18.007  1.00  0.00     0.123 A 
ATOM      9  C   UNL     1       8.157  16.469 -17.459  1.00  0.00     0.094 A 
ATOM     10  C   UNL     1       8.421  15.373 -18.285  1.00  0.00     0.146 A 
ATOM     11  O   UNL     1       8.652  14.194 -17.720  1.00  0.00    -0.452 OA
ENDROOT
BRANCH   1  12
ATOM     12  C   UNL     1       9.176  11.844 -17.653  1.00  0.00     0.021 A 
ATOM     13  C   UNL     1      10.442  11.531 -17.124  1.00  0.00     0.016 A 
ATOM     14  C   UNL     1      10.631  10.353 -16.394  1.00  0.00     0.047 A 
ATOM     15  C   UNL     1       9.557   9.481 -16.172  1.00  0.00     0.115 A 
ATOM     16  C   UNL     1       8.100  10.975 -17.408  1.00  0.00     0.016 A 
ATOM     17  C   UNL     1       8.293   9.797 -16.678  1.00  0.00     0.047 A 
BRANCH  15  18
ATOM     18  O   UNL     1       9.734   8.305 -15.448  1.00  0.00    -0.508 OA
ATOM     19  H   UNL     1      10.041   8.319 -14.483  1.00  0.00     0.293 HD
ENDBRANCH  15  18
ENDBRANCH   1  12
BRANCH   2  20
ATOM     20  O   UNL     1       9.279  11.992 -20.545  1.00  0.00    -0.502 OA
ATOM     21  H   UNL     1       8.585  11.555 -21.140  1.00  0.00     0.293 HD
ENDBRANCH   2  20
BRANCH   6  22
ATOM     22  O   UNL     1       8.061  17.065 -21.620  1.00  0.00    -0.507 OA
ATOM     23  H   UNL     1       7.630  16.450 -22.293  1.00  0.00     0.293 HD
ENDBRANCH   6  22
BRANCH   8  24
ATOM     24  O   UNL     1       7.691  18.811 -17.164  1.00  0.00    -0.508 OA
ATOM     25  H   UNL     1       7.063  19.560 -17.429  1.00  0.00     0.293 HD
ENDBRANCH   8  24
TORSDOF 5
ENDMDL
MODEL 9
REMARK VINA RESULT:    -6.004      3.621      6.189
REMARK INTER + INTRA:          -7.353
REMARK INTER:                  -7.071
REMARK INTRA:                  -0.283
REMARK UNBOUND:                -0.296
REMARK SMILES O=c1c(O)c(-c2ccc(O)cc2)oc2cc(O)cc(O)c12
REMARK SMILES IDX 5 1 3 2 2 3 1 4 21 5 19 6 18 7 16 8 15 9 14 10 13 11 6 12
REMARK SMILES IDX 7 13 8 14 9 15 12 16 11 17 10 18 4 20 20 22 17 24
REMARK H PARENT 10 19 4 21 20 23 17 25
REMARK Flexibility Score: inf
ROOT
ATOM      1  C   UNL     1       8.546  11.424 -17.569  1.00  0.00     0.180 A 
ATOM      2  C   UNL     1       7.799  11.185 -18.734  1.00  0.00     0.208 A 
ATOM      3  C   UNL     1       7.737  12.181 -19.721  1.00  0.00     0.238 A 
ATOM      4  O   UNL     1       7.128  11.931 -20.794  1.00  0.00    -0.285 OA
ATOM      5  C   UNL     1       8.376  13.426 -19.505  1.00  0.00     0.111 A 
ATOM      6  C   UNL     1       8.341  14.525 -20.418  1.00  0.00     0.134 A 
ATOM      7  C   UNL     1       9.100  15.671 -20.146  1.00  0.00     0.093 A 
ATOM      8  C   UNL     1       9.840  15.784 -18.967  1.00  0.00     0.123 A 
ATOM      9  C   UNL     1       9.835  14.740 -18.046  1.00  0.00     0.094 A 
ATOM     10  C   UNL     1       9.120  13.568 -18.305  1.00  0.00     0.146 A 
ATOM     11  O   UNL     1       9.162  12.589 -17.409  1.00  0.00    -0.452 OA
ENDROOT
BRANCH   1  12
ATOM     12  C   UNL     1       8.671  10.417 -16.490  1.00  0.00     0.021 A 
ATOM     13  C   UNL     1       9.792   9.573 -16.401  1.00  0.00     0.016 A 
ATOM     14  C   UNL     1       9.899   8.647 -15.358  1.00  0.00     0.047 A 
ATOM     15  C   UNL     1       8.894   8.561 -14.386  1.00  0.00     0.115 A 
ATOM     16  C   UNL     1       7.677  10.339 -15.500  1.00  0.00     0.016 A 
ATOM     17  C   UNL     1       7.786   9.410 -14.459  1.00  0.00     0.047 A 
BRANCH  15  18
ATOM     18  O   UNL     1       8.988   7.641 -13.345  1.00  0.00    -0.508 OA
ATOM     19  H   UNL     1       9.192   6.664 -13.519  1.00  0.00     0.293 HD
ENDBRANCH  15  18
ENDBRANCH   1  12
BRANCH   2  20
ATOM     20  O   UNL     1       7.112   9.977 -18.894  1.00  0.00    -0.502 OA
ATOM     21  H   UNL     1       6.323   9.879 -19.522  1.00  0.00     0.293 HD
ENDBRANCH   2  20
BRANCH   6  22
ATOM     22  O   UNL     1       7.566  14.554 -21.581  1.00  0.00    -0.507 OA
ATOM     23  H   UNL     1       6.790  15.176 -21.743  1.00  0.00     0.293 HD
ENDBRANCH   6  22
BRANCH   8  24
ATOM     24  O   UNL     1      10.577  16.934 -18.698  1.00  0.00    -0.508 OA
ATOM     25  H   UNL     1      11.474  17.105 -19.137  1.00  0.00     0.293 HD
ENDBRANCH   8  24
TORSDOF 5
ENDMDL
