MODEL 1
REMARK VINA RESULT:    -4.966      0.000      0.000
REMARK INTER + INTRA:          -7.671
REMARK INTER:                  -6.127
REMARK INTRA:                  -1.544
REMARK UNBOUND:                -1.544
REMARK SMILES CC(C)=CCC[C@H](C)c1ccc(C)cc1
REMARK SMILES IDX 6 1 7 2 8 3 9 4 13 5 12 6 11 7 14 8 10 9 15 10 5 11 4 12
REMARK SMILES IDX 2 13 1 14 3 15
REMARK H PARENT
REMARK Flexibility Score: inf
ROOT
ATOM      1  C   UNL     1     161.977 179.817 180.416  1.00  0.00     0.012 C 
ENDROOT
BRANCH   1   2
ATOM      2  C   UNL     1     162.931 179.087 181.389  1.00  0.00     0.016 C 
ATOM      3  C   UNL     1     164.406 179.428 181.127  1.00  0.00     0.013 C 
BRANCH   2   4
ATOM      4  C   UNL     1     162.714 177.587 181.315  1.00  0.00    -0.045 A 
ATOM      5  C   UNL     1     162.125 173.310 181.150  1.00  0.00     0.044 C 
ATOM      6  C   UNL     1     162.333 174.795 181.177  1.00  0.00    -0.051 A 
ATOM      7  C   UNL     1     161.235 175.664 181.090  1.00  0.00     0.004 A 
ATOM      8  C   UNL     1     163.617 175.326 181.359  1.00  0.00     0.004 A 
ATOM      9  C   UNL     1     161.423 177.048 181.153  1.00  0.00     0.004 A 
ATOM     10  C   UNL     1     163.808 176.710 181.421  1.00  0.00     0.004 A 
ENDBRANCH   2   4
ENDBRANCH   1   2
BRANCH   1  11
ATOM     11  C   UNL     1     162.479 179.793 178.964  1.00  0.00     0.028 C 
BRANCH  11  12
ATOM     12  C   UNL     1     161.711 178.788 178.138  1.00  0.00    -0.028 C 
ATOM     13  C   UNL     1     162.279 177.687 177.603  1.00  0.00    -0.080 C 
ATOM     14  C   UNL     1     163.745 177.380 177.797  1.00  0.00     0.039 C 
ATOM     15  C   UNL     1     161.419 176.749 176.795  1.00  0.00     0.039 C 
ENDBRANCH  11  12
ENDBRANCH   1  11
TORSDOF 4
ENDMDL
MODEL 2
REMARK VINA RESULT:    -4.963     10.813     12.533
REMARK INTER + INTRA:          -7.667
REMARK INTER:                  -6.129
REMARK INTRA:                  -1.537
REMARK UNBOUND:                -1.544
REMARK SMILES CC(C)=CCC[C@H](C)c1ccc(C)cc1
REMARK SMILES IDX 6 1 7 2 8 3 9 4 13 5 12 6 11 7 14 8 10 9 15 10 5 11 4 12
REMARK SMILES IDX 2 13 1 14 3 15
REMARK H PARENT
REMARK Flexibility Score: inf
ROOT
ATOM      1  C   UNL     1     176.956 179.905 180.422  1.00  0.00     0.012 C 
ENDROOT
BRANCH   1   2
ATOM      2  C   UNL     1     176.626 178.727 181.368  1.00  0.00     0.016 C 
ATOM      3  C   UNL     1     177.459 177.475 181.053  1.00  0.00     0.013 C 
BRANCH   2   4
ATOM      4  C   UNL     1     175.144 178.404 181.312  1.00  0.00    -0.045 A 
ATOM      5  C   UNL     1     170.931 177.456 181.201  1.00  0.00     0.044 C 
ATOM      6  C   UNL     1     172.395 177.781 181.209  1.00  0.00    -0.051 A 
ATOM      7  C   UNL     1     172.824 179.111 181.092  1.00  0.00     0.004 A 
ATOM      8  C   UNL     1     173.343 176.767 181.404  1.00  0.00     0.004 A 
ATOM      9  C   UNL     1     174.186 179.420 181.137  1.00  0.00     0.004 A 
ATOM     10  C   UNL     1     174.707 177.074 181.449  1.00  0.00     0.004 A 
ENDBRANCH   2   4
ENDBRANCH   1   2
BRANCH   1  11
ATOM     11  C   UNL     1     177.126 179.462 178.960  1.00  0.00     0.028 C 
BRANCH  11  12
ATOM     12  C   UNL     1     175.932 179.862 178.126  1.00  0.00    -0.028 C 
ATOM     13  C   UNL     1     175.076 178.968 177.588  1.00  0.00    -0.080 C 
ATOM     14  C   UNL     1     175.258 177.482 177.787  1.00  0.00     0.039 C 
ATOM     15  C   UNL     1     173.915 179.477 176.772  1.00  0.00     0.039 C 
ENDBRANCH  11  12
ENDBRANCH   1  11
TORSDOF 4
ENDMDL
MODEL 3
REMARK VINA RESULT:    -4.932      0.085      1.253
REMARK INTER + INTRA:          -7.629
REMARK INTER:                  -6.083
REMARK INTRA:                  -1.545
REMARK UNBOUND:                -1.544
REMARK SMILES CC(C)=CCC[C@H](C)c1ccc(C)cc1
REMARK SMILES IDX 6 1 7 2 8 3 9 4 13 5 12 6 11 7 14 8 10 9 15 10 5 11 4 12
REMARK SMILES IDX 2 13 1 14 3 15
REMARK H PARENT
REMARK Flexibility Score: inf
ROOT
ATOM      1  C   UNL     1     161.966 179.797 180.408  1.00  0.00     0.012 C 
ENDROOT
BRANCH   1   2
ATOM      2  C   UNL     1     162.927 179.058 181.367  1.00  0.00     0.016 C 
ATOM      3  C   UNL     1     164.402 179.377 181.075  1.00  0.00     0.013 C 
BRANCH   2   4
ATOM      4  C   UNL     1     162.688 177.560 181.303  1.00  0.00    -0.045 A 
ATOM      5  C   UNL     1     161.980 173.305 181.077  1.00  0.00     0.044 C 
ATOM      6  C   UNL     1     162.223 174.781 181.185  1.00  0.00    -0.051 A 
ATOM      7  C   UNL     1     163.529 175.274 181.308  1.00  0.00     0.004 A 
ATOM      8  C   UNL     1     161.153 175.681 181.095  1.00  0.00     0.004 A 
ATOM      9  C   UNL     1     163.761 176.651 181.373  1.00  0.00     0.004 A 
ATOM     10  C   UNL     1     161.382 177.059 181.160  1.00  0.00     0.004 A 
ENDBRANCH   2   4
ENDBRANCH   1   2
BRANCH   1  11
ATOM     11  C   UNL     1     162.446 179.772 178.950  1.00  0.00     0.028 C 
BRANCH  11  12
ATOM     12  C   UNL     1     161.655 178.781 178.131  1.00  0.00    -0.028 C 
ATOM     13  C   UNL     1     162.200 177.670 177.589  1.00  0.00    -0.080 C 
ATOM     14  C   UNL     1     163.662 177.341 177.768  1.00  0.00     0.039 C 
ATOM     15  C   UNL     1     161.317 176.747 176.790  1.00  0.00     0.039 C 
ENDBRANCH  11  12
ENDBRANCH   1  11
TORSDOF 4
ENDMDL
MODEL 4
REMARK VINA RESULT:    -4.621     12.558     13.762
REMARK INTER + INTRA:          -7.245
REMARK INTER:                  -5.676
REMARK INTRA:                  -1.569
REMARK UNBOUND:                -1.544
REMARK SMILES CC(C)=CCC[C@H](C)c1ccc(C)cc1
REMARK SMILES IDX 6 1 7 2 8 3 9 4 13 5 12 6 11 7 14 8 10 9 15 10 5 11 4 12
REMARK SMILES IDX 2 13 1 14 3 15
REMARK H PARENT
REMARK Flexibility Score: inf
ROOT
ATOM      1  C   UNL     1     174.804 179.310 180.429  1.00  0.00     0.012 C 
ENDROOT
BRANCH   1   2
ATOM      2  C   UNL     1     175.865 178.794 181.428  1.00  0.00     0.016 C 
ATOM      3  C   UNL     1     177.051 179.760 181.571  1.00  0.00     0.013 C 
BRANCH   2   4
ATOM      4  C   UNL     1     176.353 177.417 181.015  1.00  0.00    -0.045 A 
ATOM      5  C   UNL     1     177.777 173.499 179.881  1.00  0.00     0.044 C 
ATOM      6  C   UNL     1     177.281 174.866 180.245  1.00  0.00    -0.051 A 
ATOM      7  C   UNL     1     175.909 175.098 180.417  1.00  0.00     0.004 A 
ATOM      8  C   UNL     1     178.189 175.907 180.484  1.00  0.00     0.004 A 
ATOM      9  C   UNL     1     175.447 176.362 180.793  1.00  0.00     0.004 A 
ATOM     10  C   UNL     1     177.729 177.174 180.859  1.00  0.00     0.004 A 
ENDBRANCH   2   4
ENDBRANCH   1   2
BRANCH   1  11
ATOM     11  C   UNL     1     175.388 179.594 179.037  1.00  0.00     0.028 C 
BRANCH  11  12
ATOM     12  C   UNL     1     174.789 178.678 177.996  1.00  0.00    -0.028 C 
ATOM     13  C   UNL     1     175.528 177.832 177.246  1.00  0.00    -0.080 C 
ATOM     14  C   UNL     1     177.027 177.744 177.400  1.00  0.00     0.039 C 
ATOM     15  C   UNL     1     174.827 176.960 176.236  1.00  0.00     0.039 C 
ENDBRANCH  11  12
ENDBRANCH   1  11
TORSDOF 4
ENDMDL
MODEL 5
REMARK VINA RESULT:    -4.601      1.841      3.753
REMARK INTER + INTRA:          -7.221
REMARK INTER:                  -5.650
REMARK INTRA:                  -1.571
REMARK UNBOUND:                -1.544
REMARK SMILES CC(C)=CCC[C@H](C)c1ccc(C)cc1
REMARK SMILES IDX 6 1 7 2 8 3 9 4 13 5 12 6 11 7 14 8 10 9 15 10 5 11 4 12
REMARK SMILES IDX 2 13 1 14 3 15
REMARK H PARENT
REMARK Flexibility Score: inf
ROOT
ATOM      1  C   UNL     1     161.938 177.409 180.547  1.00  0.00     0.012 C 
ENDROOT
BRANCH   1   2
ATOM      2  C   UNL     1     162.734 178.356 181.474  1.00  0.00     0.016 C 
ATOM      3  C   UNL     1     162.123 179.765 181.532  1.00  0.00     0.013 C 
BRANCH   2   4
ATOM      4  C   UNL     1     164.186 178.428 181.036  1.00  0.00    -0.045 A 
ATOM      5  C   UNL     1     168.306 178.599 179.749  1.00  0.00     0.044 C 
ATOM      6  C   UNL     1     166.885 178.539 180.225  1.00  0.00    -0.051 A 
ATOM      7  C   UNL     1     166.161 179.721 180.439  1.00  0.00     0.004 A 
ATOM      8  C   UNL     1     166.247 177.303 180.393  1.00  0.00     0.004 A 
ATOM      9  C   UNL     1     164.825 179.668 180.847  1.00  0.00     0.004 A 
ATOM     10  C   UNL     1     164.911 177.246 180.801  1.00  0.00     0.004 A 
ENDBRANCH   2   4
ENDBRANCH   1   2
BRANCH   1  11
ATOM     11  C   UNL     1     161.744 177.985 179.136  1.00  0.00     0.028 C 
BRANCH  11  12
ATOM     12  C   UNL     1     162.484 177.166 178.105  1.00  0.00    -0.028 C 
ATOM     13  C   UNL     1     163.447 177.678 177.310  1.00  0.00    -0.080 C 
ATOM     14  C   UNL     1     163.855 179.129 177.399  1.00  0.00     0.039 C 
ATOM     15  C   UNL     1     164.123 176.770 176.315  1.00  0.00     0.039 C 
ENDBRANCH  11  12
ENDBRANCH   1  11
TORSDOF 4
ENDMDL
MODEL 6
REMARK VINA RESULT:    -4.546     11.243     13.285
REMARK INTER + INTRA:          -7.152
REMARK INTER:                  -5.906
REMARK INTRA:                  -1.246
REMARK UNBOUND:                -1.544
REMARK SMILES CC(C)=CCC[C@H](C)c1ccc(C)cc1
REMARK SMILES IDX 6 1 7 2 8 3 9 4 13 5 12 6 11 7 14 8 10 9 15 10 5 11 4 12
REMARK SMILES IDX 2 13 1 14 3 15
REMARK H PARENT
REMARK Flexibility Score: inf
ROOT
ATOM      1  C   UNL     1     177.504 178.212 179.740  1.00  0.00     0.012 C 
ENDROOT
BRANCH   1   2
ATOM      2  C   UNL     1     176.796 179.549 180.061  1.00  0.00     0.016 C 
ATOM      3  C   UNL     1     177.188 180.100 181.441  1.00  0.00     0.013 C 
BRANCH   2   4
ATOM      4  C   UNL     1     175.290 179.385 179.967  1.00  0.00    -0.045 A 
ATOM      5  C   UNL     1     171.011 178.873 179.670  1.00  0.00     0.044 C 
ATOM      6  C   UNL     1     172.493 179.081 179.769  1.00  0.00    -0.051 A 
ATOM      7  C   UNL     1     173.093 179.306 181.016  1.00  0.00     0.004 A 
ATOM      8  C   UNL     1     173.297 178.982 178.626  1.00  0.00     0.004 A 
ATOM      9  C   UNL     1     174.478 179.463 181.115  1.00  0.00     0.004 A 
ATOM     10  C   UNL     1     174.684 179.140 178.722  1.00  0.00     0.004 A 
ENDBRANCH   2   4
ENDBRANCH   1   2
BRANCH   1  11
ATOM     11  C   UNL     1     177.481 177.230 180.920  1.00  0.00     0.028 C 
BRANCH  11  12
ATOM     12  C   UNL     1     177.332 175.805 180.442  1.00  0.00    -0.028 C 
ATOM     13  C   UNL     1     176.146 175.162 180.399  1.00  0.00    -0.080 C 
ATOM     14  C   UNL     1     174.867 175.834 180.836  1.00  0.00     0.039 C 
ATOM     15  C   UNL     1     176.112 173.739 179.902  1.00  0.00     0.039 C 
ENDBRANCH  11  12
ENDBRANCH   1  11
TORSDOF 4
ENDMDL
MODEL 7
REMARK VINA RESULT:    -4.506      1.802      3.255
REMARK INTER + INTRA:          -7.103
REMARK INTER:                  -5.888
REMARK INTRA:                  -1.215
REMARK UNBOUND:                -1.544
REMARK SMILES CC(C)=CCC[C@H](C)c1ccc(C)cc1
REMARK SMILES IDX 6 1 7 2 8 3 9 4 13 5 12 6 11 7 14 8 10 9 15 10 5 11 4 12
REMARK SMILES IDX 2 13 1 14 3 15
REMARK H PARENT
REMARK Flexibility Score: inf
ROOT
ATOM      1  C   UNL     1     163.815 179.693 179.659  1.00  0.00     0.012 C 
ENDROOT
BRANCH   1   2
ATOM      2  C   UNL     1     162.350 179.464 180.099  1.00  0.00     0.016 C 
ATOM      3  C   UNL     1     162.082 179.974 181.523  1.00  0.00     0.013 C 
BRANCH   2   4
ATOM      4  C   UNL     1     161.989 177.994 179.987  1.00  0.00    -0.045 A 
ATOM      5  C   UNL     1     161.006 173.801 179.644  1.00  0.00     0.044 C 
ATOM      6  C   UNL     1     161.318 175.264 179.758  1.00  0.00    -0.051 A 
ATOM      7  C   UNL     1     161.269 175.902 181.006  1.00  0.00     0.004 A 
ATOM      8  C   UNL     1     161.728 175.988 178.631  1.00  0.00     0.004 A 
ATOM      9  C   UNL     1     161.595 177.256 181.120  1.00  0.00     0.004 A 
ATOM     10  C   UNL     1     162.054 177.344 178.742  1.00  0.00     0.004 A 
ENDBRANCH   2   4
ENDBRANCH   1   2
BRANCH   1  11
ATOM     11  C   UNL     1     164.816 179.498 180.807  1.00  0.00     0.028 C 
BRANCH  11  12
ATOM     12  C   UNL     1     166.083 178.835 180.320  1.00  0.00    -0.028 C 
ATOM     13  C   UNL     1     166.266 177.498 180.331  1.00  0.00    -0.080 C 
ATOM     14  C   UNL     1     165.199 176.559 180.840  1.00  0.00     0.039 C 
ATOM     15  C   UNL     1     167.570 176.942 179.820  1.00  0.00     0.039 C 
ENDBRANCH  11  12
ENDBRANCH   1  11
TORSDOF 4
ENDMDL
MODEL 8
REMARK VINA RESULT:    -4.497     12.307     14.275
REMARK INTER + INTRA:          -7.093
REMARK INTER:                  -5.680
REMARK INTRA:                  -1.413
REMARK UNBOUND:                -1.544
REMARK SMILES CC(C)=CCC[C@H](C)c1ccc(C)cc1
REMARK SMILES IDX 6 1 7 2 8 3 9 4 13 5 12 6 11 7 14 8 10 9 15 10 5 11 4 12
REMARK SMILES IDX 2 13 1 14 3 15
REMARK H PARENT
REMARK Flexibility Score: inf
ROOT
ATOM      1  C   UNL     1     177.208 179.197 180.770  1.00  0.00     0.012 C 
ENDROOT
BRANCH   1   2
ATOM      2  C   UNL     1     175.867 179.714 180.200  1.00  0.00     0.016 C 
ATOM      3  C   UNL     1     174.661 179.240 181.026  1.00  0.00     0.013 C 
BRANCH   2   4
ATOM      4  C   UNL     1     175.712 179.293 178.750  1.00  0.00    -0.045 A 
ATOM      5  C   UNL     1     175.241 178.140 174.614  1.00  0.00     0.044 C 
ATOM      6  C   UNL     1     175.403 178.511 176.058  1.00  0.00    -0.051 A 
ATOM      7  C   UNL     1     176.682 178.601 176.625  1.00  0.00     0.004 A 
ATOM      8  C   UNL     1     174.281 178.837 176.833  1.00  0.00     0.004 A 
ATOM      9  C   UNL     1     176.836 178.983 177.961  1.00  0.00     0.004 A 
ATOM     10  C   UNL     1     174.434 179.219 178.170  1.00  0.00     0.004 A 
ENDBRANCH   2   4
ENDBRANCH   1   2
BRANCH   1  11
ATOM     11  C   UNL     1     177.058 177.872 181.532  1.00  0.00     0.028 C 
BRANCH  11  12
ATOM     12  C   UNL     1     177.645 176.722 180.749  1.00  0.00    -0.028 C 
ATOM     13  C   UNL     1     176.889 175.772 180.157  1.00  0.00    -0.080 C 
ATOM     14  C   UNL     1     175.382 175.797 180.240  1.00  0.00     0.039 C 
ATOM     15  C   UNL     1     177.579 174.668 179.398  1.00  0.00     0.039 C 
ENDBRANCH  11  12
ENDBRANCH   1  11
TORSDOF 4
ENDMDL
MODEL 9
REMARK VINA RESULT:    -4.475      1.807      4.583
REMARK INTER + INTRA:          -7.066
REMARK INTER:                  -5.638
REMARK INTRA:                  -1.428
REMARK UNBOUND:                -1.544
REMARK SMILES CC(C)=CCC[C@H](C)c1ccc(C)cc1
REMARK SMILES IDX 6 1 7 2 8 3 9 4 13 5 12 6 11 7 14 8 10 9 15 10 5 11 4 12
REMARK SMILES IDX 2 13 1 14 3 15
REMARK H PARENT
REMARK Flexibility Score: inf
ROOT
ATOM      1  C   UNL     1     162.702 179.794 180.743  1.00  0.00     0.012 C 
ENDROOT
BRANCH   1   2
ATOM      2  C   UNL     1     161.781 178.694 180.167  1.00  0.00     0.016 C 
ATOM      3  C   UNL     1     161.848 177.392 180.980  1.00  0.00     0.013 C 
BRANCH   2   4
ATOM      4  C   UNL     1     162.124 178.427 178.712  1.00  0.00    -0.045 A 
ATOM      5  C   UNL     1     163.049 177.651 174.565  1.00  0.00     0.044 C 
ATOM      6  C   UNL     1     162.755 177.909 176.012  1.00  0.00    -0.051 A 
ATOM      7  C   UNL     1     163.080 179.144 176.590  1.00  0.00     0.004 A 
ATOM      8  C   UNL     1     162.091 176.944 176.781  1.00  0.00     0.004 A 
ATOM      9  C   UNL     1     162.773 179.400 177.930  1.00  0.00     0.004 A 
ATOM     10  C   UNL     1     161.784 177.197 178.122  1.00  0.00     0.004 A 
ENDBRANCH   2   4
ENDBRANCH   1   2
BRANCH   1  11
ATOM     11  C   UNL     1     163.909 179.221 181.501  1.00  0.00     0.028 C 
BRANCH  11  12
ATOM     12  C   UNL     1     165.189 179.434 180.730  1.00  0.00    -0.028 C 
ATOM     13  C   UNL     1     165.843 178.437 180.097  1.00  0.00    -0.080 C 
ATOM     14  C   UNL     1     165.330 177.018 180.118  1.00  0.00     0.039 C 
ATOM     15  C   UNL     1     167.114 178.762 179.354  1.00  0.00     0.039 C 
ENDBRANCH  11  12
ENDBRANCH   1  11
TORSDOF 4
ENDMDL
