MODEL 1
REMARK VINA RESULT:    -6.514      0.000      0.000
REMARK INTER + INTRA:         -11.624
REMARK INTER:                  -9.942
REMARK INTRA:                  -1.682
REMARK UNBOUND:                -1.682
REMARK SMILES COc1cc(C=CC(=O)CC(=O)C=Cc2ccc(O)c(OC)c2)ccc1O
REMARK SMILES IDX 10 1 8 2 9 3 7 4 6 5 5 6 3 7 26 8 4 9 25 10 24 11 2 12 1 13
REMARK SMILES IDX 27 14 11 16 12 17 13 18 14 19 15 20 23 21 16 22 20 23 17 24
REMARK SMILES IDX 18 25 21 26 22 27 19 28
REMARK H PARENT 27 15 19 29
REMARK Flexibility Score: inf
ROOT
ATOM      1  C   UNL     1      -3.921  25.880  52.994  1.00  0.00     0.160 C 
ENDROOT
BRANCH   1   2
ATOM      2  C   UNL     1      -2.769  24.992  52.631  1.00  0.00     0.163 C 
ATOM      3  O   UNL     1      -1.786  24.906  53.419  1.00  0.00    -0.294 OA
BRANCH   2   4
ATOM      4  C   UNL     1      -2.774  24.264  51.346  1.00  0.00     0.048 C 
ATOM      5  C   UNL     1      -3.897  23.769  50.806  1.00  0.00     0.012 C 
BRANCH   5   6
ATOM      6  C   UNL     1      -3.931  23.029  49.518  1.00  0.00    -0.022 A 
ATOM      7  C   UNL     1      -2.784  21.575  47.914  1.00  0.00     0.161 A 
ATOM      8  C   UNL     1      -3.926  21.579  47.100  1.00  0.00     0.157 A 
ATOM      9  C   UNL     1      -2.796  22.297  49.126  1.00  0.00     0.058 A 
ATOM     10  C   UNL     1      -5.066  22.291  47.493  1.00  0.00     0.051 A 
ATOM     11  C   UNL     1      -5.073  23.007  48.693  1.00  0.00     0.012 A 
BRANCH   7  12
ATOM     12  O   UNL     1      -1.665  20.846  47.486  1.00  0.00    -0.493 OA
ATOM     13  C   UNL     1      -0.586  21.388  46.730  1.00  0.00     0.278 C 
ENDBRANCH   7  12
BRANCH   8  14
ATOM     14  O   UNL     1      -3.921  20.867  45.900  1.00  0.00    -0.504 OA
ATOM     15  H   UNL     1      -4.300  19.927  45.841  1.00  0.00     0.293 HD
ENDBRANCH   8  14
ENDBRANCH   5   6
ENDBRANCH   2   4
ENDBRANCH   1   2
BRANCH   1  16
ATOM     16  C   UNL     1      -3.762  27.222  52.345  1.00  0.00     0.163 C 
ATOM     17  O   UNL     1      -3.195  28.150  52.987  1.00  0.00    -0.294 OA
BRANCH  16  18
ATOM     18  C   UNL     1      -4.266  27.457  50.976  1.00  0.00     0.048 C 
ATOM     19  C   UNL     1      -5.380  26.872  50.515  1.00  0.00     0.012 C 
BRANCH  19  20
ATOM     20  C   UNL     1      -5.901  27.086  49.143  1.00  0.00    -0.022 A 
ATOM     21  C   UNL     1      -7.085  27.810  48.894  1.00  0.00     0.058 A 
ATOM     22  C   UNL     1      -5.213  26.511  48.064  1.00  0.00     0.012 A 
ATOM     23  C   UNL     1      -7.561  27.978  47.576  1.00  0.00     0.161 A 
ATOM     24  C   UNL     1      -5.675  26.684  46.756  1.00  0.00     0.051 A 
ATOM     25  C   UNL     1      -6.842  27.419  46.510  1.00  0.00     0.157 A 
BRANCH  23  26
ATOM     26  O   UNL     1      -8.741  28.683  47.290  1.00  0.00    -0.493 OA
ATOM     27  C   UNL     1     -10.053  28.130  47.366  1.00  0.00     0.278 C 
ENDBRANCH  23  26
BRANCH  25  28
ATOM     28  O   UNL     1      -7.301  27.591  45.204  1.00  0.00    -0.504 OA
ATOM     29  H   UNL     1      -6.876  27.101  44.423  1.00  0.00     0.293 HD
ENDBRANCH  25  28
ENDBRANCH  19  20
ENDBRANCH  16  18
ENDBRANCH   1  16
TORSDOF 10
ENDMDL
MODEL 2
REMARK VINA RESULT:    -6.440      0.173      6.378
REMARK INTER + INTRA:         -11.510
REMARK INTER:                  -9.821
REMARK INTRA:                  -1.689
REMARK UNBOUND:                -1.682
REMARK SMILES COc1cc(C=CC(=O)CC(=O)C=Cc2ccc(O)c(OC)c2)ccc1O
REMARK SMILES IDX 10 1 8 2 9 3 7 4 6 5 5 6 3 7 26 8 4 9 25 10 24 11 2 12 1 13
REMARK SMILES IDX 27 14 11 16 12 17 13 18 14 19 15 20 23 21 16 22 20 23 17 24
REMARK SMILES IDX 18 25 21 26 22 27 19 28
REMARK H PARENT 27 15 19 29
REMARK Flexibility Score: inf
ROOT
ATOM      1  C   UNL     1      -3.949  26.083  53.063  1.00  0.00     0.160 C 
ENDROOT
BRANCH   1   2
ATOM      2  C   UNL     1      -3.725  27.375  52.339  1.00  0.00     0.163 C 
ATOM      3  O   UNL     1      -3.165  28.331  52.944  1.00  0.00    -0.294 OA
BRANCH   2   4
ATOM      4  C   UNL     1      -4.196  27.534  50.947  1.00  0.00     0.048 C 
ATOM      5  C   UNL     1      -5.345  26.996  50.514  1.00  0.00     0.012 C 
BRANCH   5   6
ATOM      6  C   UNL     1      -5.841  27.135  49.120  1.00  0.00    -0.022 A 
ATOM      7  C   UNL     1      -7.572  27.951  47.591  1.00  0.00     0.161 A 
ATOM      8  C   UNL     1      -6.838  27.459  46.503  1.00  0.00     0.157 A 
ATOM      9  C   UNL     1      -7.064  27.791  48.898  1.00  0.00     0.058 A 
ATOM     10  C   UNL     1      -5.611  26.820  46.716  1.00  0.00     0.051 A 
ATOM     11  C   UNL     1      -5.111  26.662  48.012  1.00  0.00     0.012 A 
BRANCH   7  12
ATOM     12  O   UNL     1      -8.795  28.589  47.335  1.00  0.00    -0.493 OA
ATOM     13  C   UNL     1     -10.075  28.022  47.596  1.00  0.00     0.278 C 
ENDBRANCH   7  12
BRANCH   8  14
ATOM     14  O   UNL     1      -7.334  27.614  45.208  1.00  0.00    -0.504 OA
ATOM     15  H   UNL     1      -6.973  27.065  44.434  1.00  0.00     0.293 HD
ENDBRANCH   8  14
ENDBRANCH   5   6
ENDBRANCH   2   4
ENDBRANCH   1   2
BRANCH   1  16
ATOM     16  C   UNL     1      -2.835  25.124  52.768  1.00  0.00     0.163 C 
ATOM     17  O   UNL     1      -1.923  24.962  53.625  1.00  0.00    -0.294 OA
BRANCH  16  18
ATOM     18  C   UNL     1      -2.802  24.385  51.489  1.00  0.00     0.048 C 
ATOM     19  C   UNL     1      -3.908  23.878  50.928  1.00  0.00     0.012 C 
BRANCH  19  20
ATOM     20  C   UNL     1      -3.899  23.125  49.650  1.00  0.00    -0.022 A 
ATOM     21  C   UNL     1      -2.759  22.427  49.199  1.00  0.00     0.058 A 
ATOM     22  C   UNL     1      -5.048  23.145  48.847  1.00  0.00     0.012 A 
ATOM     23  C   UNL     1      -2.779  21.736  47.969  1.00  0.00     0.161 A 
ATOM     24  C   UNL     1      -5.077  22.452  47.634  1.00  0.00     0.051 A 
ATOM     25  C   UNL     1      -3.949  21.745  47.196  1.00  0.00     0.157 A 
BRANCH  23  26
ATOM     26  O   UNL     1      -1.662  21.039  47.483  1.00  0.00    -0.493 OA
ATOM     27  C   UNL     1      -0.590  21.635  46.756  1.00  0.00     0.278 C 
ENDBRANCH  23  26
BRANCH  25  28
ATOM     28  O   UNL     1      -3.980  21.055  45.985  1.00  0.00    -0.504 OA
ATOM     29  H   UNL     1      -3.250  20.398  45.730  1.00  0.00     0.293 HD
ENDBRANCH  25  28
ENDBRANCH  19  20
ENDBRANCH  16  18
ENDBRANCH   1  16
TORSDOF 10
ENDMDL
MODEL 3
REMARK VINA RESULT:    -6.418      4.775     11.172
REMARK INTER + INTRA:         -11.477
REMARK INTER:                 -11.149
REMARK INTRA:                  -0.328
REMARK UNBOUND:                -1.682
REMARK SMILES COc1cc(C=CC(=O)CC(=O)C=Cc2ccc(O)c(OC)c2)ccc1O
REMARK SMILES IDX 10 1 8 2 9 3 7 4 6 5 5 6 3 7 26 8 4 9 25 10 24 11 2 12 1 13
REMARK SMILES IDX 27 14 11 16 12 17 13 18 14 19 15 20 23 21 16 22 20 23 17 24
REMARK SMILES IDX 18 25 21 26 22 27 19 28
REMARK H PARENT 27 15 19 29
REMARK Flexibility Score: inf
ROOT
ATOM      1  C   UNL     1      -1.269  19.834  47.166  1.00  0.00     0.160 C 
ENDROOT
BRANCH   1   2
ATOM      2  C   UNL     1      -2.304  19.476  48.189  1.00  0.00     0.163 C 
ATOM      3  O   UNL     1      -2.311  18.311  48.676  1.00  0.00    -0.294 OA
BRANCH   2   4
ATOM      4  C   UNL     1      -3.327  20.466  48.584  1.00  0.00     0.048 C 
ATOM      5  C   UNL     1      -3.036  21.762  48.770  1.00  0.00     0.012 C 
BRANCH   5   6
ATOM      6  C   UNL     1      -4.042  22.780  49.171  1.00  0.00    -0.022 A 
ATOM      7  C   UNL     1      -4.777  24.464  50.791  1.00  0.00     0.161 A 
ATOM      8  C   UNL     1      -5.893  24.742  49.990  1.00  0.00     0.157 A 
ATOM      9  C   UNL     1      -3.850  23.485  50.372  1.00  0.00     0.058 A 
ATOM     10  C   UNL     1      -6.080  24.055  48.785  1.00  0.00     0.051 A 
ATOM     11  C   UNL     1      -5.162  23.085  48.374  1.00  0.00     0.012 A 
BRANCH   7  12
ATOM     12  O   UNL     1      -4.623  25.177  51.989  1.00  0.00    -0.493 OA
ATOM     13  C   UNL     1      -3.387  25.348  52.677  1.00  0.00     0.278 C 
ENDBRANCH   7  12
BRANCH   8  14
ATOM     14  O   UNL     1      -6.813  25.708  50.399  1.00  0.00    -0.504 OA
ATOM     15  H   UNL     1      -7.811  25.576  50.270  1.00  0.00     0.293 HD
ENDBRANCH   8  14
ENDBRANCH   5   6
ENDBRANCH   2   4
ENDBRANCH   1   2
BRANCH   1  16
ATOM     16  C   UNL     1      -0.573  18.598  46.681  1.00  0.00     0.163 C 
ATOM     17  O   UNL     1      -1.251  17.694  46.118  1.00  0.00    -0.294 OA
BRANCH  16  18
ATOM     18  C   UNL     1       0.885  18.439  46.863  1.00  0.00     0.048 C 
ATOM     19  C   UNL     1       1.689  18.035  45.871  1.00  0.00     0.012 C 
BRANCH  19  20
ATOM     20  C   UNL     1       3.153  17.859  46.032  1.00  0.00    -0.022 A 
ATOM     21  C   UNL     1       4.069  18.232  45.027  1.00  0.00     0.058 A 
ATOM     22  C   UNL     1       3.634  17.263  47.207  1.00  0.00     0.012 A 
ATOM     23  C   UNL     1       5.454  18.033  45.207  1.00  0.00     0.161 A 
ATOM     24  C   UNL     1       5.006  17.074  47.395  1.00  0.00     0.051 A 
ATOM     25  C   UNL     1       5.916  17.461  46.402  1.00  0.00     0.157 A 
BRANCH  23  26
ATOM     26  O   UNL     1       6.395  18.382  44.225  1.00  0.00    -0.493 OA
ATOM     27  C   UNL     1       6.485  17.773  42.939  1.00  0.00     0.278 C 
ENDBRANCH  23  26
BRANCH  25  28
ATOM     28  O   UNL     1       7.284  17.272  46.591  1.00  0.00    -0.504 OA
ATOM     29  H   UNL     1       7.959  17.519  45.874  1.00  0.00     0.293 HD
ENDBRANCH  25  28
ENDBRANCH  19  20
ENDBRANCH  16  18
ENDBRANCH   1  16
TORSDOF 10
ENDMDL
MODEL 4
REMARK VINA RESULT:    -6.283      4.232      7.921
REMARK INTER + INTRA:         -11.271
REMARK INTER:                 -10.652
REMARK INTRA:                  -0.620
REMARK UNBOUND:                -1.682
REMARK SMILES COc1cc(C=CC(=O)CC(=O)C=Cc2ccc(O)c(OC)c2)ccc1O
REMARK SMILES IDX 10 1 8 2 9 3 7 4 6 5 5 6 3 7 26 8 4 9 25 10 24 11 2 12 1 13
REMARK SMILES IDX 27 14 11 16 12 17 13 18 14 19 15 20 23 21 16 22 20 23 17 24
REMARK SMILES IDX 18 25 21 26 22 27 19 28
REMARK H PARENT 27 15 19 29
REMARK Flexibility Score: inf
ROOT
ATOM      1  C   UNL     1      -2.464  19.490  46.534  1.00  0.00     0.160 C 
ENDROOT
BRANCH   1   2
ATOM      2  C   UNL     1      -2.118  18.087  46.133  1.00  0.00     0.163 C 
ATOM      3  O   UNL     1      -3.045  17.289  45.823  1.00  0.00    -0.294 OA
BRANCH   2   4
ATOM      4  C   UNL     1      -0.709  17.642  46.145  1.00  0.00     0.048 C 
ATOM      5  C   UNL     1       0.305  18.477  46.418  1.00  0.00     0.012 C 
BRANCH   5   6
ATOM      6  C   UNL     1       1.731  18.058  46.433  1.00  0.00    -0.022 A 
ATOM      7  C   UNL     1       3.695  17.291  45.187  1.00  0.00     0.161 A 
ATOM      8  C   UNL     1       4.438  17.275  46.375  1.00  0.00     0.157 A 
ATOM      9  C   UNL     1       2.342  17.691  45.222  1.00  0.00     0.058 A 
ATOM     10  C   UNL     1       3.840  17.657  47.582  1.00  0.00     0.051 A 
ATOM     11  C   UNL     1       2.499  18.050  47.614  1.00  0.00     0.012 A 
BRANCH   7  12
ATOM     12  O   UNL     1       4.332  16.906  43.998  1.00  0.00    -0.493 OA
ATOM     13  C   UNL     1       5.064  17.786  43.150  1.00  0.00     0.278 C 
ENDBRANCH   7  12
BRANCH   8  14
ATOM     14  O   UNL     1       5.776  16.881  46.348  1.00  0.00    -0.504 OA
ATOM     15  H   UNL     1       6.192  16.478  45.515  1.00  0.00     0.293 HD
ENDBRANCH   8  14
ENDBRANCH   5   6
ENDBRANCH   2   4
ENDBRANCH   1   2
BRANCH   1  16
ATOM     16  C   UNL     1      -3.024  19.506  47.924  1.00  0.00     0.163 C 
ATOM     17  O   UNL     1      -2.750  18.553  48.707  1.00  0.00    -0.294 OA
BRANCH  16  18
ATOM     18  C   UNL     1      -3.888  20.618  48.371  1.00  0.00     0.048 C 
ATOM     19  C   UNL     1      -3.387  21.758  48.866  1.00  0.00     0.012 C 
BRANCH  19  20
ATOM     20  C   UNL     1      -4.234  22.884  49.329  1.00  0.00    -0.022 A 
ATOM     21  C   UNL     1      -3.996  23.549  50.550  1.00  0.00     0.058 A 
ATOM     22  C   UNL     1      -5.331  23.269  48.546  1.00  0.00     0.012 A 
ATOM     23  C   UNL     1      -4.833  24.604  50.969  1.00  0.00     0.161 A 
ATOM     24  C   UNL     1      -6.156  24.321  48.950  1.00  0.00     0.051 A 
ATOM     25  C   UNL     1      -5.908  24.992  50.155  1.00  0.00     0.157 A 
BRANCH  23  26
ATOM     26  O   UNL     1      -4.634  25.282  52.182  1.00  0.00    -0.493 OA
ATOM     27  C   UNL     1      -3.390  25.832  52.607  1.00  0.00     0.278 C 
ENDBRANCH  23  26
BRANCH  25  28
ATOM     28  O   UNL     1      -6.733  26.042  50.557  1.00  0.00    -0.504 OA
ATOM     29  H   UNL     1      -7.251  26.597  49.885  1.00  0.00     0.293 HD
ENDBRANCH  25  28
ENDBRANCH  19  20
ENDBRANCH  16  18
ENDBRANCH   1  16
TORSDOF 10
ENDMDL
MODEL 5
REMARK VINA RESULT:    -6.263      0.958      1.976
REMARK INTER + INTRA:         -11.240
REMARK INTER:                  -9.534
REMARK INTRA:                  -1.705
REMARK UNBOUND:                -1.682
REMARK SMILES COc1cc(C=CC(=O)CC(=O)C=Cc2ccc(O)c(OC)c2)ccc1O
REMARK SMILES IDX 10 1 8 2 9 3 7 4 6 5 5 6 3 7 26 8 4 9 25 10 24 11 2 12 1 13
REMARK SMILES IDX 27 14 11 16 12 17 13 18 14 19 15 20 23 21 16 22 20 23 17 24
REMARK SMILES IDX 18 25 21 26 22 27 19 28
REMARK H PARENT 27 15 19 29
REMARK Flexibility Score: inf
ROOT
ATOM      1  C   UNL     1      -3.970  26.609  53.327  1.00  0.00     0.160 C 
ENDROOT
BRANCH   1   2
ATOM      2  C   UNL     1      -3.089  25.428  53.050  1.00  0.00     0.163 C 
ATOM      3  O   UNL     1      -1.982  25.332  53.647  1.00  0.00    -0.294 OA
BRANCH   2   4
ATOM      4  C   UNL     1      -3.502  24.417  52.055  1.00  0.00     0.048 C 
ATOM      5  C   UNL     1      -2.940  24.334  50.840  1.00  0.00     0.012 C 
BRANCH   5   6
ATOM      6  C   UNL     1      -3.338  23.331  49.819  1.00  0.00    -0.022 A 
ATOM      7  C   UNL     1      -2.709  21.444  48.389  1.00  0.00     0.161 A 
ATOM      8  C   UNL     1      -4.021  21.382  47.900  1.00  0.00     0.157 A 
ATOM      9  C   UNL     1      -2.375  22.418  49.355  1.00  0.00     0.058 A 
ATOM     10  C   UNL     1      -4.989  22.277  48.371  1.00  0.00     0.051 A 
ATOM     11  C   UNL     1      -4.655  23.241  49.326  1.00  0.00     0.012 A 
BRANCH   7  12
ATOM     12  O   UNL     1      -1.770  20.527  47.894  1.00  0.00    -0.493 OA
ATOM     13  C   UNL     1      -0.998  20.716  46.712  1.00  0.00     0.278 C 
ENDBRANCH   7  12
BRANCH   8  14
ATOM     14  O   UNL     1      -4.358  20.422  46.945  1.00  0.00    -0.504 OA
ATOM     15  H   UNL     1      -3.766  20.246  46.140  1.00  0.00     0.293 HD
ENDBRANCH   8  14
ENDBRANCH   5   6
ENDBRANCH   2   4
ENDBRANCH   1   2
BRANCH   1  16
ATOM     16  C   UNL     1      -3.575  27.764  52.455  1.00  0.00     0.163 C 
ATOM     17  O   UNL     1      -2.815  28.655  52.926  1.00  0.00    -0.294 OA
BRANCH  16  18
ATOM     18  C   UNL     1      -4.073  27.859  51.068  1.00  0.00     0.048 C 
ATOM     19  C   UNL     1      -5.188  27.235  50.663  1.00  0.00     0.012 C 
BRANCH  19  20
ATOM     20  C   UNL     1      -5.702  27.308  49.275  1.00  0.00    -0.022 A 
ATOM     21  C   UNL     1      -5.077  26.632  48.207  1.00  0.00     0.058 A 
ATOM     22  C   UNL     1      -6.820  28.112  49.011  1.00  0.00     0.012 A 
ATOM     23  C   UNL     1      -5.583  26.738  46.894  1.00  0.00     0.161 A 
ATOM     24  C   UNL     1      -7.332  28.212  47.715  1.00  0.00     0.051 A 
ATOM     25  C   UNL     1      -6.720  27.525  46.658  1.00  0.00     0.157 A 
BRANCH  23  26
ATOM     26  O   UNL     1      -4.982  26.088  45.804  1.00  0.00    -0.493 OA
ATOM     27  C   UNL     1      -4.031  25.033  45.916  1.00  0.00     0.278 C 
ENDBRANCH  23  26
BRANCH  25  28
ATOM     28  O   UNL     1      -7.232  27.626  45.365  1.00  0.00    -0.504 OA
ATOM     29  H   UNL     1      -7.727  28.455  45.053  1.00  0.00     0.293 HD
ENDBRANCH  25  28
ENDBRANCH  19  20
ENDBRANCH  16  18
ENDBRANCH   1  16
TORSDOF 10
ENDMDL
MODEL 6
REMARK VINA RESULT:    -6.248      1.050      5.835
REMARK INTER + INTRA:         -11.217
REMARK INTER:                  -9.373
REMARK INTRA:                  -1.844
REMARK UNBOUND:                -1.682
REMARK SMILES COc1cc(C=CC(=O)CC(=O)C=Cc2ccc(O)c(OC)c2)ccc1O
REMARK SMILES IDX 10 1 8 2 9 3 7 4 6 5 5 6 3 7 26 8 4 9 25 10 24 11 2 12 1 13
REMARK SMILES IDX 27 14 11 16 12 17 13 18 14 19 15 20 23 21 16 22 20 23 17 24
REMARK SMILES IDX 18 25 21 26 22 27 19 28
REMARK H PARENT 27 15 19 29
REMARK Flexibility Score: inf
ROOT
ATOM      1  C   UNL     1      -3.788  26.631  53.394  1.00  0.00     0.160 C 
ENDROOT
BRANCH   1   2
ATOM      2  C   UNL     1      -3.433  27.780  52.500  1.00  0.00     0.163 C 
ATOM      3  O   UNL     1      -2.764  28.742  52.969  1.00  0.00    -0.294 OA
BRANCH   2   4
ATOM      4  C   UNL     1      -3.902  27.798  51.099  1.00  0.00     0.048 C 
ATOM      5  C   UNL     1      -5.105  27.327  50.739  1.00  0.00     0.012 C 
BRANCH   5   6
ATOM      6  C   UNL     1      -5.601  27.327  49.338  1.00  0.00    -0.022 A 
ATOM      7  C   UNL     1      -5.224  26.739  46.990  1.00  0.00     0.161 A 
ATOM      8  C   UNL     1      -6.480  27.267  46.661  1.00  0.00     0.157 A 
ATOM      9  C   UNL     1      -4.793  26.766  48.334  1.00  0.00     0.058 A 
ATOM     10  C   UNL     1      -7.297  27.812  47.660  1.00  0.00     0.051 A 
ATOM     11  C   UNL     1      -6.866  27.838  48.988  1.00  0.00     0.012 A 
BRANCH   7  12
ATOM     12  O   UNL     1      -4.438  26.200  45.961  1.00  0.00    -0.493 OA
ATOM     13  C   UNL     1      -3.746  24.957  46.037  1.00  0.00     0.278 C 
ENDBRANCH   7  12
BRANCH   8  14
ATOM     14  O   UNL     1      -6.913  27.245  45.334  1.00  0.00    -0.504 OA
ATOM     15  H   UNL     1      -6.577  26.545  44.680  1.00  0.00     0.293 HD
ENDBRANCH   8  14
ENDBRANCH   5   6
ENDBRANCH   2   4
ENDBRANCH   1   2
BRANCH   1  16
ATOM     16  C   UNL     1      -2.906  25.456  53.100  1.00  0.00     0.163 C 
ATOM     17  O   UNL     1      -1.790  25.365  53.684  1.00  0.00    -0.294 OA
BRANCH  16  18
ATOM     18  C   UNL     1      -3.333  24.421  52.136  1.00  0.00     0.048 C 
ATOM     19  C   UNL     1      -2.828  24.345  50.897  1.00  0.00     0.012 C 
BRANCH  19  20
ATOM     20  C   UNL     1      -3.247  23.322  49.910  1.00  0.00    -0.022 A 
ATOM     21  C   UNL     1      -2.355  22.349  49.412  1.00  0.00     0.058 A 
ATOM     22  C   UNL     1      -4.563  23.352  49.425  1.00  0.00     0.012 A 
ATOM     23  C   UNL     1      -2.784  21.401  48.459  1.00  0.00     0.161 A 
ATOM     24  C   UNL     1      -4.995  22.408  48.490  1.00  0.00     0.051 A 
ATOM     25  C   UNL     1      -4.112  21.431  48.010  1.00  0.00     0.157 A 
BRANCH  23  26
ATOM     26  O   UNL     1      -1.922  20.425  47.934  1.00  0.00    -0.493 OA
ATOM     27  C   UNL     1      -1.055  20.626  46.821  1.00  0.00     0.278 C 
ENDBRANCH  23  26
BRANCH  25  28
ATOM     28  O   UNL     1      -4.545  20.490  47.077  1.00  0.00    -0.504 OA
ATOM     29  H   UNL     1      -4.556  19.498  47.289  1.00  0.00     0.293 HD
ENDBRANCH  25  28
ENDBRANCH  19  20
ENDBRANCH  16  18
ENDBRANCH   1  16
TORSDOF 10
ENDMDL
MODEL 7
REMARK VINA RESULT:    -6.104      2.726      7.139
REMARK INTER + INTRA:         -10.998
REMARK INTER:                  -9.439
REMARK INTRA:                  -1.559
REMARK UNBOUND:                -1.682
REMARK SMILES COc1cc(C=CC(=O)CC(=O)C=Cc2ccc(O)c(OC)c2)ccc1O
REMARK SMILES IDX 10 1 8 2 9 3 7 4 6 5 5 6 3 7 26 8 4 9 25 10 24 11 2 12 1 13
REMARK SMILES IDX 27 14 11 16 12 17 13 18 14 19 15 20 23 21 16 22 20 23 17 24
REMARK SMILES IDX 18 25 21 26 22 27 19 28
REMARK H PARENT 27 15 19 29
REMARK Flexibility Score: inf
ROOT
ATOM      1  C   UNL     1      -6.093  24.675  50.002  1.00  0.00     0.160 C 
ENDROOT
BRANCH   1   2
ATOM      2  C   UNL     1      -5.239  25.762  50.582  1.00  0.00     0.163 C 
ATOM      3  O   UNL     1      -5.734  26.911  50.748  1.00  0.00    -0.294 OA
BRANCH   2   4
ATOM      4  C   UNL     1      -3.824  25.494  50.911  1.00  0.00     0.048 C 
ATOM      5  C   UNL     1      -3.457  24.537  51.775  1.00  0.00     0.012 C 
BRANCH   5   6
ATOM      6  C   UNL     1      -2.043  24.248  52.128  1.00  0.00    -0.022 A 
ATOM      7  C   UNL     1       0.214  23.653  51.387  1.00  0.00     0.161 A 
ATOM      8  C   UNL     1       0.662  23.712  52.714  1.00  0.00     0.157 A 
ATOM      9  C   UNL     1      -1.139  23.929  51.099  1.00  0.00     0.058 A 
ATOM     10  C   UNL     1      -0.230  24.045  53.741  1.00  0.00     0.051 A 
ATOM     11  C   UNL     1      -1.570  24.317  53.453  1.00  0.00     0.012 A 
BRANCH   7  12
ATOM     12  O   UNL     1       1.140  23.319  50.387  1.00  0.00    -0.493 OA
ATOM     13  C   UNL     1       0.863  23.331  48.989  1.00  0.00     0.278 C 
ENDBRANCH   7  12
BRANCH   8  14
ATOM     14  O   UNL     1       1.999  23.439  53.005  1.00  0.00    -0.504 OA
ATOM     15  H   UNL     1       2.383  23.603  53.930  1.00  0.00     0.293 HD
ENDBRANCH   8  14
ENDBRANCH   5   6
ENDBRANCH   2   4
ENDBRANCH   1   2
BRANCH   1  16
ATOM     16  C   UNL     1      -5.709  24.423  48.575  1.00  0.00     0.163 C 
ATOM     17  O   UNL     1      -5.845  25.351  47.731  1.00  0.00    -0.294 OA
BRANCH  16  18
ATOM     18  C   UNL     1      -5.185  23.105  48.162  1.00  0.00     0.048 C 
ATOM     19  C   UNL     1      -4.309  22.418  48.908  1.00  0.00     0.012 C 
BRANCH  19  20
ATOM     20  C   UNL     1      -3.762  21.098  48.511  1.00  0.00    -0.022 A 
ATOM     21  C   UNL     1      -2.428  20.937  48.082  1.00  0.00     0.058 A 
ATOM     22  C   UNL     1      -4.613  19.984  48.522  1.00  0.00     0.012 A 
ATOM     23  C   UNL     1      -1.946  19.669  47.693  1.00  0.00     0.161 A 
ATOM     24  C   UNL     1      -4.138  18.725  48.148  1.00  0.00     0.051 A 
ATOM     25  C   UNL     1      -2.807  18.564  47.739  1.00  0.00     0.157 A 
BRANCH  23  26
ATOM     26  O   UNL     1      -0.628  19.473  47.251  1.00  0.00    -0.493 OA
ATOM     27  C   UNL     1       0.211  20.498  46.726  1.00  0.00     0.278 C 
ENDBRANCH  23  26
BRANCH  25  28
ATOM     28  O   UNL     1      -2.334  17.306  47.367  1.00  0.00    -0.504 OA
ATOM     29  H   UNL     1      -1.676  16.794  47.945  1.00  0.00     0.293 HD
ENDBRANCH  25  28
ENDBRANCH  19  20
ENDBRANCH  16  18
ENDBRANCH   1  16
TORSDOF 10
ENDMDL
MODEL 8
REMARK VINA RESULT:    -6.060      2.678      6.257
REMARK INTER + INTRA:         -10.931
REMARK INTER:                  -9.322
REMARK INTRA:                  -1.609
REMARK UNBOUND:                -1.682
REMARK SMILES COc1cc(C=CC(=O)CC(=O)C=Cc2ccc(O)c(OC)c2)ccc1O
REMARK SMILES IDX 10 1 8 2 9 3 7 4 6 5 5 6 3 7 26 8 4 9 25 10 24 11 2 12 1 13
REMARK SMILES IDX 27 14 11 16 12 17 13 18 14 19 15 20 23 21 16 22 20 23 17 24
REMARK SMILES IDX 18 25 21 26 22 27 19 28
REMARK H PARENT 27 15 19 29
REMARK Flexibility Score: inf
ROOT
ATOM      1  C   UNL     1      -6.365  24.835  49.775  1.00  0.00     0.160 C 
ENDROOT
BRANCH   1   2
ATOM      2  C   UNL     1      -5.778  24.443  48.453  1.00  0.00     0.163 C 
ATOM      3  O   UNL     1      -5.663  25.315  47.547  1.00  0.00    -0.294 OA
BRANCH   2   4
ATOM      4  C   UNL     1      -5.381  23.041  48.208  1.00  0.00     0.048 C 
ATOM      5  C   UNL     1      -4.111  22.625  48.320  1.00  0.00     0.012 C 
BRANCH   5   6
ATOM      6  C   UNL     1      -3.683  21.223  48.074  1.00  0.00    -0.022 A 
ATOM      7  C   UNL     1      -2.011  19.679  47.170  1.00  0.00     0.161 A 
ATOM      8  C   UNL     1      -2.789  18.593  47.594  1.00  0.00     0.157 A 
ATOM      9  C   UNL     1      -2.460  20.993  47.420  1.00  0.00     0.058 A 
ATOM     10  C   UNL     1      -3.999  18.816  48.262  1.00  0.00     0.051 A 
ATOM     11  C   UNL     1      -4.443  20.118  48.506  1.00  0.00     0.012 A 
BRANCH   7  12
ATOM     12  O   UNL     1      -0.803  19.413  46.508  1.00  0.00    -0.493 OA
ATOM     13  C   UNL     1       0.480  19.423  47.128  1.00  0.00     0.278 C 
ENDBRANCH   7  12
BRANCH   8  14
ATOM     14  O   UNL     1      -2.351  17.291  47.350  1.00  0.00    -0.504 OA
ATOM     15  H   UNL     1      -1.411  16.995  47.594  1.00  0.00     0.293 HD
ENDBRANCH   8  14
ENDBRANCH   5   6
ENDBRANCH   2   4
ENDBRANCH   1   2
BRANCH   1  16
ATOM     16  C   UNL     1      -5.488  25.847  50.449  1.00  0.00     0.163 C 
ATOM     17  O   UNL     1      -5.981  26.961  50.782  1.00  0.00    -0.294 OA
BRANCH  16  18
ATOM     18  C   UNL     1      -4.066  25.547  50.717  1.00  0.00     0.048 C 
ATOM     19  C   UNL     1      -3.686  24.558  51.537  1.00  0.00     0.012 C 
BRANCH  19  20
ATOM     20  C   UNL     1      -2.266  24.244  51.827  1.00  0.00    -0.022 A 
ATOM     21  C   UNL     1      -1.309  24.082  50.804  1.00  0.00     0.058 A 
ATOM     22  C   UNL     1      -1.875  24.061  53.161  1.00  0.00     0.012 A 
ATOM     23  C   UNL     1       0.030  23.765  51.116  1.00  0.00     0.161 A 
ATOM     24  C   UNL     1      -0.548  23.758  53.476  1.00  0.00     0.051 A 
ATOM     25  C   UNL     1       0.405  23.615  52.459  1.00  0.00     0.157 A 
BRANCH  23  26
ATOM     26  O   UNL     1       1.008  23.586  50.125  1.00  0.00    -0.493 OA
ATOM     27  C   UNL     1       0.819  22.835  48.928  1.00  0.00     0.278 C 
ENDBRANCH  23  26
BRANCH  25  28
ATOM     28  O   UNL     1       1.729  23.313  52.775  1.00  0.00    -0.504 OA
ATOM     29  H   UNL     1       1.974  22.842  53.640  1.00  0.00     0.293 HD
ENDBRANCH  25  28
ENDBRANCH  19  20
ENDBRANCH  16  18
ENDBRANCH   1  16
TORSDOF 10
ENDMDL
MODEL 9
REMARK VINA RESULT:    -5.998      3.062      7.991
REMARK INTER + INTRA:         -10.836
REMARK INTER:                  -9.310
REMARK INTRA:                  -1.526
REMARK UNBOUND:                -1.682
REMARK SMILES COc1cc(C=CC(=O)CC(=O)C=Cc2ccc(O)c(OC)c2)ccc1O
REMARK SMILES IDX 10 1 8 2 9 3 7 4 6 5 5 6 3 7 26 8 4 9 25 10 24 11 2 12 1 13
REMARK SMILES IDX 27 14 11 16 12 17 13 18 14 19 15 20 23 21 16 22 20 23 17 24
REMARK SMILES IDX 18 25 21 26 22 27 19 28
REMARK H PARENT 27 15 19 29
REMARK Flexibility Score: inf
ROOT
ATOM      1  C   UNL     1      -1.934  24.527  43.874  1.00  0.00     0.160 C 
ENDROOT
BRANCH   1   2
ATOM      2  C   UNL     1      -2.464  25.912  44.090  1.00  0.00     0.163 C 
ATOM      3  O   UNL     1      -2.211  26.808  43.239  1.00  0.00    -0.294 OA
BRANCH   2   4
ATOM      4  C   UNL     1      -3.238  26.224  45.310  1.00  0.00     0.048 C 
ATOM      5  C   UNL     1      -4.287  25.487  45.702  1.00  0.00     0.012 C 
BRANCH   5   6
ATOM      6  C   UNL     1      -5.086  25.780  46.921  1.00  0.00    -0.022 A 
ATOM      7  C   UNL     1      -5.708  25.162  49.208  1.00  0.00     0.161 A 
ATOM      8  C   UNL     1      -6.549  26.281  49.277  1.00  0.00     0.157 A 
ATOM      9  C   UNL     1      -4.972  24.921  48.028  1.00  0.00     0.058 A 
ATOM     10  C   UNL     1      -6.653  27.150  48.184  1.00  0.00     0.051 A 
ATOM     11  C   UNL     1      -5.925  26.907  47.016  1.00  0.00     0.012 A 
BRANCH   7  12
ATOM     12  O   UNL     1      -5.628  24.319  50.326  1.00  0.00    -0.493 OA
ATOM     13  C   UNL     1      -4.581  24.350  51.291  1.00  0.00     0.278 C 
ENDBRANCH   7  12
BRANCH   8  14
ATOM     14  O   UNL     1      -7.279  26.526  50.441  1.00  0.00    -0.504 OA
ATOM     15  H   UNL     1      -7.876  27.342  50.529  1.00  0.00     0.293 HD
ENDBRANCH   8  14
ENDBRANCH   5   6
ENDBRANCH   2   4
ENDBRANCH   1   2
BRANCH   1  16
ATOM     16  C   UNL     1      -1.029  24.138  45.004  1.00  0.00     0.163 C 
ATOM     17  O   UNL     1       0.005  24.828  45.227  1.00  0.00    -0.294 OA
BRANCH  16  18
ATOM     18  C   UNL     1      -1.340  22.961  45.842  1.00  0.00     0.048 C 
ATOM     19  C   UNL     1      -2.559  22.405  45.870  1.00  0.00     0.012 C 
BRANCH  19  20
ATOM     20  C   UNL     1      -2.897  21.231  46.710  1.00  0.00    -0.022 A 
ATOM     21  C   UNL     1      -2.801  19.910  46.225  1.00  0.00     0.058 A 
ATOM     22  C   UNL     1      -3.367  21.446  48.013  1.00  0.00     0.012 A 
ATOM     23  C   UNL     1      -3.149  18.816  47.046  1.00  0.00     0.161 A 
ATOM     24  C   UNL     1      -3.701  20.366  48.833  1.00  0.00     0.051 A 
ATOM     25  C   UNL     1      -3.589  19.053  48.356  1.00  0.00     0.157 A 
BRANCH  23  26
ATOM     26  O   UNL     1      -3.076  17.488  46.594  1.00  0.00    -0.493 OA
ATOM     27  C   UNL     1      -3.354  17.071  45.260  1.00  0.00     0.278 C 
ENDBRANCH  23  26
BRANCH  25  28
ATOM     28  O   UNL     1      -3.923  17.977  49.176  1.00  0.00    -0.504 OA
ATOM     29  H   UNL     1      -3.220  17.325  49.509  1.00  0.00     0.293 HD
ENDBRANCH  25  28
ENDBRANCH  19  20
ENDBRANCH  16  18
ENDBRANCH   1  16
TORSDOF 10
ENDMDL
