MODEL 1
REMARK VINA RESULT:    -4.219      0.000      0.000
REMARK INTER + INTRA:          -8.906
REMARK INTER:                  -7.671
REMARK INTRA:                  -1.235
REMARK UNBOUND:                -1.235
REMARK SMILES CCCCCCCCCCCCCCCC(=O)[O-]
REMARK SMILES IDX 9 1 10 2 11 3 12 4 13 5 14 6 15 7 16 8 17 9 18 10 8 11 7 12
REMARK SMILES IDX 6 13 5 14 4 15 3 16 2 17 1 18
REMARK H PARENT
REMARK Flexibility Score: inf
ROOT
ATOM      1  C   UNL     1       3.521  27.585 110.794  1.00  0.00     0.000 C 
ENDROOT
BRANCH   1   2
ATOM      2  C   UNL     1       2.609  27.598 112.030  1.00  0.00     0.000 C 
BRANCH   2   3
ATOM      3  C   UNL     1       2.479  28.996 112.662  1.00  0.00     0.000 C 
BRANCH   3   4
ATOM      4  C   UNL     1       3.465  30.052 112.123  1.00  0.00     0.000 C 
BRANCH   4   5
ATOM      5  C   UNL     1       3.964  31.071 113.162  1.00  0.00     0.000 C 
BRANCH   5   6
ATOM      6  C   UNL     1       5.489  31.034 113.349  1.00  0.00     0.006 C 
BRANCH   6   7
ATOM      7  C   UNL     1       5.872  31.368 114.794  1.00  0.00     0.053 C 
BRANCH   7   8
ATOM      8  C   UNL     1       7.250  31.946 114.849  1.00  0.00     0.041 C 
ATOM      9  O   UNL     1       7.633  32.578 115.869  1.00  0.00    -0.550 OA
ATOM     10  O   UNL     1       8.131  31.746 113.793  1.00  0.00    -0.550 OA
ENDBRANCH   7   8
ENDBRANCH   6   7
ENDBRANCH   5   6
ENDBRANCH   4   5
ENDBRANCH   3   4
ENDBRANCH   2   3
ENDBRANCH   1   2
BRANCH   1  11
ATOM     11  C   UNL     1       3.849  26.145 110.371  1.00  0.00     0.000 C 
BRANCH  11  12
ATOM     12  C   UNL     1       4.385  25.293 111.531  1.00  0.00    -0.000 C 
BRANCH  12  13
ATOM     13  C   UNL     1       5.864  24.906 111.350  1.00  0.00    -0.000 C 
BRANCH  13  14
ATOM     14  C   UNL     1       6.818  26.037 111.789  1.00  0.00    -0.000 C 
BRANCH  14  15
ATOM     15  C   UNL     1       7.580  26.690 110.623  1.00  0.00    -0.000 C 
BRANCH  15  16
ATOM     16  C   UNL     1       7.607  25.811 109.361  1.00  0.00    -0.000 C 
BRANCH  16  17
ATOM     17  C   UNL     1       6.940  26.492 108.156  1.00  0.00    -0.003 C 
ATOM     18  C   UNL     1       7.228  25.777 106.836  1.00  0.00     0.004 C 
ENDBRANCH  16  17
ENDBRANCH  15  16
ENDBRANCH  14  15
ENDBRANCH  13  14
ENDBRANCH  12  13
ENDBRANCH  11  12
ENDBRANCH   1  11
TORSDOF 14
ENDMDL
MODEL 2
REMARK VINA RESULT:    -4.218      4.134      6.889
REMARK INTER + INTRA:          -8.906
REMARK INTER:                  -6.816
REMARK INTRA:                  -2.090
REMARK UNBOUND:                -1.235
REMARK SMILES CCCCCCCCCCCCCCCC(=O)[O-]
REMARK SMILES IDX 9 1 10 2 11 3 12 4 13 5 14 6 15 7 16 8 17 9 18 10 8 11 7 12
REMARK SMILES IDX 6 13 5 14 4 15 3 16 2 17 1 18
REMARK H PARENT
REMARK Flexibility Score: inf
ROOT
ATOM      1  C   UNL     1       2.753  25.916 114.047  1.00  0.00     0.000 C 
ENDROOT
BRANCH   1   2
ATOM      2  C   UNL     1       2.272  25.659 112.611  1.00  0.00     0.000 C 
BRANCH   2   3
ATOM      3  C   UNL     1       2.216  26.942 111.761  1.00  0.00     0.000 C 
BRANCH   3   4
ATOM      4  C   UNL     1       3.234  27.004 110.604  1.00  0.00     0.000 C 
BRANCH   4   5
ATOM      5  C   UNL     1       4.127  25.760 110.452  1.00  0.00     0.000 C 
BRANCH   5   6
ATOM      6  C   UNL     1       5.578  26.010 110.892  1.00  0.00     0.006 C 
BRANCH   6   7
ATOM      7  C   UNL     1       6.277  24.694 111.247  1.00  0.00     0.053 C 
BRANCH   7   8
ATOM      8  C   UNL     1       7.649  24.958 111.780  1.00  0.00     0.041 C 
ATOM      9  O   UNL     1       8.273  25.997 111.439  1.00  0.00    -0.550 OA
ATOM     10  O   UNL     1       8.221  24.080 112.693  1.00  0.00    -0.550 OA
ENDBRANCH   7   8
ENDBRANCH   6   7
ENDBRANCH   5   6
ENDBRANCH   4   5
ENDBRANCH   3   4
ENDBRANCH   2   3
ENDBRANCH   1   2
BRANCH   1  11
ATOM     11  C   UNL     1       3.353  24.641 114.659  1.00  0.00     0.000 C 
BRANCH  11  12
ATOM     12  C   UNL     1       3.789  23.622 113.596  1.00  0.00    -0.000 C 
BRANCH  12  13
ATOM     13  C   UNL     1       3.410  22.176 113.967  1.00  0.00    -0.000 C 
BRANCH  13  14
ATOM     14  C   UNL     1       1.896  21.916 113.819  1.00  0.00    -0.000 C 
BRANCH  14  15
ATOM     15  C   UNL     1       1.192  21.595 115.148  1.00  0.00    -0.000 C 
BRANCH  15  16
ATOM     16  C   UNL     1       0.222  22.702 115.593  1.00  0.00    -0.000 C 
BRANCH  16  17
ATOM     17  C   UNL     1      -0.261  23.567 114.419  1.00  0.00    -0.003 C 
ATOM     18  C   UNL     1      -0.799  24.927 114.866  1.00  0.00     0.004 C 
ENDBRANCH  16  17
ENDBRANCH  15  16
ENDBRANCH  14  15
ENDBRANCH  13  14
ENDBRANCH  12  13
ENDBRANCH  11  12
ENDBRANCH   1  11
TORSDOF 14
ENDMDL
MODEL 3
REMARK VINA RESULT:    -4.150      3.848      6.902
REMARK INTER + INTRA:          -8.781
REMARK INTER:                  -6.714
REMARK INTRA:                  -2.066
REMARK UNBOUND:                -1.235
REMARK SMILES CCCCCCCCCCCCCCCC(=O)[O-]
REMARK SMILES IDX 9 1 10 2 11 3 12 4 13 5 14 6 15 7 16 8 17 9 18 10 8 11 7 12
REMARK SMILES IDX 6 13 5 14 4 15 3 16 2 17 1 18
REMARK H PARENT
REMARK Flexibility Score: inf
ROOT
ATOM      1  C   UNL     1       1.808  21.515 114.059  1.00  0.00     0.000 C 
ENDROOT
BRANCH   1   2
ATOM      2  C   UNL     1       3.269  21.778 113.666  1.00  0.00     0.000 C 
BRANCH   2   3
ATOM      3  C   UNL     1       3.975  22.766 114.614  1.00  0.00     0.000 C 
BRANCH   3   4
ATOM      4  C   UNL     1       4.752  23.900 113.916  1.00  0.00     0.000 C 
BRANCH   4   5
ATOM      5  C   UNL     1       4.763  23.835 112.378  1.00  0.00     0.000 C 
BRANCH   5   6
ATOM      6  C   UNL     1       5.059  25.194 111.726  1.00  0.00     0.006 C 
BRANCH   6   7
ATOM      7  C   UNL     1       3.889  25.645 110.846  1.00  0.00     0.053 C 
BRANCH   7   8
ATOM      8  C   UNL     1       4.311  26.763 109.947  1.00  0.00     0.041 C 
ATOM      9  O   UNL     1       3.558  27.757 109.774  1.00  0.00    -0.550 OA
ATOM     10  O   UNL     1       5.558  26.729 109.335  1.00  0.00    -0.550 OA
ENDBRANCH   7   8
ENDBRANCH   6   7
ENDBRANCH   5   6
ENDBRANCH   4   5
ENDBRANCH   3   4
ENDBRANCH   2   3
ENDBRANCH   1   2
BRANCH   1  11
ATOM     11  C   UNL     1       1.167  22.776 114.658  1.00  0.00     0.000 C 
BRANCH  11  12
ATOM     12  C   UNL     1       0.414  23.612 113.613  1.00  0.00    -0.000 C 
BRANCH  12  13
ATOM     13  C   UNL     1       1.188  24.874 113.190  1.00  0.00    -0.000 C 
BRANCH  13  14
ATOM     14  C   UNL     1       1.017  26.027 114.201  1.00  0.00    -0.000 C 
BRANCH  14  15
ATOM     15  C   UNL     1       0.865  27.409 113.542  1.00  0.00    -0.000 C 
BRANCH  15  16
ATOM     16  C   UNL     1       2.203  27.988 113.054  1.00  0.00    -0.000 C 
BRANCH  16  17
ATOM     17  C   UNL     1       3.079  28.497 114.209  1.00  0.00    -0.003 C 
ATOM     18  C   UNL     1       4.322  27.636 114.435  1.00  0.00     0.004 C 
ENDBRANCH  16  17
ENDBRANCH  15  16
ENDBRANCH  14  15
ENDBRANCH  13  14
ENDBRANCH  12  13
ENDBRANCH  11  12
ENDBRANCH   1  11
TORSDOF 14
ENDMDL
MODEL 4
REMARK VINA RESULT:    -4.134      3.107      5.947
REMARK INTER + INTRA:          -8.752
REMARK INTER:                  -6.216
REMARK INTRA:                  -2.536
REMARK UNBOUND:                -1.235
REMARK SMILES CCCCCCCCCCCCCCCC(=O)[O-]
REMARK SMILES IDX 9 1 10 2 11 3 12 4 13 5 14 6 15 7 16 8 17 9 18 10 8 11 7 12
REMARK SMILES IDX 6 13 5 14 4 15 3 16 2 17 1 18
REMARK H PARENT
REMARK Flexibility Score: inf
ROOT
ATOM      1  C   UNL     1       2.134  24.923 114.377  1.00  0.00     0.000 C 
ENDROOT
BRANCH   1   2
ATOM      2  C   UNL     1       3.663  24.778 114.393  1.00  0.00     0.000 C 
BRANCH   2   3
ATOM      3  C   UNL     1       4.162  23.615 113.516  1.00  0.00     0.000 C 
BRANCH   3   4
ATOM      4  C   UNL     1       5.293  23.976 112.532  1.00  0.00     0.000 C 
BRANCH   4   5
ATOM      5  C   UNL     1       6.469  24.757 113.146  1.00  0.00     0.000 C 
BRANCH   5   6
ATOM      6  C   UNL     1       7.682  24.845 112.207  1.00  0.00     0.006 C 
BRANCH   6   7
ATOM      7  C   UNL     1       7.236  24.910 110.743  1.00  0.00     0.053 C 
BRANCH   7   8
ATOM      8  C   UNL     1       7.867  26.080 110.056  1.00  0.00     0.041 C 
ATOM      9  O   UNL     1       7.550  27.254 110.383  1.00  0.00    -0.550 OA
ATOM     10  O   UNL     1       8.840  25.874 109.086  1.00  0.00    -0.550 OA
ENDBRANCH   7   8
ENDBRANCH   6   7
ENDBRANCH   5   6
ENDBRANCH   4   5
ENDBRANCH   3   4
ENDBRANCH   2   3
ENDBRANCH   1   2
BRANCH   1  11
ATOM     11  C   UNL     1       1.606  25.001 112.937  1.00  0.00     0.000 C 
BRANCH  11  12
ATOM     12  C   UNL     1       1.920  26.345 112.263  1.00  0.00    -0.000 C 
BRANCH  12  13
ATOM     13  C   UNL     1       2.739  26.185 110.969  1.00  0.00    -0.000 C 
BRANCH  13  14
ATOM     14  C   UNL     1       4.063  26.977 111.018  1.00  0.00    -0.000 C 
BRANCH  14  15
ATOM     15  C   UNL     1       4.020  28.195 111.957  1.00  0.00    -0.000 C 
BRANCH  15  16
ATOM     16  C   UNL     1       5.269  28.306 112.847  1.00  0.00    -0.000 C 
BRANCH  16  17
ATOM     17  C   UNL     1       4.920  28.401 114.341  1.00  0.00    -0.003 C 
ATOM     18  C   UNL     1       5.880  27.606 115.226  1.00  0.00     0.004 C 
ENDBRANCH  16  17
ENDBRANCH  15  16
ENDBRANCH  14  15
ENDBRANCH  13  14
ENDBRANCH  12  13
ENDBRANCH  11  12
ENDBRANCH   1  11
TORSDOF 14
ENDMDL
MODEL 5
REMARK VINA RESULT:    -4.109      3.569      6.636
REMARK INTER + INTRA:          -8.707
REMARK INTER:                  -6.719
REMARK INTRA:                  -1.988
REMARK UNBOUND:                -1.235
REMARK SMILES CCCCCCCCCCCCCCCC(=O)[O-]
REMARK SMILES IDX 9 1 10 2 11 3 12 4 13 5 14 6 15 7 16 8 17 9 18 10 8 11 7 12
REMARK SMILES IDX 6 13 5 14 4 15 3 16 2 17 1 18
REMARK H PARENT
REMARK Flexibility Score: inf
ROOT
ATOM      1  C   UNL     1       3.971  25.156 112.987  1.00  0.00     0.000 C 
ENDROOT
BRANCH   1   2
ATOM      2  C   UNL     1       5.249  25.679 113.659  1.00  0.00     0.000 C 
BRANCH   2   3
ATOM      3  C   UNL     1       6.320  26.122 112.644  1.00  0.00     0.000 C 
BRANCH   3   4
ATOM      4  C   UNL     1       7.619  25.291 112.659  1.00  0.00     0.000 C 
BRANCH   4   5
ATOM      5  C   UNL     1       8.416  25.301 111.342  1.00  0.00     0.000 C 
BRANCH   5   6
ATOM      6  C   UNL     1       7.776  26.191 110.265  1.00  0.00     0.006 C 
BRANCH   6   7
ATOM      7  C   UNL     1       7.902  25.549 108.880  1.00  0.00     0.053 C 
BRANCH   7   8
ATOM      8  C   UNL     1       7.046  26.272 107.889  1.00  0.00     0.041 C 
ATOM      9  O   UNL     1       5.935  26.748 108.239  1.00  0.00    -0.550 OA
ATOM     10  O   UNL     1       7.498  26.462 106.588  1.00  0.00    -0.550 OA
ENDBRANCH   7   8
ENDBRANCH   6   7
ENDBRANCH   5   6
ENDBRANCH   4   5
ENDBRANCH   3   4
ENDBRANCH   2   3
ENDBRANCH   1   2
BRANCH   1  11
ATOM     11  C   UNL     1       4.138  25.103 111.461  1.00  0.00     0.000 C 
BRANCH  11  12
ATOM     12  C   UNL     1       3.012  25.837 110.717  1.00  0.00    -0.000 C 
BRANCH  12  13
ATOM     13  C   UNL     1       3.409  27.264 110.296  1.00  0.00    -0.000 C 
BRANCH  13  14
ATOM     14  C   UNL     1       2.699  28.339 111.145  1.00  0.00    -0.000 C 
BRANCH  14  15
ATOM     15  C   UNL     1       1.525  27.793 111.976  1.00  0.00    -0.000 C 
BRANCH  15  16
ATOM     16  C   UNL     1       1.695  28.040 113.484  1.00  0.00    -0.000 C 
BRANCH  16  17
ATOM     17  C   UNL     1       3.005  28.772 113.816  1.00  0.00    -0.003 C 
ATOM     18  C   UNL     1       3.503  28.485 115.232  1.00  0.00     0.004 C 
ENDBRANCH  16  17
ENDBRANCH  15  16
ENDBRANCH  14  15
ENDBRANCH  13  14
ENDBRANCH  12  13
ENDBRANCH  11  12
ENDBRANCH   1  11
TORSDOF 14
ENDMDL
MODEL 6
REMARK VINA RESULT:    -4.051      3.690      5.224
REMARK INTER + INTRA:          -8.602
REMARK INTER:                  -7.236
REMARK INTRA:                  -1.366
REMARK UNBOUND:                -1.235
REMARK SMILES CCCCCCCCCCCCCCCC(=O)[O-]
REMARK SMILES IDX 9 1 10 2 11 3 12 4 13 5 14 6 15 7 16 8 17 9 18 10 8 11 7 12
REMARK SMILES IDX 6 13 5 14 4 15 3 16 2 17 1 18
REMARK H PARENT
REMARK Flexibility Score: inf
ROOT
ATOM      1  C   UNL     1       3.416  21.906 114.160  1.00  0.00     0.000 C 
ENDROOT
BRANCH   1   2
ATOM      2  C   UNL     1       1.902  21.944 113.910  1.00  0.00     0.000 C 
BRANCH   2   3
ATOM      3  C   UNL     1       1.250  23.257 114.383  1.00  0.00     0.000 C 
BRANCH   3   4
ATOM      4  C   UNL     1       0.740  24.177 113.255  1.00  0.00     0.000 C 
BRANCH   4   5
ATOM      5  C   UNL     1       1.072  25.670 113.428  1.00  0.00     0.000 C 
BRANCH   5   6
ATOM      6  C   UNL     1       2.392  26.069 112.753  1.00  0.00     0.006 C 
BRANCH   6   7
ATOM      7  C   UNL     1       2.133  26.895 111.489  1.00  0.00     0.053 C 
BRANCH   7   8
ATOM      8  C   UNL     1       3.425  27.301 110.855  1.00  0.00     0.041 C 
ATOM      9  O   UNL     1       3.867  26.673 109.857  1.00  0.00    -0.550 OA
ATOM     10  O   UNL     1       4.120  28.403 111.337  1.00  0.00    -0.550 OA
ENDBRANCH   7   8
ENDBRANCH   6   7
ENDBRANCH   5   6
ENDBRANCH   4   5
ENDBRANCH   3   4
ENDBRANCH   2   3
ENDBRANCH   1   2
BRANCH   1  11
ATOM     11  C   UNL     1       4.146  22.909 113.254  1.00  0.00     0.000 C 
BRANCH  11  12
ATOM     12  C   UNL     1       4.984  23.923 114.046  1.00  0.00    -0.000 C 
BRANCH  12  13
ATOM     13  C   UNL     1       6.034  24.637 113.175  1.00  0.00    -0.000 C 
BRANCH  13  14
ATOM     14  C   UNL     1       5.824  24.364 111.671  1.00  0.00    -0.000 C 
BRANCH  14  15
ATOM     15  C   UNL     1       7.100  24.533 110.829  1.00  0.00    -0.000 C 
BRANCH  15  16
ATOM     16  C   UNL     1       7.204  25.920 110.175  1.00  0.00    -0.000 C 
BRANCH  16  17
ATOM     17  C   UNL     1       7.759  25.855 108.743  1.00  0.00    -0.003 C 
ATOM     18  C   UNL     1       6.786  26.412 107.704  1.00  0.00     0.004 C 
ENDBRANCH  16  17
ENDBRANCH  15  16
ENDBRANCH  14  15
ENDBRANCH  13  14
ENDBRANCH  12  13
ENDBRANCH  11  12
ENDBRANCH   1  11
TORSDOF 14
ENDMDL
MODEL 7
REMARK VINA RESULT:    -4.051      3.503      6.231
REMARK INTER + INTRA:          -8.601
REMARK INTER:                  -6.551
REMARK INTRA:                  -2.050
REMARK UNBOUND:                -1.235
REMARK SMILES CCCCCCCCCCCCCCCC(=O)[O-]
REMARK SMILES IDX 9 1 10 2 11 3 12 4 13 5 14 6 15 7 16 8 17 9 18 10 8 11 7 12
REMARK SMILES IDX 6 13 5 14 4 15 3 16 2 17 1 18
REMARK H PARENT
REMARK Flexibility Score: inf
ROOT
ATOM      1  C   UNL     1       3.909  28.051 113.670  1.00  0.00     0.000 C 
ENDROOT
BRANCH   1   2
ATOM      2  C   UNL     1       3.750  28.857 112.373  1.00  0.00     0.000 C 
BRANCH   2   3
ATOM      3  C   UNL     1       2.749  28.219 111.391  1.00  0.00     0.000 C 
BRANCH   3   4
ATOM      4  C   UNL     1       3.380  27.332 110.299  1.00  0.00     0.000 C 
BRANCH   4   5
ATOM      5  C   UNL     1       3.445  25.831 110.633  1.00  0.00     0.000 C 
BRANCH   5   6
ATOM      6  C   UNL     1       4.811  25.403 111.191  1.00  0.00     0.006 C 
BRANCH   6   7
ATOM      7  C   UNL     1       5.948  26.139 110.476  1.00  0.00     0.053 C 
BRANCH   7   8
ATOM      8  C   UNL     1       6.849  26.801 111.471  1.00  0.00     0.041 C 
ATOM      9  O   UNL     1       7.542  27.796 111.134  1.00  0.00    -0.550 OA
ATOM     10  O   UNL     1       6.888  26.347 112.783  1.00  0.00    -0.550 OA
ENDBRANCH   7   8
ENDBRANCH   6   7
ENDBRANCH   5   6
ENDBRANCH   4   5
ENDBRANCH   3   4
ENDBRANCH   2   3
ENDBRANCH   1   2
BRANCH   1  11
ATOM     11  C   UNL     1       2.610  27.305 114.013  1.00  0.00     0.000 C 
BRANCH  11  12
ATOM     12  C   UNL     1       2.855  26.049 114.862  1.00  0.00    -0.000 C 
BRANCH  12  13
ATOM     13  C   UNL     1       2.657  24.746 114.066  1.00  0.00    -0.000 C 
BRANCH  13  14
ATOM     14  C   UNL     1       1.294  24.706 113.345  1.00  0.00    -0.000 C 
BRANCH  14  15
ATOM     15  C   UNL     1       0.371  23.575 113.831  1.00  0.00    -0.000 C 
BRANCH  15  16
ATOM     16  C   UNL     1       0.900  22.873 115.092  1.00  0.00    -0.000 C 
BRANCH  16  17
ATOM     17  C   UNL     1       1.138  21.371 114.873  1.00  0.00    -0.003 C 
ATOM     18  C   UNL     1       2.240  21.087 113.852  1.00  0.00     0.004 C 
ENDBRANCH  16  17
ENDBRANCH  15  16
ENDBRANCH  14  15
ENDBRANCH  13  14
ENDBRANCH  12  13
ENDBRANCH  11  12
ENDBRANCH   1  11
TORSDOF 14
ENDMDL
MODEL 8
REMARK VINA RESULT:    -3.988      1.235      1.969
REMARK INTER + INTRA:          -8.486
REMARK INTER:                  -6.855
REMARK INTRA:                  -1.631
REMARK UNBOUND:                -1.235
REMARK SMILES CCCCCCCCCCCCCCCC(=O)[O-]
REMARK SMILES IDX 9 1 10 2 11 3 12 4 13 5 14 6 15 7 16 8 17 9 18 10 8 11 7 12
REMARK SMILES IDX 6 13 5 14 4 15 3 16 2 17 1 18
REMARK H PARENT
REMARK Flexibility Score: inf
ROOT
ATOM      1  C   UNL     1       3.569  25.644 111.382  1.00  0.00     0.000 C 
ENDROOT
BRANCH   1   2
ATOM      2  C   UNL     1       2.648  26.709 110.768  1.00  0.00     0.000 C 
BRANCH   2   3
ATOM      3  C   UNL     1       2.293  27.834 111.758  1.00  0.00     0.000 C 
BRANCH   3   4
ATOM      4  C   UNL     1       2.032  29.212 111.116  1.00  0.00     0.000 C 
BRANCH   4   5
ATOM      5  C   UNL     1       3.120  30.270 111.374  1.00  0.00     0.000 C 
BRANCH   5   6
ATOM      6  C   UNL     1       3.829  30.079 112.723  1.00  0.00     0.006 C 
BRANCH   6   7
ATOM      7  C   UNL     1       4.313  31.420 113.282  1.00  0.00     0.053 C 
BRANCH   7   8
ATOM      8  C   UNL     1       5.600  31.244 114.023  1.00  0.00     0.041 C 
ATOM      9  O   UNL     1       6.492  30.478 113.573  1.00  0.00    -0.550 OA
ATOM     10  O   UNL     1       5.835  31.963 115.189  1.00  0.00    -0.550 OA
ENDBRANCH   7   8
ENDBRANCH   6   7
ENDBRANCH   5   6
ENDBRANCH   4   5
ENDBRANCH   3   4
ENDBRANCH   2   3
ENDBRANCH   1   2
BRANCH   1  11
ATOM     11  C   UNL     1       4.063  26.081 112.769  1.00  0.00     0.000 C 
BRANCH  11  12
ATOM     12  C   UNL     1       5.578  26.331 112.807  1.00  0.00    -0.000 C 
BRANCH  12  13
ATOM     13  C   UNL     1       6.062  27.227 111.652  1.00  0.00    -0.000 C 
BRANCH  13  14
ATOM     14  C   UNL     1       7.424  26.766 111.092  1.00  0.00    -0.000 C 
BRANCH  14  15
ATOM     15  C   UNL     1       7.316  25.976 109.776  1.00  0.00    -0.000 C 
BRANCH  15  16
ATOM     16  C   UNL     1       6.111  26.404 108.921  1.00  0.00    -0.000 C 
BRANCH  16  17
ATOM     17  C   UNL     1       6.489  26.642 107.451  1.00  0.00    -0.003 C 
ATOM     18  C   UNL     1       7.641  25.753 106.982  1.00  0.00     0.004 C 
ENDBRANCH  16  17
ENDBRANCH  15  16
ENDBRANCH  14  15
ENDBRANCH  13  14
ENDBRANCH  12  13
ENDBRANCH  11  12
ENDBRANCH   1  11
TORSDOF 14
ENDMDL
MODEL 9
REMARK VINA RESULT:    -3.960      3.691      6.026
REMARK INTER + INTRA:          -8.435
REMARK INTER:                  -6.212
REMARK INTRA:                  -2.223
REMARK UNBOUND:                -1.235
REMARK SMILES CCCCCCCCCCCCCCCC(=O)[O-]
REMARK SMILES IDX 9 1 10 2 11 3 12 4 13 5 14 6 15 7 16 8 17 9 18 10 8 11 7 12
REMARK SMILES IDX 6 13 5 14 4 15 3 16 2 17 1 18
REMARK H PARENT
REMARK Flexibility Score: inf
ROOT
ATOM      1  C   UNL     1       0.981  26.220 114.205  1.00  0.00     0.000 C 
ENDROOT
BRANCH   1   2
ATOM      2  C   UNL     1       2.060  26.260 113.113  1.00  0.00     0.000 C 
BRANCH   2   3
ATOM      3  C   UNL     1       1.793  27.338 112.047  1.00  0.00     0.000 C 
BRANCH   3   4
ATOM      4  C   UNL     1       2.530  27.131 110.708  1.00  0.00     0.000 C 
BRANCH   4   5
ATOM      5  C   UNL     1       3.410  25.871 110.635  1.00  0.00     0.000 C 
BRANCH   5   6
ATOM      6  C   UNL     1       4.911  26.194 110.590  1.00  0.00     0.006 C 
BRANCH   6   7
ATOM      7  C   UNL     1       5.669  25.427 111.678  1.00  0.00     0.053 C 
BRANCH   7   8
ATOM      8  C   UNL     1       6.702  26.303 112.313  1.00  0.00     0.041 C 
ATOM      9  O   UNL     1       7.692  26.702 111.645  1.00  0.00    -0.550 OA
ATOM     10  O   UNL     1       6.548  26.718 113.630  1.00  0.00    -0.550 OA
ENDBRANCH   7   8
ENDBRANCH   6   7
ENDBRANCH   5   6
ENDBRANCH   4   5
ENDBRANCH   3   4
ENDBRANCH   2   3
ENDBRANCH   1   2
BRANCH   1  11
ATOM     11  C   UNL     1       0.244  24.872 114.196  1.00  0.00     0.000 C 
BRANCH  11  12
ATOM     12  C   UNL     1       0.977  23.801 113.377  1.00  0.00    -0.000 C 
BRANCH  12  13
ATOM     13  C   UNL     1       1.137  22.474 114.140  1.00  0.00    -0.000 C 
BRANCH  13  14
ATOM     14  C   UNL     1       2.541  21.861 113.953  1.00  0.00    -0.000 C 
BRANCH  14  15
ATOM     15  C   UNL     1       3.619  22.891 113.573  1.00  0.00    -0.000 C 
BRANCH  15  16
ATOM     16  C   UNL     1       4.545  23.249 114.747  1.00  0.00    -0.000 C 
BRANCH  16  17
ATOM     17  C   UNL     1       4.134  24.555 115.443  1.00  0.00    -0.003 C 
ATOM     18  C   UNL     1       3.346  24.319 116.732  1.00  0.00     0.004 C 
ENDBRANCH  16  17
ENDBRANCH  15  16
ENDBRANCH  14  15
ENDBRANCH  13  14
ENDBRANCH  12  13
ENDBRANCH  11  12
ENDBRANCH   1  11
TORSDOF 14
ENDMDL
