MODEL 1
REMARK VINA RESULT:    -3.962      0.000      0.000
REMARK INTER + INTRA:          -6.807
REMARK INTER:                  -6.047
REMARK INTRA:                  -0.761
REMARK UNBOUND:                -0.761
REMARK SMILES C=CCCCCCCCCCC
REMARK SMILES IDX 7 1 8 2 9 3 10 4 11 5 12 6 6 7 5 8 4 9 3 10 2 11 1 12
REMARK H PARENT
REMARK Flexibility Score: inf
ROOT
ATOM      1  C   UNL     1     168.384 169.720 198.849  1.00  0.00     0.000 C 
ENDROOT
BRANCH   1   2
ATOM      2  C   UNL     1     168.758 168.639 197.819  1.00  0.00    -0.000 C 
BRANCH   2   3
ATOM      3  C   UNL     1     168.971 167.225 198.397  1.00  0.00    -0.000 C 
BRANCH   3   4
ATOM      4  C   UNL     1     169.785 167.166 199.704  1.00  0.00    -0.000 C 
BRANCH   4   5
ATOM      5  C   UNL     1     169.032 166.571 200.907  1.00  0.00    -0.003 C 
ATOM      6  C   UNL     1     168.881 167.559 202.063  1.00  0.00     0.004 C 
ENDBRANCH   4   5
ENDBRANCH   3   4
ENDBRANCH   2   3
ENDBRANCH   1   2
BRANCH   1   7
ATOM      7  C   UNL     1     166.892 170.095 198.808  1.00  0.00     0.000 C 
BRANCH   7   8
ATOM      8  C   UNL     1     166.130 169.666 200.075  1.00  0.00     0.000 C 
BRANCH   8   9
ATOM      9  C   UNL     1     164.654 170.096 200.129  1.00  0.00     0.004 C 
BRANCH   9  10
ATOM     10  C   UNL     1     163.761 169.086 200.864  1.00  0.00     0.027 C 
BRANCH  10  11
ATOM     11  C   UNL     1     162.622 168.631 199.992  1.00  0.00    -0.035 C 
ATOM     12  C   UNL     1     162.641 168.802 198.667  1.00  0.00     0.004 C 
ENDBRANCH  10  11
ENDBRANCH   9  10
ENDBRANCH   8   9
ENDBRANCH   7   8
ENDBRANCH   1   7
TORSDOF 9
ENDMDL
MODEL 2
REMARK VINA RESULT:    -3.939      5.437      6.490
REMARK INTER + INTRA:          -6.771
REMARK INTER:                  -5.630
REMARK INTRA:                  -1.142
REMARK UNBOUND:                -0.761
REMARK SMILES C=CCCCCCCCCCC
REMARK SMILES IDX 7 1 8 2 9 3 10 4 11 5 12 6 6 7 5 8 4 9 3 10 2 11 1 12
REMARK H PARENT
REMARK Flexibility Score: inf
ROOT
ATOM      1  C   UNL     1     168.454 163.423 201.947  1.00  0.00     0.000 C 
ENDROOT
BRANCH   1   2
ATOM      2  C   UNL     1     168.846 164.193 200.674  1.00  0.00    -0.000 C 
BRANCH   2   3
ATOM      3  C   UNL     1     169.758 163.425 199.696  1.00  0.00    -0.000 C 
BRANCH   3   4
ATOM      4  C   UNL     1     169.055 162.870 198.441  1.00  0.00    -0.000 C 
BRANCH   4   5
ATOM      5  C   UNL     1     168.146 163.875 197.713  1.00  0.00    -0.003 C 
ATOM      6  C   UNL     1     167.542 163.307 196.429  1.00  0.00     0.004 C 
ENDBRANCH   4   5
ENDBRANCH   3   4
ENDBRANCH   2   3
ENDBRANCH   1   2
BRANCH   1   7
ATOM      7  C   UNL     1     167.288 162.445 201.719  1.00  0.00     0.000 C 
BRANCH   7   8
ATOM      8  C   UNL     1     165.913 163.137 201.732  1.00  0.00     0.000 C 
BRANCH   8   9
ATOM      9  C   UNL     1     164.998 162.800 200.541  1.00  0.00     0.004 C 
BRANCH   9  10
ATOM     10  C   UNL     1     165.701 161.963 199.463  1.00  0.00     0.027 C 
BRANCH  10  11
ATOM     11  C   UNL     1     164.795 161.718 198.287  1.00  0.00    -0.035 C 
ATOM     12  C   UNL     1     163.614 162.332 198.172  1.00  0.00     0.004 C 
ENDBRANCH  10  11
ENDBRANCH   9  10
ENDBRANCH   8   9
ENDBRANCH   7   8
ENDBRANCH   1   7
TORSDOF 9
ENDMDL
MODEL 3
REMARK VINA RESULT:    -3.932      4.785      6.282
REMARK INTER + INTRA:          -6.761
REMARK INTER:                  -5.961
REMARK INTRA:                  -0.800
REMARK UNBOUND:                -0.761
REMARK SMILES C=CCCCCCCCCCC
REMARK SMILES IDX 7 1 8 2 9 3 10 4 11 5 12 6 6 7 5 8 4 9 3 10 2 11 1 12
REMARK H PARENT
REMARK Flexibility Score: inf
ROOT
ATOM      1  C   UNL     1     167.178 161.858 200.046  1.00  0.00     0.000 C 
ENDROOT
BRANCH   1   2
ATOM      2  C   UNL     1     168.106 162.785 200.850  1.00  0.00    -0.000 C 
BRANCH   2   3
ATOM      3  C   UNL     1     169.267 163.409 200.049  1.00  0.00    -0.000 C 
BRANCH   3   4
ATOM      4  C   UNL     1     169.299 163.049 198.551  1.00  0.00    -0.000 C 
BRANCH   4   5
ATOM      5  C   UNL     1     168.685 164.107 197.618  1.00  0.00    -0.003 C 
ATOM      6  C   UNL     1     167.673 163.518 196.636  1.00  0.00     0.004 C 
ENDBRANCH   4   5
ENDBRANCH   3   4
ENDBRANCH   2   3
ENDBRANCH   1   2
BRANCH   1   7
ATOM      7  C   UNL     1     165.726 162.365 199.991  1.00  0.00     0.000 C 
BRANCH   7   8
ATOM      8  C   UNL     1     165.010 161.993 198.680  1.00  0.00     0.000 C 
BRANCH   8   9
ATOM      9  C   UNL     1     163.481 162.167 198.696  1.00  0.00     0.004 C 
BRANCH   9  10
ATOM     10  C   UNL     1     163.019 163.469 198.024  1.00  0.00     0.027 C 
BRANCH  10  11
ATOM     11  C   UNL     1     163.154 164.640 198.958  1.00  0.00    -0.035 C 
ATOM     12  C   UNL     1     162.203 164.944 199.846  1.00  0.00     0.004 C 
ENDBRANCH  10  11
ENDBRANCH   9  10
ENDBRANCH   8   9
ENDBRANCH   7   8
ENDBRANCH   1   7
TORSDOF 9
ENDMDL
MODEL 4
REMARK VINA RESULT:    -3.903      1.647      5.438
REMARK INTER + INTRA:          -6.718
REMARK INTER:                  -5.457
REMARK INTRA:                  -1.261
REMARK UNBOUND:                -0.761
REMARK SMILES C=CCCCCCCCCCC
REMARK SMILES IDX 7 1 8 2 9 3 10 4 11 5 12 6 6 7 5 8 4 9 3 10 2 11 1 12
REMARK H PARENT
REMARK Flexibility Score: inf
ROOT
ATOM      1  C   UNL     1     164.557 169.751 200.850  1.00  0.00     0.000 C 
ENDROOT
BRANCH   1   2
ATOM      2  C   UNL     1     163.358 168.798 201.004  1.00  0.00    -0.000 C 
BRANCH   2   3
ATOM      3  C   UNL     1     162.537 168.562 199.719  1.00  0.00    -0.000 C 
BRANCH   3   4
ATOM      4  C   UNL     1     163.149 169.147 198.432  1.00  0.00    -0.000 C 
BRANCH   4   5
ATOM      5  C   UNL     1     163.651 168.101 197.421  1.00  0.00    -0.003 C 
ATOM      6  C   UNL     1     164.711 167.169 198.008  1.00  0.00     0.004 C 
ENDBRANCH   4   5
ENDBRANCH   3   4
ENDBRANCH   2   3
ENDBRANCH   1   2
BRANCH   1   7
ATOM      7  C   UNL     1     165.883 169.124 201.315  1.00  0.00     0.000 C 
BRANCH   7   8
ATOM      8  C   UNL     1     167.042 169.376 200.334  1.00  0.00     0.000 C 
BRANCH   8   9
ATOM      9  C   UNL     1     166.659 170.123 199.045  1.00  0.00     0.004 C 
BRANCH   9  10
ATOM     10  C   UNL     1     167.728 170.013 197.947  1.00  0.00     0.027 C 
BRANCH  10  11
ATOM     11  C   UNL     1     168.268 168.612 197.853  1.00  0.00    -0.035 C 
ATOM     12  C   UNL     1     169.579 168.361 197.898  1.00  0.00     0.004 C 
ENDBRANCH  10  11
ENDBRANCH   9  10
ENDBRANCH   8   9
ENDBRANCH   7   8
ENDBRANCH   1   7
TORSDOF 9
ENDMDL
MODEL 5
REMARK VINA RESULT:    -3.868      1.550      3.707
REMARK INTER + INTRA:          -6.664
REMARK INTER:                  -5.328
REMARK INTRA:                  -1.336
REMARK UNBOUND:                -0.761
REMARK SMILES C=CCCCCCCCCCC
REMARK SMILES IDX 7 1 8 2 9 3 10 4 11 5 12 6 6 7 5 8 4 9 3 10 2 11 1 12
REMARK H PARENT
REMARK Flexibility Score: inf
ROOT
ATOM      1  C   UNL     1     164.605 170.158 200.074  1.00  0.00     0.000 C 
ENDROOT
BRANCH   1   2
ATOM      2  C   UNL     1     166.089 169.754 200.018  1.00  0.00    -0.000 C 
BRANCH   2   3
ATOM      3  C   UNL     1     166.815 170.103 198.702  1.00  0.00    -0.000 C 
BRANCH   3   4
ATOM      4  C   UNL     1     168.346 169.932 198.733  1.00  0.00    -0.000 C 
BRANCH   4   5
ATOM      5  C   UNL     1     168.838 168.482 198.581  1.00  0.00    -0.003 C 
ATOM      6  C   UNL     1     168.811 167.993 197.133  1.00  0.00     0.004 C 
ENDBRANCH   4   5
ENDBRANCH   3   4
ENDBRANCH   2   3
ENDBRANCH   1   2
BRANCH   1   7
ATOM      7  C   UNL     1     163.701 169.040 200.624  1.00  0.00     0.000 C 
BRANCH   7   8
ATOM      8  C   UNL     1     162.548 168.677 199.671  1.00  0.00     0.000 C 
BRANCH   8   9
ATOM      9  C   UNL     1     162.927 168.605 198.182  1.00  0.00     0.004 C 
BRANCH   9  10
ATOM     10  C   UNL     1     163.389 167.207 197.746  1.00  0.00     0.027 C 
BRANCH  10  11
ATOM     11  C   UNL     1     164.888 167.140 197.632  1.00  0.00    -0.035 C 
ATOM     12  C   UNL     1     165.625 166.419 198.482  1.00  0.00     0.004 C 
ENDBRANCH  10  11
ENDBRANCH   9  10
ENDBRANCH   8   9
ENDBRANCH   7   8
ENDBRANCH   1   7
TORSDOF 9
ENDMDL
MODEL 6
REMARK VINA RESULT:    -3.868      4.463      6.747
REMARK INTER + INTRA:          -6.664
REMARK INTER:                  -5.083
REMARK INTRA:                  -1.581
REMARK UNBOUND:                -0.761
REMARK SMILES C=CCCCCCCCCCC
REMARK SMILES IDX 7 1 8 2 9 3 10 4 11 5 12 6 6 7 5 8 4 9 3 10 2 11 1 12
REMARK H PARENT
REMARK Flexibility Score: inf
ROOT
ATOM      1  C   UNL     1     168.294 163.059 200.925  1.00  0.00     0.000 C 
ENDROOT
BRANCH   1   2
ATOM      2  C   UNL     1     167.432 161.918 200.356  1.00  0.00    -0.000 C 
BRANCH   2   3
ATOM      3  C   UNL     1     165.958 162.282 200.084  1.00  0.00    -0.000 C 
BRANCH   3   4
ATOM      4  C   UNL     1     165.436 161.904 198.684  1.00  0.00    -0.000 C 
BRANCH   4   5
ATOM      5  C   UNL     1     164.043 162.461 198.342  1.00  0.00    -0.003 C 
ATOM      6  C   UNL     1     163.491 163.387 199.425  1.00  0.00     0.004 C 
ENDBRANCH   4   5
ENDBRANCH   3   4
ENDBRANCH   2   3
ENDBRANCH   1   2
BRANCH   1   7
ATOM      7  C   UNL     1     169.368 163.548 199.937  1.00  0.00     0.000 C 
BRANCH   7   8
ATOM      8  C   UNL     1     169.175 162.988 198.516  1.00  0.00     0.000 C 
BRANCH   8   9
ATOM      9  C   UNL     1     168.551 163.966 197.505  1.00  0.00     0.004 C 
BRANCH   9  10
ATOM     10  C   UNL     1     168.208 165.330 198.123  1.00  0.00     0.027 C 
BRANCH  10  11
ATOM     11  C   UNL     1     166.721 165.495 198.283  1.00  0.00    -0.035 C 
ATOM     12  C   UNL     1     166.184 165.947 199.420  1.00  0.00     0.004 C 
ENDBRANCH  10  11
ENDBRANCH   9  10
ENDBRANCH   8   9
ENDBRANCH   7   8
ENDBRANCH   1   7
TORSDOF 9
ENDMDL
MODEL 7
REMARK VINA RESULT:    -3.858      4.933      7.561
REMARK INTER + INTRA:          -6.649
REMARK INTER:                  -5.277
REMARK INTRA:                  -1.371
REMARK UNBOUND:                -0.761
REMARK SMILES C=CCCCCCCCCCC
REMARK SMILES IDX 7 1 8 2 9 3 10 4 11 5 12 6 6 7 5 8 4 9 3 10 2 11 1 12
REMARK H PARENT
REMARK Flexibility Score: inf
ROOT
ATOM      1  C   UNL     1     165.724 163.560 201.091  1.00  0.00     0.000 C 
ENDROOT
BRANCH   1   2
ATOM      2  C   UNL     1     164.391 162.833 200.835  1.00  0.00    -0.000 C 
BRANCH   2   3
ATOM      3  C   UNL     1     163.786 163.045 199.433  1.00  0.00    -0.000 C 
BRANCH   3   4
ATOM      4  C   UNL     1     163.956 161.862 198.459  1.00  0.00    -0.000 C 
BRANCH   4   5
ATOM      5  C   UNL     1     164.874 162.143 197.256  1.00  0.00    -0.003 C 
ATOM      6  C   UNL     1     165.396 163.580 197.230  1.00  0.00     0.004 C 
ENDBRANCH   4   5
ENDBRANCH   3   4
ENDBRANCH   2   3
ENDBRANCH   1   2
BRANCH   1   7
ATOM      7  C   UNL     1     166.904 162.594 201.293  1.00  0.00     0.000 C 
BRANCH   7   8
ATOM      8  C   UNL     1     167.368 161.932 199.983  1.00  0.00     0.000 C 
BRANCH   8   9
ATOM      9  C   UNL     1     168.450 162.703 199.207  1.00  0.00     0.004 C 
BRANCH   9  10
ATOM     10  C   UNL     1     169.440 163.435 200.124  1.00  0.00     0.027 C 
BRANCH  10  11
ATOM     11  C   UNL     1     169.440 164.915 199.855  1.00  0.00    -0.035 C 
ATOM     12  C   UNL     1     168.439 165.508 199.199  1.00  0.00     0.004 C 
ENDBRANCH  10  11
ENDBRANCH   9  10
ENDBRANCH   8   9
ENDBRANCH   7   8
ENDBRANCH   1   7
TORSDOF 9
ENDMDL
MODEL 8
REMARK VINA RESULT:    -3.814      4.720      5.781
REMARK INTER + INTRA:          -6.581
REMARK INTER:                  -5.390
REMARK INTRA:                  -1.192
REMARK UNBOUND:                -0.761
REMARK SMILES C=CCCCCCCCCCC
REMARK SMILES IDX 7 1 8 2 9 3 10 4 11 5 12 6 6 7 5 8 4 9 3 10 2 11 1 12
REMARK H PARENT
REMARK Flexibility Score: inf
ROOT
ATOM      1  C   UNL     1     164.646 163.025 201.384  1.00  0.00     0.000 C 
ENDROOT
BRANCH   1   2
ATOM      2  C   UNL     1     164.596 162.280 200.038  1.00  0.00    -0.000 C 
BRANCH   2   3
ATOM      3  C   UNL     1     165.915 162.281 199.238  1.00  0.00    -0.000 C 
BRANCH   3   4
ATOM      4  C   UNL     1     167.170 161.885 200.040  1.00  0.00    -0.000 C 
BRANCH   4   5
ATOM      5  C   UNL     1     168.328 162.895 199.967  1.00  0.00    -0.003 C 
ATOM      6  C   UNL     1     168.581 163.607 201.296  1.00  0.00     0.004 C 
ENDBRANCH   4   5
ENDBRANCH   3   4
ENDBRANCH   2   3
ENDBRANCH   1   2
BRANCH   1   7
ATOM      7  C   UNL     1     164.416 164.540 201.238  1.00  0.00     0.000 C 
BRANCH   7   8
ATOM      8  C   UNL     1     162.935 164.938 201.370  1.00  0.00     0.000 C 
BRANCH   8   9
ATOM      9  C   UNL     1     162.194 165.155 200.039  1.00  0.00     0.004 C 
BRANCH   9  10
ATOM     10  C   UNL     1     163.122 165.606 198.902  1.00  0.00     0.027 C 
BRANCH  10  11
ATOM     11  C   UNL     1     163.043 164.666 197.731  1.00  0.00    -0.035 C 
ATOM     12  C   UNL     1     162.173 163.653 197.701  1.00  0.00     0.004 C 
ENDBRANCH  10  11
ENDBRANCH   9  10
ENDBRANCH   8   9
ENDBRANCH   7   8
ENDBRANCH   1   7
TORSDOF 9
ENDMDL
MODEL 9
REMARK VINA RESULT:    -3.800      1.355      2.475
REMARK INTER + INTRA:          -6.560
REMARK INTER:                  -5.421
REMARK INTRA:                  -1.139
REMARK UNBOUND:                -0.761
REMARK SMILES C=CCCCCCCCCCC
REMARK SMILES IDX 7 1 8 2 9 3 10 4 11 5 12 6 6 7 5 8 4 9 3 10 2 11 1 12
REMARK H PARENT
REMARK Flexibility Score: inf
ROOT
ATOM      1  C   UNL     1     166.613 169.437 197.316  1.00  0.00     0.000 C 
ENDROOT
BRANCH   1   2
ATOM      2  C   UNL     1     166.787 170.126 198.681  1.00  0.00    -0.000 C 
BRANCH   2   3
ATOM      3  C   UNL     1     168.074 169.754 199.446  1.00  0.00    -0.000 C 
BRANCH   3   4
ATOM      4  C   UNL     1     167.879 168.786 200.628  1.00  0.00    -0.000 C 
BRANCH   4   5
ATOM      5  C   UNL     1     168.214 167.316 200.321  1.00  0.00    -0.003 C 
ATOM      6  C   UNL     1     169.625 167.132 199.763  1.00  0.00     0.004 C 
ENDBRANCH   4   5
ENDBRANCH   3   4
ENDBRANCH   2   3
ENDBRANCH   1   2
BRANCH   1   7
ATOM      7  C   UNL     1     165.159 169.020 197.037  1.00  0.00     0.000 C 
BRANCH   7   8
ATOM      8  C   UNL     1     164.480 168.359 198.251  1.00  0.00     0.000 C 
BRANCH   8   9
ATOM      9  C   UNL     1     163.132 168.975 198.663  1.00  0.00     0.004 C 
BRANCH   9  10
ATOM     10  C   UNL     1     162.759 168.678 200.123  1.00  0.00     0.027 C 
BRANCH  10  11
ATOM     11  C   UNL     1     163.981 168.637 200.999  1.00  0.00    -0.035 C 
ATOM     12  C   UNL     1     164.452 169.734 201.599  1.00  0.00     0.004 C 
ENDBRANCH  10  11
ENDBRANCH   9  10
ENDBRANCH   8   9
ENDBRANCH   7   8
ENDBRANCH   1   7
TORSDOF 9
ENDMDL
