MODEL 1
REMARK VINA RESULT:    -4.102      0.000      0.000
REMARK INTER + INTRA:          -6.408
REMARK INTER:                  -5.780
REMARK INTRA:                  -0.628
REMARK UNBOUND:                -0.628
REMARK SMILES CCCCCCCCC(=O)[O-]
REMARK SMILES IDX 6 1 7 2 8 3 9 4 10 5 11 6 5 7 4 8 3 9 2 10 1 11
REMARK H PARENT
REMARK Flexibility Score: inf
ROOT
ATOM      1  C   UNL     1      15.026 -31.062  23.455  1.00  0.00     0.000 C 
ENDROOT
BRANCH   1   2
ATOM      2  C   UNL     1      15.299 -30.928  21.949  1.00  0.00     0.006 C 
BRANCH   2   3
ATOM      3  C   UNL     1      15.986 -32.185  21.405  1.00  0.00     0.053 C 
BRANCH   3   4
ATOM      4  C   UNL     1      14.988 -33.281  21.201  1.00  0.00     0.041 C 
ATOM      5  O   UNL     1      15.091 -34.359  21.844  1.00  0.00    -0.550 OA
ATOM      6  O   UNL     1      13.973 -33.132  20.264  1.00  0.00    -0.550 OA
ENDBRANCH   3   4
ENDBRANCH   2   3
ENDBRANCH   1   2
BRANCH   1   7
ATOM      7  C   UNL     1      13.523 -31.079  23.781  1.00  0.00     0.000 C 
BRANCH   7   8
ATOM      8  C   UNL     1      12.658 -30.581  22.609  1.00  0.00    -0.000 C 
BRANCH   8   9
ATOM      9  C   UNL     1      11.850 -29.320  22.979  1.00  0.00    -0.000 C 
BRANCH   9  10
ATOM     10  C   UNL     1      12.318 -28.649  24.282  1.00  0.00    -0.003 C 
ATOM     11  C   UNL     1      13.089 -27.353  24.044  1.00  0.00     0.004 C 
ENDBRANCH   9  10
ENDBRANCH   8   9
ENDBRANCH   7   8
ENDBRANCH   1   7
TORSDOF 7
ENDMDL
MODEL 2
REMARK VINA RESULT:    -4.083      1.315      1.953
REMARK INTER + INTRA:          -6.382
REMARK INTER:                  -6.023
REMARK INTRA:                  -0.359
REMARK UNBOUND:                -0.628
REMARK SMILES CCCCCCCCC(=O)[O-]
REMARK SMILES IDX 6 1 7 2 8 3 9 4 10 5 11 6 5 7 4 8 3 9 2 10 1 11
REMARK H PARENT
REMARK Flexibility Score: inf
ROOT
ATOM      1  C   UNL     1      13.880 -31.446  21.517  1.00  0.00     0.000 C 
ENDROOT
BRANCH   1   2
ATOM      2  C   UNL     1      14.260 -32.838  20.992  1.00  0.00     0.006 C 
BRANCH   2   3
ATOM      3  C   UNL     1      15.022 -33.635  22.056  1.00  0.00     0.053 C 
BRANCH   3   4
ATOM      4  C   UNL     1      15.845 -34.708  21.417  1.00  0.00     0.041 C 
ATOM      5  O   UNL     1      15.546 -35.139  20.272  1.00  0.00    -0.550 OA
ATOM      6  O   UNL     1      16.914 -35.268  22.105  1.00  0.00    -0.550 OA
ENDBRANCH   3   4
ENDBRANCH   2   3
ENDBRANCH   1   2
BRANCH   1   7
ATOM      7  C   UNL     1      14.446 -31.171  22.920  1.00  0.00     0.000 C 
BRANCH   7   8
ATOM      8  C   UNL     1      13.444 -30.433  23.827  1.00  0.00    -0.000 C 
BRANCH   8   9
ATOM      9  C   UNL     1      12.335 -29.732  23.016  1.00  0.00    -0.000 C 
BRANCH   9  10
ATOM     10  C   UNL     1      11.752 -28.491  23.715  1.00  0.00    -0.003 C 
ATOM     11  C   UNL     1      12.825 -27.544  24.245  1.00  0.00     0.004 C 
ENDBRANCH   9  10
ENDBRANCH   8   9
ENDBRANCH   7   8
ENDBRANCH   1   7
TORSDOF 7
ENDMDL
MODEL 3
REMARK VINA RESULT:    -3.923      2.213      2.947
REMARK INTER + INTRA:          -6.157
REMARK INTER:                  -5.734
REMARK INTRA:                  -0.423
REMARK UNBOUND:                -0.628
REMARK SMILES CCCCCCCCC(=O)[O-]
REMARK SMILES IDX 6 1 7 2 8 3 9 4 10 5 11 6 5 7 4 8 3 9 2 10 1 11
REMARK H PARENT
REMARK Flexibility Score: inf
ROOT
ATOM      1  C   UNL     1      14.654 -33.213  22.136  1.00  0.00     0.000 C 
ENDROOT
BRANCH   1   2
ATOM      2  C   UNL     1      15.565 -34.333  21.614  1.00  0.00     0.006 C 
BRANCH   2   3
ATOM      3  C   UNL     1      15.328 -34.580  20.120  1.00  0.00     0.053 C 
BRANCH   3   4
ATOM      4  C   UNL     1      16.572 -35.102  19.472  1.00  0.00     0.041 C 
ATOM      5  O   UNL     1      17.363 -34.312  18.892  1.00  0.00    -0.550 OA
ATOM      6  O   UNL     1      16.834 -36.466  19.466  1.00  0.00    -0.550 OA
ENDBRANCH   3   4
ENDBRANCH   2   3
ENDBRANCH   1   2
BRANCH   1   7
ATOM      7  C   UNL     1      14.027 -32.387  21.000  1.00  0.00     0.000 C 
BRANCH   7   8
ATOM      8  C   UNL     1      13.067 -31.301  21.520  1.00  0.00    -0.000 C 
BRANCH   8   9
ATOM      9  C   UNL     1      13.129 -31.157  23.055  1.00  0.00    -0.000 C 
BRANCH   9  10
ATOM     10  C   UNL     1      13.444 -29.727  23.527  1.00  0.00    -0.003 C 
ATOM     11  C   UNL     1      14.735 -29.171  22.933  1.00  0.00     0.004 C 
ENDBRANCH   9  10
ENDBRANCH   8   9
ENDBRANCH   7   8
ENDBRANCH   1   7
TORSDOF 7
ENDMDL
MODEL 4
REMARK VINA RESULT:    -3.858      3.061      5.107
REMARK INTER + INTRA:          -6.065
REMARK INTER:                  -5.388
REMARK INTRA:                  -0.677
REMARK UNBOUND:                -0.628
REMARK SMILES CCCCCCCCC(=O)[O-]
REMARK SMILES IDX 6 1 7 2 8 3 9 4 10 5 11 6 5 7 4 8 3 9 2 10 1 11
REMARK H PARENT
REMARK Flexibility Score: inf
ROOT
ATOM      1  C   UNL     1      13.895 -31.004  21.362  1.00  0.00     0.000 C 
ENDROOT
BRANCH   1   2
ATOM      2  C   UNL     1      12.651 -30.685  22.203  1.00  0.00     0.006 C 
BRANCH   2   3
ATOM      3  C   UNL     1      13.043 -30.045  23.539  1.00  0.00     0.053 C 
BRANCH   3   4
ATOM      4  C   UNL     1      12.218 -28.824  23.797  1.00  0.00     0.041 C 
ATOM      5  O   UNL     1      11.032 -28.760  23.377  1.00  0.00    -0.550 OA
ATOM      6  O   UNL     1      12.773 -27.737  24.460  1.00  0.00    -0.550 OA
ENDBRANCH   3   4
ENDBRANCH   2   3
ENDBRANCH   1   2
BRANCH   1   7
ATOM      7  C   UNL     1      13.878 -32.437  20.805  1.00  0.00     0.000 C 
BRANCH   7   8
ATOM      8  C   UNL     1      15.002 -33.312  21.390  1.00  0.00    -0.000 C 
BRANCH   8   9
ATOM      9  C   UNL     1      15.994 -32.491  22.240  1.00  0.00    -0.000 C 
BRANCH   9  10
ATOM     10  C   UNL     1      16.002 -32.884  23.727  1.00  0.00    -0.003 C 
ATOM     11  C   UNL     1      14.647 -33.382  24.222  1.00  0.00     0.004 C 
ENDBRANCH   9  10
ENDBRANCH   8   9
ENDBRANCH   7   8
ENDBRANCH   1   7
TORSDOF 7
ENDMDL
MODEL 5
REMARK VINA RESULT:    -3.843      3.206      5.534
REMARK INTER + INTRA:          -6.044
REMARK INTER:                  -5.737
REMARK INTRA:                  -0.306
REMARK UNBOUND:                -0.628
REMARK SMILES CCCCCCCCC(=O)[O-]
REMARK SMILES IDX 6 1 7 2 8 3 9 4 10 5 11 6 5 7 4 8 3 9 2 10 1 11
REMARK H PARENT
REMARK Flexibility Score: inf
ROOT
ATOM      1  C   UNL     1      12.393 -30.942  21.802  1.00  0.00     0.000 C 
ENDROOT
BRANCH   1   2
ATOM      2  C   UNL     1      13.144 -30.585  23.093  1.00  0.00     0.006 C 
BRANCH   2   3
ATOM      3  C   UNL     1      13.531 -29.103  23.110  1.00  0.00     0.053 C 
BRANCH   3   4
ATOM      4  C   UNL     1      12.554 -28.316  23.927  1.00  0.00     0.041 C 
ATOM      5  O   UNL     1      12.921 -27.772  25.002  1.00  0.00    -0.550 OA
ATOM      6  O   UNL     1      11.228 -28.224  23.526  1.00  0.00    -0.550 OA
ENDBRANCH   3   4
ENDBRANCH   2   3
ENDBRANCH   1   2
BRANCH   1   7
ATOM      7  C   UNL     1      13.288 -31.659  20.779  1.00  0.00     0.000 C 
BRANCH   7   8
ATOM      8  C   UNL     1      14.438 -32.438  21.443  1.00  0.00    -0.000 C 
BRANCH   8   9
ATOM      9  C   UNL     1      14.857 -33.672  20.616  1.00  0.00    -0.000 C 
BRANCH   9  10
ATOM     10  C   UNL     1      15.668 -34.704  21.419  1.00  0.00    -0.003 C 
ATOM     11  C   UNL     1      15.952 -34.259  22.851  1.00  0.00     0.004 C 
ENDBRANCH   9  10
ENDBRANCH   8   9
ENDBRANCH   7   8
ENDBRANCH   1   7
TORSDOF 7
ENDMDL
MODEL 6
REMARK VINA RESULT:    -3.806      2.826      6.067
REMARK INTER + INTRA:          -5.992
REMARK INTER:                  -5.685
REMARK INTRA:                  -0.307
REMARK UNBOUND:                -0.628
REMARK SMILES CCCCCCCCC(=O)[O-]
REMARK SMILES IDX 6 1 7 2 8 3 9 4 10 5 11 6 5 7 4 8 3 9 2 10 1 11
REMARK H PARENT
REMARK Flexibility Score: inf
ROOT
ATOM      1  C   UNL     1      14.317 -32.886  21.081  1.00  0.00     0.000 C 
ENDROOT
BRANCH   1   2
ATOM      2  C   UNL     1      14.178 -31.387  21.386  1.00  0.00     0.006 C 
BRANCH   2   3
ATOM      3  C   UNL     1      13.448 -31.164  22.714  1.00  0.00     0.053 C 
BRANCH   3   4
ATOM      4  C   UNL     1      12.229 -30.321  22.507  1.00  0.00     0.041 C 
ATOM      5  O   UNL     1      12.024 -29.314  23.235  1.00  0.00    -0.550 OA
ATOM      6  O   UNL     1      11.294 -30.676  21.542  1.00  0.00    -0.550 OA
ENDBRANCH   3   4
ENDBRANCH   2   3
ENDBRANCH   1   2
BRANCH   1   7
ATOM      7  C   UNL     1      15.040 -33.651  22.201  1.00  0.00     0.000 C 
BRANCH   7   8
ATOM      8  C   UNL     1      16.068 -34.661  21.659  1.00  0.00    -0.000 C 
BRANCH   8   9
ATOM      9  C   UNL     1      15.775 -35.060  20.198  1.00  0.00    -0.000 C 
BRANCH   9  10
ATOM     10  C   UNL     1      16.851 -35.970  19.581  1.00  0.00    -0.003 C 
ATOM     11  C   UNL     1      17.566 -36.836  20.614  1.00  0.00     0.004 C 
ENDBRANCH   9  10
ENDBRANCH   8   9
ENDBRANCH   7   8
ENDBRANCH   1   7
TORSDOF 7
ENDMDL
MODEL 7
REMARK VINA RESULT:    -3.797      1.999      3.321
REMARK INTER + INTRA:          -5.979
REMARK INTER:                  -5.145
REMARK INTRA:                  -0.834
REMARK UNBOUND:                -0.628
REMARK SMILES CCCCCCCCC(=O)[O-]
REMARK SMILES IDX 6 1 7 2 8 3 9 4 10 5 11 6 5 7 4 8 3 9 2 10 1 11
REMARK H PARENT
REMARK Flexibility Score: inf
ROOT
ATOM      1  C   UNL     1      13.866 -31.584  23.991  1.00  0.00     0.000 C 
ENDROOT
BRANCH   1   2
ATOM      2  C   UNL     1      14.160 -33.086  24.113  1.00  0.00     0.006 C 
BRANCH   2   3
ATOM      3  C   UNL     1      15.650 -33.371  23.896  1.00  0.00     0.053 C 
BRANCH   3   4
ATOM      4  C   UNL     1      15.847 -34.236  22.691  1.00  0.00     0.041 C 
ATOM      5  O   UNL     1      15.045 -34.166  21.722  1.00  0.00    -0.550 OA
ATOM      6  O   UNL     1      16.888 -35.155  22.657  1.00  0.00    -0.550 OA
ENDBRANCH   3   4
ENDBRANCH   2   3
ENDBRANCH   1   2
BRANCH   1   7
ATOM      7  C   UNL     1      13.315 -31.201  22.607  1.00  0.00     0.000 C 
BRANCH   7   8
ATOM      8  C   UNL     1      14.407 -30.666  21.664  1.00  0.00    -0.000 C 
BRANCH   8   9
ATOM      9  C   UNL     1      15.253 -29.557  22.325  1.00  0.00    -0.000 C 
BRANCH   9  10
ATOM     10  C   UNL     1      16.748 -29.904  22.430  1.00  0.00    -0.003 C 
ATOM     11  C   UNL     1      17.190 -30.959  21.421  1.00  0.00     0.004 C 
ENDBRANCH   9  10
ENDBRANCH   8   9
ENDBRANCH   7   8
ENDBRANCH   1   7
TORSDOF 7
ENDMDL
MODEL 8
REMARK VINA RESULT:    -3.746      1.441      2.284
REMARK INTER + INTRA:          -5.907
REMARK INTER:                  -5.166
REMARK INTRA:                  -0.741
REMARK UNBOUND:                -0.628
REMARK SMILES CCCCCCCCC(=O)[O-]
REMARK SMILES IDX 6 1 7 2 8 3 9 4 10 5 11 6 5 7 4 8 3 9 2 10 1 11
REMARK H PARENT
REMARK Flexibility Score: inf
ROOT
ATOM      1  C   UNL     1      16.834 -31.666  23.028  1.00  0.00     0.000 C 
ENDROOT
BRANCH   1   2
ATOM      2  C   UNL     1      16.462 -32.842  23.942  1.00  0.00     0.006 C 
BRANCH   2   3
ATOM      3  C   UNL     1      15.187 -33.535  23.451  1.00  0.00     0.053 C 
BRANCH   3   4
ATOM      4  C   UNL     1      15.376 -34.053  22.059  1.00  0.00     0.041 C 
ATOM      5  O   UNL     1      14.630 -33.650  21.127  1.00  0.00    -0.550 OA
ATOM      6  O   UNL     1      16.342 -35.016  21.801  1.00  0.00    -0.550 OA
ENDBRANCH   3   4
ENDBRANCH   2   3
ENDBRANCH   1   2
BRANCH   1   7
ATOM      7  C   UNL     1      15.922 -30.446  23.237  1.00  0.00     0.000 C 
BRANCH   7   8
ATOM      8  C   UNL     1      15.053 -30.139  22.003  1.00  0.00    -0.000 C 
BRANCH   8   9
ATOM      9  C   UNL     1      13.559 -30.422  22.261  1.00  0.00    -0.000 C 
BRANCH   9  10
ATOM     10  C   UNL     1      13.146 -30.253  23.733  1.00  0.00    -0.003 C 
ATOM     11  C   UNL     1      12.508 -28.897  24.024  1.00  0.00     0.004 C 
ENDBRANCH   9  10
ENDBRANCH   8   9
ENDBRANCH   7   8
ENDBRANCH   1   7
TORSDOF 7
ENDMDL
MODEL 9
REMARK VINA RESULT:    -3.735      2.401      3.915
REMARK INTER + INTRA:          -5.891
REMARK INTER:                  -5.143
REMARK INTRA:                  -0.748
REMARK UNBOUND:                -0.628
REMARK SMILES CCCCCCCCC(=O)[O-]
REMARK SMILES IDX 6 1 7 2 8 3 9 4 10 5 11 6 5 7 4 8 3 9 2 10 1 11
REMARK H PARENT
REMARK Flexibility Score: inf
ROOT
ATOM      1  C   UNL     1      14.531 -29.206  22.851  1.00  0.00     0.000 C 
ENDROOT
BRANCH   1   2
ATOM      2  C   UNL     1      15.509 -30.053  22.024  1.00  0.00     0.006 C 
BRANCH   2   3
ATOM      3  C   UNL     1      16.861 -30.178  22.734  1.00  0.00     0.053 C 
BRANCH   3   4
ATOM      4  C   UNL     1      17.762 -31.110  21.986  1.00  0.00     0.041 C 
ATOM      5  O   UNL     1      17.959 -30.946  20.753  1.00  0.00    -0.550 OA
ATOM      6  O   UNL     1      18.345 -32.188  22.639  1.00  0.00    -0.550 OA
ENDBRANCH   3   4
ENDBRANCH   2   3
ENDBRANCH   1   2
BRANCH   1   7
ATOM      7  C   UNL     1      13.507 -30.064  23.613  1.00  0.00     0.000 C 
BRANCH   7   8
ATOM      8  C   UNL     1      13.511 -31.534  23.156  1.00  0.00    -0.000 C 
BRANCH   8   9
ATOM      9  C   UNL     1      13.902 -32.496  24.297  1.00  0.00    -0.000 C 
BRANCH   9  10
ATOM     10  C   UNL     1      15.058 -33.444  23.935  1.00  0.00    -0.003 C 
ATOM     11  C   UNL     1      15.127 -33.761  22.444  1.00  0.00     0.004 C 
ENDBRANCH   9  10
ENDBRANCH   8   9
ENDBRANCH   7   8
ENDBRANCH   1   7
TORSDOF 7
ENDMDL
