MODEL 1
REMARK VINA RESULT:    -4.074      0.000      0.000
REMARK INTER + INTRA:          -4.759
REMARK INTER:                  -4.551
REMARK INTRA:                  -0.209
REMARK UNBOUND:                -0.209
REMARK SMILES O=C([O-])c1ccccc1C(=O)[O-]
REMARK SMILES IDX 4 1 9 2 5 3 8 4 6 5 7 6 2 7 1 8 3 9 10 10 11 11 12 12
REMARK H PARENT
REMARK Flexibility Score: inf
ROOT
ATOM      1  C   UNL     1      55.951  28.282  50.528  1.00  0.00     0.006 A 
ATOM      2  C   UNL     1      56.098  26.905  50.197  1.00  0.00     0.006 A 
ATOM      3  C   UNL     1      54.692  28.890  50.381  1.00  0.00     0.010 A 
ATOM      4  C   UNL     1      54.994  26.207  49.672  1.00  0.00     0.010 A 
ATOM      5  C   UNL     1      53.606  28.174  49.879  1.00  0.00     0.001 A 
ATOM      6  C   UNL     1      53.760  26.838  49.514  1.00  0.00     0.001 A 
ENDROOT
BRANCH   1   7
ATOM      7  C   UNL     1      57.087  29.132  50.956  1.00  0.00     0.072 C 
ATOM      8  O   UNL     1      57.304  29.349  52.177  1.00  0.00    -0.545 OA
ATOM      9  O   UNL     1      57.968  29.645  50.011  1.00  0.00    -0.545 OA
ENDBRANCH   1   7
BRANCH   2  10
ATOM     10  C   UNL     1      57.346  26.149  50.451  1.00  0.00     0.072 C 
ATOM     11  O   UNL     1      57.461  25.445  51.490  1.00  0.00    -0.545 OA
ATOM     12  O   UNL     1      58.429  26.257  49.587  1.00  0.00    -0.545 OA
ENDBRANCH   2  10
TORSDOF 2
ENDMDL
MODEL 2
REMARK VINA RESULT:    -4.063      0.169      3.009
REMARK INTER + INTRA:          -4.747
REMARK INTER:                  -4.549
REMARK INTRA:                  -0.198
REMARK UNBOUND:                -0.209
REMARK SMILES O=C([O-])c1ccccc1C(=O)[O-]
REMARK SMILES IDX 4 1 9 2 5 3 8 4 6 5 7 6 2 7 1 8 3 9 10 10 11 11 12 12
REMARK H PARENT
REMARK Flexibility Score: inf
ROOT
ATOM      1  C   UNL     1      56.001  26.847  50.177  1.00  0.00     0.006 A 
ATOM      2  C   UNL     1      55.819  28.220  50.506  1.00  0.00     0.006 A 
ATOM      3  C   UNL     1      54.922  26.125  49.636  1.00  0.00     0.010 A 
ATOM      4  C   UNL     1      54.547  28.800  50.340  1.00  0.00     0.010 A 
ATOM      5  C   UNL     1      53.676  26.726  49.459  1.00  0.00     0.001 A 
ATOM      6  C   UNL     1      53.486  28.058  49.821  1.00  0.00     0.001 A 
ENDROOT
BRANCH   1   7
ATOM      7  C   UNL     1      57.261  26.115  50.445  1.00  0.00     0.072 C 
ATOM      8  O   UNL     1      58.222  26.170  49.635  1.00  0.00    -0.545 OA
ATOM      9  O   UNL     1      57.418  25.412  51.635  1.00  0.00    -0.545 OA
ENDBRANCH   1   7
BRANCH   2  10
ATOM     10  C   UNL     1      56.932  29.091  50.949  1.00  0.00     0.072 C 
ATOM     11  O   UNL     1      57.034  29.421  52.161  1.00  0.00    -0.545 OA
ATOM     12  O   UNL     1      57.836  29.610  50.030  1.00  0.00    -0.545 OA
ENDBRANCH   2  10
TORSDOF 2
ENDMDL
MODEL 3
REMARK VINA RESULT:    -4.019      0.299      3.012
REMARK INTER + INTRA:          -4.698
REMARK INTER:                  -4.508
REMARK INTRA:                  -0.189
REMARK UNBOUND:                -0.209
REMARK SMILES O=C([O-])c1ccccc1C(=O)[O-]
REMARK SMILES IDX 4 1 9 2 5 3 8 4 6 5 7 6 2 7 1 8 3 9 10 10 11 11 12 12
REMARK H PARENT
REMARK Flexibility Score: inf
ROOT
ATOM      1  C   UNL     1      56.364  26.981  50.198  1.00  0.00     0.006 A 
ATOM      2  C   UNL     1      56.225  28.354  50.543  1.00  0.00     0.006 A 
ATOM      3  C   UNL     1      55.240  26.276  49.730  1.00  0.00     0.010 A 
ATOM      4  C   UNL     1      54.953  28.953  50.468  1.00  0.00     0.010 A 
ATOM      5  C   UNL     1      53.993  26.895  49.643  1.00  0.00     0.001 A 
ATOM      6  C   UNL     1      53.848  28.227  50.023  1.00  0.00     0.001 A 
ENDROOT
BRANCH   1   7
ATOM      7  C   UNL     1      57.629  26.230  50.374  1.00  0.00     0.072 C 
ATOM      8  O   UNL     1      57.762  25.403  51.314  1.00  0.00    -0.545 OA
ATOM      9  O   UNL     1      58.664  26.384  49.458  1.00  0.00    -0.545 OA
ENDBRANCH   1   7
BRANCH   2  10
ATOM     10  C   UNL     1      57.378  29.208  50.910  1.00  0.00     0.072 C 
ATOM     11  O   UNL     1      58.083  29.741  50.012  1.00  0.00    -0.545 OA
ATOM     12  O   UNL     1      57.739  29.379  52.241  1.00  0.00    -0.545 OA
ENDBRANCH   2  10
TORSDOF 2
ENDMDL
MODEL 4
REMARK VINA RESULT:    -3.741      1.958      4.294
REMARK INTER + INTRA:          -4.387
REMARK INTER:                  -4.158
REMARK INTRA:                  -0.229
REMARK UNBOUND:                -0.209
REMARK SMILES O=C([O-])c1ccccc1C(=O)[O-]
REMARK SMILES IDX 4 1 9 2 5 3 8 4 6 5 7 6 2 7 1 8 3 9 10 10 11 11 12 12
REMARK H PARENT
REMARK Flexibility Score: inf
ROOT
ATOM      1  C   UNL     1      57.468  27.316  50.238  1.00  0.00     0.006 A 
ATOM      2  C   UNL     1      57.236  28.709  50.410  1.00  0.00     0.006 A 
ATOM      3  C   UNL     1      58.681  26.890  49.667  1.00  0.00     0.010 A 
ATOM      4  C   UNL     1      58.198  29.626  49.946  1.00  0.00     0.010 A 
ATOM      5  C   UNL     1      59.631  27.814  49.233  1.00  0.00     0.001 A 
ATOM      6  C   UNL     1      59.385  29.180  49.362  1.00  0.00     0.001 A 
ENDROOT
BRANCH   1   7
ATOM      7  C   UNL     1      56.458  26.284  50.569  1.00  0.00     0.072 C 
ATOM      8  O   UNL     1      56.517  25.649  51.655  1.00  0.00    -0.545 OA
ATOM      9  O   UNL     1      55.389  26.055  49.709  1.00  0.00    -0.545 OA
ENDBRANCH   1   7
BRANCH   2  10
ATOM     10  C   UNL     1      56.054  29.241  51.126  1.00  0.00     0.072 C 
ATOM     11  O   UNL     1      56.099  29.430  52.371  1.00  0.00    -0.545 OA
ATOM     12  O   UNL     1      54.862  29.477  50.451  1.00  0.00    -0.545 OA
ENDBRANCH   2  10
TORSDOF 2
ENDMDL
MODEL 5
REMARK VINA RESULT:    -3.718      1.949      3.206
REMARK INTER + INTRA:          -4.362
REMARK INTER:                  -4.152
REMARK INTRA:                  -0.210
REMARK UNBOUND:                -0.209
REMARK SMILES O=C([O-])c1ccccc1C(=O)[O-]
REMARK SMILES IDX 4 1 9 2 5 3 8 4 6 5 7 6 2 7 1 8 3 9 10 10 11 11 12 12
REMARK H PARENT
REMARK Flexibility Score: inf
ROOT
ATOM      1  C   UNL     1      57.188  28.695  50.411  1.00  0.00     0.006 A 
ATOM      2  C   UNL     1      57.406  27.295  50.282  1.00  0.00     0.006 A 
ATOM      3  C   UNL     1      58.160  29.586  49.922  1.00  0.00     0.010 A 
ATOM      4  C   UNL     1      58.615  26.839  49.725  1.00  0.00     0.010 A 
ATOM      5  C   UNL     1      59.343  29.113  49.355  1.00  0.00     0.001 A 
ATOM      6  C   UNL     1      59.575  27.742  49.267  1.00  0.00     0.001 A 
ENDROOT
BRANCH   1   7
ATOM      7  C   UNL     1      56.011  29.266  51.106  1.00  0.00     0.072 C 
ATOM      8  O   UNL     1      56.099  29.676  52.293  1.00  0.00    -0.545 OA
ATOM      9  O   UNL     1      54.807  29.418  50.426  1.00  0.00    -0.545 OA
ENDBRANCH   1   7
BRANCH   2  10
ATOM     10  C   UNL     1      56.379  26.289  50.640  1.00  0.00     0.072 C 
ATOM     11  O   UNL     1      56.487  25.626  51.707  1.00  0.00    -0.545 OA
ATOM     12  O   UNL     1      55.323  26.014  49.780  1.00  0.00    -0.545 OA
ENDBRANCH   2  10
TORSDOF 2
ENDMDL
MODEL 6
REMARK VINA RESULT:    -3.608      1.778      3.331
REMARK INTER + INTRA:          -4.239
REMARK INTER:                  -4.027
REMARK INTRA:                  -0.211
REMARK UNBOUND:                -0.209
REMARK SMILES O=C([O-])c1ccccc1C(=O)[O-]
REMARK SMILES IDX 4 1 9 2 5 3 8 4 6 5 7 6 2 7 1 8 3 9 10 10 11 11 12 12
REMARK H PARENT
REMARK Flexibility Score: inf
ROOT
ATOM      1  C   UNL     1      56.327  27.400  50.656  1.00  0.00     0.006 A 
ATOM      2  C   UNL     1      54.968  27.302  50.246  1.00  0.00     0.006 A 
ATOM      3  C   UNL     1      56.830  28.648  51.066  1.00  0.00     0.010 A 
ATOM      4  C   UNL     1      54.181  28.468  50.201  1.00  0.00     0.010 A 
ATOM      5  C   UNL     1      56.027  29.788  51.034  1.00  0.00     0.001 A 
ATOM      6  C   UNL     1      54.709  29.700  50.591  1.00  0.00     0.001 A 
ENDROOT
BRANCH   1   7
ATOM      7  C   UNL     1      57.268  26.256  50.606  1.00  0.00     0.072 C 
ATOM      8  O   UNL     1      58.078  26.130  49.650  1.00  0.00    -0.545 OA
ATOM      9  O   UNL     1      57.310  25.342  51.653  1.00  0.00    -0.545 OA
ENDBRANCH   1   7
BRANCH   2  10
ATOM     10  C   UNL     1      54.317  26.009  49.933  1.00  0.00     0.072 C 
ATOM     11  O   UNL     1      54.109  25.678  48.735  1.00  0.00    -0.545 OA
ATOM     12  O   UNL     1      53.869  25.175  50.950  1.00  0.00    -0.545 OA
ENDBRANCH   2  10
TORSDOF 2
ENDMDL
MODEL 7
REMARK VINA RESULT:    -3.350      9.093     10.459
REMARK INTER + INTRA:          -3.950
REMARK INTER:                  -3.717
REMARK INTRA:                  -0.233
REMARK UNBOUND:                -0.209
REMARK SMILES O=C([O-])c1ccccc1C(=O)[O-]
REMARK SMILES IDX 4 1 9 2 5 3 8 4 6 5 7 6 2 7 1 8 3 9 10 10 11 11 12 12
REMARK H PARENT
REMARK Flexibility Score: inf
ROOT
ATOM      1  C   UNL     1      60.230  19.098  49.132  1.00  0.00     0.006 A 
ATOM      2  C   UNL     1      61.420  18.987  49.905  1.00  0.00     0.006 A 
ATOM      3  C   UNL     1      59.969  20.297  48.446  1.00  0.00     0.010 A 
ATOM      4  C   UNL     1      62.271  20.103  50.015  1.00  0.00     0.010 A 
ATOM      5  C   UNL     1      60.838  21.384  48.551  1.00  0.00     0.001 A 
ATOM      6  C   UNL     1      61.980  21.291  49.343  1.00  0.00     0.001 A 
ENDROOT
BRANCH   1   7
ATOM      7  C   UNL     1      59.208  18.027  49.070  1.00  0.00     0.072 C 
ATOM      8  O   UNL     1      59.195  17.203  48.118  1.00  0.00    -0.545 OA
ATOM      9  O   UNL     1      58.290  17.880  50.104  1.00  0.00    -0.545 OA
ENDBRANCH   1   7
BRANCH   2  10
ATOM     10  C   UNL     1      61.843  17.721  50.546  1.00  0.00     0.072 C 
ATOM     11  O   UNL     1      62.518  16.877  49.896  1.00  0.00    -0.545 OA
ATOM     12  O   UNL     1      61.450  17.414  51.843  1.00  0.00    -0.545 OA
ENDBRANCH   2  10
TORSDOF 2
ENDMDL
MODEL 8
REMARK VINA RESULT:    -3.257      9.117     10.472
REMARK INTER + INTRA:          -3.847
REMARK INTER:                  -3.697
REMARK INTRA:                  -0.150
REMARK UNBOUND:                -0.209
REMARK SMILES O=C([O-])c1ccccc1C(=O)[O-]
REMARK SMILES IDX 4 1 9 2 5 3 8 4 6 5 7 6 2 7 1 8 3 9 10 10 11 11 12 12
REMARK H PARENT
REMARK Flexibility Score: inf
ROOT
ATOM      1  C   UNL     1      61.336  18.945  49.982  1.00  0.00     0.006 A 
ATOM      2  C   UNL     1      60.225  19.065  49.101  1.00  0.00     0.006 A 
ATOM      3  C   UNL     1      62.199  20.043  50.149  1.00  0.00     0.010 A 
ATOM      4  C   UNL     1      60.056  20.257  48.372  1.00  0.00     0.010 A 
ATOM      5  C   UNL     1      62.001  21.223  49.433  1.00  0.00     0.001 A 
ATOM      6  C   UNL     1      60.938  21.326  48.537  1.00  0.00     0.001 A 
ENDROOT
BRANCH   1   7
ATOM      7  C   UNL     1      61.673  17.685  50.685  1.00  0.00     0.072 C 
ATOM      8  O   UNL     1      61.000  17.301  51.678  1.00  0.00    -0.545 OA
ATOM      9  O   UNL     1      62.699  16.876  50.211  1.00  0.00    -0.545 OA
ENDBRANCH   1   7
BRANCH   2  10
ATOM     10  C   UNL     1      59.190  18.014  48.969  1.00  0.00     0.072 C 
ATOM     11  O   UNL     1      59.292  17.132  48.074  1.00  0.00    -0.545 OA
ATOM     12  O   UNL     1      58.063  18.022  49.782  1.00  0.00    -0.545 OA
ENDBRANCH   2  10
TORSDOF 2
ENDMDL
MODEL 9
REMARK VINA RESULT:    -3.200      8.403      9.579
REMARK INTER + INTRA:          -3.783
REMARK INTER:                  -3.581
REMARK INTRA:                  -0.202
REMARK UNBOUND:                -0.209
REMARK SMILES O=C([O-])c1ccccc1C(=O)[O-]
REMARK SMILES IDX 4 1 9 2 5 3 8 4 6 5 7 6 2 7 1 8 3 9 10 10 11 11 12 12
REMARK H PARENT
REMARK Flexibility Score: inf
ROOT
ATOM      1  C   UNL     1      59.360  19.034  50.108  1.00  0.00     0.006 A 
ATOM      2  C   UNL     1      58.258  18.340  50.681  1.00  0.00     0.006 A 
ATOM      3  C   UNL     1      59.822  18.653  48.835  1.00  0.00     0.010 A 
ATOM      4  C   UNL     1      57.701  17.249  49.987  1.00  0.00     0.010 A 
ATOM      5  C   UNL     1      59.241  17.583  48.155  1.00  0.00     0.001 A 
ATOM      6  C   UNL     1      58.190  16.875  48.735  1.00  0.00     0.001 A 
ENDROOT
BRANCH   1   7
ATOM      7  C   UNL     1      60.098  20.102  50.822  1.00  0.00     0.072 C 
ATOM      8  O   UNL     1      59.951  21.311  50.503  1.00  0.00    -0.545 OA
ATOM      9  O   UNL     1      60.914  19.782  51.902  1.00  0.00    -0.545 OA
ENDBRANCH   1   7
BRANCH   2  10
ATOM     10  C   UNL     1      57.619  18.760  51.949  1.00  0.00     0.072 C 
ATOM     11  O   UNL     1      57.913  18.181  53.029  1.00  0.00    -0.545 OA
ATOM     12  O   UNL     1      56.642  19.749  51.958  1.00  0.00    -0.545 OA
ENDBRANCH   2  10
TORSDOF 2
ENDMDL
