MODEL 1
REMARK VINA RESULT:    -3.747      0.000      0.000
REMARK INTER + INTRA:          -6.707
REMARK INTER:                  -5.390
REMARK INTRA:                  -1.317
REMARK UNBOUND:                -1.317
REMARK SMILES O=C(CO)[C@@H](O)[C@H](O)[C@@H](O)CO
REMARK SMILES IDX 7 1 9 2 11 3 12 4 10 6 5 8 2 9 1 10 3 11 4 12 6 14 8 16
REMARK H PARENT 12 5 10 7 4 13 6 15 8 17
REMARK Flexibility Score: inf
ROOT
ATOM      1  C   UNL     1      23.967  -3.456 -32.049  1.00  0.00     0.181 C 
ENDROOT
BRANCH   1   2
ATOM      2  C   UNL     1      23.963  -4.053 -30.617  1.00  0.00     0.171 C 
BRANCH   2   3
ATOM      3  C   UNL     1      24.299  -5.553 -30.624  1.00  0.00     0.190 C 
BRANCH   3   4
ATOM      4  O   UNL     1      23.134  -6.320 -30.489  1.00  0.00    -0.394 OA
ATOM      5  H   UNL     1      22.771  -6.431 -31.406  1.00  0.00     0.210 HD
ENDBRANCH   3   4
ENDBRANCH   2   3
BRANCH   2   6
ATOM      6  O   UNL     1      22.716  -3.845 -30.002  1.00  0.00    -0.388 OA
ATOM      7  H   UNL     1      22.187  -4.676 -30.135  1.00  0.00     0.211 HD
ENDBRANCH   2   6
ENDBRANCH   1   2
BRANCH   1   8
ATOM      8  C   UNL     1      23.852  -1.908 -32.046  1.00  0.00     0.214 C 
BRANCH   8   9
ATOM      9  C   UNL     1      22.711  -1.455 -32.925  1.00  0.00     0.189 C 
ATOM     10  O   UNL     1      22.842  -1.452 -34.140  1.00  0.00    -0.294 OA
BRANCH   9  11
ATOM     11  C   UNL     1      21.413  -1.004 -32.321  1.00  0.00     0.234 C 
BRANCH  11  12
ATOM     12  O   UNL     1      20.869  -2.043 -31.557  1.00  0.00    -0.388 OA
ATOM     13  H   UNL     1      20.968  -1.767 -30.609  1.00  0.00     0.211 HD
ENDBRANCH  11  12
ENDBRANCH   9  11
ENDBRANCH   8   9
BRANCH   8  14
ATOM     14  O   UNL     1      23.644  -1.420 -30.744  1.00  0.00    -0.382 OA
ATOM     15  H   UNL     1      24.188  -0.596 -30.647  1.00  0.00     0.211 HD
ENDBRANCH   8  14
ENDBRANCH   1   8
BRANCH   1  16
ATOM     16  O   UNL     1      22.977  -4.046 -32.858  1.00  0.00    -0.387 OA
ATOM     17  H   UNL     1      22.555  -3.329 -33.399  1.00  0.00     0.211 HD
ENDBRANCH   1  16
TORSDOF 10
ENDMDL
MODEL 2
REMARK VINA RESULT:    -3.650      2.632      5.679
REMARK INTER + INTRA:          -6.568
REMARK INTER:                  -5.131
REMARK INTRA:                  -1.437
REMARK UNBOUND:                -1.317
REMARK SMILES O=C(CO)[C@@H](O)[C@H](O)[C@@H](O)CO
REMARK SMILES IDX 7 1 9 2 11 3 12 4 10 6 5 8 2 9 1 10 3 11 4 12 6 14 8 16
REMARK H PARENT 12 5 10 7 4 13 6 15 8 17
REMARK Flexibility Score: inf
ROOT
ATOM      1  C   UNL     1      25.434  -5.721 -30.213  1.00  0.00     0.181 C 
ENDROOT
BRANCH   1   2
ATOM      2  C   UNL     1      24.180  -5.948 -31.097  1.00  0.00     0.171 C 
BRANCH   2   3
ATOM      3  C   UNL     1      24.002  -4.827 -32.133  1.00  0.00     0.190 C 
BRANCH   3   4
ATOM      4  O   UNL     1      23.337  -3.732 -31.566  1.00  0.00    -0.394 OA
ATOM      5  H   UNL     1      24.038  -3.180 -31.133  1.00  0.00     0.210 HD
ENDBRANCH   3   4
ENDBRANCH   2   3
BRANCH   2   6
ATOM      6  O   UNL     1      23.027  -6.048 -30.298  1.00  0.00    -0.388 OA
ATOM      7  H   UNL     1      23.215  -5.550 -29.458  1.00  0.00     0.211 HD
ENDBRANCH   2   6
ENDBRANCH   1   2
BRANCH   1   8
ATOM      8  C   UNL     1      25.778  -6.959 -29.342  1.00  0.00     0.214 C 
BRANCH   8   9
ATOM      9  C   UNL     1      25.750  -6.604 -27.875  1.00  0.00     0.189 C 
ATOM     10  O   UNL     1      26.716  -6.057 -27.362  1.00  0.00    -0.294 OA
BRANCH   9  11
ATOM     11  C   UNL     1      24.548  -6.919 -27.034  1.00  0.00     0.234 C 
BRANCH  11  12
ATOM     12  O   UNL     1      23.446  -6.198 -27.508  1.00  0.00    -0.388 OA
ATOM     13  H   UNL     1      23.726  -5.246 -27.522  1.00  0.00     0.211 HD
ENDBRANCH  11  12
ENDBRANCH   9  11
ENDBRANCH   8   9
BRANCH   8  14
ATOM     14  O   UNL     1      24.869  -8.006 -29.573  1.00  0.00    -0.382 OA
ATOM     15  H   UNL     1      24.726  -8.469 -28.707  1.00  0.00     0.211 HD
ENDBRANCH   8  14
ENDBRANCH   1   8
BRANCH   1  16
ATOM     16  O   UNL     1      25.311  -4.556 -29.431  1.00  0.00    -0.387 OA
ATOM     17  H   UNL     1      24.843  -4.799 -28.590  1.00  0.00     0.211 HD
ENDBRANCH   1  16
TORSDOF 10
ENDMDL
MODEL 3
REMARK VINA RESULT:    -3.613      1.508      4.821
REMARK INTER + INTRA:          -6.514
REMARK INTER:                  -5.495
REMARK INTRA:                  -1.019
REMARK UNBOUND:                -1.317
REMARK SMILES O=C(CO)[C@@H](O)[C@H](O)[C@@H](O)CO
REMARK SMILES IDX 7 1 9 2 11 3 12 4 10 6 5 8 2 9 1 10 3 11 4 12 6 14 8 16
REMARK H PARENT 12 5 10 7 4 13 6 15 8 17
REMARK Flexibility Score: inf
ROOT
ATOM      1  C   UNL     1      24.118  -3.926 -30.841  1.00  0.00     0.181 C 
ENDROOT
BRANCH   1   2
ATOM      2  C   UNL     1      23.795  -3.234 -32.191  1.00  0.00     0.171 C 
BRANCH   2   3
ATOM      3  C   UNL     1      23.017  -1.924 -31.987  1.00  0.00     0.190 C 
BRANCH   3   4
ATOM      4  O   UNL     1      21.677  -2.190 -31.679  1.00  0.00    -0.394 OA
ATOM      5  H   UNL     1      21.340  -1.386 -31.204  1.00  0.00     0.210 HD
ENDBRANCH   3   4
ENDBRANCH   2   3
BRANCH   2   6
ATOM      6  O   UNL     1      23.065  -4.099 -33.024  1.00  0.00    -0.388 OA
ATOM      7  H   UNL     1      23.092  -3.709 -33.938  1.00  0.00     0.211 HD
ENDBRANCH   2   6
ENDBRANCH   1   2
BRANCH   1   8
ATOM      8  C   UNL     1      24.935  -5.233 -31.026  1.00  0.00     0.214 C 
BRANCH   8   9
ATOM      9  C   UNL     1      25.381  -5.778 -29.690  1.00  0.00     0.189 C 
ATOM     10  O   UNL     1      26.228  -5.182 -29.040  1.00  0.00    -0.294 OA
BRANCH   9  11
ATOM     11  C   UNL     1      24.796  -7.050 -29.149  1.00  0.00     0.234 C 
BRANCH  11  12
ATOM     12  O   UNL     1      23.412  -6.901 -29.004  1.00  0.00    -0.388 OA
ATOM     13  H   UNL     1      23.260  -6.655 -28.054  1.00  0.00     0.211 HD
ENDBRANCH  11  12
ENDBRANCH   9  11
ENDBRANCH   8   9
BRANCH   8  14
ATOM     14  O   UNL     1      24.175  -6.215 -31.685  1.00  0.00    -0.382 OA
ATOM     15  H   UNL     1      23.222  -5.950 -31.611  1.00  0.00     0.211 HD
ENDBRANCH   8  14
ENDBRANCH   1   8
BRANCH   1  16
ATOM     16  O   UNL     1      22.954  -4.147 -30.081  1.00  0.00    -0.387 OA
ATOM     17  H   UNL     1      23.026  -3.616 -29.246  1.00  0.00     0.211 HD
ENDBRANCH   1  16
TORSDOF 10
ENDMDL
MODEL 4
REMARK VINA RESULT:    -3.582      2.214      2.893
REMARK INTER + INTRA:          -6.470
REMARK INTER:                  -5.031
REMARK INTRA:                  -1.439
REMARK UNBOUND:                -1.317
REMARK SMILES O=C(CO)[C@@H](O)[C@H](O)[C@@H](O)CO
REMARK SMILES IDX 7 1 9 2 11 3 12 4 10 6 5 8 2 9 1 10 3 11 4 12 6 14 8 16
REMARK H PARENT 12 5 10 7 4 13 6 15 8 17
REMARK Flexibility Score: inf
ROOT
ATOM      1  C   UNL     1      24.984  -5.384 -30.940  1.00  0.00     0.181 C 
ENDROOT
BRANCH   1   2
ATOM      2  C   UNL     1      24.278  -4.732 -29.722  1.00  0.00     0.171 C 
BRANCH   2   3
ATOM      3  C   UNL     1      24.139  -5.717 -28.550  1.00  0.00     0.190 C 
BRANCH   3   4
ATOM      4  O   UNL     1      23.421  -6.854 -28.943  1.00  0.00    -0.394 OA
ATOM      5  H   UNL     1      23.476  -7.489 -28.183  1.00  0.00     0.210 HD
ENDBRANCH   3   4
ENDBRANCH   2   3
BRANCH   2   6
ATOM      6  O   UNL     1      23.011  -4.246 -30.091  1.00  0.00    -0.388 OA
ATOM      7  H   UNL     1      22.842  -4.558 -31.019  1.00  0.00     0.211 HD
ENDBRANCH   2   6
ENDBRANCH   1   2
BRANCH   1   8
ATOM      8  C   UNL     1      25.640  -4.334 -31.876  1.00  0.00     0.214 C 
BRANCH   8   9
ATOM      9  C   UNL     1      25.132  -4.488 -33.290  1.00  0.00     0.189 C 
ATOM     10  O   UNL     1      25.636  -5.319 -34.031  1.00  0.00    -0.294 OA
BRANCH   9  11
ATOM     11  C   UNL     1      24.013  -3.627 -33.799  1.00  0.00     0.234 C 
BRANCH  11  12
ATOM     12  O   UNL     1      22.886  -3.801 -32.988  1.00  0.00    -0.388 OA
ATOM     13  H   UNL     1      22.240  -4.330 -33.526  1.00  0.00     0.211 HD
ENDBRANCH  11  12
ENDBRANCH   9  11
ENDBRANCH   8   9
BRANCH   8  14
ATOM     14  O   UNL     1      25.369  -3.026 -31.437  1.00  0.00    -0.382 OA
ATOM     15  H   UNL     1      26.213  -2.657 -31.070  1.00  0.00     0.211 HD
ENDBRANCH   8  14
ENDBRANCH   1   8
BRANCH   1  16
ATOM     16  O   UNL     1      24.114  -6.236 -31.647  1.00  0.00    -0.387 OA
ATOM     17  H   UNL     1      24.289  -6.117 -32.617  1.00  0.00     0.211 HD
ENDBRANCH   1  16
TORSDOF 10
ENDMDL
MODEL 5
REMARK VINA RESULT:    -3.520      2.445      4.779
REMARK INTER + INTRA:          -6.380
REMARK INTER:                  -4.921
REMARK INTRA:                  -1.459
REMARK UNBOUND:                -1.317
REMARK SMILES O=C(CO)[C@@H](O)[C@H](O)[C@@H](O)CO
REMARK SMILES IDX 7 1 9 2 11 3 12 4 10 6 5 8 2 9 1 10 3 11 4 12 6 14 8 16
REMARK H PARENT 12 5 10 7 4 13 6 15 8 17
REMARK Flexibility Score: inf
ROOT
ATOM      1  C   UNL     1      24.422  -4.163 -30.406  1.00  0.00     0.181 C 
ENDROOT
BRANCH   1   2
ATOM      2  C   UNL     1      24.735  -5.046 -31.643  1.00  0.00     0.171 C 
BRANCH   2   3
ATOM      3  C   UNL     1      24.347  -4.346 -32.956  1.00  0.00     0.190 C 
BRANCH   3   4
ATOM      4  O   UNL     1      22.962  -4.149 -33.019  1.00  0.00    -0.394 OA
ATOM      5  H   UNL     1      22.551  -4.961 -32.625  1.00  0.00     0.210 HD
ENDBRANCH   3   4
ENDBRANCH   2   3
BRANCH   2   6
ATOM      6  O   UNL     1      24.071  -6.281 -31.547  1.00  0.00    -0.388 OA
ATOM      7  H   UNL     1      23.860  -6.420 -30.586  1.00  0.00     0.211 HD
ENDBRANCH   2   6
ENDBRANCH   1   2
BRANCH   1   8
ATOM      8  C   UNL     1      25.269  -4.558 -29.167  1.00  0.00     0.214 C 
BRANCH   8   9
ATOM      9  C   UNL     1      24.378  -4.929 -28.007  1.00  0.00     0.189 C 
ATOM     10  O   UNL     1      23.895  -4.053 -27.305  1.00  0.00    -0.294 OA
BRANCH   9  11
ATOM     11  C   UNL     1      24.079  -6.368 -27.701  1.00  0.00     0.234 C 
BRANCH  11  12
ATOM     12  O   UNL     1      23.461  -6.960 -28.809  1.00  0.00    -0.388 OA
ATOM     13  H   UNL     1      24.027  -7.737 -29.056  1.00  0.00     0.211 HD
ENDBRANCH  11  12
ENDBRANCH   9  11
ENDBRANCH   8   9
BRANCH   8  14
ATOM     14  O   UNL     1      26.112  -5.645 -29.457  1.00  0.00    -0.382 OA
ATOM     15  H   UNL     1      25.597  -6.474 -29.280  1.00  0.00     0.211 HD
ENDBRANCH   8  14
ENDBRANCH   1   8
BRANCH   1  16
ATOM     16  O   UNL     1      23.046  -4.157 -30.111  1.00  0.00    -0.387 OA
ATOM     17  H   UNL     1      22.677  -3.277 -30.385  1.00  0.00     0.211 HD
ENDBRANCH   1  16
TORSDOF 10
ENDMDL
MODEL 6
REMARK VINA RESULT:    -3.506      1.443      2.366
REMARK INTER + INTRA:          -6.361
REMARK INTER:                  -5.138
REMARK INTRA:                  -1.223
REMARK UNBOUND:                -1.317
REMARK SMILES O=C(CO)[C@@H](O)[C@H](O)[C@@H](O)CO
REMARK SMILES IDX 7 1 9 2 11 3 12 4 10 6 5 8 2 9 1 10 3 11 4 12 6 14 8 16
REMARK H PARENT 12 5 10 7 4 13 6 15 8 17
REMARK Flexibility Score: inf
ROOT
ATOM      1  C   UNL     1      24.862  -5.256 -31.032  1.00  0.00     0.181 C 
ENDROOT
BRANCH   1   2
ATOM      2  C   UNL     1      25.481  -5.784 -29.712  1.00  0.00     0.171 C 
BRANCH   2   3
ATOM      3  C   UNL     1      24.808  -7.085 -29.247  1.00  0.00     0.190 C 
BRANCH   3   4
ATOM      4  O   UNL     1      23.455  -6.864 -28.958  1.00  0.00    -0.394 OA
ATOM      5  H   UNL     1      23.233  -7.467 -28.202  1.00  0.00     0.210 HD
ENDBRANCH   3   4
ENDBRANCH   2   3
BRANCH   2   6
ATOM      6  O   UNL     1      25.389  -4.811 -28.702  1.00  0.00    -0.388 OA
ATOM      7  H   UNL     1      25.444  -3.925 -29.149  1.00  0.00     0.211 HD
ENDBRANCH   2   6
ENDBRANCH   1   2
BRANCH   1   8
ATOM      8  C   UNL     1      24.080  -3.930 -30.831  1.00  0.00     0.214 C 
BRANCH   8   9
ATOM      9  C   UNL     1      23.681  -3.338 -32.161  1.00  0.00     0.189 C 
ATOM     10  O   UNL     1      23.927  -3.941 -33.195  1.00  0.00    -0.294 OA
BRANCH   9  11
ATOM     11  C   UNL     1      22.985  -2.010 -32.229  1.00  0.00     0.234 C 
BRANCH  11  12
ATOM     12  O   UNL     1      21.725  -2.113 -31.628  1.00  0.00    -0.388 OA
ATOM     13  H   UNL     1      21.153  -2.607 -32.272  1.00  0.00     0.211 HD
ENDBRANCH  11  12
ENDBRANCH   9  11
ENDBRANCH   8   9
BRANCH   8  14
ATOM     14  O   UNL     1      22.922  -4.139 -30.062  1.00  0.00    -0.382 OA
ATOM     15  H   UNL     1      22.350  -4.781 -30.557  1.00  0.00     0.211 HD
ENDBRANCH   8  14
ENDBRANCH   1   8
BRANCH   1  16
ATOM     16  O   UNL     1      24.068  -6.235 -31.659  1.00  0.00    -0.387 OA
ATOM     17  H   UNL     1      24.062  -7.041 -31.081  1.00  0.00     0.211 HD
ENDBRANCH   1  16
TORSDOF 10
ENDMDL
MODEL 7
REMARK VINA RESULT:    -3.460     13.716     15.144
REMARK INTER + INTRA:          -6.293
REMARK INTER:                  -5.576
REMARK INTRA:                  -0.718
REMARK UNBOUND:                -1.317
REMARK SMILES O=C(CO)[C@@H](O)[C@H](O)[C@@H](O)CO
REMARK SMILES IDX 7 1 9 2 11 3 12 4 10 6 5 8 2 9 1 10 3 11 4 12 6 14 8 16
REMARK H PARENT 12 5 10 7 4 13 6 15 8 17
REMARK Flexibility Score: inf
ROOT
ATOM      1  C   UNL     1      34.416   5.969 -31.856  1.00  0.00     0.181 C 
ENDROOT
BRANCH   1   2
ATOM      2  C   UNL     1      34.669   5.398 -33.276  1.00  0.00     0.171 C 
BRANCH   2   3
ATOM      3  C   UNL     1      34.278   3.915 -33.372  1.00  0.00     0.190 C 
BRANCH   3   4
ATOM      4  O   UNL     1      32.935   3.782 -33.750  1.00  0.00    -0.394 OA
ATOM      5  H   UNL     1      32.546   4.694 -33.703  1.00  0.00     0.210 HD
ENDBRANCH   3   4
ENDBRANCH   2   3
BRANCH   2   6
ATOM      6  O   UNL     1      36.018   5.561 -33.637  1.00  0.00    -0.388 OA
ATOM      7  H   UNL     1      36.462   6.040 -32.888  1.00  0.00     0.211 HD
ENDBRANCH   2   6
ENDBRANCH   1   2
BRANCH   1   8
ATOM      8  C   UNL     1      34.430   7.521 -31.830  1.00  0.00     0.214 C 
BRANCH   8   9
ATOM      9  C   UNL     1      33.589   8.043 -30.690  1.00  0.00     0.189 C 
ATOM     10  O   UNL     1      33.396   7.345 -29.705  1.00  0.00    -0.294 OA
BRANCH   9  11
ATOM     11  C   UNL     1      32.984   9.415 -30.752  1.00  0.00     0.234 C 
BRANCH  11  12
ATOM     12  O   UNL     1      33.560  10.131 -31.808  1.00  0.00    -0.388 OA
ATOM     13  H   UNL     1      34.475   9.765 -31.921  1.00  0.00     0.211 HD
ENDBRANCH  11  12
ENDBRANCH   9  11
ENDBRANCH   8   9
BRANCH   8  14
ATOM     14  O   UNL     1      35.740   8.011 -31.689  1.00  0.00    -0.382 OA
ATOM     15  H   UNL     1      36.355   7.317 -32.043  1.00  0.00     0.211 HD
ENDBRANCH   8  14
ENDBRANCH   1   8
BRANCH   1  16
ATOM     16  O   UNL     1      35.310   5.427 -30.914  1.00  0.00    -0.387 OA
ATOM     17  H   UNL     1      35.465   4.475 -31.149  1.00  0.00     0.211 HD
ENDBRANCH   1  16
TORSDOF 10
ENDMDL
MODEL 8
REMARK VINA RESULT:    -3.408      2.615      3.940
REMARK INTER + INTRA:          -6.219
REMARK INTER:                  -5.632
REMARK INTRA:                  -0.586
REMARK UNBOUND:                -1.317
REMARK SMILES O=C(CO)[C@@H](O)[C@H](O)[C@@H](O)CO
REMARK SMILES IDX 7 1 9 2 11 3 12 4 10 6 5 8 2 9 1 10 3 11 4 12 6 14 8 16
REMARK H PARENT 12 5 10 7 4 13 6 15 8 17
REMARK Flexibility Score: inf
ROOT
ATOM      1  C   UNL     1      21.154  -0.885 -32.376  1.00  0.00     0.181 C 
ENDROOT
BRANCH   1   2
ATOM      2  C   UNL     1      22.649  -0.970 -31.972  1.00  0.00     0.171 C 
BRANCH   2   3
ATOM      3  C   UNL     1      23.161  -2.420 -31.982  1.00  0.00     0.190 C 
BRANCH   3   4
ATOM      4  O   UNL     1      22.758  -3.093 -30.822  1.00  0.00    -0.394 OA
ATOM      5  H   UNL     1      23.140  -2.583 -30.062  1.00  0.00     0.210 HD
ENDBRANCH   3   4
ENDBRANCH   2   3
BRANCH   2   6
ATOM      6  O   UNL     1      22.847  -0.403 -30.701  1.00  0.00    -0.388 OA
ATOM      7  H   UNL     1      23.617  -0.878 -30.290  1.00  0.00     0.211 HD
ENDBRANCH   2   6
ENDBRANCH   1   2
BRANCH   1   8
ATOM      8  C   UNL     1      20.575   0.546 -32.210  1.00  0.00     0.214 C 
BRANCH   8   9
ATOM      9  C   UNL     1      20.206   1.131 -33.552  1.00  0.00     0.189 C 
ATOM     10  O   UNL     1      20.246   0.432 -34.554  1.00  0.00    -0.294 OA
BRANCH   9  11
ATOM     11  C   UNL     1      19.789   2.568 -33.671  1.00  0.00     0.234 C 
BRANCH  11  12
ATOM     12  O   UNL     1      18.715   2.815 -32.808  1.00  0.00    -0.388 OA
ATOM     13  H   UNL     1      18.356   3.704 -33.064  1.00  0.00     0.211 HD
ENDBRANCH  11  12
ENDBRANCH   9  11
ENDBRANCH   8   9
BRANCH   8  14
ATOM     14  O   UNL     1      19.435   0.538 -31.389  1.00  0.00    -0.382 OA
ATOM     15  H   UNL     1      19.517   1.301 -30.761  1.00  0.00     0.211 HD
ENDBRANCH   8  14
ENDBRANCH   1   8
BRANCH   1  16
ATOM     16  O   UNL     1      20.378  -1.839 -31.690  1.00  0.00    -0.387 OA
ATOM     17  H   UNL     1      19.423  -1.585 -31.786  1.00  0.00     0.211 HD
ENDBRANCH   1  16
TORSDOF 10
ENDMDL
MODEL 9
REMARK VINA RESULT:    -3.231      1.430      4.246
REMARK INTER + INTRA:          -5.964
REMARK INTER:                  -4.742
REMARK INTRA:                  -1.222
REMARK UNBOUND:                -1.317
REMARK SMILES O=C(CO)[C@@H](O)[C@H](O)[C@@H](O)CO
REMARK SMILES IDX 7 1 9 2 11 3 12 4 10 6 5 8 2 9 1 10 3 11 4 12 6 14 8 16
REMARK H PARENT 12 5 10 7 4 13 6 15 8 17
REMARK Flexibility Score: inf
ROOT
ATOM      1  C   UNL     1      23.820  -2.276 -31.601  1.00  0.00     0.181 C 
ENDROOT
BRANCH   1   2
ATOM      2  C   UNL     1      22.551  -1.570 -32.145  1.00  0.00     0.171 C 
BRANCH   2   3
ATOM      3  C   UNL     1      22.568  -0.061 -31.851  1.00  0.00     0.190 C 
BRANCH   3   4
ATOM      4  O   UNL     1      22.589   0.172 -30.469  1.00  0.00    -0.394 OA
ATOM      5  H   UNL     1      22.219   1.083 -30.339  1.00  0.00     0.210 HD
ENDBRANCH   3   4
ENDBRANCH   2   3
BRANCH   2   6
ATOM      6  O   UNL     1      21.393  -2.150 -31.597  1.00  0.00    -0.388 OA
ATOM      7  H   UNL     1      20.813  -2.412 -32.361  1.00  0.00     0.211 HD
ENDBRANCH   2   6
ENDBRANCH   1   2
BRANCH   1   8
ATOM      8  C   UNL     1      24.195  -3.537 -32.426  1.00  0.00     0.214 C 
BRANCH   8   9
ATOM      9  C   UNL     1      24.889  -4.557 -31.556  1.00  0.00     0.189 C 
ATOM     10  O   UNL     1      26.022  -4.341 -31.148  1.00  0.00    -0.294 OA
BRANCH   9  11
ATOM     11  C   UNL     1      24.204  -5.840 -31.186  1.00  0.00     0.234 C 
BRANCH  11  12
ATOM     12  O   UNL     1      23.082  -5.558 -30.397  1.00  0.00    -0.388 OA
ATOM     13  H   UNL     1      22.465  -5.037 -30.974  1.00  0.00     0.211 HD
ENDBRANCH  11  12
ENDBRANCH   9  11
ENDBRANCH   8   9
BRANCH   8  14
ATOM     14  O   UNL     1      23.053  -4.127 -32.994  1.00  0.00    -0.382 OA
ATOM     15  H   UNL     1      22.270  -3.820 -32.468  1.00  0.00     0.211 HD
ENDBRANCH   8  14
ENDBRANCH   1   8
BRANCH   1  16
ATOM     16  O   UNL     1      23.700  -2.572 -30.230  1.00  0.00    -0.387 OA
ATOM     17  H   UNL     1      24.573  -2.923 -29.914  1.00  0.00     0.211 HD
ENDBRANCH   1  16
TORSDOF 10
ENDMDL
