MODEL 1
REMARK VINA RESULT:    -5.214      0.000      0.000
REMARK INTER + INTRA:          -7.478
REMARK INTER:                  -7.043
REMARK INTRA:                  -0.435
REMARK UNBOUND:                -0.435
REMARK SMILES CC(=O)OCC=C(C)CCC=C(C)C
REMARK SMILES IDX 7 1 6 2 8 3 9 4 10 5 11 6 13 7 12 8 14 9 5 10 4 11 2 12 3 13
REMARK SMILES IDX 1 14
REMARK H PARENT
REMARK Flexibility Score: inf
ROOT
ATOM      1  C   UNL     1       9.629 -26.970  28.990  1.00  0.00    -0.074 C 
ATOM      2  C   UNL     1       9.677 -26.248  30.132  1.00  0.00     0.013 C 
ATOM      3  C   UNL     1       8.597 -26.691  27.921  1.00  0.00     0.039 C 
ENDROOT
BRANCH   1   4
ATOM      4  C   UNL     1      10.629 -28.085  28.783  1.00  0.00     0.034 C 
BRANCH   4   5
ATOM      5  C   UNL     1      10.617 -29.051  29.973  1.00  0.00     0.032 C 
BRANCH   5   6
ATOM      6  C   UNL     1       9.212 -29.508  30.277  1.00  0.00    -0.028 C 
ATOM      7  C   UNL     1       7.331 -30.268  31.664  1.00  0.00     0.039 C 
ATOM      8  C   UNL     1       8.776 -29.870  31.504  1.00  0.00    -0.080 C 
ATOM      9  C   UNL     1       9.694 -29.901  32.703  1.00  0.00     0.039 C 
ENDBRANCH   5   6
ENDBRANCH   4   5
ENDBRANCH   1   4
BRANCH   2  10
ATOM     10  C   UNL     1       8.755 -25.097  30.437  1.00  0.00     0.260 C 
BRANCH  10  11
ATOM     11  O   UNL     1       9.223 -23.895  29.826  1.00  0.00    -0.462 OA
BRANCH  11  12
ATOM     12  C   UNL     1       9.492 -22.725  30.543  1.00  0.00     0.302 C 
ATOM     13  O   UNL     1       8.581 -21.882  30.769  1.00  0.00    -0.253 OA
ATOM     14  C   UNL     1      10.879 -22.454  31.018  1.00  0.00     0.139 C 
ENDBRANCH  11  12
ENDBRANCH  10  11
ENDBRANCH   2  10
TORSDOF 6
ENDMDL
MODEL 2
REMARK VINA RESULT:    -4.929      0.973      1.384
REMARK INTER + INTRA:          -7.093
REMARK INTER:                  -6.508
REMARK INTRA:                  -0.585
REMARK UNBOUND:                -0.435
REMARK SMILES CC(=O)OCC=C(C)CCC=C(C)C
REMARK SMILES IDX 7 1 6 2 8 3 9 4 10 5 11 6 13 7 12 8 14 9 5 10 4 11 2 12 3 13
REMARK SMILES IDX 1 14
REMARK H PARENT
REMARK Flexibility Score: inf
ROOT
ATOM      1  C   UNL     1       9.534 -26.603  30.190  1.00  0.00    -0.074 C 
ATOM      2  C   UNL     1       8.747 -25.637  29.665  1.00  0.00     0.013 C 
ATOM      3  C   UNL     1       9.889 -26.622  31.658  1.00  0.00     0.039 C 
ENDROOT
BRANCH   1   4
ATOM      4  C   UNL     1      10.074 -27.685  29.281  1.00  0.00     0.034 C 
BRANCH   4   5
ATOM      5  C   UNL     1      10.154 -29.025  30.020  1.00  0.00     0.032 C 
BRANCH   5   6
ATOM      6  C   UNL     1       8.773 -29.559  30.309  1.00  0.00    -0.028 C 
ATOM      7  C   UNL     1       6.949 -30.497  31.662  1.00  0.00     0.039 C 
ATOM      8  C   UNL     1       8.373 -30.030  31.512  1.00  0.00    -0.080 C 
ATOM      9  C   UNL     1       9.314 -30.116  32.691  1.00  0.00     0.039 C 
ENDBRANCH   5   6
ENDBRANCH   4   5
ENDBRANCH   1   4
BRANCH   2  10
ATOM     10  C   UNL     1       8.127 -24.527  30.473  1.00  0.00     0.260 C 
BRANCH  10  11
ATOM     11  O   UNL     1       8.878 -23.322  30.340  1.00  0.00    -0.462 OA
BRANCH  11  12
ATOM     12  C   UNL     1       8.776 -22.252  31.236  1.00  0.00     0.302 C 
ATOM     13  O   UNL     1       7.824 -21.430  31.154  1.00  0.00    -0.253 OA
ATOM     14  C   UNL     1       9.824 -22.064  32.280  1.00  0.00     0.139 C 
ENDBRANCH  11  12
ENDBRANCH  10  11
ENDBRANCH   2  10
TORSDOF 6
ENDMDL
MODEL 3
REMARK VINA RESULT:    -4.922      2.632      6.279
REMARK INTER + INTRA:          -7.083
REMARK INTER:                  -6.213
REMARK INTRA:                  -0.870
REMARK UNBOUND:                -0.435
REMARK SMILES CC(=O)OCC=C(C)CCC=C(C)C
REMARK SMILES IDX 7 1 6 2 8 3 9 4 10 5 11 6 13 7 12 8 14 9 5 10 4 11 2 12 3 13
REMARK SMILES IDX 1 14
REMARK H PARENT
REMARK Flexibility Score: inf
ROOT
ATOM      1  C   UNL     1       9.039 -25.862  30.801  1.00  0.00    -0.074 C 
ATOM      2  C   UNL     1       9.275 -26.804  29.860  1.00  0.00     0.013 C 
ATOM      3  C   UNL     1       9.370 -26.100  32.256  1.00  0.00     0.039 C 
ENDROOT
BRANCH   1   4
ATOM      4  C   UNL     1       8.425 -24.544  30.384  1.00  0.00     0.034 C 
BRANCH   4   5
ATOM      5  C   UNL     1       9.511 -23.485  30.165  1.00  0.00     0.032 C 
BRANCH   5   6
ATOM      6  C   UNL     1       9.537 -22.501  31.308  1.00  0.00    -0.028 C 
ATOM      7  C   UNL     1      10.473 -21.295  33.233  1.00  0.00     0.039 C 
ATOM      8  C   UNL     1      10.576 -22.347  32.159  1.00  0.00    -0.080 C 
ATOM      9  C   UNL     1      11.816 -23.205  32.072  1.00  0.00     0.039 C 
ENDBRANCH   5   6
ENDBRANCH   4   5
ENDBRANCH   1   4
BRANCH   2  10
ATOM     10  C   UNL     1       9.908 -28.140  30.148  1.00  0.00     0.260 C 
BRANCH  10  11
ATOM     11  O   UNL     1       8.911 -29.135  30.373  1.00  0.00    -0.462 OA
BRANCH  11  12
ATOM     12  C   UNL     1       8.748 -29.794  31.596  1.00  0.00     0.302 C 
ATOM     13  O   UNL     1       7.661 -30.367  31.882  1.00  0.00    -0.253 OA
ATOM     14  C   UNL     1       9.860 -29.790  32.588  1.00  0.00     0.139 C 
ENDBRANCH  11  12
ENDBRANCH  10  11
ENDBRANCH   2  10
TORSDOF 6
ENDMDL
MODEL 4
REMARK VINA RESULT:    -4.855      2.275      3.507
REMARK INTER + INTRA:          -6.994
REMARK INTER:                  -6.359
REMARK INTRA:                  -0.634
REMARK UNBOUND:                -0.435
REMARK SMILES CC(=O)OCC=C(C)CCC=C(C)C
REMARK SMILES IDX 7 1 6 2 8 3 9 4 10 5 11 6 13 7 12 8 14 9 5 10 4 11 2 12 3 13
REMARK SMILES IDX 1 14
REMARK H PARENT
REMARK Flexibility Score: inf
ROOT
ATOM      1  C   UNL     1       9.315 -23.976  30.927  1.00  0.00    -0.074 C 
ATOM      2  C   UNL     1      10.478 -24.054  31.612  1.00  0.00     0.013 C 
ATOM      3  C   UNL     1       8.771 -22.653  30.440  1.00  0.00     0.039 C 
ENDROOT
BRANCH   1   4
ATOM      4  C   UNL     1       8.540 -25.245  30.648  1.00  0.00     0.034 C 
BRANCH   4   5
ATOM      5  C   UNL     1       9.493 -26.401  30.324  1.00  0.00     0.032 C 
BRANCH   5   6
ATOM      6  C   UNL     1       9.361 -27.504  31.345  1.00  0.00    -0.028 C 
ATOM      7  C   UNL     1       9.728 -29.721  32.338  1.00  0.00     0.039 C 
ATOM      8  C   UNL     1       9.913 -28.732  31.217  1.00  0.00    -0.080 C 
ATOM      9  C   UNL     1      10.687 -29.137  29.985  1.00  0.00     0.039 C 
ENDBRANCH   5   6
ENDBRANCH   4   5
ENDBRANCH   1   4
BRANCH   2  10
ATOM     10  C   UNL     1      11.350 -22.867  31.924  1.00  0.00     0.260 C 
BRANCH  10  11
ATOM     11  O   UNL     1      11.474 -22.684  33.333  1.00  0.00    -0.462 OA
BRANCH  11  12
ATOM     12  C   UNL     1      10.387 -22.403  34.168  1.00  0.00     0.302 C 
ATOM     13  O   UNL     1      10.103 -23.160  35.136  1.00  0.00    -0.253 OA
ATOM     14  C   UNL     1       9.535 -21.212  33.890  1.00  0.00     0.139 C 
ENDBRANCH  11  12
ENDBRANCH  10  11
ENDBRANCH   2  10
TORSDOF 6
ENDMDL
MODEL 5
REMARK VINA RESULT:    -4.825      1.564      2.629
REMARK INTER + INTRA:          -6.953
REMARK INTER:                  -6.177
REMARK INTRA:                  -0.775
REMARK UNBOUND:                -0.435
REMARK SMILES CC(=O)OCC=C(C)CCC=C(C)C
REMARK SMILES IDX 7 1 6 2 8 3 9 4 10 5 11 6 13 7 12 8 14 9 5 10 4 11 2 12 3 13
REMARK SMILES IDX 1 14
REMARK H PARENT
REMARK Flexibility Score: inf
ROOT
ATOM      1  C   UNL     1       9.282 -25.985  31.334  1.00  0.00    -0.074 C 
ATOM      2  C   UNL     1       9.892 -25.116  32.171  1.00  0.00     0.013 C 
ATOM      3  C   UNL     1       9.115 -25.680  29.863  1.00  0.00     0.039 C 
ENDROOT
BRANCH   1   4
ATOM      4  C   UNL     1       8.750 -27.288  31.887  1.00  0.00     0.034 C 
BRANCH   4   5
ATOM      5  C   UNL     1       9.665 -28.455  31.499  1.00  0.00     0.032 C 
BRANCH   5   6
ATOM      6  C   UNL     1       9.148 -29.152  30.265  1.00  0.00    -0.028 C 
ATOM      7  C   UNL     1       9.194 -29.997  27.959  1.00  0.00     0.039 C 
ATOM      8  C   UNL     1       9.822 -29.235  29.097  1.00  0.00    -0.080 C 
ATOM      9  C   UNL     1      11.166 -28.574  28.899  1.00  0.00     0.039 C 
ENDBRANCH   5   6
ENDBRANCH   4   5
ENDBRANCH   1   4
BRANCH   2  10
ATOM     10  C   UNL     1      10.487 -23.804  31.733  1.00  0.00     0.260 C 
BRANCH  10  11
ATOM     11  O   UNL     1       9.577 -22.730  31.970  1.00  0.00    -0.462 OA
BRANCH  11  12
ATOM     12  C   UNL     1       8.803 -22.145  30.962  1.00  0.00     0.302 C 
ATOM     13  O   UNL     1       7.654 -21.691  31.212  1.00  0.00    -0.253 OA
ATOM     14  C   UNL     1       9.331 -22.087  29.569  1.00  0.00     0.139 C 
ENDBRANCH  11  12
ENDBRANCH  10  11
ENDBRANCH   2  10
TORSDOF 6
ENDMDL
MODEL 6
REMARK VINA RESULT:    -4.776      2.841      6.620
REMARK INTER + INTRA:          -6.887
REMARK INTER:                  -6.405
REMARK INTRA:                  -0.481
REMARK UNBOUND:                -0.435
REMARK SMILES CC(=O)OCC=C(C)CCC=C(C)C
REMARK SMILES IDX 7 1 6 2 8 3 9 4 10 5 11 6 13 7 12 8 14 9 5 10 4 11 2 12 3 13
REMARK SMILES IDX 1 14
REMARK H PARENT
REMARK Flexibility Score: inf
ROOT
ATOM      1  C   UNL     1      10.196 -23.204  30.745  1.00  0.00    -0.074 C 
ATOM      2  C   UNL     1       9.975 -24.494  31.086  1.00  0.00     0.013 C 
ATOM      3  C   UNL     1       9.494 -22.566  29.570  1.00  0.00     0.039 C 
ENDROOT
BRANCH   1   4
ATOM      4  C   UNL     1      11.174 -22.386  31.560  1.00  0.00     0.034 C 
BRANCH   4   5
ATOM      5  C   UNL     1      10.744 -22.334  33.030  1.00  0.00     0.032 C 
BRANCH   5   6
ATOM      6  C   UNL     1       9.548 -21.431  33.206  1.00  0.00    -0.028 C 
ATOM      7  C   UNL     1       7.995 -19.942  34.391  1.00  0.00     0.039 C 
ATOM      8  C   UNL     1       9.196 -20.852  34.375  1.00  0.00    -0.080 C 
ATOM      9  C   UNL     1       9.956 -21.104  35.655  1.00  0.00     0.039 C 
ENDBRANCH   5   6
ENDBRANCH   4   5
ENDBRANCH   1   4
BRANCH   2  10
ATOM     10  C   UNL     1       9.005 -25.397  30.371  1.00  0.00     0.260 C 
BRANCH  10  11
ATOM     11  O   UNL     1       9.596 -26.669  30.106  1.00  0.00    -0.462 OA
BRANCH  11  12
ATOM     12  C   UNL     1       9.477 -27.764  30.969  1.00  0.00     0.302 C 
ATOM     13  O   UNL     1       8.690 -27.727  31.954  1.00  0.00    -0.253 OA
ATOM     14  C   UNL     1      10.314 -28.975  30.741  1.00  0.00     0.139 C 
ENDBRANCH  11  12
ENDBRANCH  10  11
ENDBRANCH   2  10
TORSDOF 6
ENDMDL
MODEL 7
REMARK VINA RESULT:    -4.747      3.101      4.888
REMARK INTER + INTRA:          -6.847
REMARK INTER:                  -5.847
REMARK INTRA:                  -1.000
REMARK UNBOUND:                -0.435
REMARK SMILES CC(=O)OCC=C(C)CCC=C(C)C
REMARK SMILES IDX 7 1 6 2 8 3 9 4 10 5 11 6 13 7 12 8 14 9 5 10 4 11 2 12 3 13
REMARK SMILES IDX 1 14
REMARK H PARENT
REMARK Flexibility Score: inf
ROOT
ATOM      1  C   UNL     1       9.669 -27.134  29.064  1.00  0.00    -0.074 C 
ATOM      2  C   UNL     1       8.818 -26.895  28.041  1.00  0.00     0.013 C 
ATOM      3  C   UNL     1      10.722 -28.214  28.980  1.00  0.00     0.039 C 
ENDROOT
BRANCH   1   4
ATOM      4  C   UNL     1       9.557 -26.303  30.323  1.00  0.00     0.034 C 
BRANCH   4   5
ATOM      5  C   UNL     1       9.646 -27.191  31.569  1.00  0.00     0.032 C 
BRANCH   5   6
ATOM      6  C   UNL     1       8.522 -28.196  31.591  1.00  0.00    -0.028 C 
ATOM      7  C   UNL     1       7.416 -30.342  32.047  1.00  0.00     0.039 C 
ATOM      8  C   UNL     1       8.638 -29.461  32.053  1.00  0.00    -0.080 C 
ATOM      9  C   UNL     1       9.953 -30.013  32.552  1.00  0.00     0.039 C 
ENDBRANCH   5   6
ENDBRANCH   4   5
ENDBRANCH   1   4
BRANCH   2  10
ATOM     10  C   UNL     1       8.852 -27.635  26.730  1.00  0.00     0.260 C 
BRANCH  10  11
ATOM     11  O   UNL     1       7.777 -28.569  26.646  1.00  0.00    -0.462 OA
BRANCH  11  12
ATOM     12  C   UNL     1       7.909 -29.921  26.980  1.00  0.00     0.302 C 
ATOM     13  O   UNL     1       8.289 -30.764  26.122  1.00  0.00    -0.253 OA
ATOM     14  C   UNL     1       7.563 -30.377  28.356  1.00  0.00     0.139 C 
ENDBRANCH  11  12
ENDBRANCH  10  11
ENDBRANCH   2  10
TORSDOF 6
ENDMDL
MODEL 8
REMARK VINA RESULT:    -4.694      3.038      5.022
REMARK INTER + INTRA:          -6.775
REMARK INTER:                  -5.787
REMARK INTRA:                  -0.987
REMARK UNBOUND:                -0.435
REMARK SMILES CC(=O)OCC=C(C)CCC=C(C)C
REMARK SMILES IDX 7 1 6 2 8 3 9 4 10 5 11 6 13 7 12 8 14 9 5 10 4 11 2 12 3 13
REMARK SMILES IDX 1 14
REMARK H PARENT
REMARK Flexibility Score: inf
ROOT
ATOM      1  C   UNL     1      10.001 -27.699  29.031  1.00  0.00    -0.074 C 
ATOM      2  C   UNL     1       9.420 -27.015  30.042  1.00  0.00     0.013 C 
ATOM      3  C   UNL     1      10.885 -28.895  29.292  1.00  0.00     0.039 C 
ENDROOT
BRANCH   1   4
ATOM      4  C   UNL     1       9.761 -27.248  27.607  1.00  0.00     0.034 C 
BRANCH   4   5
ATOM      5  C   UNL     1       8.473 -27.866  27.052  1.00  0.00     0.032 C 
BRANCH   5   6
ATOM      6  C   UNL     1       8.741 -29.234  26.476  1.00  0.00    -0.028 C 
ATOM      7  C   UNL     1       8.566 -31.677  26.274  1.00  0.00     0.039 C 
ATOM      8  C   UNL     1       8.242 -30.385  26.979  1.00  0.00    -0.080 C 
ATOM      9  C   UNL     1       7.392 -30.411  28.227  1.00  0.00     0.039 C 
ENDBRANCH   5   6
ENDBRANCH   4   5
ENDBRANCH   1   4
BRANCH   2  10
ATOM     10  C   UNL     1       9.560 -27.384  31.496  1.00  0.00     0.260 C 
BRANCH  10  11
ATOM     11  O   UNL     1       8.453 -28.173  31.928  1.00  0.00    -0.462 OA
BRANCH  11  12
ATOM     12  C   UNL     1       8.531 -29.554  32.140  1.00  0.00     0.302 C 
ATOM     13  O   UNL     1       9.609 -30.089  32.518  1.00  0.00    -0.253 OA
ATOM     14  C   UNL     1       7.336 -30.407  31.885  1.00  0.00     0.139 C 
ENDBRANCH  11  12
ENDBRANCH  10  11
ENDBRANCH   2  10
TORSDOF 6
ENDMDL
MODEL 9
REMARK VINA RESULT:    -4.659      2.907      5.119
REMARK INTER + INTRA:          -6.728
REMARK INTER:                  -5.682
REMARK INTRA:                  -1.046
REMARK UNBOUND:                -0.435
REMARK SMILES CC(=O)OCC=C(C)CCC=C(C)C
REMARK SMILES IDX 7 1 6 2 8 3 9 4 10 5 11 6 13 7 12 8 14 9 5 10 4 11 2 12 3 13
REMARK SMILES IDX 1 14
REMARK H PARENT
REMARK Flexibility Score: inf
ROOT
ATOM      1  C   UNL     1       9.785 -29.188  29.927  1.00  0.00    -0.074 C 
ATOM      2  C   UNL     1       8.639 -29.610  29.347  1.00  0.00     0.013 C 
ATOM      3  C   UNL     1      11.018 -28.879  29.109  1.00  0.00     0.039 C 
ENDROOT
BRANCH   1   4
ATOM      4  C   UNL     1       9.832 -29.028  31.430  1.00  0.00     0.034 C 
BRANCH   4   5
ATOM      5  C   UNL     1       8.836 -27.959  31.893  1.00  0.00     0.032 C 
BRANCH   5   6
ATOM      6  C   UNL     1       9.543 -26.658  32.180  1.00  0.00    -0.028 C 
ATOM      7  C   UNL     1      10.233 -24.330  31.806  1.00  0.00     0.039 C 
ATOM      8  C   UNL     1       9.508 -25.576  31.370  1.00  0.00    -0.080 C 
ATOM      9  C   UNL     1       8.782 -25.591  30.045  1.00  0.00     0.039 C 
ENDBRANCH   5   6
ENDBRANCH   4   5
ENDBRANCH   1   4
BRANCH   2  10
ATOM     10  C   UNL     1       8.462 -29.778  27.861  1.00  0.00     0.260 C 
BRANCH  10  11
ATOM     11  O   UNL     1       7.991 -28.570  27.266  1.00  0.00    -0.462 OA
BRANCH  11  12
ATOM     12  C   UNL     1       8.679 -27.897  26.250  1.00  0.00     0.302 C 
ATOM     13  O   UNL     1       8.753 -28.382  25.089  1.00  0.00    -0.253 OA
ATOM     14  C   UNL     1       9.361 -26.606  26.554  1.00  0.00     0.139 C 
ENDBRANCH  11  12
ENDBRANCH  10  11
ENDBRANCH   2  10
TORSDOF 6
ENDMDL
