MODEL 1
REMARK VINA RESULT:    -6.798      0.000      0.000
REMARK INTER + INTRA:          -7.534
REMARK INTER:                  -7.991
REMARK INTRA:                   0.457
REMARK UNBOUND:                 0.457
REMARK SMILES O=c1c(O)c(-c2ccc(O)cc2)oc2cc(O)cc(O)c12
REMARK SMILES IDX 5 1 3 2 2 3 1 4 21 5 19 6 18 7 16 8 15 9 14 10 13 11 6 12
REMARK SMILES IDX 7 13 8 14 9 15 12 16 11 17 10 18 4 20 20 22 17 24
REMARK H PARENT 10 19 4 21 20 23 17 25
REMARK Flexibility Score: inf
ROOT
ATOM      1  C   UNL     1      10.747  -7.103  -9.257  1.00  0.00     0.180 A 
ATOM      2  C   UNL     1       9.889  -8.206  -9.404  1.00  0.00     0.208 A 
ATOM      3  C   UNL     1       8.854  -8.393  -8.474  1.00  0.00     0.238 A 
ATOM      4  O   UNL     1       8.057  -9.352  -8.643  1.00  0.00    -0.285 OA
ATOM      5  C   UNL     1       8.699  -7.484  -7.401  1.00  0.00     0.111 A 
ATOM      6  C   UNL     1       7.710  -7.598  -6.378  1.00  0.00     0.134 A 
ATOM      7  C   UNL     1       7.565  -6.570  -5.439  1.00  0.00     0.093 A 
ATOM      8  C   UNL     1       8.417  -5.463  -5.446  1.00  0.00     0.123 A 
ATOM      9  C   UNL     1       9.424  -5.371  -6.404  1.00  0.00     0.094 A 
ATOM     10  C   UNL     1       9.570  -6.363  -7.376  1.00  0.00     0.146 A 
ATOM     11  O   UNL     1      10.535  -6.231  -8.278  1.00  0.00    -0.452 OA
ENDROOT
BRANCH   1  12
ATOM     12  C   UNL     1      11.877  -6.853 -10.182  1.00  0.00     0.021 A 
ATOM     13  C   UNL     1      12.591  -5.647 -10.092  1.00  0.00     0.016 A 
ATOM     14  C   UNL     1      13.674  -5.400 -10.941  1.00  0.00     0.047 A 
ATOM     15  C   UNL     1      14.067  -6.360 -11.877  1.00  0.00     0.115 A 
ATOM     16  C   UNL     1      12.290  -7.825 -11.112  1.00  0.00     0.016 A 
ATOM     17  C   UNL     1      13.374  -7.576 -11.959  1.00  0.00     0.047 A 
BRANCH  15  18
ATOM     18  O   UNL     1      15.148  -6.102 -12.717  1.00  0.00    -0.508 OA
ATOM     19  H   UNL     1      15.509  -5.164 -12.843  1.00  0.00     0.293 HD
ENDBRANCH  15  18
ENDBRANCH   1  12
BRANCH   2  20
ATOM     20  O   UNL     1      10.047  -9.080 -10.483  1.00  0.00    -0.502 OA
ATOM     21  H   UNL     1       9.281  -9.627 -10.858  1.00  0.00     0.293 HD
ENDBRANCH   2  20
BRANCH   6  22
ATOM     22  O   UNL     1       6.870  -8.706  -6.226  1.00  0.00    -0.507 OA
ATOM     23  H   UNL     1       6.992  -9.588  -6.698  1.00  0.00     0.293 HD
ENDBRANCH   6  22
BRANCH   8  24
ATOM     24  O   UNL     1       8.276  -4.451  -4.499  1.00  0.00    -0.508 OA
ATOM     25  H   UNL     1       8.170  -4.660  -3.512  1.00  0.00     0.293 HD
ENDBRANCH   8  24
TORSDOF 5
ENDMDL
MODEL 2
REMARK VINA RESULT:    -6.781      8.848     12.709
REMARK INTER + INTRA:          -7.513
REMARK INTER:                  -7.366
REMARK INTRA:                  -0.147
REMARK UNBOUND:                 0.457
REMARK SMILES O=c1c(O)c(-c2ccc(O)cc2)oc2cc(O)cc(O)c12
REMARK SMILES IDX 5 1 3 2 2 3 1 4 21 5 19 6 18 7 16 8 15 9 14 10 13 11 6 12
REMARK SMILES IDX 7 13 8 14 9 15 12 16 11 17 10 18 4 20 20 22 17 24
REMARK H PARENT 10 19 4 21 20 23 17 25
REMARK Flexibility Score: inf
ROOT
ATOM      1  C   UNL     1      18.540  -1.028 -16.710  1.00  0.00     0.180 A 
ATOM      2  C   UNL     1      17.922  -0.192 -15.765  1.00  0.00     0.208 A 
ATOM      3  C   UNL     1      17.180  -0.772 -14.724  1.00  0.00     0.238 A 
ATOM      4  O   UNL     1      16.675  -0.020 -13.851  1.00  0.00    -0.285 OA
ATOM      5  C   UNL     1      17.052  -2.180 -14.650  1.00  0.00     0.111 A 
ATOM      6  C   UNL     1      16.291  -2.874 -13.662  1.00  0.00     0.134 A 
ATOM      7  C   UNL     1      16.341  -4.272 -13.607  1.00  0.00     0.093 A 
ATOM      8  C   UNL     1      17.072  -5.003 -14.546  1.00  0.00     0.123 A 
ATOM      9  C   UNL     1      17.771  -4.337 -15.550  1.00  0.00     0.094 A 
ATOM     10  C   UNL     1      17.769  -2.942 -15.609  1.00  0.00     0.146 A 
ATOM     11  O   UNL     1      18.456  -2.346 -16.576  1.00  0.00    -0.452 OA
ENDROOT
BRANCH   1  12
ATOM     12  C   UNL     1      19.318  -0.490 -17.850  1.00  0.00     0.021 A 
ATOM     13  C   UNL     1      18.812  -0.617 -19.154  1.00  0.00     0.016 A 
ATOM     14  C   UNL     1      19.520  -0.096 -20.242  1.00  0.00     0.047 A 
ATOM     15  C   UNL     1      20.732   0.570 -20.040  1.00  0.00     0.115 A 
ATOM     16  C   UNL     1      20.528   0.200 -17.650  1.00  0.00     0.016 A 
ATOM     17  C   UNL     1      21.234   0.720 -18.740  1.00  0.00     0.047 A 
BRANCH  15  18
ATOM     18  O   UNL     1      21.427   1.083 -21.132  1.00  0.00    -0.508 OA
ATOM     19  H   UNL     1      22.438   1.134 -21.141  1.00  0.00     0.293 HD
ENDBRANCH  15  18
ENDBRANCH   1  12
BRANCH   2  20
ATOM     20  O   UNL     1      18.080   1.195 -15.844  1.00  0.00    -0.502 OA
ATOM     21  H   UNL     1      17.371   1.802 -16.239  1.00  0.00     0.293 HD
ENDBRANCH   2  20
BRANCH   6  22
ATOM     22  O   UNL     1      15.455  -2.242 -12.735  1.00  0.00    -0.507 OA
ATOM     23  H   UNL     1      15.090  -2.677 -11.902  1.00  0.00     0.293 HD
ENDBRANCH   6  22
BRANCH   8  24
ATOM     24  O   UNL     1      17.105  -6.395 -14.494  1.00  0.00    -0.508 OA
ATOM     25  H   UNL     1      17.981  -6.905 -14.474  1.00  0.00     0.293 HD
ENDBRANCH   8  24
TORSDOF 5
ENDMDL
MODEL 3
REMARK VINA RESULT:    -6.673     13.804     15.746
REMARK INTER + INTRA:          -7.386
REMARK INTER:                  -7.360
REMARK INTRA:                  -0.026
REMARK UNBOUND:                 0.457
REMARK SMILES O=c1c(O)c(-c2ccc(O)cc2)oc2cc(O)cc(O)c12
REMARK SMILES IDX 5 1 3 2 2 3 1 4 21 5 19 6 18 7 16 8 15 9 14 10 13 11 6 12
REMARK SMILES IDX 7 13 8 14 9 15 12 16 11 17 10 18 4 20 20 22 17 24
REMARK H PARENT 10 19 4 21 20 23 17 25
REMARK Flexibility Score: inf
ROOT
ATOM      1  C   UNL     1      20.615   0.607 -17.413  1.00  0.00     0.180 A 
ATOM      2  C   UNL     1      19.404   0.484 -16.711  1.00  0.00     0.208 A 
ATOM      3  C   UNL     1      19.359   0.858 -15.358  1.00  0.00     0.238 A 
ATOM      4  O   UNL     1      18.258   0.796 -14.752  1.00  0.00    -0.285 OA
ATOM      5  C   UNL     1      20.528   1.336 -14.721  1.00  0.00     0.111 A 
ATOM      6  C   UNL     1      20.608   1.706 -13.345  1.00  0.00     0.134 A 
ATOM      7  C   UNL     1      21.781   2.289 -12.852  1.00  0.00     0.093 A 
ATOM      8  C   UNL     1      22.901   2.454 -13.671  1.00  0.00     0.123 A 
ATOM      9  C   UNL     1      22.853   2.042 -15.001  1.00  0.00     0.094 A 
ATOM     10  C   UNL     1      21.685   1.490 -15.530  1.00  0.00     0.146 A 
ATOM     11  O   UNL     1      21.678   1.120 -16.805  1.00  0.00    -0.452 OA
ENDROOT
BRANCH   1  12
ATOM     12  C   UNL     1      20.748   0.209 -18.834  1.00  0.00     0.021 A 
ATOM     13  C   UNL     1      20.395  -1.094 -19.223  1.00  0.00     0.016 A 
ATOM     14  C   UNL     1      20.492  -1.483 -20.563  1.00  0.00     0.047 A 
ATOM     15  C   UNL     1      20.925  -0.573 -21.530  1.00  0.00     0.115 A 
ATOM     16  C   UNL     1      21.163   1.127 -19.816  1.00  0.00     0.016 A 
ATOM     17  C   UNL     1      21.258   0.736 -21.155  1.00  0.00     0.047 A 
BRANCH  15  18
ATOM     18  O   UNL     1      21.017  -0.973 -22.861  1.00  0.00    -0.508 OA
ATOM     19  H   UNL     1      21.741  -1.608 -23.175  1.00  0.00     0.293 HD
ENDBRANCH  15  18
ENDBRANCH   1  12
BRANCH   2  20
ATOM     20  O   UNL     1      18.255   0.030 -17.366  1.00  0.00    -0.502 OA
ATOM     21  H   UNL     1      18.064   0.241 -18.339  1.00  0.00     0.293 HD
ENDBRANCH   2  20
BRANCH   6  22
ATOM     22  O   UNL     1      19.579   1.498 -12.421  1.00  0.00    -0.507 OA
ATOM     23  H   UNL     1      18.596   1.488 -12.648  1.00  0.00     0.293 HD
ENDBRANCH   6  22
BRANCH   8  24
ATOM     24  O   UNL     1      24.071   3.021 -13.170  1.00  0.00    -0.508 OA
ATOM     25  H   UNL     1      24.920   2.477 -13.061  1.00  0.00     0.293 HD
ENDBRANCH   8  24
TORSDOF 5
ENDMDL
MODEL 4
REMARK VINA RESULT:    -6.559      2.385      2.670
REMARK INTER + INTRA:          -7.252
REMARK INTER:                  -6.970
REMARK INTRA:                  -0.282
REMARK UNBOUND:                 0.457
REMARK SMILES O=c1c(O)c(-c2ccc(O)cc2)oc2cc(O)cc(O)c12
REMARK SMILES IDX 5 1 3 2 2 3 1 4 21 5 19 6 18 7 16 8 15 9 14 10 13 11 6 12
REMARK SMILES IDX 7 13 8 14 9 15 12 16 11 17 10 18 4 20 20 22 17 24
REMARK H PARENT 10 19 4 21 20 23 17 25
REMARK Flexibility Score: inf
ROOT
ATOM      1  C   UNL     1      10.164  -7.766 -10.279  1.00  0.00     0.180 A 
ATOM      2  C   UNL     1      10.041  -8.534  -9.108  1.00  0.00     0.208 A 
ATOM      3  C   UNL     1       9.168  -8.102  -8.097  1.00  0.00     0.238 A 
ATOM      4  O   UNL     1       9.023  -8.823  -7.076  1.00  0.00    -0.285 OA
ATOM      5  C   UNL     1       8.440  -6.899  -8.262  1.00  0.00     0.111 A 
ATOM      6  C   UNL     1       7.558  -6.346  -7.287  1.00  0.00     0.134 A 
ATOM      7  C   UNL     1       6.790  -5.220  -7.609  1.00  0.00     0.093 A 
ATOM      8  C   UNL     1       6.923  -4.590  -8.848  1.00  0.00     0.123 A 
ATOM      9  C   UNL     1       7.825  -5.087  -9.785  1.00  0.00     0.094 A 
ATOM     10  C   UNL     1       8.578  -6.230  -9.507  1.00  0.00     0.146 A 
ATOM     11  O   UNL     1       9.418  -6.678 -10.431  1.00  0.00    -0.452 OA
ENDROOT
BRANCH   1  12
ATOM     12  C   UNL     1      11.082  -8.143 -11.378  1.00  0.00     0.021 A 
ATOM     13  C   UNL     1      12.438  -7.783 -11.300  1.00  0.00     0.016 A 
ATOM     14  C   UNL     1      13.326  -8.148 -12.317  1.00  0.00     0.047 A 
ATOM     15  C   UNL     1      12.876  -8.890 -13.412  1.00  0.00     0.115 A 
ATOM     16  C   UNL     1      10.639  -8.908 -12.472  1.00  0.00     0.016 A 
ATOM     17  C   UNL     1      11.530  -9.273 -13.487  1.00  0.00     0.047 A 
BRANCH  15  18
ATOM     18  O   UNL     1      13.772  -9.248 -14.417  1.00  0.00    -0.508 OA
ATOM     19  H   UNL     1      13.783  -8.772 -15.311  1.00  0.00     0.293 HD
ENDBRANCH  15  18
ENDBRANCH   1  12
BRANCH   2  20
ATOM     20  O   UNL     1      10.753  -9.730  -8.975  1.00  0.00    -0.502 OA
ATOM     21  H   UNL     1      10.872 -10.197  -8.084  1.00  0.00     0.293 HD
ENDBRANCH   2  20
BRANCH   6  22
ATOM     22  O   UNL     1       7.420  -6.844  -5.987  1.00  0.00    -0.507 OA
ATOM     23  H   UNL     1       8.154  -7.299  -5.466  1.00  0.00     0.293 HD
ENDBRANCH   6  22
BRANCH   8  24
ATOM     24  O   UNL     1       6.166  -3.461  -9.156  1.00  0.00    -0.508 OA
ATOM     25  H   UNL     1       5.833  -3.285 -10.097  1.00  0.00     0.293 HD
ENDBRANCH   8  24
TORSDOF 5
ENDMDL
MODEL 5
REMARK VINA RESULT:    -6.526      8.933     14.607
REMARK INTER + INTRA:          -7.213
REMARK INTER:                  -6.958
REMARK INTRA:                  -0.255
REMARK UNBOUND:                 0.457
REMARK SMILES O=c1c(O)c(-c2ccc(O)cc2)oc2cc(O)cc(O)c12
REMARK SMILES IDX 5 1 3 2 2 3 1 4 21 5 19 6 18 7 16 8 15 9 14 10 13 11 6 12
REMARK SMILES IDX 7 13 8 14 9 15 12 16 11 17 10 18 4 20 20 22 17 24
REMARK H PARENT 10 19 4 21 20 23 17 25
REMARK Flexibility Score: inf
ROOT
ATOM      1  C   UNL     1      18.005  -0.288 -15.510  1.00  0.00     0.180 A 
ATOM      2  C   UNL     1      19.042   0.521 -15.014  1.00  0.00     0.208 A 
ATOM      3  C   UNL     1      20.084   0.897 -15.876  1.00  0.00     0.238 A 
ATOM      4  O   UNL     1      20.980   1.666 -15.440  1.00  0.00    -0.285 OA
ATOM      5  C   UNL     1      20.085   0.449 -17.218  1.00  0.00     0.111 A 
ATOM      6  C   UNL     1      21.110   0.737 -18.168  1.00  0.00     0.134 A 
ATOM      7  C   UNL     1      20.944   0.351 -19.504  1.00  0.00     0.093 A 
ATOM      8  C   UNL     1      19.818  -0.371 -19.909  1.00  0.00     0.123 A 
ATOM      9  C   UNL     1      18.839  -0.708 -18.977  1.00  0.00     0.094 A 
ATOM     10  C   UNL     1      18.960  -0.305 -17.645  1.00  0.00     0.146 A 
ATOM     11  O   UNL     1      18.000  -0.638 -16.791  1.00  0.00    -0.452 OA
ENDROOT
BRANCH   1  12
ATOM     12  C   UNL     1      16.885  -0.748 -14.657  1.00  0.00     0.021 A 
ATOM     13  C   UNL     1      16.926  -2.034 -14.095  1.00  0.00     0.016 A 
ATOM     14  C   UNL     1      15.890  -2.479 -13.268  1.00  0.00     0.047 A 
ATOM     15  C   UNL     1      14.810  -1.641 -12.980  1.00  0.00     0.115 A 
ATOM     16  C   UNL     1      15.806   0.100 -14.346  1.00  0.00     0.016 A 
ATOM     17  C   UNL     1      14.771  -0.347 -13.518  1.00  0.00     0.047 A 
BRANCH  15  18
ATOM     18  O   UNL     1      13.785  -2.097 -12.155  1.00  0.00    -0.508 OA
ATOM     19  H   UNL     1      13.613  -3.086 -12.021  1.00  0.00     0.293 HD
ENDBRANCH  15  18
ENDBRANCH   1  12
BRANCH   2  20
ATOM     20  O   UNL     1      19.010   0.970 -13.691  1.00  0.00    -0.502 OA
ATOM     21  H   UNL     1      19.418   0.445 -12.927  1.00  0.00     0.293 HD
ENDBRANCH   2  20
BRANCH   6  22
ATOM     22  O   UNL     1      22.315   1.371 -17.848  1.00  0.00    -0.507 OA
ATOM     23  H   UNL     1      23.164   0.893 -17.588  1.00  0.00     0.293 HD
ENDBRANCH   6  22
BRANCH   8  24
ATOM     24  O   UNL     1      19.666  -0.765 -21.237  1.00  0.00    -0.508 OA
ATOM     25  H   UNL     1      18.821  -0.558 -21.758  1.00  0.00     0.293 HD
ENDBRANCH   8  24
TORSDOF 5
ENDMDL
MODEL 6
REMARK VINA RESULT:    -6.463      1.912      3.363
REMARK INTER + INTRA:          -7.140
REMARK INTER:                  -6.846
REMARK INTRA:                  -0.294
REMARK UNBOUND:                 0.457
REMARK SMILES O=c1c(O)c(-c2ccc(O)cc2)oc2cc(O)cc(O)c12
REMARK SMILES IDX 5 1 3 2 2 3 1 4 21 5 19 6 18 7 16 8 15 9 14 10 13 11 6 12
REMARK SMILES IDX 7 13 8 14 9 15 12 16 11 17 10 18 4 20 20 22 17 24
REMARK H PARENT 10 19 4 21 20 23 17 25
REMARK Flexibility Score: inf
ROOT
ATOM      1  C   UNL     1      12.748  -5.974 -10.539  1.00  0.00     0.180 A 
ATOM      2  C   UNL     1      12.640  -7.243 -11.134  1.00  0.00     0.208 A 
ATOM      3  C   UNL     1      11.723  -8.166 -10.607  1.00  0.00     0.238 A 
ATOM      4  O   UNL     1      11.593  -9.280 -11.178  1.00  0.00    -0.285 OA
ATOM      5  C   UNL     1      10.937  -7.816  -9.484  1.00  0.00     0.111 A 
ATOM      6  C   UNL     1      10.005  -8.687  -8.843  1.00  0.00     0.134 A 
ATOM      7  C   UNL     1       9.187  -8.191  -7.820  1.00  0.00     0.093 A 
ATOM      8  C   UNL     1       9.314  -6.874  -7.371  1.00  0.00     0.123 A 
ATOM      9  C   UNL     1      10.262  -6.034  -7.950  1.00  0.00     0.094 A 
ATOM     10  C   UNL     1      11.067  -6.489  -8.997  1.00  0.00     0.146 A 
ATOM     11  O   UNL     1      11.950  -5.652  -9.528  1.00  0.00    -0.452 OA
ENDROOT
BRANCH   1  12
ATOM     12  C   UNL     1      13.710  -4.956 -11.022  1.00  0.00     0.021 A 
ATOM     13  C   UNL     1      13.307  -4.035 -12.003  1.00  0.00     0.016 A 
ATOM     14  C   UNL     1      14.192  -3.052 -12.457  1.00  0.00     0.047 A 
ATOM     15  C   UNL     1      15.482  -2.966 -11.925  1.00  0.00     0.115 A 
ATOM     16  C   UNL     1      15.002  -4.852 -10.475  1.00  0.00     0.016 A 
ATOM     17  C   UNL     1      15.885  -3.867 -10.930  1.00  0.00     0.047 A 
BRANCH  15  18
ATOM     18  O   UNL     1      16.353  -1.982 -12.386  1.00  0.00    -0.508 OA
ATOM     19  H   UNL     1      16.660  -1.956 -13.351  1.00  0.00     0.293 HD
ENDBRANCH  15  18
ENDBRANCH   1  12
BRANCH   2  20
ATOM     20  O   UNL     1      13.410  -7.561 -12.256  1.00  0.00    -0.502 OA
ATOM     21  H   UNL     1      13.315  -7.071 -13.138  1.00  0.00     0.293 HD
ENDBRANCH   2  20
BRANCH   6  22
ATOM     22  O   UNL     1       9.864 -10.043  -9.153  1.00  0.00    -0.507 OA
ATOM     23  H   UNL     1       9.697 -10.406 -10.079  1.00  0.00     0.293 HD
ENDBRANCH   6  22
BRANCH   8  24
ATOM     24  O   UNL     1       8.507  -6.394  -6.343  1.00  0.00    -0.508 OA
ATOM     25  H   UNL     1       7.655  -6.871  -6.070  1.00  0.00     0.293 HD
ENDBRANCH   8  24
TORSDOF 5
ENDMDL
MODEL 7
REMARK VINA RESULT:    -6.424     12.160     15.297
REMARK INTER + INTRA:          -7.094
REMARK INTER:                  -6.969
REMARK INTRA:                  -0.125
REMARK UNBOUND:                 0.457
REMARK SMILES O=c1c(O)c(-c2ccc(O)cc2)oc2cc(O)cc(O)c12
REMARK SMILES IDX 5 1 3 2 2 3 1 4 21 5 19 6 18 7 16 8 15 9 14 10 13 11 6 12
REMARK SMILES IDX 7 13 8 14 9 15 12 16 11 17 10 18 4 20 20 22 17 24
REMARK H PARENT 10 19 4 21 20 23 17 25
REMARK Flexibility Score: inf
ROOT
ATOM      1  C   UNL     1      20.624   0.638 -17.350  1.00  0.00     0.180 A 
ATOM      2  C   UNL     1      21.734   1.106 -16.626  1.00  0.00     0.208 A 
ATOM      3  C   UNL     1      21.556   1.513 -15.293  1.00  0.00     0.238 A 
ATOM      4  O   UNL     1      22.563   1.880 -14.635  1.00  0.00    -0.285 OA
ATOM      5  C   UNL     1      20.269   1.460 -14.707  1.00  0.00     0.111 A 
ATOM      6  C   UNL     1      19.965   1.885 -13.379  1.00  0.00     0.134 A 
ATOM      7  C   UNL     1      18.684   1.666 -12.859  1.00  0.00     0.093 A 
ATOM      8  C   UNL     1      17.677   1.098 -13.643  1.00  0.00     0.123 A 
ATOM      9  C   UNL     1      17.947   0.735 -14.960  1.00  0.00     0.094 A 
ATOM     10  C   UNL     1      19.225   0.908 -15.495  1.00  0.00     0.146 A 
ATOM     11  O   UNL     1      19.443   0.539 -16.751  1.00  0.00    -0.452 OA
ENDROOT
BRANCH   1  12
ATOM     12  C   UNL     1      20.728   0.215 -18.766  1.00  0.00     0.021 A 
ATOM     13  C   UNL     1      20.363  -1.093 -19.125  1.00  0.00     0.016 A 
ATOM     14  C   UNL     1      20.433  -1.505 -20.460  1.00  0.00     0.047 A 
ATOM     15  C   UNL     1      20.850  -0.613 -21.451  1.00  0.00     0.115 A 
ATOM     16  C   UNL     1      21.128   1.115 -19.771  1.00  0.00     0.016 A 
ATOM     17  C   UNL     1      21.195   0.700 -21.105  1.00  0.00     0.047 A 
BRANCH  15  18
ATOM     18  O   UNL     1      20.914  -1.037 -22.777  1.00  0.00    -0.508 OA
ATOM     19  H   UNL     1      21.768  -1.409 -23.173  1.00  0.00     0.293 HD
ENDBRANCH  15  18
ENDBRANCH   1  12
BRANCH   2  20
ATOM     20  O   UNL     1      23.000   1.129 -17.217  1.00  0.00    -0.502 OA
ATOM     21  H   UNL     1      23.386   0.332 -17.709  1.00  0.00     0.293 HD
ENDBRANCH   2  20
BRANCH   6  22
ATOM     22  O   UNL     1      20.873   2.545 -12.544  1.00  0.00    -0.507 OA
ATOM     23  H   UNL     1      20.616   3.189 -11.812  1.00  0.00     0.293 HD
ENDBRANCH   6  22
BRANCH   8  24
ATOM     24  O   UNL     1      16.400   0.898 -13.124  1.00  0.00    -0.508 OA
ATOM     25  H   UNL     1      15.836   0.099 -13.394  1.00  0.00     0.293 HD
ENDBRANCH   8  24
TORSDOF 5
ENDMDL
MODEL 8
REMARK VINA RESULT:    -6.335      2.025      7.008
REMARK INTER + INTRA:          -6.989
REMARK INTER:                  -6.720
REMARK INTRA:                  -0.269
REMARK UNBOUND:                 0.457
REMARK SMILES O=c1c(O)c(-c2ccc(O)cc2)oc2cc(O)cc(O)c12
REMARK SMILES IDX 5 1 3 2 2 3 1 4 21 5 19 6 18 7 16 8 15 9 14 10 13 11 6 12
REMARK SMILES IDX 7 13 8 14 9 15 12 16 11 17 10 18 4 20 20 22 17 24
REMARK H PARENT 10 19 4 21 20 23 17 25
REMARK Flexibility Score: inf
ROOT
ATOM      1  C   UNL     1      11.702  -6.252 -10.228  1.00  0.00     0.180 A 
ATOM      2  C   UNL     1      11.799  -7.374 -11.070  1.00  0.00     0.208 A 
ATOM      3  C   UNL     1      12.945  -7.531 -11.866  1.00  0.00     0.238 A 
ATOM      4  O   UNL     1      13.049  -8.565 -12.576  1.00  0.00    -0.285 OA
ATOM      5  C   UNL     1      13.972  -6.558 -11.822  1.00  0.00     0.111 A 
ATOM      6  C   UNL     1      15.159  -6.596 -12.615  1.00  0.00     0.134 A 
ATOM      7  C   UNL     1      16.167  -5.650 -12.395  1.00  0.00     0.093 A 
ATOM      8  C   UNL     1      16.003  -4.628 -11.456  1.00  0.00     0.123 A 
ATOM      9  C   UNL     1      14.824  -4.548 -10.719  1.00  0.00     0.094 A 
ATOM     10  C   UNL     1      13.815  -5.499 -10.890  1.00  0.00     0.146 A 
ATOM     11  O   UNL     1      12.712  -5.392 -10.161  1.00  0.00    -0.452 OA
ENDROOT
BRANCH   1  12
ATOM     12  C   UNL     1      10.515  -6.004  -9.378  1.00  0.00     0.021 A 
ATOM     13  C   UNL     1      10.590  -6.246  -7.997  1.00  0.00     0.016 A 
ATOM     14  C   UNL     1       9.487  -5.997  -7.173  1.00  0.00     0.047 A 
ATOM     15  C   UNL     1       8.304  -5.490  -7.716  1.00  0.00     0.115 A 
ATOM     16  C   UNL     1       9.328  -5.473  -9.916  1.00  0.00     0.016 A 
ATOM     17  C   UNL     1       8.227  -5.224  -9.090  1.00  0.00     0.047 A 
BRANCH  15  18
ATOM     18  O   UNL     1       7.213  -5.246  -6.884  1.00  0.00    -0.508 OA
ATOM     19  H   UNL     1       6.277  -5.535  -7.140  1.00  0.00     0.293 HD
ENDBRANCH  15  18
ENDBRANCH   1  12
BRANCH   2  20
ATOM     20  O   UNL     1      10.783  -8.333 -11.081  1.00  0.00    -0.502 OA
ATOM     21  H   UNL     1      10.058  -8.367 -10.375  1.00  0.00     0.293 HD
ENDBRANCH   2  20
BRANCH   6  22
ATOM     22  O   UNL     1      15.382  -7.519 -13.642  1.00  0.00    -0.507 OA
ATOM     23  H   UNL     1      15.134  -8.495 -13.599  1.00  0.00     0.293 HD
ENDBRANCH   6  22
BRANCH   8  24
ATOM     24  O   UNL     1      17.005  -3.682 -11.254  1.00  0.00    -0.508 OA
ATOM     25  H   UNL     1      17.817  -3.883 -10.681  1.00  0.00     0.293 HD
ENDBRANCH   8  24
TORSDOF 5
ENDMDL
MODEL 9
REMARK VINA RESULT:    -6.075      7.899     10.424
REMARK INTER + INTRA:          -6.684
REMARK INTER:                  -6.435
REMARK INTRA:                  -0.249
REMARK UNBOUND:                 0.457
REMARK SMILES O=c1c(O)c(-c2ccc(O)cc2)oc2cc(O)cc(O)c12
REMARK SMILES IDX 5 1 3 2 2 3 1 4 21 5 19 6 18 7 16 8 15 9 14 10 13 11 6 12
REMARK SMILES IDX 7 13 8 14 9 15 12 16 11 17 10 18 4 20 20 22 17 24
REMARK H PARENT 10 19 4 21 20 23 17 25
REMARK Flexibility Score: inf
ROOT
ATOM      1  C   UNL     1      18.228  -1.845  -8.796  1.00  0.00     0.180 A 
ATOM      2  C   UNL     1      17.649  -0.567  -8.711  1.00  0.00     0.208 A 
ATOM      3  C   UNL     1      16.613  -0.228  -9.596  1.00  0.00     0.238 A 
ATOM      4  O   UNL     1      16.063   0.898  -9.478  1.00  0.00    -0.285 OA
ATOM      5  C   UNL     1      16.178  -1.165 -10.563  1.00  0.00     0.111 A 
ATOM      6  C   UNL     1      15.164  -0.914 -11.536  1.00  0.00     0.134 A 
ATOM      7  C   UNL     1      14.723  -1.957 -12.359  1.00  0.00     0.093 A 
ATOM      8  C   UNL     1      15.308  -3.224 -12.290  1.00  0.00     0.123 A 
ATOM      9  C   UNL     1      16.339  -3.463 -11.385  1.00  0.00     0.094 A 
ATOM     10  C   UNL     1      16.775  -2.452 -10.525  1.00  0.00     0.146 A 
ATOM     11  O   UNL     1      17.754  -2.724  -9.671  1.00  0.00    -0.452 OA
ENDROOT
BRANCH   1  12
ATOM     12  C   UNL     1      19.341  -2.267  -7.915  1.00  0.00     0.021 A 
ATOM     13  C   UNL     1      20.659  -2.227  -8.399  1.00  0.00     0.016 A 
ATOM     14  C   UNL     1      21.727  -2.600  -7.577  1.00  0.00     0.047 A 
ATOM     15  C   UNL     1      21.494  -3.001  -6.259  1.00  0.00     0.115 A 
ATOM     16  C   UNL     1      19.114  -2.651  -6.581  1.00  0.00     0.016 A 
ATOM     17  C   UNL     1      20.184  -3.023  -5.760  1.00  0.00     0.047 A 
BRANCH  15  18
ATOM     18  O   UNL     1      22.567  -3.370  -5.451  1.00  0.00    -0.508 OA
ATOM     19  H   UNL     1      22.531  -4.198  -4.868  1.00  0.00     0.293 HD
ENDBRANCH  15  18
ENDBRANCH   1  12
BRANCH   2  20
ATOM     20  O   UNL     1      18.078   0.335  -7.733  1.00  0.00    -0.502 OA
ATOM     21  H   UNL     1      18.137   1.333  -7.900  1.00  0.00     0.293 HD
ENDBRANCH   2  20
BRANCH   6  22
ATOM     22  O   UNL     1      14.580   0.339 -11.749  1.00  0.00    -0.507 OA
ATOM     23  H   UNL     1      13.781   0.507 -12.341  1.00  0.00     0.293 HD
ENDBRANCH   6  22
BRANCH   8  24
ATOM     24  O   UNL     1      14.874  -4.253 -13.124  1.00  0.00    -0.508 OA
ATOM     25  H   UNL     1      14.507  -5.121 -12.749  1.00  0.00     0.293 HD
ENDBRANCH   8  24
TORSDOF 5
ENDMDL
