MODEL 1
REMARK VINA RESULT:    -0.614      0.000      0.000
REMARK INTER + INTRA:          -1.423
REMARK INTER:                  -1.044
REMARK INTRA:                  -0.379
REMARK UNBOUND:                -0.379
REMARK SMILES CCCCCCCCCCCCCC(=O)[O-]
REMARK SMILES IDX 8 1 9 2 10 3 11 4 12 5 13 6 14 7 15 8 16 9 7 10 6 11 5 12
REMARK SMILES IDX 4 13 3 14 2 15 1 16
REMARK H PARENT
REMARK Flexibility Score: inf
ROOT
ATOM      1  C   UNL     1      -1.178 -16.410 -26.890  1.00  0.00     0.000 C 
ENDROOT
BRANCH   1   2
ATOM      2  C   UNL     1      -1.834 -16.995 -25.624  1.00  0.00     0.000 C 
BRANCH   2   3
ATOM      3  C   UNL     1      -1.574 -18.497 -25.392  1.00  0.00     0.000 C 
BRANCH   3   4
ATOM      4  C   UNL     1      -0.593 -19.153 -26.381  1.00  0.00     0.000 C 
BRANCH   4   5
ATOM      5  C   UNL     1       0.796 -19.490 -25.806  1.00  0.00     0.006 C 
BRANCH   5   6
ATOM      6  C   UNL     1       0.766 -20.532 -24.672  1.00  0.00     0.053 C 
BRANCH   6   7
ATOM      7  C   UNL     1       0.174 -21.838 -25.103  1.00  0.00     0.041 C 
ATOM      8  O   UNL     1       0.916 -22.770 -25.512  1.00  0.00    -0.550 OA
ATOM      9  O   UNL     1      -1.204 -22.017 -25.089  1.00  0.00    -0.550 OA
ENDBRANCH   6   7
ENDBRANCH   5   6
ENDBRANCH   4   5
ENDBRANCH   3   4
ENDBRANCH   2   3
ENDBRANCH   1   2
BRANCH   1  10
ATOM     10  C   UNL     1      -1.854 -15.141 -27.449  1.00  0.00     0.000 C 
BRANCH  10  11
ATOM     11  C   UNL     1      -1.968 -13.973 -26.453  1.00  0.00    -0.000 C 
BRANCH  11  12
ATOM     12  C   UNL     1      -0.812 -12.969 -26.576  1.00  0.00    -0.000 C 
BRANCH  12  13
ATOM     13  C   UNL     1      -0.670 -12.472 -28.022  1.00  0.00    -0.000 C 
BRANCH  13  14
ATOM     14  C   UNL     1      -0.023 -11.078 -28.116  1.00  0.00    -0.000 C 
BRANCH  14  15
ATOM     15  C   UNL     1       1.516 -11.079 -28.118  1.00  0.00    -0.003 C 
ATOM     16  C   UNL     1       2.113 -12.486 -28.113  1.00  0.00     0.004 C 
ENDBRANCH  14  15
ENDBRANCH  13  14
ENDBRANCH  12  13
ENDBRANCH  11  12
ENDBRANCH  10  11
ENDBRANCH   1  10
TORSDOF 12
ENDMDL
MODEL 2
REMARK VINA RESULT:     1.422      4.158      8.232
REMARK INTER + INTRA:           2.040
REMARK INTER:                   2.355
REMARK INTRA:                  -0.315
REMARK UNBOUND:                -0.379
REMARK SMILES CCCCCCCCCCCCCC(=O)[O-]
REMARK SMILES IDX 8 1 9 2 10 3 11 4 12 5 13 6 14 7 15 8 16 9 7 10 6 11 5 12
REMARK SMILES IDX 4 13 3 14 2 15 1 16
REMARK H PARENT
REMARK Flexibility Score: inf
ROOT
ATOM      1  C   UNL     1      -2.125 -17.361 -25.489  1.00  0.00     0.000 C 
ENDROOT
BRANCH   1   2
ATOM      2  C   UNL     1      -1.808 -15.892 -25.831  1.00  0.00     0.000 C 
BRANCH   2   3
ATOM      3  C   UNL     1      -1.295 -15.654 -27.265  1.00  0.00     0.000 C 
BRANCH   3   4
ATOM      4  C   UNL     1       0.097 -15.002 -27.363  1.00  0.00     0.000 C 
BRANCH   4   5
ATOM      5  C   UNL     1       0.144 -13.663 -28.125  1.00  0.00     0.006 C 
BRANCH   5   6
ATOM      6  C   UNL     1      -1.125 -12.806 -27.960  1.00  0.00     0.053 C 
BRANCH   6   7
ATOM      7  C   UNL     1      -0.977 -11.751 -26.908  1.00  0.00     0.041 C 
ATOM      8  O   UNL     1      -1.908 -11.536 -26.088  1.00  0.00    -0.550 OA
ATOM      9  O   UNL     1       0.175 -10.976 -26.854  1.00  0.00    -0.550 OA
ENDBRANCH   6   7
ENDBRANCH   5   6
ENDBRANCH   4   5
ENDBRANCH   3   4
ENDBRANCH   2   3
ENDBRANCH   1   2
BRANCH   1  10
ATOM     10  C   UNL     1      -1.008 -18.367 -25.834  1.00  0.00     0.000 C 
BRANCH  10  11
ATOM     11  C   UNL     1      -1.315 -19.831 -25.465  1.00  0.00    -0.000 C 
BRANCH  11  12
ATOM     12  C   UNL     1      -1.124 -20.796 -26.645  1.00  0.00    -0.000 C 
BRANCH  12  13
ATOM     13  C   UNL     1      -0.986 -22.243 -26.151  1.00  0.00    -0.000 C 
BRANCH  13  14
ATOM     14  C   UNL     1      -0.397 -22.339 -24.732  1.00  0.00    -0.000 C 
BRANCH  14  15
ATOM     15  C   UNL     1       1.140 -22.269 -24.665  1.00  0.00    -0.003 C 
ATOM     16  C   UNL     1       1.674 -20.838 -24.699  1.00  0.00     0.004 C 
ENDBRANCH  14  15
ENDBRANCH  13  14
ENDBRANCH  12  13
ENDBRANCH  11  12
ENDBRANCH  10  11
ENDBRANCH   1  10
TORSDOF 12
ENDMDL
