MODEL 1
REMARK VINA RESULT:    -3.630      0.000      0.000
REMARK INTER + INTRA:          -3.984
REMARK INTER:                  -3.948
REMARK INTRA:                  -0.036
REMARK UNBOUND:                -0.036
REMARK SMILES O=C([O-])c1ccc(O)cc1
REMARK SMILES IDX 4 1 5 2 10 3 6 4 9 5 7 6 2 7 1 8 3 9 8 10
REMARK H PARENT 8 11
REMARK Flexibility Score: inf
ROOT
ATOM      1  C   UNL     1     -95.839 148.893 239.977  1.00  0.00    -0.003 A 
ATOM      2  C   UNL     1     -95.432 147.600 240.350  1.00  0.00     0.014 A 
ATOM      3  C   UNL     1     -95.241 149.499 238.856  1.00  0.00     0.014 A 
ATOM      4  C   UNL     1     -94.449 146.927 239.619  1.00  0.00     0.047 A 
ATOM      5  C   UNL     1     -94.258 148.822 238.126  1.00  0.00     0.047 A 
ATOM      6  C   UNL     1     -93.859 147.537 238.505  1.00  0.00     0.115 A 
ENDROOT
BRANCH   1   7
ATOM      7  C   UNL     1     -96.879 149.602 240.753  1.00  0.00     0.071 C 
ATOM      8  O   UNL     1     -97.154 150.806 240.504  1.00  0.00    -0.545 OA
ATOM      9  O   UNL     1     -97.569 148.950 241.768  1.00  0.00    -0.545 OA
ENDBRANCH   1   7
BRANCH   6  10
ATOM     10  O   UNL     1     -92.879 146.876 237.768  1.00  0.00    -0.508 OA
ATOM     11  H   UNL     1     -92.137 147.382 237.298  1.00  0.00     0.293 HD
ENDBRANCH   6  10
TORSDOF 2
ENDMDL
MODEL 2
REMARK VINA RESULT:    -3.626      0.014      1.532
REMARK INTER + INTRA:          -3.980
REMARK INTER:                  -3.944
REMARK INTRA:                  -0.036
REMARK UNBOUND:                -0.036
REMARK SMILES O=C([O-])c1ccc(O)cc1
REMARK SMILES IDX 4 1 5 2 10 3 6 4 9 5 7 6 2 7 1 8 3 9 8 10
REMARK H PARENT 8 11
REMARK Flexibility Score: inf
ROOT
ATOM      1  C   UNL     1     -95.839 148.893 239.977  1.00  0.00    -0.003 A 
ATOM      2  C   UNL     1     -95.256 149.498 238.850  1.00  0.00     0.014 A 
ATOM      3  C   UNL     1     -95.414 147.605 240.356  1.00  0.00     0.014 A 
ATOM      4  C   UNL     1     -94.270 148.831 238.118  1.00  0.00     0.047 A 
ATOM      5  C   UNL     1     -94.427 146.941 239.621  1.00  0.00     0.047 A 
ATOM      6  C   UNL     1     -93.853 147.550 238.501  1.00  0.00     0.115 A 
ENDROOT
BRANCH   1   7
ATOM      7  C   UNL     1     -96.882 149.601 240.750  1.00  0.00     0.071 C 
ATOM      8  O   UNL     1     -97.155 150.806 240.504  1.00  0.00    -0.545 OA
ATOM      9  O   UNL     1     -97.577 148.946 241.760  1.00  0.00    -0.545 OA
ENDBRANCH   1   7
BRANCH   6  10
ATOM     10  O   UNL     1     -92.871 146.876 237.779  1.00  0.00    -0.508 OA
ATOM     11  H   UNL     1     -92.385 146.075 238.166  1.00  0.00     0.293 HD
ENDBRANCH   6  10
TORSDOF 2
ENDMDL
MODEL 3
REMARK VINA RESULT:    -3.575      0.855      4.336
REMARK INTER + INTRA:          -3.924
REMARK INTER:                  -3.895
REMARK INTRA:                  -0.029
REMARK UNBOUND:                -0.036
REMARK SMILES O=C([O-])c1ccc(O)cc1
REMARK SMILES IDX 4 1 5 2 10 3 6 4 9 5 7 6 2 7 1 8 3 9 8 10
REMARK H PARENT 8 11
REMARK Flexibility Score: inf
ROOT
ATOM      1  C   UNL     1     -94.160 147.752 238.532  1.00  0.00    -0.003 A 
ATOM      2  C   UNL     1     -94.624 146.934 239.578  1.00  0.00     0.014 A 
ATOM      3  C   UNL     1     -94.680 149.054 238.402  1.00  0.00     0.014 A 
ATOM      4  C   UNL     1     -95.587 147.408 240.474  1.00  0.00     0.047 A 
ATOM      5  C   UNL     1     -95.643 149.524 239.301  1.00  0.00     0.047 A 
ATOM      6  C   UNL     1     -96.099 148.705 240.338  1.00  0.00     0.115 A 
ENDROOT
BRANCH   1   7
ATOM      7  C   UNL     1     -93.142 147.248 237.586  1.00  0.00     0.071 C 
ATOM      8  O   UNL     1     -92.011 146.876 237.999  1.00  0.00    -0.545 OA
ATOM      9  O   UNL     1     -93.418 147.176 236.225  1.00  0.00    -0.545 OA
ENDBRANCH   1   7
BRANCH   6  10
ATOM     10  O   UNL     1     -97.058 149.188 241.225  1.00  0.00    -0.508 OA
ATOM     11  H   UNL     1     -96.919 149.148 242.228  1.00  0.00     0.293 HD
ENDBRANCH   6  10
TORSDOF 2
ENDMDL
MODEL 4
REMARK VINA RESULT:    -3.527      1.363      4.204
REMARK INTER + INTRA:          -3.872
REMARK INTER:                  -3.836
REMARK INTRA:                  -0.036
REMARK UNBOUND:                -0.036
REMARK SMILES O=C([O-])c1ccc(O)cc1
REMARK SMILES IDX 4 1 5 2 10 3 6 4 9 5 7 6 2 7 1 8 3 9 8 10
REMARK H PARENT 8 11
REMARK Flexibility Score: inf
ROOT
ATOM      1  C   UNL     1     -95.526 148.573 239.802  1.00  0.00    -0.003 A 
ATOM      2  C   UNL     1     -96.163 147.608 240.602  1.00  0.00     0.014 A 
ATOM      3  C   UNL     1     -95.954 149.912 239.878  1.00  0.00     0.014 A 
ATOM      4  C   UNL     1     -97.203 147.973 241.460  1.00  0.00     0.047 A 
ATOM      5  C   UNL     1     -96.996 150.274 240.738  1.00  0.00     0.047 A 
ATOM      6  C   UNL     1     -97.623 149.308 241.530  1.00  0.00     0.115 A 
ENDROOT
BRANCH   1   7
ATOM      7  C   UNL     1     -94.425 148.183 238.895  1.00  0.00     0.071 C 
ATOM      8  O   UNL     1     -93.898 149.031 238.126  1.00  0.00    -0.545 OA
ATOM      9  O   UNL     1     -93.955 146.875 238.878  1.00  0.00    -0.545 OA
ENDBRANCH   1   7
BRANCH   6  10
ATOM     10  O   UNL     1     -98.659 149.684 242.382  1.00  0.00    -0.508 OA
ATOM     11  H   UNL     1     -99.538 149.180 242.402  1.00  0.00     0.293 HD
ENDBRANCH   6  10
TORSDOF 2
ENDMDL
MODEL 5
REMARK VINA RESULT:    -3.484      2.006      2.958
REMARK INTER + INTRA:          -3.825
REMARK INTER:                  -3.798
REMARK INTRA:                  -0.027
REMARK UNBOUND:                -0.036
REMARK SMILES O=C([O-])c1ccc(O)cc1
REMARK SMILES IDX 4 1 5 2 10 3 6 4 9 5 7 6 2 7 1 8 3 9 8 10
REMARK H PARENT 8 11
REMARK Flexibility Score: inf
ROOT
ATOM      1  C   UNL     1     -97.661 149.682 241.351  1.00  0.00    -0.003 A 
ATOM      2  C   UNL     1     -96.844 150.474 240.525  1.00  0.00     0.014 A 
ATOM      3  C   UNL     1     -97.368 148.311 241.487  1.00  0.00     0.014 A 
ATOM      4  C   UNL     1     -95.758 149.909 239.850  1.00  0.00     0.047 A 
ATOM      5  C   UNL     1     -96.281 147.749 240.810  1.00  0.00     0.047 A 
ATOM      6  C   UNL     1     -95.474 148.545 239.991  1.00  0.00     0.115 A 
ENDROOT
BRANCH   1   7
ATOM      7  C   UNL     1     -98.809 150.282 242.063  1.00  0.00     0.071 C 
ATOM      8  O   UNL     1     -98.660 150.788 243.208  1.00  0.00    -0.545 OA
ATOM      9  O   UNL     1    -100.071 150.298 241.480  1.00  0.00    -0.545 OA
ENDBRANCH   1   7
BRANCH   6  10
ATOM     10  O   UNL     1     -94.394 147.971 239.324  1.00  0.00    -0.508 OA
ATOM     11  H   UNL     1     -93.496 147.850 239.776  1.00  0.00     0.293 HD
ENDBRANCH   6  10
TORSDOF 2
ENDMDL
MODEL 6
REMARK VINA RESULT:    -3.461      1.541      4.487
REMARK INTER + INTRA:          -3.800
REMARK INTER:                  -3.766
REMARK INTRA:                  -0.033
REMARK UNBOUND:                -0.036
REMARK SMILES O=C([O-])c1ccc(O)cc1
REMARK SMILES IDX 4 1 5 2 10 3 6 4 9 5 7 6 2 7 1 8 3 9 8 10
REMARK H PARENT 8 11
REMARK Flexibility Score: inf
ROOT
ATOM      1  C   UNL     1     -95.011 148.677 237.799  1.00  0.00    -0.003 A 
ATOM      2  C   UNL     1     -96.376 148.984 237.659  1.00  0.00     0.014 A 
ATOM      3  C   UNL     1     -94.351 149.029 238.992  1.00  0.00     0.014 A 
ATOM      4  C   UNL     1     -97.066 149.630 238.689  1.00  0.00     0.047 A 
ATOM      5  C   UNL     1     -95.045 149.675 240.020  1.00  0.00     0.047 A 
ATOM      6  C   UNL     1     -96.402 149.977 239.873  1.00  0.00     0.115 A 
ENDROOT
BRANCH   1   7
ATOM      7  C   UNL     1     -94.283 147.994 236.708  1.00  0.00     0.071 C 
ATOM      8  O   UNL     1     -94.615 148.174 235.505  1.00  0.00    -0.545 OA
ATOM      9  O   UNL     1     -93.221 147.145 236.993  1.00  0.00    -0.545 OA
ENDBRANCH   1   7
BRANCH   6  10
ATOM     10  O   UNL     1     -97.080 150.620 240.906  1.00  0.00    -0.508 OA
ATOM     11  H   UNL     1     -96.858 151.571 241.175  1.00  0.00     0.293 HD
ENDBRANCH   6  10
TORSDOF 2
ENDMDL
MODEL 7
REMARK VINA RESULT:    -3.392      1.628      2.185
REMARK INTER + INTRA:          -3.725
REMARK INTER:                  -3.696
REMARK INTRA:                  -0.028
REMARK UNBOUND:                -0.036
REMARK SMILES O=C([O-])c1ccc(O)cc1
REMARK SMILES IDX 4 1 5 2 10 3 6 4 9 5 7 6 2 7 1 8 3 9 8 10
REMARK H PARENT 8 11
REMARK Flexibility Score: inf
ROOT
ATOM      1  C   UNL     1     -97.296 149.328 241.208  1.00  0.00    -0.003 A 
ATOM      2  C   UNL     1     -96.902 147.979 241.203  1.00  0.00     0.014 A 
ATOM      3  C   UNL     1     -96.587 150.249 240.413  1.00  0.00     0.014 A 
ATOM      4  C   UNL     1     -95.822 147.559 240.421  1.00  0.00     0.047 A 
ATOM      5  C   UNL     1     -95.507 149.825 239.632  1.00  0.00     0.047 A 
ATOM      6  C   UNL     1     -95.122 148.481 239.633  1.00  0.00     0.115 A 
ENDROOT
BRANCH   1   7
ATOM      7  C   UNL     1     -98.439 149.770 242.036  1.00  0.00     0.071 C 
ATOM      8  O   UNL     1     -98.390 149.687 243.292  1.00  0.00    -0.545 OA
ATOM      9  O   UNL     1     -99.585 150.283 241.440  1.00  0.00    -0.545 OA
ENDBRANCH   1   7
BRANCH   6  10
ATOM     10  O   UNL     1     -94.045 148.074 238.849  1.00  0.00    -0.508 OA
ATOM     11  H   UNL     1     -93.818 148.538 237.978  1.00  0.00     0.293 HD
ENDBRANCH   6  10
TORSDOF 2
ENDMDL
MODEL 8
REMARK VINA RESULT:    -3.303      2.184      2.839
REMARK INTER + INTRA:          -3.629
REMARK INTER:                  -3.596
REMARK INTRA:                  -0.033
REMARK UNBOUND:                -0.036
REMARK SMILES O=C([O-])c1ccc(O)cc1
REMARK SMILES IDX 4 1 5 2 10 3 6 4 9 5 7 6 2 7 1 8 3 9 8 10
REMARK H PARENT 8 11
REMARK Flexibility Score: inf
ROOT
ATOM      1  C   UNL     1     -94.820 148.539 238.263  1.00  0.00    -0.003 A 
ATOM      2  C   UNL     1     -93.859 147.565 237.939  1.00  0.00     0.014 A 
ATOM      3  C   UNL     1     -95.511 149.188 237.222  1.00  0.00     0.014 A 
ATOM      4  C   UNL     1     -93.595 147.247 236.604  1.00  0.00     0.047 A 
ATOM      5  C   UNL     1     -95.244 148.866 235.887  1.00  0.00     0.047 A 
ATOM      6  C   UNL     1     -94.286 147.897 235.574  1.00  0.00     0.115 A 
ENDROOT
BRANCH   1   7
ATOM      7  C   UNL     1     -95.098 148.874 239.676  1.00  0.00     0.071 C 
ATOM      8  O   UNL     1     -95.002 147.995 240.574  1.00  0.00    -0.545 OA
ATOM      9  O   UNL     1     -95.468 150.165 240.035  1.00  0.00    -0.545 OA
ENDBRANCH   1   7
BRANCH   6  10
ATOM     10  O   UNL     1     -94.032 147.587 234.240  1.00  0.00    -0.508 OA
ATOM     11  H   UNL     1     -93.185 147.105 233.961  1.00  0.00     0.293 HD
ENDBRANCH   6  10
TORSDOF 2
ENDMDL
MODEL 9
REMARK VINA RESULT:    -3.298     14.885     16.067
REMARK INTER + INTRA:          -3.623
REMARK INTER:                  -3.587
REMARK INTRA:                  -0.036
REMARK UNBOUND:                -0.036
REMARK SMILES O=C([O-])c1ccc(O)cc1
REMARK SMILES IDX 4 1 5 2 10 3 6 4 9 5 7 6 2 7 1 8 3 9 8 10
REMARK H PARENT 8 11
REMARK Flexibility Score: inf
ROOT
ATOM      1  C   UNL     1     -91.486 162.694 234.748  1.00  0.00    -0.003 A 
ATOM      2  C   UNL     1     -90.875 162.118 235.875  1.00  0.00     0.014 A 
ATOM      3  C   UNL     1     -92.126 163.941 234.881  1.00  0.00     0.014 A 
ATOM      4  C   UNL     1     -90.903 162.774 237.109  1.00  0.00     0.047 A 
ATOM      5  C   UNL     1     -92.153 164.594 236.118  1.00  0.00     0.047 A 
ATOM      6  C   UNL     1     -91.543 164.014 237.234  1.00  0.00     0.115 A 
ENDROOT
BRANCH   1   7
ATOM      7  C   UNL     1     -91.454 161.999 233.443  1.00  0.00     0.071 C 
ATOM      8  O   UNL     1     -90.961 160.843 233.345  1.00  0.00    -0.545 OA
ATOM      9  O   UNL     1     -91.969 162.610 232.306  1.00  0.00    -0.545 OA
ENDBRANCH   1   7
BRANCH   6  10
ATOM     10  O   UNL     1     -91.577 164.676 238.459  1.00  0.00    -0.508 OA
ATOM     11  H   UNL     1     -92.184 164.370 239.210  1.00  0.00     0.293 HD
ENDBRANCH   6  10
TORSDOF 2
ENDMDL
