MODEL 1
REMARK VINA RESULT:    -2.116      0.000      0.000
REMARK INTER + INTRA:          -2.116
REMARK INTER:                  -2.116
REMARK INTRA:                   0.000
REMARK UNBOUND:                 0.000
REMARK SMILES CC(=O)[O-]
REMARK SMILES IDX 1 1 2 2 3 3 4 4
REMARK H PARENT
REMARK Flexibility Score: inf
ROOT
ATOM      1  C   UNL     1      -3.779 -35.680  -8.630  1.00  0.00     0.063 C 
ATOM      2  C   UNL     1      -4.887 -36.271  -9.434  1.00  0.00     0.038 C 
ATOM      3  O   UNL     1      -5.054 -37.518  -9.462  1.00  0.00    -0.550 OA
ATOM      4  O   UNL     1      -5.707 -35.449 -10.197  1.00  0.00    -0.550 OA
ENDROOT
TORSDOF 0
ENDMDL
MODEL 2
REMARK VINA RESULT:    -2.105      0.111      1.620
REMARK INTER + INTRA:          -2.105
REMARK INTER:                  -2.105
REMARK INTRA:                   0.000
REMARK UNBOUND:                 0.000
REMARK SMILES CC(=O)[O-]
REMARK SMILES IDX 1 1 2 2 3 3 4 4
REMARK H PARENT
REMARK Flexibility Score: inf
ROOT
ATOM      1  C   UNL     1      -3.731 -35.670  -8.594  1.00  0.00     0.063 C 
ATOM      2  C   UNL     1      -4.856 -36.212  -9.409  1.00  0.00     0.038 C 
ATOM      3  O   UNL     1      -5.602 -35.431 -10.055  1.00  0.00    -0.550 OA
ATOM      4  O   UNL     1      -5.116 -37.576  -9.416  1.00  0.00    -0.550 OA
ENDROOT
TORSDOF 0
ENDMDL
MODEL 3
REMARK VINA RESULT:    -2.081      1.671      1.933
REMARK INTER + INTRA:          -2.081
REMARK INTER:                  -2.081
REMARK INTRA:                   0.000
REMARK UNBOUND:                 0.000
REMARK SMILES CC(=O)[O-]
REMARK SMILES IDX 1 1 2 2 3 3 4 4
REMARK H PARENT
REMARK Flexibility Score: inf
ROOT
ATOM      1  C   UNL     1      -5.049 -37.062  -9.431  1.00  0.00     0.063 C 
ATOM      2  C   UNL     1      -4.416 -35.843  -8.851  1.00  0.00     0.038 C 
ATOM      3  O   UNL     1      -3.247 -35.896  -8.388  1.00  0.00    -0.550 OA
ATOM      4  O   UNL     1      -5.134 -34.657  -8.772  1.00  0.00    -0.550 OA
ENDROOT
TORSDOF 0
ENDMDL
MODEL 4
REMARK VINA RESULT:    -2.077      1.723      2.432
REMARK INTER + INTRA:          -2.077
REMARK INTER:                  -2.077
REMARK INTRA:                   0.000
REMARK UNBOUND:                 0.000
REMARK SMILES CC(=O)[O-]
REMARK SMILES IDX 1 1 2 2 3 3 4 4
REMARK H PARENT
REMARK Flexibility Score: inf
ROOT
ATOM      1  C   UNL     1      -5.042 -36.989  -9.427  1.00  0.00     0.063 C 
ATOM      2  C   UNL     1      -4.442 -35.784  -8.787  1.00  0.00     0.038 C 
ATOM      3  O   UNL     1      -5.074 -34.696  -8.767  1.00  0.00    -0.550 OA
ATOM      4  O   UNL     1      -3.159 -35.845  -8.258  1.00  0.00    -0.550 OA
ENDROOT
TORSDOF 0
ENDMDL
MODEL 5
REMARK VINA RESULT:    -2.077     22.843     23.121
REMARK INTER + INTRA:          -2.077
REMARK INTER:                  -2.077
REMARK INTRA:                   0.000
REMARK UNBOUND:                 0.000
REMARK SMILES CC(=O)[O-]
REMARK SMILES IDX 1 1 2 2 3 3 4 4
REMARK H PARENT
REMARK Flexibility Score: inf
ROOT
ATOM      1  C   UNL     1       5.552 -44.745 -27.791  1.00  0.00     0.063 C 
ATOM      2  C   UNL     1       6.387 -45.799 -27.147  1.00  0.00     0.038 C 
ATOM      3  O   UNL     1       7.568 -45.997 -27.535  1.00  0.00    -0.550 OA
ATOM      4  O   UNL     1       5.847 -46.602 -26.151  1.00  0.00    -0.550 OA
ENDROOT
TORSDOF 0
ENDMDL
MODEL 6
REMARK VINA RESULT:    -2.075     23.000     23.258
REMARK INTER + INTRA:          -2.075
REMARK INTER:                  -2.075
REMARK INTRA:                   0.000
REMARK UNBOUND:                 0.000
REMARK SMILES CC(=O)[O-]
REMARK SMILES IDX 1 1 2 2 3 3 4 4
REMARK H PARENT
REMARK Flexibility Score: inf
ROOT
ATOM      1  C   UNL     1       7.609 -45.778 -27.905  1.00  0.00     0.063 C 
ATOM      2  C   UNL     1       6.208 -45.809 -27.397  1.00  0.00     0.038 C 
ATOM      3  O   UNL     1       5.317 -45.113 -27.952  1.00  0.00    -0.550 OA
ATOM      4  O   UNL     1       5.891 -46.565 -26.277  1.00  0.00    -0.550 OA
ENDROOT
TORSDOF 0
ENDMDL
MODEL 7
REMARK VINA RESULT:    -1.973      1.803      2.282
REMARK INTER + INTRA:          -1.973
REMARK INTER:                  -1.973
REMARK INTRA:                   0.000
REMARK UNBOUND:                 0.000
REMARK SMILES CC(=O)[O-]
REMARK SMILES IDX 1 1 2 2 3 3 4 4
REMARK H PARENT
REMARK Flexibility Score: inf
ROOT
ATOM      1  C   UNL     1      -4.892 -35.157  -8.620  1.00  0.00     0.063 C 
ATOM      2  C   UNL     1      -5.966 -34.566  -9.467  1.00  0.00     0.038 C 
ATOM      3  O   UNL     1      -6.157 -34.991 -10.637  1.00  0.00    -0.550 OA
ATOM      4  O   UNL     1      -6.726 -33.507  -8.988  1.00  0.00    -0.550 OA
ENDROOT
TORSDOF 0
ENDMDL
MODEL 8
REMARK VINA RESULT:    -1.923      2.023      2.383
REMARK INTER + INTRA:          -1.923
REMARK INTER:                  -1.923
REMARK INTRA:                   0.000
REMARK UNBOUND:                 0.000
REMARK SMILES CC(=O)[O-]
REMARK SMILES IDX 1 1 2 2 3 3 4 4
REMARK H PARENT
REMARK Flexibility Score: inf
ROOT
ATOM      1  C   UNL     1      -4.902 -36.707  -9.354  1.00  0.00     0.063 C 
ATOM      2  C   UNL     1      -5.560 -38.020  -9.604  1.00  0.00     0.038 C 
ATOM      3  O   UNL     1      -6.654 -38.297  -9.046  1.00  0.00    -0.550 OA
ATOM      4  O   UNL     1      -4.942 -38.966 -10.412  1.00  0.00    -0.550 OA
ENDROOT
TORSDOF 0
ENDMDL
MODEL 9
REMARK VINA RESULT:    -1.785      9.656     10.203
REMARK INTER + INTRA:          -1.785
REMARK INTER:                  -1.785
REMARK INTRA:                   0.000
REMARK UNBOUND:                 0.000
REMARK SMILES CC(=O)[O-]
REMARK SMILES IDX 1 1 2 2 3 3 4 4
REMARK H PARENT
REMARK Flexibility Score: inf
ROOT
ATOM      1  C   UNL     1      -7.691 -36.993 -18.262  1.00  0.00     0.063 C 
ATOM      2  C   UNL     1      -8.878 -36.247 -18.768  1.00  0.00     0.038 C 
ATOM      3  O   UNL     1      -9.350 -36.505 -19.907  1.00  0.00    -0.550 OA
ATOM      4  O   UNL     1      -9.435 -35.227 -18.007  1.00  0.00    -0.550 OA
ENDROOT
TORSDOF 0
ENDMDL
