MODEL 1
REMARK VINA RESULT:    -2.362      0.000      0.000
REMARK INTER + INTRA:          -2.521
REMARK INTER:                  -2.914
REMARK INTRA:                   0.393
REMARK UNBOUND:                 0.393
REMARK SMILES Oc1cc(O)c2cc(O)c(-c3cc(O)c(O)c(O)c3)[o+]c2c1
REMARK SMILES IDX 10 1 20 2 21 3 22 4 2 5 3 6 4 7 6 8 7 9 8 10 11 11 12 12
REMARK SMILES IDX 13 13 19 14 15 15 17 16 14 17 16 19 18 21 9 23 1 25 5 27
REMARK H PARENT 14 18 16 20 18 22 9 24 1 26 5 28
REMARK Flexibility Score: inf
ROOT
ATOM      1  C   UNL     1     -16.753 -36.398 -11.729  1.00  0.00     0.402 A 
ATOM      2  O   UNL     1     -15.538 -36.076 -12.165  1.00  0.00    -0.202 OA
ATOM      3  C   UNL     1     -15.217 -36.014 -13.454  1.00  0.00     0.368 A 
ATOM      4  C   UNL     1     -13.914 -35.662 -13.814  1.00  0.00     0.162 A 
ATOM      5  C   UNL     1     -13.551 -35.586 -15.162  1.00  0.00     0.128 A 
ATOM      6  C   UNL     1     -14.496 -35.862 -16.153  1.00  0.00     0.093 A 
ATOM      7  C   UNL     1     -15.808 -36.217 -15.818  1.00  0.00     0.136 A 
ATOM      8  C   UNL     1     -16.181 -36.298 -14.451  1.00  0.00     0.125 A 
ATOM      9  C   UNL     1     -17.470 -36.658 -14.022  1.00  0.00     0.078 A 
ATOM     10  C   UNL     1     -17.762 -36.720 -12.656  1.00  0.00     0.223 A 
ENDROOT
BRANCH   1  11
ATOM     11  C   UNL     1     -16.988 -36.423 -10.267  1.00  0.00     0.091 A 
ATOM     12  C   UNL     1     -18.240 -36.765  -9.735  1.00  0.00     0.068 A 
ATOM     13  C   UNL     1     -18.451 -36.762  -8.353  1.00  0.00     0.162 A 
ATOM     14  C   UNL     1     -15.958 -36.042  -9.396  1.00  0.00     0.068 A 
ATOM     15  C   UNL     1     -17.409 -36.404  -7.477  1.00  0.00     0.200 A 
ATOM     16  C   UNL     1     -16.151 -36.035  -8.010  1.00  0.00     0.162 A 
BRANCH  13  17
ATOM     17  O   UNL     1     -19.710 -37.116  -7.866  1.00  0.00    -0.504 OA
ATOM     18  H   UNL     1     -20.567 -36.746  -8.259  1.00  0.00     0.293 HD
ENDBRANCH  13  17
BRANCH  15  19
ATOM     19  O   UNL     1     -17.661 -36.422  -6.102  1.00  0.00    -0.502 OA
ATOM     20  H   UNL     1     -18.329 -37.035  -5.657  1.00  0.00     0.293 HD
ENDBRANCH  15  19
BRANCH  16  21
ATOM     21  O   UNL     1     -15.073 -35.655  -7.207  1.00  0.00    -0.504 OA
ATOM     22  H   UNL     1     -14.460 -34.879  -7.411  1.00  0.00     0.293 HD
ENDBRANCH  16  21
ENDBRANCH   1  11
BRANCH  10  23
ATOM     23  O   UNL     1     -19.026 -37.125 -12.229  1.00  0.00    -0.500 OA
ATOM     24  H   UNL     1     -19.827 -37.112 -12.849  1.00  0.00     0.294 HD
ENDBRANCH  10  23
BRANCH   5  25
ATOM     25  O   UNL     1     -12.254 -35.237 -15.529  1.00  0.00    -0.507 OA
ATOM     26  H   UNL     1     -12.065 -34.713 -16.376  1.00  0.00     0.293 HD
ENDBRANCH   5  25
BRANCH   7  27
ATOM     27  O   UNL     1     -16.694 -36.474 -16.869  1.00  0.00    -0.507 OA
ATOM     28  H   UNL     1     -16.611 -36.082 -17.795  1.00  0.00     0.293 HD
ENDBRANCH   7  27
TORSDOF 7
ENDMDL
MODEL 2
REMARK VINA RESULT:    -1.916      0.091      1.807
REMARK INTER + INTRA:          -1.971
REMARK INTER:                  -2.431
REMARK INTRA:                   0.460
REMARK UNBOUND:                 0.393
REMARK SMILES Oc1cc(O)c2cc(O)c(-c3cc(O)c(O)c(O)c3)[o+]c2c1
REMARK SMILES IDX 10 1 20 2 21 3 22 4 2 5 3 6 4 7 6 8 7 9 8 10 11 11 12 12
REMARK SMILES IDX 13 13 19 14 15 15 17 16 14 17 16 19 18 21 9 23 1 25 5 27
REMARK H PARENT 14 18 16 20 18 22 9 24 1 26 5 28
REMARK Flexibility Score: inf
ROOT
ATOM      1  C   UNL     1     -16.729 -36.388 -11.668  1.00  0.00     0.402 A 
ATOM      2  O   UNL     1     -15.516 -36.080 -12.119  1.00  0.00    -0.202 OA
ATOM      3  C   UNL     1     -15.202 -36.054 -13.410  1.00  0.00     0.368 A 
ATOM      4  C   UNL     1     -13.900 -35.715 -13.788  1.00  0.00     0.162 A 
ATOM      5  C   UNL     1     -13.544 -35.678 -15.139  1.00  0.00     0.128 A 
ATOM      6  C   UNL     1     -14.494 -35.980 -16.117  1.00  0.00     0.093 A 
ATOM      7  C   UNL     1     -15.805 -36.323 -15.765  1.00  0.00     0.136 A 
ATOM      8  C   UNL     1     -16.171 -36.365 -14.395  1.00  0.00     0.125 A 
ATOM      9  C   UNL     1     -17.458 -36.710 -13.949  1.00  0.00     0.078 A 
ATOM     10  C   UNL     1     -17.743 -36.734 -12.580  1.00  0.00     0.223 A 
ENDROOT
BRANCH   1  11
ATOM     11  C   UNL     1     -16.957 -36.371 -10.205  1.00  0.00     0.091 A 
ATOM     12  C   UNL     1     -15.927 -36.046  -9.309  1.00  0.00     0.068 A 
ATOM     13  C   UNL     1     -16.154 -36.056  -7.930  1.00  0.00     0.162 A 
ATOM     14  C   UNL     1     -18.211 -36.740  -9.698  1.00  0.00     0.068 A 
ATOM     15  C   UNL     1     -17.420 -36.404  -7.422  1.00  0.00     0.200 A 
ATOM     16  C   UNL     1     -18.456 -36.754  -8.319  1.00  0.00     0.162 A 
BRANCH  13  17
ATOM     17  O   UNL     1     -15.103 -35.720  -7.075  1.00  0.00    -0.504 OA
ATOM     18  H   UNL     1     -14.197 -36.167  -7.129  1.00  0.00     0.293 HD
ENDBRANCH  13  17
BRANCH  15  19
ATOM     19  O   UNL     1     -17.605 -36.392  -6.036  1.00  0.00    -0.502 OA
ATOM     20  H   UNL     1     -17.837 -37.209  -5.489  1.00  0.00     0.293 HD
ENDBRANCH  15  19
BRANCH  16  21
ATOM     21  O   UNL     1     -19.733 -37.122  -7.892  1.00  0.00    -0.504 OA
ATOM     22  H   UNL     1     -19.987 -37.274  -6.927  1.00  0.00     0.293 HD
ENDBRANCH  16  21
ENDBRANCH   1  11
BRANCH  10  23
ATOM     23  O   UNL     1     -19.006 -37.125 -12.135  1.00  0.00    -0.500 OA
ATOM     24  H   UNL     1     -19.192 -38.071 -11.827  1.00  0.00     0.294 HD
ENDBRANCH  10  23
BRANCH   5  25
ATOM     25  O   UNL     1     -12.248 -35.341 -15.522  1.00  0.00    -0.507 OA
ATOM     26  H   UNL     1     -11.593 -36.042 -15.851  1.00  0.00     0.293 HD
ENDBRANCH   5  25
BRANCH   7  27
ATOM     27  O   UNL     1     -16.697 -36.609 -16.804  1.00  0.00    -0.507 OA
ATOM     28  H   UNL     1     -17.570 -37.103 -16.687  1.00  0.00     0.293 HD
ENDBRANCH   7  27
TORSDOF 7
ENDMDL
MODEL 3
REMARK VINA RESULT:    -1.787      1.048      7.032
REMARK INTER + INTRA:          -1.812
REMARK INTER:                  -2.065
REMARK INTRA:                   0.253
REMARK UNBOUND:                 0.393
REMARK SMILES Oc1cc(O)c2cc(O)c(-c3cc(O)c(O)c(O)c3)[o+]c2c1
REMARK SMILES IDX 10 1 20 2 21 3 22 4 2 5 3 6 4 7 6 8 7 9 8 10 11 11 12 12
REMARK SMILES IDX 13 13 19 14 15 15 17 16 14 17 16 19 18 21 9 23 1 25 5 27
REMARK H PARENT 14 18 16 20 18 22 9 24 1 26 5 28
REMARK Flexibility Score: inf
ROOT
ATOM      1  C   UNL     1     -16.752 -36.598 -12.062  1.00  0.00     0.402 A 
ATOM      2  O   UNL     1     -16.086 -36.311 -10.947  1.00  0.00    -0.202 OA
ATOM      3  C   UNL     1     -16.647 -36.301  -9.743  1.00  0.00     0.368 A 
ATOM      4  C   UNL     1     -15.864 -35.990  -8.629  1.00  0.00     0.162 A 
ATOM      5  C   UNL     1     -16.429 -35.975  -7.350  1.00  0.00     0.128 A 
ATOM      6  C   UNL     1     -17.783 -36.274  -7.185  1.00  0.00     0.093 A 
ATOM      7  C   UNL     1     -18.590 -36.589  -8.286  1.00  0.00     0.136 A 
ATOM      8  C   UNL     1     -18.022 -36.602  -9.586  1.00  0.00     0.125 A 
ATOM      9  C   UNL     1     -18.757 -36.894 -10.747  1.00  0.00     0.078 A 
ATOM     10  C   UNL     1     -18.128 -36.884 -11.995  1.00  0.00     0.223 A 
ENDROOT
BRANCH   1  11
ATOM     11  C   UNL     1     -16.010 -36.586 -13.344  1.00  0.00     0.091 A 
ATOM     12  C   UNL     1     -14.637 -36.868 -13.396  1.00  0.00     0.068 A 
ATOM     13  C   UNL     1     -13.947 -36.831 -14.611  1.00  0.00     0.162 A 
ATOM     14  C   UNL     1     -16.678 -36.231 -14.524  1.00  0.00     0.068 A 
ATOM     15  C   UNL     1     -14.624 -36.498 -15.800  1.00  0.00     0.200 A 
ATOM     16  C   UNL     1     -16.004 -36.190 -15.751  1.00  0.00     0.162 A 
BRANCH  13  17
ATOM     17  O   UNL     1     -12.583 -37.125 -14.617  1.00  0.00    -0.504 OA
ATOM     18  H   UNL     1     -12.199 -37.923 -14.129  1.00  0.00     0.293 HD
ENDBRANCH  13  17
BRANCH  15  19
ATOM     19  O   UNL     1     -13.898 -36.481 -16.994  1.00  0.00    -0.502 OA
ATOM     20  H   UNL     1     -12.890 -36.451 -17.045  1.00  0.00     0.293 HD
ENDBRANCH  15  19
BRANCH  16  21
ATOM     21  O   UNL     1     -16.741 -35.839 -16.884  1.00  0.00    -0.504 OA
ATOM     22  H   UNL     1     -17.495 -35.168 -16.884  1.00  0.00     0.293 HD
ENDBRANCH  16  21
ENDBRANCH   1  11
BRANCH  10  23
ATOM     23  O   UNL     1     -18.868 -37.125 -13.153  1.00  0.00    -0.500 OA
ATOM     24  H   UNL     1     -19.749 -37.624 -13.128  1.00  0.00     0.294 HD
ENDBRANCH  10  23
BRANCH   5  25
ATOM     25  O   UNL     1     -15.654 -35.666  -6.235  1.00  0.00    -0.507 OA
ATOM     26  H   UNL     1     -14.979 -34.909  -6.252  1.00  0.00     0.293 HD
ENDBRANCH   5  25
BRANCH   7  27
ATOM     27  O   UNL     1     -19.935 -36.879  -8.036  1.00  0.00    -0.507 OA
ATOM     28  H   UNL     1     -20.712 -36.404  -8.472  1.00  0.00     0.293 HD
ENDBRANCH   7  27
TORSDOF 7
ENDMDL
MODEL 4
REMARK VINA RESULT:    -1.667      1.052      6.846
REMARK INTER + INTRA:          -1.664
REMARK INTER:                  -1.908
REMARK INTRA:                   0.244
REMARK UNBOUND:                 0.393
REMARK SMILES Oc1cc(O)c2cc(O)c(-c3cc(O)c(O)c(O)c3)[o+]c2c1
REMARK SMILES IDX 10 1 20 2 21 3 22 4 2 5 3 6 4 7 6 8 7 9 8 10 11 11 12 12
REMARK SMILES IDX 13 13 19 14 15 15 17 16 14 17 16 19 18 21 9 23 1 25 5 27
REMARK H PARENT 14 18 16 20 18 22 9 24 1 26 5 28
REMARK Flexibility Score: inf
ROOT
ATOM      1  C   UNL     1     -16.767 -36.567 -12.023  1.00  0.00     0.402 A 
ATOM      2  O   UNL     1     -16.097 -36.276 -10.911  1.00  0.00    -0.202 OA
ATOM      3  C   UNL     1     -16.650 -36.285  -9.702  1.00  0.00     0.368 A 
ATOM      4  C   UNL     1     -15.863 -35.968  -8.592  1.00  0.00     0.162 A 
ATOM      5  C   UNL     1     -16.418 -35.972  -7.309  1.00  0.00     0.128 A 
ATOM      6  C   UNL     1     -17.766 -36.297  -7.136  1.00  0.00     0.093 A 
ATOM      7  C   UNL     1     -18.575 -36.618  -8.233  1.00  0.00     0.136 A 
ATOM      8  C   UNL     1     -18.017 -36.613  -9.537  1.00  0.00     0.125 A 
ATOM      9  C   UNL     1     -18.756 -36.909 -10.695  1.00  0.00     0.078 A 
ATOM     10  C   UNL     1     -18.137 -36.879 -11.948  1.00  0.00     0.223 A 
ENDROOT
BRANCH   1  11
ATOM     11  C   UNL     1     -16.035 -36.533 -13.310  1.00  0.00     0.091 A 
ATOM     12  C   UNL     1     -16.695 -36.262 -14.518  1.00  0.00     0.068 A 
ATOM     13  C   UNL     1     -15.993 -36.255 -15.727  1.00  0.00     0.162 A 
ATOM     14  C   UNL     1     -14.665 -36.832 -13.333  1.00  0.00     0.068 A 
ATOM     15  C   UNL     1     -14.613 -36.531 -15.747  1.00  0.00     0.200 A 
ATOM     16  C   UNL     1     -13.946 -36.828 -14.535  1.00  0.00     0.162 A 
BRANCH  13  17
ATOM     17  O   UNL     1     -16.687 -35.973 -16.904  1.00  0.00    -0.504 OA
ATOM     18  H   UNL     1     -16.613 -36.554 -17.729  1.00  0.00     0.293 HD
ENDBRANCH  13  17
BRANCH  15  19
ATOM     19  O   UNL     1     -13.948 -36.505 -16.977  1.00  0.00    -0.502 OA
ATOM     20  H   UNL     1     -13.021 -36.127 -17.112  1.00  0.00     0.293 HD
ENDBRANCH  15  19
BRANCH  16  21
ATOM     21  O   UNL     1     -12.583 -37.125 -14.475  1.00  0.00    -0.504 OA
ATOM     22  H   UNL     1     -12.080 -37.628 -15.191  1.00  0.00     0.293 HD
ENDBRANCH  16  21
ENDBRANCH   1  11
BRANCH  10  23
ATOM     23  O   UNL     1     -18.881 -37.125 -13.102  1.00  0.00    -0.500 OA
ATOM     24  H   UNL     1     -19.009 -36.415 -13.814  1.00  0.00     0.294 HD
ENDBRANCH  10  23
BRANCH   5  25
ATOM     25  O   UNL     1     -15.641 -35.656  -6.198  1.00  0.00    -0.507 OA
ATOM     26  H   UNL     1     -16.060 -35.459  -5.296  1.00  0.00     0.293 HD
ENDBRANCH   5  25
BRANCH   7  27
ATOM     27  O   UNL     1     -19.913 -36.935  -7.975  1.00  0.00    -0.507 OA
ATOM     28  H   UNL     1     -20.699 -36.535  -8.466  1.00  0.00     0.293 HD
ENDBRANCH   7  27
TORSDOF 7
ENDMDL
