MODEL 1
REMARK VINA RESULT:    -4.660      0.000      0.000
REMARK INTER + INTRA:          -5.256
REMARK INTER:                  -5.069
REMARK INTRA:                  -0.187
REMARK UNBOUND:                -0.187
REMARK SMILES O=C([O-])c1ccccc1O
REMARK SMILES IDX 4 1 9 2 5 3 8 4 6 5 7 6 2 7 1 8 3 9 10 10
REMARK H PARENT 10 11
REMARK Flexibility Score: inf
ROOT
ATOM      1  C   UNL     1      13.283  16.556  16.496  1.00  0.00     0.039 A 
ATOM      2  C   UNL     1      12.458  15.642  17.202  1.00  0.00     0.124 A 
ATOM      3  C   UNL     1      12.744  17.250  15.398  1.00  0.00     0.014 A 
ATOM      4  C   UNL     1      11.114  15.496  16.836  1.00  0.00     0.047 A 
ATOM      5  C   UNL     1      11.407  17.077  15.032  1.00  0.00     0.001 A 
ATOM      6  C   UNL     1      10.591  16.209  15.755  1.00  0.00     0.004 A 
ENDROOT
BRANCH   1   7
ATOM      7  C   UNL     1      14.684  16.838  16.884  1.00  0.00     0.075 C 
ATOM      8  O   UNL     1      14.956  17.331  18.010  1.00  0.00    -0.545 OA
ATOM      9  O   UNL     1      15.713  16.623  15.975  1.00  0.00    -0.545 OA
ENDBRANCH   1   7
BRANCH   2  10
ATOM     10  O   UNL     1      12.937  14.841  18.242  1.00  0.00    -0.507 OA
ATOM     11  H   UNL     1      12.610  14.910  19.196  1.00  0.00     0.293 HD
ENDBRANCH   2  10
TORSDOF 2
ENDMDL
MODEL 2
REMARK VINA RESULT:    -4.178      1.387      2.286
REMARK INTER + INTRA:          -4.731
REMARK INTER:                  -4.528
REMARK INTRA:                  -0.203
REMARK UNBOUND:                -0.187
REMARK SMILES O=C([O-])c1ccccc1O
REMARK SMILES IDX 4 1 9 2 5 3 8 4 6 5 7 6 2 7 1 8 3 9 10 10
REMARK H PARENT 10 11
REMARK Flexibility Score: inf
ROOT
ATOM      1  C   UNL     1      13.358  16.596  16.312  1.00  0.00     0.039 A 
ATOM      2  C   UNL     1      12.441  17.287  15.478  1.00  0.00     0.124 A 
ATOM      3  C   UNL     1      12.874  15.589  17.168  1.00  0.00     0.014 A 
ATOM      4  C   UNL     1      11.091  16.913  15.474  1.00  0.00     0.047 A 
ATOM      5  C   UNL     1      11.520  15.244  17.167  1.00  0.00     0.001 A 
ATOM      6  C   UNL     1      10.633  15.898  16.315  1.00  0.00     0.004 A 
ENDROOT
BRANCH   1   7
ATOM      7  C   UNL     1      14.813  16.866  16.301  1.00  0.00     0.075 C 
ATOM      8  O   UNL     1      15.266  17.984  16.664  1.00  0.00    -0.545 OA
ATOM      9  O   UNL     1      15.695  15.905  15.819  1.00  0.00    -0.545 OA
ENDBRANCH   1   7
BRANCH   2  10
ATOM     10  O   UNL     1      12.818  18.362  14.669  1.00  0.00    -0.507 OA
ATOM     11  H   UNL     1      12.365  18.590  13.796  1.00  0.00     0.293 HD
ENDBRANCH   2  10
TORSDOF 2
ENDMDL
MODEL 3
REMARK VINA RESULT:    -4.155      2.772      3.934
REMARK INTER + INTRA:          -4.706
REMARK INTER:                  -4.483
REMARK INTRA:                  -0.223
REMARK UNBOUND:                -0.187
REMARK SMILES O=C([O-])c1ccccc1O
REMARK SMILES IDX 4 1 9 2 5 3 8 4 6 5 7 6 2 7 1 8 3 9 10 10
REMARK H PARENT 10 11
REMARK Flexibility Score: inf
ROOT
ATOM      1  C   UNL     1      11.585  17.080  15.260  1.00  0.00     0.039 A 
ATOM      2  C   UNL     1      12.912  17.284  15.723  1.00  0.00     0.124 A 
ATOM      3  C   UNL     1      10.797  16.087  15.871  1.00  0.00     0.014 A 
ATOM      4  C   UNL     1      13.386  16.544  16.814  1.00  0.00     0.047 A 
ATOM      5  C   UNL     1      11.294  15.343  16.944  1.00  0.00     0.001 A 
ATOM      6  C   UNL     1      12.582  15.578  17.420  1.00  0.00     0.004 A 
ENDROOT
BRANCH   1   7
ATOM      7  C   UNL     1      10.979  17.888  14.179  1.00  0.00     0.075 C 
ATOM      8  O   UNL     1      10.510  17.340  13.147  1.00  0.00    -0.545 OA
ATOM      9  O   UNL     1      10.986  19.276  14.261  1.00  0.00    -0.545 OA
ENDBRANCH   1   7
BRANCH   2  10
ATOM     10  O   UNL     1      13.794  18.180  15.114  1.00  0.00    -0.507 OA
ATOM     11  H   UNL     1      14.110  19.035  15.548  1.00  0.00     0.293 HD
ENDBRANCH   2  10
TORSDOF 2
ENDMDL
MODEL 4
REMARK VINA RESULT:    -4.010      1.572      2.231
REMARK INTER + INTRA:          -4.549
REMARK INTER:                  -4.310
REMARK INTRA:                  -0.239
REMARK UNBOUND:                -0.187
REMARK SMILES O=C([O-])c1ccccc1O
REMARK SMILES IDX 4 1 9 2 5 3 8 4 6 5 7 6 2 7 1 8 3 9 10 10
REMARK H PARENT 10 11
REMARK Flexibility Score: inf
ROOT
ATOM      1  C   UNL     1      13.011  17.370  15.739  1.00  0.00     0.039 A 
ATOM      2  C   UNL     1      13.516  16.571  16.798  1.00  0.00     0.124 A 
ATOM      3  C   UNL     1      11.696  17.151  15.289  1.00  0.00     0.014 A 
ATOM      4  C   UNL     1      12.681  15.630  17.415  1.00  0.00     0.047 A 
ATOM      5  C   UNL     1      10.884  16.193  15.901  1.00  0.00     0.001 A 
ATOM      6  C   UNL     1      11.372  15.441  16.967  1.00  0.00     0.004 A 
ENDROOT
BRANCH   1   7
ATOM      7  C   UNL     1      13.799  18.450  15.103  1.00  0.00     0.075 C 
ATOM      8  O   UNL     1      13.228  19.431  14.558  1.00  0.00    -0.545 OA
ATOM      9  O   UNL     1      15.184  18.356  15.041  1.00  0.00    -0.545 OA
ENDBRANCH   1   7
BRANCH   2  10
ATOM     10  O   UNL     1      14.838  16.655  17.243  1.00  0.00    -0.507 OA
ATOM     11  H   UNL     1      15.603  16.152  16.818  1.00  0.00     0.293 HD
ENDBRANCH   2  10
TORSDOF 2
ENDMDL
MODEL 5
REMARK VINA RESULT:    -3.981      2.264      3.567
REMARK INTER + INTRA:          -4.517
REMARK INTER:                  -4.278
REMARK INTRA:                  -0.239
REMARK UNBOUND:                -0.187
REMARK SMILES O=C([O-])c1ccccc1O
REMARK SMILES IDX 4 1 9 2 5 3 8 4 6 5 7 6 2 7 1 8 3 9 10 10
REMARK H PARENT 10 11
REMARK Flexibility Score: inf
ROOT
ATOM      1  C   UNL     1      12.260  17.280  16.772  1.00  0.00     0.039 A 
ATOM      2  C   UNL     1      13.292  16.496  17.352  1.00  0.00     0.124 A 
ATOM      3  C   UNL     1      12.387  18.682  16.776  1.00  0.00     0.014 A 
ATOM      4  C   UNL     1      14.438  17.123  17.856  1.00  0.00     0.047 A 
ATOM      5  C   UNL     1      13.528  19.292  17.303  1.00  0.00     0.001 A 
ATOM      6  C   UNL     1      14.555  18.513  17.834  1.00  0.00     0.004 A 
ENDROOT
BRANCH   1   7
ATOM      7  C   UNL     1      11.065  16.687  16.131  1.00  0.00     0.075 C 
ATOM      8  O   UNL     1      10.340  15.865  16.751  1.00  0.00    -0.545 OA
ATOM      9  O   UNL     1      10.770  16.980  14.805  1.00  0.00    -0.545 OA
ENDBRANCH   1   7
BRANCH   2  10
ATOM     10  O   UNL     1      13.204  15.107  17.476  1.00  0.00    -0.507 OA
ATOM     11  H   UNL     1      12.598  14.642  18.137  1.00  0.00     0.293 HD
ENDBRANCH   2  10
TORSDOF 2
ENDMDL
MODEL 6
REMARK VINA RESULT:    -3.955      2.257      3.898
REMARK INTER + INTRA:          -4.489
REMARK INTER:                  -4.278
REMARK INTRA:                  -0.210
REMARK UNBOUND:                -0.187
REMARK SMILES O=C([O-])c1ccccc1O
REMARK SMILES IDX 4 1 9 2 5 3 8 4 6 5 7 6 2 7 1 8 3 9 10 10
REMARK H PARENT 10 11
REMARK Flexibility Score: inf
ROOT
ATOM      1  C   UNL     1      12.757  16.983  16.728  1.00  0.00     0.039 A 
ATOM      2  C   UNL     1      12.643  18.311  17.217  1.00  0.00     0.124 A 
ATOM      3  C   UNL     1      14.039  16.433  16.547  1.00  0.00     0.014 A 
ATOM      4  C   UNL     1      13.798  19.021  17.570  1.00  0.00     0.047 A 
ATOM      5  C   UNL     1      15.181  17.163  16.884  1.00  0.00     0.001 A 
ATOM      6  C   UNL     1      15.060  18.451  17.402  1.00  0.00     0.004 A 
ENDROOT
BRANCH   1   7
ATOM      7  C   UNL     1      11.581  16.135  16.427  1.00  0.00     0.075 C 
ATOM      8  O   UNL     1      11.427  15.020  16.992  1.00  0.00    -0.545 OA
ATOM      9  O   UNL     1      10.667  16.534  15.459  1.00  0.00    -0.545 OA
ENDBRANCH   1   7
BRANCH   2  10
ATOM     10  O   UNL     1      11.416  18.969  17.336  1.00  0.00    -0.507 OA
ATOM     11  H   UNL     1      11.316  19.974  17.320  1.00  0.00     0.293 HD
ENDBRANCH   2  10
TORSDOF 2
ENDMDL
MODEL 7
REMARK VINA RESULT:    -3.887      2.887      3.703
REMARK INTER + INTRA:          -4.415
REMARK INTER:                  -4.235
REMARK INTRA:                  -0.180
REMARK UNBOUND:                -0.187
REMARK SMILES O=C([O-])c1ccccc1O
REMARK SMILES IDX 4 1 9 2 5 3 8 4 6 5 7 6 2 7 1 8 3 9 10 10
REMARK H PARENT 10 11
REMARK Flexibility Score: inf
ROOT
ATOM      1  C   UNL     1      11.950  17.246  15.344  1.00  0.00     0.039 A 
ATOM      2  C   UNL     1      11.578  16.229  16.263  1.00  0.00     0.124 A 
ATOM      3  C   UNL     1      13.247  17.786  15.414  1.00  0.00     0.014 A 
ATOM      4  C   UNL     1      12.523  15.740  17.174  1.00  0.00     0.047 A 
ATOM      5  C   UNL     1      14.171  17.301  16.344  1.00  0.00     0.001 A 
ATOM      6  C   UNL     1      13.812  16.274  17.215  1.00  0.00     0.004 A 
ENDROOT
BRANCH   1   7
ATOM      7  C   UNL     1      11.040  17.745  14.289  1.00  0.00     0.075 C 
ATOM      8  O   UNL     1      10.625  16.981  13.378  1.00  0.00    -0.545 OA
ATOM      9  O   UNL     1      10.688  19.090  14.253  1.00  0.00    -0.545 OA
ENDBRANCH   1   7
BRANCH   2  10
ATOM     10  O   UNL     1      10.284  15.706  16.326  1.00  0.00    -0.507 OA
ATOM     11  H   UNL     1      10.064  14.738  16.137  1.00  0.00     0.293 HD
ENDBRANCH   2  10
TORSDOF 2
ENDMDL
MODEL 8
REMARK VINA RESULT:    -3.842      2.016      3.612
REMARK INTER + INTRA:          -4.366
REMARK INTER:                  -4.127
REMARK INTRA:                  -0.239
REMARK UNBOUND:                -0.187
REMARK SMILES O=C([O-])c1ccccc1O
REMARK SMILES IDX 4 1 9 2 5 3 8 4 6 5 7 6 2 7 1 8 3 9 10 10
REMARK H PARENT 10 11
REMARK Flexibility Score: inf
ROOT
ATOM      1  C   UNL     1      13.123  17.036  16.672  1.00  0.00     0.039 A 
ATOM      2  C   UNL     1      12.713  18.387  16.820  1.00  0.00     0.124 A 
ATOM      3  C   UNL     1      14.327  16.761  15.998  1.00  0.00     0.014 A 
ATOM      4  C   UNL     1      13.539  19.417  16.352  1.00  0.00     0.047 A 
ATOM      5  C   UNL     1      15.129  17.799  15.519  1.00  0.00     0.001 A 
ATOM      6  C   UNL     1      14.740  19.125  15.704  1.00  0.00     0.004 A 
ENDROOT
BRANCH   1   7
ATOM      7  C   UNL     1      12.354  15.899  17.225  1.00  0.00     0.075 C 
ATOM      8  O   UNL     1      11.134  15.749  16.949  1.00  0.00    -0.545 OA
ATOM      9  O   UNL     1      12.957  15.019  18.117  1.00  0.00    -0.545 OA
ENDBRANCH   1   7
BRANCH   2  10
ATOM     10  O   UNL     1      11.488  18.746  17.390  1.00  0.00    -0.507 OA
ATOM     11  H   UNL     1      10.605  18.339  17.118  1.00  0.00     0.293 HD
ENDBRANCH   2  10
TORSDOF 2
ENDMDL
MODEL 9
REMARK VINA RESULT:    -3.813      1.575      3.279
REMARK INTER + INTRA:          -4.334
REMARK INTER:                  -4.098
REMARK INTRA:                  -0.237
REMARK UNBOUND:                -0.187
REMARK SMILES O=C([O-])c1ccccc1O
REMARK SMILES IDX 4 1 9 2 5 3 8 4 6 5 7 6 2 7 1 8 3 9 10 10
REMARK H PARENT 10 11
REMARK Flexibility Score: inf
ROOT
ATOM      1  C   UNL     1      12.725  16.869  16.652  1.00  0.00     0.039 A 
ATOM      2  C   UNL     1      13.977  16.915  15.984  1.00  0.00     0.124 A 
ATOM      3  C   UNL     1      11.957  18.045  16.739  1.00  0.00     0.014 A 
ATOM      4  C   UNL     1      14.392  18.105  15.372  1.00  0.00     0.047 A 
ATOM      5  C   UNL     1      12.397  19.229  16.142  1.00  0.00     0.001 A 
ATOM      6  C   UNL     1      13.607  19.256  15.452  1.00  0.00     0.004 A 
ENDROOT
BRANCH   1   7
ATOM      7  C   UNL     1      12.173  15.627  17.238  1.00  0.00     0.075 C 
ATOM      8  O   UNL     1      12.833  14.960  18.078  1.00  0.00    -0.545 OA
ATOM      9  O   UNL     1      10.942  15.144  16.810  1.00  0.00    -0.545 OA
ENDBRANCH   1   7
BRANCH   2  10
ATOM     10  O   UNL     1      14.845  15.822  15.933  1.00  0.00    -0.507 OA
ATOM     11  H   UNL     1      15.381  15.497  16.725  1.00  0.00     0.293 HD
ENDBRANCH   2  10
TORSDOF 2
ENDMDL
