MODEL 1
REMARK VINA RESULT:    -4.079      0.000      0.000
REMARK INTER + INTRA:          -9.305
REMARK INTER:                  -7.417
REMARK INTRA:                  -1.888
REMARK UNBOUND:                -1.888
REMARK SMILES CCCCCC=CCC=CCCCCCCCC(=O)[O-]
REMARK SMILES IDX 11 1 12 2 13 3 14 4 15 5 16 6 17 7 18 8 19 9 20 10 10 11
REMARK SMILES IDX 9 12 8 13 7 14 6 15 5 16 4 17 3 18 2 19 1 20
REMARK H PARENT
REMARK Flexibility Score: inf
ROOT
ATOM      1  C   UNL     1      42.753  20.639  -0.789  1.00  0.00     0.027 C 
ENDROOT
BRANCH   1   2
ATOM      2  C   UNL     1      41.630  19.647  -0.463  1.00  0.00     0.004 C 
BRANCH   2   3
ATOM      3  C   UNL     1      40.255  20.324  -0.561  1.00  0.00     0.000 C 
BRANCH   3   4
ATOM      4  C   UNL     1      39.282  19.578  -1.492  1.00  0.00     0.000 C 
BRANCH   4   5
ATOM      5  C   UNL     1      39.850  19.220  -2.878  1.00  0.00     0.000 C 
BRANCH   5   6
ATOM      6  C   UNL     1      39.978  17.704  -3.100  1.00  0.00     0.006 C 
BRANCH   6   7
ATOM      7  C   UNL     1      41.398  17.297  -3.511  1.00  0.00     0.053 C 
BRANCH   7   8
ATOM      8  C   UNL     1      42.124  16.609  -2.397  1.00  0.00     0.041 C 
ATOM      9  O   UNL     1      41.482  15.998  -1.502  1.00  0.00    -0.550 OA
ATOM     10  O   UNL     1      43.510  16.667  -2.332  1.00  0.00    -0.550 OA
ENDBRANCH   7   8
ENDBRANCH   6   7
ENDBRANCH   5   6
ENDBRANCH   4   5
ENDBRANCH   3   4
ENDBRANCH   2   3
ENDBRANCH   1   2
BRANCH   1  11
ATOM     11  C   UNL     1      43.379  20.332  -2.122  1.00  0.00    -0.031 C 
ATOM     12  C   UNL     1      42.989  20.956  -3.242  1.00  0.00    -0.027 C 
BRANCH  12  13
ATOM     13  C   UNL     1      43.641  20.643  -4.561  1.00  0.00     0.054 C 
BRANCH  13  14
ATOM     14  C   UNL     1      44.098  19.213  -4.620  1.00  0.00    -0.027 C 
ATOM     15  C   UNL     1      44.936  18.785  -5.576  1.00  0.00    -0.031 C 
BRANCH  15  16
ATOM     16  C   UNL     1      45.405  17.356  -5.634  1.00  0.00     0.027 C 
BRANCH  16  17
ATOM     17  C   UNL     1      46.899  17.219  -5.300  1.00  0.00     0.004 C 
BRANCH  17  18
ATOM     18  C   UNL     1      47.146  16.217  -4.159  1.00  0.00     0.000 C 
BRANCH  18  19
ATOM     19  C   UNL     1      48.609  15.754  -4.088  1.00  0.00    -0.003 C 
ATOM     20  C   UNL     1      48.745  14.285  -3.689  1.00  0.00     0.004 C 
ENDBRANCH  18  19
ENDBRANCH  17  18
ENDBRANCH  16  17
ENDBRANCH  15  16
ENDBRANCH  13  14
ENDBRANCH  12  13
ENDBRANCH   1  11
TORSDOF 14
ENDMDL
MODEL 2
REMARK VINA RESULT:    -4.078      2.141      5.233
REMARK INTER + INTRA:          -9.303
REMARK INTER:                  -7.852
REMARK INTRA:                  -1.451
REMARK UNBOUND:                -1.888
REMARK SMILES CCCCCC=CCC=CCCCCCCCC(=O)[O-]
REMARK SMILES IDX 11 1 12 2 13 3 14 4 15 5 16 6 17 7 18 8 19 9 20 10 10 11
REMARK SMILES IDX 9 12 8 13 7 14 6 15 5 16 4 17 3 18 2 19 1 20
REMARK H PARENT
REMARK Flexibility Score: inf
ROOT
ATOM      1  C   UNL     1      45.535  17.966  -5.820  1.00  0.00     0.027 C 
ENDROOT
BRANCH   1   2
ATOM      2  C   UNL     1      44.457  18.400  -4.820  1.00  0.00     0.004 C 
BRANCH   2   3
ATOM      3  C   UNL     1      44.100  19.883  -5.008  1.00  0.00     0.000 C 
BRANCH   3   4
ATOM      4  C   UNL     1      42.948  20.344  -4.097  1.00  0.00     0.000 C 
BRANCH   4   5
ATOM      5  C   UNL     1      43.382  20.927  -2.740  1.00  0.00     0.000 C 
BRANCH   5   6
ATOM      6  C   UNL     1      42.804  20.154  -1.543  1.00  0.00     0.006 C 
BRANCH   6   7
ATOM      7  C   UNL     1      41.866  21.020  -0.693  1.00  0.00     0.053 C 
BRANCH   7   8
ATOM      8  C   UNL     1      40.451  20.533  -0.754  1.00  0.00     0.041 C 
ATOM      9  O   UNL     1      39.645  20.806   0.174  1.00  0.00    -0.550 OA
ATOM     10  O   UNL     1      40.032  19.752  -1.823  1.00  0.00    -0.550 OA
ENDBRANCH   7   8
ENDBRANCH   6   7
ENDBRANCH   5   6
ENDBRANCH   4   5
ENDBRANCH   3   4
ENDBRANCH   2   3
ENDBRANCH   1   2
BRANCH   1  11
ATOM     11  C   UNL     1      46.662  17.251  -5.128  1.00  0.00    -0.031 C 
ATOM     12  C   UNL     1      47.889  17.188  -5.664  1.00  0.00    -0.027 C 
BRANCH  12  13
ATOM     13  C   UNL     1      49.005  16.481  -4.945  1.00  0.00     0.054 C 
BRANCH  13  14
ATOM     14  C   UNL     1      48.475  15.437  -4.003  1.00  0.00    -0.027 C 
ATOM     15  C   UNL     1      49.046  14.228  -3.904  1.00  0.00    -0.031 C 
BRANCH  15  16
ATOM     16  C   UNL     1      48.525  13.182  -2.956  1.00  0.00     0.027 C 
BRANCH  16  17
ATOM     17  C   UNL     1      47.340  13.691  -2.120  1.00  0.00     0.004 C 
BRANCH  17  18
ATOM     18  C   UNL     1      46.003  13.088  -2.584  1.00  0.00     0.000 C 
BRANCH  18  19
ATOM     19  C   UNL     1      45.153  14.085  -3.386  1.00  0.00    -0.003 C 
ATOM     20  C   UNL     1      44.833  15.356  -2.599  1.00  0.00     0.004 C 
ENDBRANCH  18  19
ENDBRANCH  17  18
ENDBRANCH  16  17
ENDBRANCH  15  16
ENDBRANCH  13  14
ENDBRANCH  12  13
ENDBRANCH   1  11
TORSDOF 14
ENDMDL
MODEL 3
REMARK VINA RESULT:    -3.970      2.388      8.196
REMARK INTER + INTRA:          -9.108
REMARK INTER:                  -7.958
REMARK INTRA:                  -1.150
REMARK UNBOUND:                -1.888
REMARK SMILES CCCCCC=CCC=CCCCCCCCC(=O)[O-]
REMARK SMILES IDX 11 1 12 2 13 3 14 4 15 5 16 6 17 7 18 8 19 9 20 10 10 11
REMARK SMILES IDX 9 12 8 13 7 14 6 15 5 16 4 17 3 18 2 19 1 20
REMARK H PARENT
REMARK Flexibility Score: inf
ROOT
ATOM      1  C   UNL     1      47.834  17.062  -5.505  1.00  0.00     0.027 C 
ENDROOT
BRANCH   1   2
ATOM      2  C   UNL     1      49.304  16.645  -5.388  1.00  0.00     0.004 C 
BRANCH   2   3
ATOM      3  C   UNL     1      49.505  15.660  -4.226  1.00  0.00     0.000 C 
BRANCH   3   4
ATOM      4  C   UNL     1      50.629  14.641  -4.488  1.00  0.00     0.000 C 
BRANCH   4   5
ATOM      5  C   UNL     1      50.261  13.175  -4.193  1.00  0.00     0.000 C 
BRANCH   5   6
ATOM      6  C   UNL     1      48.782  12.992  -3.815  1.00  0.00     0.006 C 
BRANCH   6   7
ATOM      7  C   UNL     1      48.603  12.050  -2.618  1.00  0.00     0.053 C 
BRANCH   7   8
ATOM      8  C   UNL     1      47.727  12.651  -1.563  1.00  0.00     0.041 C 
ATOM      9  O   UNL     1      47.385  11.973  -0.558  1.00  0.00    -0.550 OA
ATOM     10  O   UNL     1      47.266  13.953  -1.704  1.00  0.00    -0.550 OA
ENDBRANCH   7   8
ENDBRANCH   6   7
ENDBRANCH   5   6
ENDBRANCH   4   5
ENDBRANCH   3   4
ENDBRANCH   2   3
ENDBRANCH   1   2
BRANCH   1  11
ATOM     11  C   UNL     1      47.031  16.557  -4.338  1.00  0.00    -0.031 C 
ATOM     12  C   UNL     1      45.725  16.830  -4.213  1.00  0.00    -0.027 C 
BRANCH  12  13
ATOM     13  C   UNL     1      44.939  16.301  -3.044  1.00  0.00     0.054 C 
BRANCH  13  14
ATOM     14  C   UNL     1      43.784  17.202  -2.708  1.00  0.00    -0.027 C 
ATOM     15  C   UNL     1      43.665  18.421  -3.255  1.00  0.00    -0.031 C 
BRANCH  15  16
ATOM     16  C   UNL     1      42.504  19.323  -2.930  1.00  0.00     0.027 C 
BRANCH  16  17
ATOM     17  C   UNL     1      42.689  20.051  -1.590  1.00  0.00     0.004 C 
BRANCH  17  18
ATOM     18  C   UNL     1      41.559  19.729  -0.597  1.00  0.00     0.000 C 
BRANCH  18  19
ATOM     19  C   UNL     1      40.551  20.880  -0.458  1.00  0.00    -0.003 C 
ATOM     20  C   UNL     1      39.245  20.446   0.207  1.00  0.00     0.004 C 
ENDBRANCH  18  19
ENDBRANCH  17  18
ENDBRANCH  16  17
ENDBRANCH  15  16
ENDBRANCH  13  14
ENDBRANCH  12  13
ENDBRANCH   1  11
TORSDOF 14
ENDMDL
MODEL 4
REMARK VINA RESULT:    -3.919      1.103      2.407
REMARK INTER + INTRA:          -9.015
REMARK INTER:                  -7.573
REMARK INTRA:                  -1.442
REMARK UNBOUND:                -1.888
REMARK SMILES CCCCCC=CCC=CCCCCCCCC(=O)[O-]
REMARK SMILES IDX 11 1 12 2 13 3 14 4 15 5 16 6 17 7 18 8 19 9 20 10 10 11
REMARK SMILES IDX 9 12 8 13 7 14 6 15 5 16 4 17 3 18 2 19 1 20
REMARK H PARENT
REMARK Flexibility Score: inf
ROOT
ATOM      1  C   UNL     1      42.994  21.024  -3.050  1.00  0.00     0.027 C 
ENDROOT
BRANCH   1   2
ATOM      2  C   UNL     1      43.448  20.225  -1.823  1.00  0.00     0.004 C 
BRANCH   2   3
ATOM      3  C   UNL     1      42.643  20.626  -0.578  1.00  0.00     0.000 C 
BRANCH   3   4
ATOM      4  C   UNL     1      41.232  21.141  -0.914  1.00  0.00     0.000 C 
BRANCH   4   5
ATOM      5  C   UNL     1      40.082  20.406  -0.199  1.00  0.00     0.000 C 
BRANCH   5   6
ATOM      6  C   UNL     1      39.155  19.655  -1.170  1.00  0.00     0.006 C 
BRANCH   6   7
ATOM      7  C   UNL     1      39.812  19.428  -2.537  1.00  0.00     0.053 C 
BRANCH   7   8
ATOM      8  C   UNL     1      40.293  18.019  -2.696  1.00  0.00     0.041 C 
ATOM      9  O   UNL     1      41.130  17.538  -1.887  1.00  0.00    -0.550 OA
ATOM     10  O   UNL     1      39.838  17.246  -3.756  1.00  0.00    -0.550 OA
ENDBRANCH   7   8
ENDBRANCH   6   7
ENDBRANCH   5   6
ENDBRANCH   4   5
ENDBRANCH   3   4
ENDBRANCH   2   3
ENDBRANCH   1   2
BRANCH   1  11
ATOM     11  C   UNL     1      43.670  20.531  -4.300  1.00  0.00    -0.031 C 
ATOM     12  C   UNL     1      43.839  19.223  -4.538  1.00  0.00    -0.027 C 
BRANCH  12  13
ATOM     13  C   UNL     1      44.505  18.754  -5.803  1.00  0.00     0.054 C 
BRANCH  13  14
ATOM     14  C   UNL     1      45.735  17.945  -5.506  1.00  0.00    -0.027 C 
ATOM     15  C   UNL     1      45.743  17.008  -4.547  1.00  0.00    -0.031 C 
BRANCH  15  16
ATOM     16  C   UNL     1      46.970  16.188  -4.252  1.00  0.00     0.027 C 
BRANCH  16  17
ATOM     17  C   UNL     1      48.220  16.732  -4.962  1.00  0.00     0.004 C 
BRANCH  17  18
ATOM     18  C   UNL     1      49.478  15.914  -4.624  1.00  0.00     0.000 C 
BRANCH  18  19
ATOM     19  C   UNL     1      49.158  14.645  -3.819  1.00  0.00    -0.003 C 
ATOM     20  C   UNL     1      50.051  13.464  -4.198  1.00  0.00     0.004 C 
ENDBRANCH  18  19
ENDBRANCH  17  18
ENDBRANCH  16  17
ENDBRANCH  15  16
ENDBRANCH  13  14
ENDBRANCH  12  13
ENDBRANCH   1  11
TORSDOF 14
ENDMDL
MODEL 5
REMARK VINA RESULT:    -3.913      2.119      5.202
REMARK INTER + INTRA:          -9.004
REMARK INTER:                  -7.661
REMARK INTRA:                  -1.343
REMARK UNBOUND:                -1.888
REMARK SMILES CCCCCC=CCC=CCCCCCCCC(=O)[O-]
REMARK SMILES IDX 11 1 12 2 13 3 14 4 15 5 16 6 17 7 18 8 19 9 20 10 10 11
REMARK SMILES IDX 9 12 8 13 7 14 6 15 5 16 4 17 3 18 2 19 1 20
REMARK H PARENT
REMARK Flexibility Score: inf
ROOT
ATOM      1  C   UNL     1      45.275  16.877  -4.017  1.00  0.00     0.027 C 
ENDROOT
BRANCH   1   2
ATOM      2  C   UNL     1      44.606  17.672  -5.145  1.00  0.00     0.004 C 
BRANCH   2   3
ATOM      3  C   UNL     1      44.038  18.998  -4.619  1.00  0.00     0.000 C 
BRANCH   3   4
ATOM      4  C   UNL     1      43.420  18.873  -3.214  1.00  0.00     0.000 C 
BRANCH   4   5
ATOM      5  C   UNL     1      43.028  20.208  -2.553  1.00  0.00     0.000 C 
BRANCH   5   6
ATOM      6  C   UNL     1      42.562  20.042  -1.097  1.00  0.00     0.006 C 
BRANCH   6   7
ATOM      7  C   UNL     1      41.545  21.115  -0.689  1.00  0.00     0.053 C 
BRANCH   7   8
ATOM      8  C   UNL     1      40.152  20.568  -0.633  1.00  0.00     0.041 C 
ATOM      9  O   UNL     1      39.350  20.961   0.254  1.00  0.00    -0.550 OA
ATOM     10  O   UNL     1      39.749  19.603  -1.546  1.00  0.00    -0.550 OA
ENDBRANCH   7   8
ENDBRANCH   6   7
ENDBRANCH   5   6
ENDBRANCH   4   5
ENDBRANCH   3   4
ENDBRANCH   2   3
ENDBRANCH   1   2
BRANCH   1  11
ATOM     11  C   UNL     1      46.751  16.723  -4.262  1.00  0.00    -0.031 C 
ATOM     12  C   UNL     1      47.331  17.196  -5.373  1.00  0.00    -0.027 C 
BRANCH  12  13
ATOM     13  C   UNL     1      48.812  17.045  -5.589  1.00  0.00     0.054 C 
BRANCH  13  14
ATOM     14  C   UNL     1      49.400  16.027  -4.652  1.00  0.00    -0.027 C 
ATOM     15  C   UNL     1      49.820  14.832  -5.092  1.00  0.00    -0.031 C 
BRANCH  15  16
ATOM     16  C   UNL     1      50.419  13.813  -4.160  1.00  0.00     0.027 C 
BRANCH  16  17
ATOM     17  C   UNL     1      49.723  12.446  -4.264  1.00  0.00     0.004 C 
BRANCH  17  18
ATOM     18  C   UNL     1      48.876  12.133  -3.019  1.00  0.00     0.000 C 
BRANCH  18  19
ATOM     19  C   UNL     1      47.485  12.783  -3.072  1.00  0.00    -0.003 C 
ATOM     20  C   UNL     1      47.282  13.835  -1.982  1.00  0.00     0.004 C 
ENDBRANCH  18  19
ENDBRANCH  17  18
ENDBRANCH  16  17
ENDBRANCH  15  16
ENDBRANCH  13  14
ENDBRANCH  12  13
ENDBRANCH   1  11
TORSDOF 14
ENDMDL
MODEL 6
REMARK VINA RESULT:    -3.896      1.802      2.874
REMARK INTER + INTRA:          -8.974
REMARK INTER:                  -6.611
REMARK INTRA:                  -2.363
REMARK UNBOUND:                -1.888
REMARK SMILES CCCCCC=CCC=CCCCCCCCC(=O)[O-]
REMARK SMILES IDX 11 1 12 2 13 3 14 4 15 5 16 6 17 7 18 8 19 9 20 10 10 11
REMARK SMILES IDX 9 12 8 13 7 14 6 15 5 16 4 17 3 18 2 19 1 20
REMARK H PARENT
REMARK Flexibility Score: inf
ROOT
ATOM      1  C   UNL     1      42.683  21.030  -2.581  1.00  0.00     0.027 C 
ENDROOT
BRANCH   1   2
ATOM      2  C   UNL     1      43.079  20.457  -1.215  1.00  0.00     0.004 C 
BRANCH   2   3
ATOM      3  C   UNL     1      41.902  19.711  -0.570  1.00  0.00     0.000 C 
BRANCH   3   4
ATOM      4  C   UNL     1      40.612  20.550  -0.523  1.00  0.00     0.000 C 
BRANCH   4   5
ATOM      5  C   UNL     1      39.391  19.908  -1.209  1.00  0.00     0.000 C 
BRANCH   5   6
ATOM      6  C   UNL     1      39.771  18.752  -2.149  1.00  0.00     0.006 C 
BRANCH   6   7
ATOM      7  C   UNL     1      39.412  19.053  -3.610  1.00  0.00     0.053 C 
BRANCH   7   8
ATOM      8  C   UNL     1      40.057  18.084  -4.552  1.00  0.00     0.041 C 
ATOM      9  O   UNL     1      40.865  18.491  -5.428  1.00  0.00    -0.550 OA
ATOM     10  O   UNL     1      39.743  16.733  -4.480  1.00  0.00    -0.550 OA
ENDBRANCH   7   8
ENDBRANCH   6   7
ENDBRANCH   5   6
ENDBRANCH   4   5
ENDBRANCH   3   4
ENDBRANCH   2   3
ENDBRANCH   1   2
BRANCH   1  11
ATOM     11  C   UNL     1      43.223  20.185  -3.702  1.00  0.00    -0.031 C 
ATOM     12  C   UNL     1      43.869  20.729  -4.743  1.00  0.00    -0.027 C 
BRANCH  12  13
ATOM     13  C   UNL     1      44.414  19.862  -5.845  1.00  0.00     0.054 C 
BRANCH  13  14
ATOM     14  C   UNL     1      44.767  18.492  -5.339  1.00  0.00    -0.027 C 
ATOM     15  C   UNL     1      45.976  17.955  -5.557  1.00  0.00    -0.031 C 
BRANCH  15  16
ATOM     16  C   UNL     1      46.339  16.588  -5.044  1.00  0.00     0.027 C 
BRANCH  16  17
ATOM     17  C   UNL     1      45.099  15.729  -4.746  1.00  0.00     0.004 C 
BRANCH  17  18
ATOM     18  C   UNL     1      44.988  15.374  -3.254  1.00  0.00     0.000 C 
BRANCH  18  19
ATOM     19  C   UNL     1      44.443  16.536  -2.410  1.00  0.00    -0.003 C 
ATOM     20  C   UNL     1      42.925  16.682  -2.513  1.00  0.00     0.004 C 
ENDBRANCH  18  19
ENDBRANCH  17  18
ENDBRANCH  16  17
ENDBRANCH  15  16
ENDBRANCH  13  14
ENDBRANCH  12  13
ENDBRANCH   1  11
TORSDOF 14
ENDMDL
MODEL 7
REMARK VINA RESULT:    -3.895      1.778      5.889
REMARK INTER + INTRA:          -8.972
REMARK INTER:                  -7.132
REMARK INTRA:                  -1.840
REMARK UNBOUND:                -1.888
REMARK SMILES CCCCCC=CCC=CCCCCCCCC(=O)[O-]
REMARK SMILES IDX 11 1 12 2 13 3 14 4 15 5 16 6 17 7 18 8 19 9 20 10 10 11
REMARK SMILES IDX 9 12 8 13 7 14 6 15 5 16 4 17 3 18 2 19 1 20
REMARK H PARENT
REMARK Flexibility Score: inf
ROOT
ATOM      1  C   UNL     1      46.203  16.648  -5.403  1.00  0.00     0.027 C 
ENDROOT
BRANCH   1   2
ATOM      2  C   UNL     1      44.968  15.812  -5.046  1.00  0.00     0.004 C 
BRANCH   2   3
ATOM      3  C   UNL     1      45.192  15.029  -3.744  1.00  0.00     0.000 C 
BRANCH   3   4
ATOM      4  C   UNL     1      44.016  15.150  -2.759  1.00  0.00     0.000 C 
BRANCH   4   5
ATOM      5  C   UNL     1      43.584  16.593  -2.433  1.00  0.00     0.000 C 
BRANCH   5   6
ATOM      6  C   UNL     1      42.189  16.671  -1.792  1.00  0.00     0.006 C 
BRANCH   6   7
ATOM      7  C   UNL     1      41.130  15.934  -2.622  1.00  0.00     0.053 C 
BRANCH   7   8
ATOM      8  C   UNL     1      40.442  16.850  -3.586  1.00  0.00     0.041 C 
ATOM      9  O   UNL     1      39.877  16.387  -4.611  1.00  0.00    -0.550 OA
ATOM     10  O   UNL     1      40.451  18.221  -3.366  1.00  0.00    -0.550 OA
ENDBRANCH   7   8
ENDBRANCH   6   7
ENDBRANCH   5   6
ENDBRANCH   4   5
ENDBRANCH   3   4
ENDBRANCH   2   3
ENDBRANCH   1   2
BRANCH   1  11
ATOM     11  C   UNL     1      45.813  18.027  -5.858  1.00  0.00    -0.031 C 
ATOM     12  C   UNL     1      44.753  18.664  -5.341  1.00  0.00    -0.027 C 
BRANCH  12  13
ATOM     13  C   UNL     1      44.391  20.050  -5.801  1.00  0.00     0.054 C 
BRANCH  13  14
ATOM     14  C   UNL     1      43.771  20.850  -4.691  1.00  0.00    -0.027 C 
ATOM     15  C   UNL     1      43.312  20.263  -3.576  1.00  0.00    -0.031 C 
BRANCH  15  16
ATOM     16  C   UNL     1      42.700  21.061  -2.457  1.00  0.00     0.027 C 
BRANCH  16  17
ATOM     17  C   UNL     1      42.923  20.408  -1.084  1.00  0.00     0.004 C 
BRANCH  17  18
ATOM     18  C   UNL     1      41.621  19.834  -0.498  1.00  0.00     0.000 C 
BRANCH  18  19
ATOM     19  C   UNL     1      40.514  20.892  -0.375  1.00  0.00    -0.003 C 
ATOM     20  C   UNL     1      39.130  20.278  -0.162  1.00  0.00     0.004 C 
ENDBRANCH  18  19
ENDBRANCH  17  18
ENDBRANCH  16  17
ENDBRANCH  15  16
ENDBRANCH  13  14
ENDBRANCH  12  13
ENDBRANCH   1  11
TORSDOF 14
ENDMDL
MODEL 8
REMARK VINA RESULT:    -3.798      2.798      8.097
REMARK INTER + INTRA:          -8.794
REMARK INTER:                  -7.168
REMARK INTRA:                  -1.627
REMARK UNBOUND:                -1.888
REMARK SMILES CCCCCC=CCC=CCCCCCCCC(=O)[O-]
REMARK SMILES IDX 11 1 12 2 13 3 14 4 15 5 16 6 17 7 18 8 19 9 20 10 10 11
REMARK SMILES IDX 9 12 8 13 7 14 6 15 5 16 4 17 3 18 2 19 1 20
REMARK H PARENT
REMARK Flexibility Score: inf
ROOT
ATOM      1  C   UNL     1      48.945  17.230  -5.694  1.00  0.00     0.027 C 
ENDROOT
BRANCH   1   2
ATOM      2  C   UNL     1      49.765  15.950  -5.896  1.00  0.00     0.004 C 
BRANCH   2   3
ATOM      3  C   UNL     1      50.614  15.641  -4.654  1.00  0.00     0.000 C 
BRANCH   3   4
ATOM      4  C   UNL     1      50.464  14.187  -4.168  1.00  0.00     0.000 C 
BRANCH   4   5
ATOM      5  C   UNL     1      49.488  13.324  -4.989  1.00  0.00     0.000 C 
BRANCH   5   6
ATOM      6  C   UNL     1      48.155  13.073  -4.265  1.00  0.00     0.006 C 
BRANCH   6   7
ATOM      7  C   UNL     1      48.243  13.387  -2.766  1.00  0.00     0.053 C 
BRANCH   7   8
ATOM      8  C   UNL     1      48.283  12.140  -1.938  1.00  0.00     0.041 C 
ATOM      9  O   UNL     1      48.895  11.121  -2.353  1.00  0.00    -0.550 OA
ATOM     10  O   UNL     1      47.619  12.096  -0.719  1.00  0.00    -0.550 OA
ENDBRANCH   7   8
ENDBRANCH   6   7
ENDBRANCH   5   6
ENDBRANCH   4   5
ENDBRANCH   3   4
ENDBRANCH   2   3
ENDBRANCH   1   2
BRANCH   1  11
ATOM     11  C   UNL     1      47.494  16.914  -5.455  1.00  0.00    -0.031 C 
ATOM     12  C   UNL     1      47.046  16.546  -4.246  1.00  0.00    -0.027 C 
BRANCH  12  13
ATOM     13  C   UNL     1      45.587  16.250  -4.027  1.00  0.00     0.054 C 
BRANCH  13  14
ATOM     14  C   UNL     1      44.715  17.297  -4.662  1.00  0.00    -0.027 C 
ATOM     15  C   UNL     1      44.155  18.275  -3.935  1.00  0.00    -0.031 C 
BRANCH  15  16
ATOM     16  C   UNL     1      43.289  19.332  -4.567  1.00  0.00     0.027 C 
BRANCH  16  17
ATOM     17  C   UNL     1      43.554  20.729  -3.984  1.00  0.00     0.004 C 
BRANCH  17  18
ATOM     18  C   UNL     1      43.325  20.773  -2.463  1.00  0.00     0.000 C 
BRANCH  18  19
ATOM     19  C   UNL     1      41.842  20.636  -2.086  1.00  0.00    -0.003 C 
ATOM     20  C   UNL     1      41.589  20.854  -0.594  1.00  0.00     0.004 C 
ENDBRANCH  18  19
ENDBRANCH  17  18
ENDBRANCH  16  17
ENDBRANCH  15  16
ENDBRANCH  13  14
ENDBRANCH  12  13
ENDBRANCH   1  11
TORSDOF 14
ENDMDL
MODEL 9
REMARK VINA RESULT:    -3.796      1.801      5.187
REMARK INTER + INTRA:          -8.791
REMARK INTER:                  -6.041
REMARK INTRA:                  -2.750
REMARK UNBOUND:                -1.888
REMARK SMILES CCCCCC=CCC=CCCCCCCCC(=O)[O-]
REMARK SMILES IDX 11 1 12 2 13 3 14 4 15 5 16 6 17 7 18 8 19 9 20 10 10 11
REMARK SMILES IDX 9 12 8 13 7 14 6 15 5 16 4 17 3 18 2 19 1 20
REMARK H PARENT
REMARK Flexibility Score: inf
ROOT
ATOM      1  C   UNL     1      42.793  20.601  -0.500  1.00  0.00     0.027 C 
ENDROOT
BRANCH   1   2
ATOM      2  C   UNL     1      43.414  20.760  -1.893  1.00  0.00     0.004 C 
BRANCH   2   3
ATOM      3  C   UNL     1      43.066  19.563  -2.790  1.00  0.00     0.000 C 
BRANCH   3   4
ATOM      4  C   UNL     1      42.542  19.981  -4.176  1.00  0.00     0.000 C 
BRANCH   4   5
ATOM      5  C   UNL     1      43.168  19.227  -5.364  1.00  0.00     0.000 C 
BRANCH   5   6
ATOM      6  C   UNL     1      44.637  18.842  -5.123  1.00  0.00     0.006 C 
BRANCH   6   7
ATOM      7  C   UNL     1      44.882  17.341  -5.325  1.00  0.00     0.053 C 
BRANCH   7   8
ATOM      8  C   UNL     1      46.029  16.849  -4.498  1.00  0.00     0.041 C 
ATOM      9  O   UNL     1      47.211  17.162  -4.799  1.00  0.00    -0.550 OA
ATOM     10  O   UNL     1      45.793  16.019  -3.410  1.00  0.00    -0.550 OA
ENDBRANCH   7   8
ENDBRANCH   6   7
ENDBRANCH   5   6
ENDBRANCH   4   5
ENDBRANCH   3   4
ENDBRANCH   2   3
ENDBRANCH   1   2
BRANCH   1  11
ATOM     11  C   UNL     1      41.427  19.977  -0.583  1.00  0.00    -0.031 C 
ATOM     12  C   UNL     1      40.314  20.724  -0.614  1.00  0.00    -0.027 C 
BRANCH  12  13
ATOM     13  C   UNL     1      38.959  20.078  -0.713  1.00  0.00     0.054 C 
BRANCH  13  14
ATOM     14  C   UNL     1      38.956  18.965  -1.722  1.00  0.00    -0.027 C 
ATOM     15  C   UNL     1      39.061  19.211  -3.037  1.00  0.00    -0.031 C 
BRANCH  15  16
ATOM     16  C   UNL     1      39.069  18.099  -4.051  1.00  0.00     0.027 C 
BRANCH  16  17
ATOM     17  C   UNL     1      39.703  16.811  -3.501  1.00  0.00     0.004 C 
BRANCH  17  18
ATOM     18  C   UNL     1      41.032  16.478  -4.199  1.00  0.00     0.000 C 
BRANCH  18  19
ATOM     19  C   UNL     1      42.119  16.023  -3.212  1.00  0.00    -0.003 C 
ATOM     20  C   UNL     1      41.774  16.353  -1.760  1.00  0.00     0.004 C 
ENDBRANCH  18  19
ENDBRANCH  17  18
ENDBRANCH  16  17
ENDBRANCH  15  16
ENDBRANCH  13  14
ENDBRANCH  12  13
ENDBRANCH   1  11
TORSDOF 14
ENDMDL
