MODEL 1
REMARK VINA RESULT:    -3.891      0.000      0.000
REMARK INTER + INTRA:          -4.766
REMARK INTER:                  -4.687
REMARK INTRA:                  -0.078
REMARK UNBOUND:                -0.078
REMARK SMILES CC[C@H](C)[C@H]([NH3+])C(=O)[O-]
REMARK SMILES IDX 3 1 4 2 5 3 6 4 7 8 8 9 9 10 2 11 1 12
REMARK H PARENT 6 5 6 6 6 7
REMARK Flexibility Score: inf
ROOT
ATOM      1  C   UNL     1     158.729 165.348 167.819  1.00  0.00     0.050 C 
ATOM      2  C   UNL     1     157.913 164.482 166.837  1.00  0.00     0.014 C 
ENDROOT
BRANCH   1   3
ATOM      3  C   UNL     1     159.007 166.759 167.207  1.00  0.00     0.230 C 
BRANCH   3   4
ATOM      4  N   UNL     1     160.425 167.135 167.310  1.00  0.00    -0.350 N 
ATOM      5  H   UNL     1     160.574 167.798 168.103  1.00  0.00     0.345 HD
ATOM      6  H   UNL     1     161.019 166.285 167.438  1.00  0.00     0.345 HD
ATOM      7  H   UNL     1     160.736 167.595 166.422  1.00  0.00     0.345 HD
ENDBRANCH   3   4
BRANCH   3   8
ATOM      8  C   UNL     1     158.168 167.817 167.881  1.00  0.00     0.099 C 
ATOM      9  O   UNL     1     157.981 168.929 167.321  1.00  0.00    -0.544 OA
ATOM     10  O   UNL     1     157.598 167.570 169.125  1.00  0.00    -0.544 OA
ENDBRANCH   3   8
ENDBRANCH   1   3
BRANCH   1  11
ATOM     11  C   UNL     1     160.039 164.596 168.198  1.00  0.00     0.006 C 
ATOM     12  C   UNL     1     159.771 163.283 168.936  1.00  0.00     0.004 C 
ENDBRANCH   1  11
TORSDOF 4
ENDMDL
MODEL 2
REMARK VINA RESULT:    -3.857     17.226     18.111
REMARK INTER + INTRA:          -4.724
REMARK INTER:                  -4.623
REMARK INTRA:                  -0.101
REMARK UNBOUND:                -0.078
REMARK SMILES CC[C@H](C)[C@H]([NH3+])C(=O)[O-]
REMARK SMILES IDX 3 1 4 2 5 3 6 4 7 8 8 9 9 10 2 11 1 12
REMARK H PARENT 6 5 6 6 6 7
REMARK Flexibility Score: inf
ROOT
ATOM      1  C   UNL     1     159.422 165.627 149.989  1.00  0.00     0.050 C 
ATOM      2  C   UNL     1     160.478 165.813 148.880  1.00  0.00     0.014 C 
ENDROOT
BRANCH   1   3
ATOM      3  C   UNL     1     158.544 164.365 149.706  1.00  0.00     0.230 C 
BRANCH   3   4
ATOM      4  N   UNL     1     157.139 164.574 150.085  1.00  0.00    -0.350 N 
ATOM      5  H   UNL     1     156.510 163.950 149.532  1.00  0.00     0.345 HD
ATOM      6  H   UNL     1     157.007 164.400 151.106  1.00  0.00     0.345 HD
ATOM      7  H   UNL     1     156.867 165.570 149.907  1.00  0.00     0.345 HD
ENDBRANCH   3   4
BRANCH   3   8
ATOM      8  C   UNL     1     159.077 163.159 150.441  1.00  0.00     0.099 C 
ATOM      9  O   UNL     1     159.443 163.260 151.641  1.00  0.00    -0.544 OA
ATOM     10  O   UNL     1     159.167 161.931 149.797  1.00  0.00    -0.544 OA
ENDBRANCH   3   8
ENDBRANCH   1   3
BRANCH   1  11
ATOM     11  C   UNL     1     158.573 166.927 150.111  1.00  0.00     0.006 C 
ATOM     12  C   UNL     1     158.829 167.677 151.419  1.00  0.00     0.004 C 
ENDBRANCH   1  11
TORSDOF 4
ENDMDL
MODEL 3
REMARK VINA RESULT:    -3.849     22.086     22.897
REMARK INTER + INTRA:          -4.715
REMARK INTER:                  -4.622
REMARK INTRA:                  -0.093
REMARK UNBOUND:                -0.078
REMARK SMILES CC[C@H](C)[C@H]([NH3+])C(=O)[O-]
REMARK SMILES IDX 3 1 4 2 5 3 6 4 7 8 8 9 9 10 2 11 1 12
REMARK H PARENT 6 5 6 6 6 7
REMARK Flexibility Score: inf
ROOT
ATOM      1  C   UNL     1     158.006 151.556 149.305  1.00  0.00     0.050 C 
ATOM      2  C   UNL     1     158.671 150.174 149.140  1.00  0.00     0.014 C 
ENDROOT
BRANCH   1   3
ATOM      3  C   UNL     1     158.863 152.471 150.238  1.00  0.00     0.230 C 
BRANCH   3   4
ATOM      4  N   UNL     1     158.212 152.701 151.535  1.00  0.00    -0.350 N 
ATOM      5  H   UNL     1     158.310 153.700 151.825  1.00  0.00     0.345 HD
ATOM      6  H   UNL     1     157.201 152.441 151.487  1.00  0.00     0.345 HD
ATOM      7  H   UNL     1     158.650 152.093 152.267  1.00  0.00     0.345 HD
ENDBRANCH   3   4
BRANCH   3   8
ATOM      8  C   UNL     1     159.140 153.803 149.583  1.00  0.00     0.099 C 
ATOM      9  O   UNL     1     158.190 154.499 149.137  1.00  0.00    -0.544 OA
ATOM     10  O   UNL     1     160.444 154.269 149.469  1.00  0.00    -0.544 OA
ENDBRANCH   3   8
ENDBRANCH   1   3
BRANCH   1  11
ATOM     11  C   UNL     1     156.553 151.364 149.833  1.00  0.00     0.006 C 
ATOM     12  C   UNL     1     156.222 149.900 150.127  1.00  0.00     0.004 C 
ENDBRANCH   1  11
TORSDOF 4
ENDMDL
MODEL 4
REMARK VINA RESULT:    -3.832      2.927      3.978
REMARK INTER + INTRA:          -4.695
REMARK INTER:                  -4.593
REMARK INTRA:                  -0.102
REMARK UNBOUND:                -0.078
REMARK SMILES CC[C@H](C)[C@H]([NH3+])C(=O)[O-]
REMARK SMILES IDX 3 1 4 2 5 3 6 4 7 8 8 9 9 10 2 11 1 12
REMARK H PARENT 6 5 6 6 6 7
REMARK Flexibility Score: inf
ROOT
ATOM      1  C   UNL     1     158.574 165.630 168.037  1.00  0.00     0.050 C 
ATOM      2  C   UNL     1     157.495 165.809 169.125  1.00  0.00     0.014 C 
ENDROOT
BRANCH   1   3
ATOM      3  C   UNL     1     159.475 164.394 168.354  1.00  0.00     0.230 C 
BRANCH   3   4
ATOM      4  N   UNL     1     160.871 164.609 167.947  1.00  0.00    -0.350 N 
ATOM      5  H   UNL     1     160.996 164.402 166.931  1.00  0.00     0.345 HD
ATOM      6  H   UNL     1     161.162 165.592 168.148  1.00  0.00     0.345 HD
ATOM      7  H   UNL     1     161.504 163.984 168.499  1.00  0.00     0.345 HD
ENDBRANCH   3   4
BRANCH   3   8
ATOM      8  C   UNL     1     158.952 163.152 167.674  1.00  0.00     0.099 C 
ATOM      9  O   UNL     1     158.649 163.179 166.452  1.00  0.00    -0.544 OA
ATOM     10  O   UNL     1     158.799 161.972 168.393  1.00  0.00    -0.544 OA
ENDBRANCH   3   8
ENDBRANCH   1   3
BRANCH   1  11
ATOM     11  C   UNL     1     159.395 166.947 167.908  1.00  0.00     0.006 C 
ATOM     12  C   UNL     1     159.186 167.641 166.561  1.00  0.00     0.004 C 
ENDBRANCH   1  11
TORSDOF 4
ENDMDL
MODEL 5
REMARK VINA RESULT:    -3.819     21.095     21.997
REMARK INTER + INTRA:          -4.679
REMARK INTER:                  -4.578
REMARK INTRA:                  -0.101
REMARK UNBOUND:                -0.078
REMARK SMILES CC[C@H](C)[C@H]([NH3+])C(=O)[O-]
REMARK SMILES IDX 3 1 4 2 5 3 6 4 7 8 8 9 9 10 2 11 1 12
REMARK H PARENT 6 5 6 6 6 7
REMARK Flexibility Score: inf
ROOT
ATOM      1  C   UNL     1     158.566 152.368 149.974  1.00  0.00     0.050 C 
ATOM      2  C   UNL     1     157.506 152.149 148.875  1.00  0.00     0.014 C 
ENDROOT
BRANCH   1   3
ATOM      3  C   UNL     1     159.469 153.597 149.630  1.00  0.00     0.230 C 
BRANCH   3   4
ATOM      4  N   UNL     1     160.873 153.370 150.001  1.00  0.00    -0.350 N 
ATOM      5  H   UNL     1     161.480 153.341 149.150  1.00  0.00     0.345 HD
ATOM      6  H   UNL     1     161.205 154.119 150.649  1.00  0.00     0.345 HD
ATOM      7  H   UNL     1     160.965 152.461 150.511  1.00  0.00     0.345 HD
ENDBRANCH   3   4
BRANCH   3   8
ATOM      8  C   UNL     1     158.973 154.844 150.321  1.00  0.00     0.099 C 
ATOM      9  O   UNL     1     158.637 154.804 151.534  1.00  0.00    -0.544 OA
ATOM     10  O   UNL     1     158.884 156.042 149.623  1.00  0.00    -0.544 OA
ENDBRANCH   3   8
ENDBRANCH   1   3
BRANCH   1  11
ATOM     11  C   UNL     1     159.389 151.059 150.160  1.00  0.00     0.006 C 
ATOM     12  C   UNL     1     159.113 150.375 151.500  1.00  0.00     0.004 C 
ENDBRANCH   1  11
TORSDOF 4
ENDMDL
MODEL 6
REMARK VINA RESULT:    -3.817     11.762     13.208
REMARK INTER + INTRA:          -4.676
REMARK INTER:                  -4.579
REMARK INTRA:                  -0.097
REMARK UNBOUND:                -0.078
REMARK SMILES CC[C@H](C)[C@H]([NH3+])C(=O)[O-]
REMARK SMILES IDX 3 1 4 2 5 3 6 4 7 8 8 9 9 10 2 11 1 12
REMARK H PARENT 6 5 6 6 6 7
REMARK Flexibility Score: inf
ROOT
ATOM      1  C   UNL     1     159.432 152.389 168.016  1.00  0.00     0.050 C 
ATOM      2  C   UNL     1     160.477 152.151 169.125  1.00  0.00     0.014 C 
ENDROOT
BRANCH   1   3
ATOM      3  C   UNL     1     158.530 153.616 168.365  1.00  0.00     0.230 C 
BRANCH   3   4
ATOM      4  N   UNL     1     157.127 153.394 167.988  1.00  0.00    -0.350 N 
ATOM      5  H   UNL     1     157.045 152.590 167.326  1.00  0.00     0.345 HD
ATOM      6  H   UNL     1     156.545 153.218 168.837  1.00  0.00     0.345 HD
ATOM      7  H   UNL     1     156.742 154.252 167.526  1.00  0.00     0.345 HD
ENDBRANCH   3   4
BRANCH   3   8
ATOM      8  C   UNL     1     159.030 154.867 167.683  1.00  0.00     0.099 C 
ATOM      9  O   UNL     1     159.350 154.840 166.466  1.00  0.00    -0.544 OA
ATOM     10  O   UNL     1     159.141 156.055 168.396  1.00  0.00    -0.544 OA
ENDBRANCH   3   8
ENDBRANCH   1   3
BRANCH   1  11
ATOM     11  C   UNL     1     158.606 151.086 167.802  1.00  0.00     0.006 C 
ATOM     12  C   UNL     1     158.982 150.357 166.511  1.00  0.00     0.004 C 
ENDBRANCH   1  11
TORSDOF 4
ENDMDL
MODEL 7
REMARK VINA RESULT:    -3.814     22.161     23.124
REMARK INTER + INTRA:          -4.673
REMARK INTER:                  -4.603
REMARK INTRA:                  -0.070
REMARK UNBOUND:                -0.078
REMARK SMILES CC[C@H](C)[C@H]([NH3+])C(=O)[O-]
REMARK SMILES IDX 3 1 4 2 5 3 6 4 7 8 8 9 9 10 2 11 1 12
REMARK H PARENT 6 5 6 6 6 7
REMARK Flexibility Score: inf
ROOT
ATOM      1  C   UNL     1     158.620 152.679 150.265  1.00  0.00     0.050 C 
ATOM      2  C   UNL     1     157.770 153.496 151.259  1.00  0.00     0.014 C 
ENDROOT
BRANCH   1   3
ATOM      3  C   UNL     1     158.853 151.230 150.803  1.00  0.00     0.230 C 
BRANCH   3   4
ATOM      4  N   UNL     1     160.275 150.856 150.783  1.00  0.00    -0.350 N 
ATOM      5  H   UNL     1     160.665 150.938 149.817  1.00  0.00     0.345 HD
ATOM      6  H   UNL     1     160.819 151.459 151.440  1.00  0.00     0.345 HD
ATOM      7  H   UNL     1     160.388 149.868 151.109  1.00  0.00     0.345 HD
ENDBRANCH   3   4
BRANCH   3   8
ATOM      8  C   UNL     1     158.069 150.221 149.999  1.00  0.00     0.099 C 
ATOM      9  O   UNL     1     156.899 149.909 150.344  1.00  0.00    -0.544 OA
ATOM     10  O   UNL     1     158.634 149.630 148.875  1.00  0.00    -0.544 OA
ENDBRANCH   3   8
ENDBRANCH   1   3
BRANCH   1  11
ATOM     11  C   UNL     1     159.955 153.433 149.992  1.00  0.00     0.006 C 
ATOM     12  C   UNL     1     159.748 154.730 149.208  1.00  0.00     0.004 C 
ENDBRANCH   1  11
TORSDOF 4
ENDMDL
MODEL 8
REMARK VINA RESULT:    -3.812     18.027     18.499
REMARK INTER + INTRA:          -4.670
REMARK INTER:                  -4.581
REMARK INTRA:                  -0.089
REMARK UNBOUND:                -0.078
REMARK SMILES CC[C@H](C)[C@H]([NH3+])C(=O)[O-]
REMARK SMILES IDX 3 1 4 2 5 3 6 4 7 8 8 9 9 10 2 11 1 12
REMARK H PARENT 6 5 6 6 6 7
REMARK Flexibility Score: inf
ROOT
ATOM      1  C   UNL     1     160.029 166.445 149.311  1.00  0.00     0.050 C 
ATOM      2  C   UNL     1     159.321 167.809 149.182  1.00  0.00     0.014 C 
ENDROOT
BRANCH   1   3
ATOM      3  C   UNL     1     159.148 165.443 150.124  1.00  0.00     0.230 C 
BRANCH   3   4
ATOM      4  N   UNL     1     159.695 165.191 151.466  1.00  0.00    -0.350 N 
ATOM      5  H   UNL     1     160.341 164.370 151.453  1.00  0.00     0.345 HD
ATOM      6  H   UNL     1     160.198 166.036 151.819  1.00  0.00     0.345 HD
ATOM      7  H   UNL     1     158.915 164.996 152.137  1.00  0.00     0.345 HD
ENDBRANCH   3   4
BRANCH   3   8
ATOM      8  C   UNL     1     159.010 164.128 149.396  1.00  0.00     0.099 C 
ATOM      9  O   UNL     1     160.033 163.524 148.979  1.00  0.00    -0.544 OA
ATOM     10  O   UNL     1     157.752 163.578 149.178  1.00  0.00    -0.544 OA
ENDBRANCH   3   8
ENDBRANCH   1   3
BRANCH   1  11
ATOM     11  C   UNL     1     161.433 166.655 149.949  1.00  0.00     0.006 C 
ATOM     12  C   UNL     1     161.788 168.134 150.117  1.00  0.00     0.004 C 
ENDBRANCH   1  11
TORSDOF 4
ENDMDL
MODEL 9
REMARK VINA RESULT:    -3.668     17.544     18.067
REMARK INTER + INTRA:          -4.497
REMARK INTER:                  -4.425
REMARK INTRA:                  -0.072
REMARK UNBOUND:                -0.078
REMARK SMILES CC[C@H](C)[C@H]([NH3+])C(=O)[O-]
REMARK SMILES IDX 3 1 4 2 5 3 6 4 7 8 8 9 9 10 2 11 1 12
REMARK H PARENT 6 5 6 6 6 7
REMARK Flexibility Score: inf
ROOT
ATOM      1  C   UNL     1     159.097 165.347 149.417  1.00  0.00     0.050 C 
ATOM      2  C   UNL     1     160.541 164.973 149.025  1.00  0.00     0.014 C 
ENDROOT
BRANCH   1   3
ATOM      3  C   UNL     1     159.091 166.554 150.409  1.00  0.00     0.230 C 
BRANCH   3   4
ATOM      4  N   UNL     1     157.727 166.981 150.751  1.00  0.00    -0.350 N 
ATOM      5  H   UNL     1     157.558 167.964 150.440  1.00  0.00     0.345 HD
ATOM      6  H   UNL     1     157.025 166.343 150.314  1.00  0.00     0.345 HD
ATOM      7  H   UNL     1     157.586 166.926 151.788  1.00  0.00     0.345 HD
ENDBRANCH   3   4
BRANCH   3   8
ATOM      8  C   UNL     1     159.844 167.730 149.835  1.00  0.00     0.099 C 
ATOM      9  O   UNL     1     159.359 168.385 148.875  1.00  0.00    -0.544 OA
ATOM     10  O   UNL     1     161.077 168.096 150.362  1.00  0.00    -0.544 OA
ENDBRANCH   3   8
ENDBRANCH   1   3
BRANCH   1  11
ATOM     11  C   UNL     1     158.385 164.093 150.004  1.00  0.00     0.006 C 
ATOM     12  C   UNL     1     159.371 163.015 150.458  1.00  0.00     0.004 C 
ENDBRANCH   1  11
TORSDOF 4
ENDMDL
