MODEL 1
REMARK VINA RESULT:     1.855      0.000      0.000
REMARK INTER + INTRA:           1.856
REMARK INTER:                   2.289
REMARK INTRA:                  -0.433
REMARK UNBOUND:                -0.433
REMARK SMILES C=C(CCC=C(C)C)[C@H]1CC=C(C)CC1
REMARK SMILES IDX 3 1 2 2 1 3 9 4 13 5 12 6 11 7 14 8 10 9 15 10 4 11 5 12
REMARK SMILES IDX 6 13 7 14 8 15
REMARK H PARENT
REMARK Flexibility Score: inf
ROOT
ATOM      1  C   UNL     1     137.036 141.626 161.984  1.00  0.00     0.035 C 
ENDROOT
BRANCH   1   2
ATOM      2  C   UNL     1     135.994 140.655 162.517  1.00  0.00    -0.074 C 
ATOM      3  C   UNL     1     135.045 141.102 163.359  1.00  0.00     0.008 C 
BRANCH   2   4
ATOM      4  C   UNL     1     135.930 139.217 162.017  1.00  0.00     0.018 C 
ATOM      5  C   UNL     1     136.281 134.876 161.555  1.00  0.00     0.039 C 
ATOM      6  C   UNL     1     136.207 136.347 161.854  1.00  0.00    -0.077 C 
ATOM      7  C   UNL     1     137.293 137.118 161.632  1.00  0.00    -0.027 C 
ATOM      8  C   UNL     1     134.875 136.943 162.268  1.00  0.00     0.031 C 
ATOM      9  C   UNL     1     137.335 138.593 161.948  1.00  0.00     0.035 C 
ATOM     10  C   UNL     1     135.009 138.342 162.883  1.00  0.00     0.013 C 
ENDBRANCH   2   4
ENDBRANCH   1   2
BRANCH   1  11
ATOM     11  C   UNL     1     136.540 142.392 160.746  1.00  0.00     0.032 C 
BRANCH  11  12
ATOM     12  C   UNL     1     137.591 143.310 160.164  1.00  0.00    -0.028 C 
ATOM     13  C   UNL     1     137.433 143.959 158.991  1.00  0.00    -0.080 C 
ATOM     14  C   UNL     1     136.183 143.800 158.160  1.00  0.00     0.039 C 
ATOM     15  C   UNL     1     138.539 144.865 158.512  1.00  0.00     0.039 C 
ENDBRANCH  11  12
ENDBRANCH   1  11
TORSDOF 4
ENDMDL
MODEL 2
REMARK VINA RESULT:     3.693      2.982      5.637
REMARK INTER + INTRA:           4.124
REMARK INTER:                   4.631
REMARK INTRA:                  -0.507
REMARK UNBOUND:                -0.433
REMARK SMILES C=C(CCC=C(C)C)[C@H]1CC=C(C)CC1
REMARK SMILES IDX 3 1 2 2 1 3 9 4 13 5 12 6 11 7 14 8 10 9 15 10 4 11 5 12
REMARK SMILES IDX 6 13 7 14 8 15
REMARK H PARENT
REMARK Flexibility Score: inf
ROOT
ATOM      1  C   UNL     1     136.475 140.475 164.421  1.00  0.00     0.035 C 
ENDROOT
BRANCH   1   2
ATOM      2  C   UNL     1     135.617 140.268 163.183  1.00  0.00    -0.074 C 
ATOM      3  C   UNL     1     134.881 141.289 162.711  1.00  0.00     0.008 C 
BRANCH   2   4
ATOM      4  C   UNL     1     135.673 138.963 162.397  1.00  0.00     0.018 C 
ATOM      5  C   UNL     1     136.444 134.875 161.027  1.00  0.00     0.039 C 
ATOM      6  C   UNL     1     136.235 136.237 161.629  1.00  0.00    -0.077 C 
ATOM      7  C   UNL     1     137.221 137.154 161.534  1.00  0.00    -0.027 C 
ATOM      8  C   UNL     1     134.875 136.582 162.205  1.00  0.00     0.031 C 
ATOM      9  C   UNL     1     137.128 138.529 162.150  1.00  0.00     0.035 C 
ATOM     10  C   UNL     1     134.899 137.832 163.093  1.00  0.00     0.013 C 
ENDBRANCH   2   4
ENDBRANCH   1   2
BRANCH   1  11
ATOM     11  C   UNL     1     136.032 139.585 165.594  1.00  0.00     0.032 C 
BRANCH  11  12
ATOM     12  C   UNL     1     136.980 138.436 165.849  1.00  0.00    -0.028 C 
ATOM     13  C   UNL     1     137.028 137.767 167.020  1.00  0.00    -0.080 C 
ATOM     14  C   UNL     1     136.132 138.134 168.179  1.00  0.00     0.039 C 
ATOM     15  C   UNL     1     138.001 136.624 167.161  1.00  0.00     0.039 C 
ENDBRANCH  11  12
ENDBRANCH   1  11
TORSDOF 4
ENDMDL
