MODEL 1
REMARK VINA RESULT:    -4.344      0.000      0.000
REMARK INTER + INTRA:          -6.033
REMARK INTER:                  -5.868
REMARK INTRA:                  -0.165
REMARK UNBOUND:                -0.165
REMARK SMILES CCCCCCCC(=O)[O-]
REMARK SMILES IDX 5 1 6 2 7 3 8 4 9 5 10 6 4 7 3 8 2 9 1 10
REMARK H PARENT
REMARK Flexibility Score: inf
ROOT
ATOM      1  C   UNL     1     -30.514  -8.681  34.086  1.00  0.00     0.000 C 
ENDROOT
BRANCH   1   2
ATOM      2  C   UNL     1     -29.032  -8.972  33.774  1.00  0.00     0.006 C 
BRANCH   2   3
ATOM      3  C   UNL     1     -28.307  -9.738  34.892  1.00  0.00     0.053 C 
BRANCH   3   4
ATOM      4  C   UNL     1     -27.599 -10.956  34.385  1.00  0.00     0.041 C 
ATOM      5  O   UNL     1     -27.644 -11.253  33.163  1.00  0.00    -0.550 OA
ATOM      6  O   UNL     1     -26.884 -11.760  35.262  1.00  0.00    -0.550 OA
ENDBRANCH   3   4
ENDBRANCH   2   3
ENDBRANCH   1   2
BRANCH   1   7
ATOM      7  C   UNL     1     -31.142  -7.676  33.104  1.00  0.00     0.000 C 
BRANCH   7   8
ATOM      8  C   UNL     1     -32.201  -6.781  33.782  1.00  0.00    -0.000 C 
BRANCH   8   9
ATOM      9  C   UNL     1     -33.624  -7.361  33.725  1.00  0.00    -0.003 C 
ATOM     10  C   UNL     1     -34.139  -7.549  32.300  1.00  0.00     0.004 C 
ENDBRANCH   8   9
ENDBRANCH   7   8
ENDBRANCH   1   7
TORSDOF 6
ENDMDL
MODEL 2
REMARK VINA RESULT:    -4.198      3.497      5.910
REMARK INTER + INTRA:          -5.835
REMARK INTER:                  -5.640
REMARK INTRA:                  -0.195
REMARK UNBOUND:                -0.165
REMARK SMILES CCCCCCCC(=O)[O-]
REMARK SMILES IDX 5 1 6 2 7 3 8 4 9 5 10 6 4 7 3 8 2 9 1 10
REMARK H PARENT
REMARK Flexibility Score: inf
ROOT
ATOM      1  C   UNL     1     -30.406  -8.908  34.016  1.00  0.00     0.000 C 
ENDROOT
BRANCH   1   2
ATOM      2  C   UNL     1     -30.986  -7.864  33.040  1.00  0.00     0.006 C 
BRANCH   2   3
ATOM      3  C   UNL     1     -32.208  -8.368  32.256  1.00  0.00     0.053 C 
BRANCH   3   4
ATOM      4  C   UNL     1     -33.485  -7.740  32.721  1.00  0.00     0.041 C 
ATOM      5  O   UNL     1     -34.246  -7.166  31.900  1.00  0.00    -0.550 OA
ATOM      6  O   UNL     1     -33.837  -7.793  34.064  1.00  0.00    -0.550 OA
ENDBRANCH   3   4
ENDBRANCH   2   3
ENDBRANCH   1   2
BRANCH   1   7
ATOM      7  C   UNL     1     -28.875  -9.032  33.914  1.00  0.00     0.000 C 
BRANCH   7   8
ATOM      8  C   UNL     1     -28.262  -9.720  35.152  1.00  0.00    -0.000 C 
BRANCH   8   9
ATOM      9  C   UNL     1     -27.822 -11.171  34.895  1.00  0.00    -0.003 C 
ATOM     10  C   UNL     1     -27.439 -11.432  33.440  1.00  0.00     0.004 C 
ENDBRANCH   8   9
ENDBRANCH   7   8
ENDBRANCH   1   7
TORSDOF 6
ENDMDL
MODEL 3
REMARK VINA RESULT:    -3.837      2.681      4.309
REMARK INTER + INTRA:          -5.348
REMARK INTER:                  -5.115
REMARK INTRA:                  -0.233
REMARK UNBOUND:                -0.165
REMARK SMILES CCCCCCCC(=O)[O-]
REMARK SMILES IDX 5 1 6 2 7 3 8 4 9 5 10 6 4 7 3 8 2 9 1 10
REMARK H PARENT
REMARK Flexibility Score: inf
ROOT
ATOM      1  C   UNL     1     -33.781  -7.103  31.890  1.00  0.00     0.000 C 
ENDROOT
BRANCH   1   2
ATOM      2  C   UNL     1     -32.602  -6.745  32.817  1.00  0.00     0.006 C 
BRANCH   2   3
ATOM      3  C   UNL     1     -31.360  -7.625  32.600  1.00  0.00     0.053 C 
BRANCH   3   4
ATOM      4  C   UNL     1     -31.072  -8.508  33.773  1.00  0.00     0.041 C 
ATOM      5  O   UNL     1     -32.008  -8.894  34.522  1.00  0.00    -0.550 OA
ATOM      6  O   UNL     1     -29.770  -8.910  34.039  1.00  0.00    -0.550 OA
ENDBRANCH   3   4
ENDBRANCH   2   3
ENDBRANCH   1   2
BRANCH   1   7
ATOM      7  C   UNL     1     -35.053  -7.488  32.667  1.00  0.00     0.000 C 
BRANCH   7   8
ATOM      8  C   UNL     1     -36.339  -7.166  31.876  1.00  0.00    -0.000 C 
BRANCH   8   9
ATOM      9  C   UNL     1     -37.576  -6.969  32.768  1.00  0.00    -0.003 C 
ATOM     10  C   UNL     1     -37.226  -6.589  34.204  1.00  0.00     0.004 C 
ENDBRANCH   8   9
ENDBRANCH   7   8
ENDBRANCH   1   7
TORSDOF 6
ENDMDL
MODEL 4
REMARK VINA RESULT:    -3.724      1.634      2.628
REMARK INTER + INTRA:          -5.195
REMARK INTER:                  -5.097
REMARK INTRA:                  -0.098
REMARK UNBOUND:                -0.165
REMARK SMILES CCCCCCCC(=O)[O-]
REMARK SMILES IDX 5 1 6 2 7 3 8 4 9 5 10 6 4 7 3 8 2 9 1 10
REMARK H PARENT
REMARK Flexibility Score: inf
ROOT
ATOM      1  C   UNL     1     -28.389  -9.948  34.648  1.00  0.00     0.000 C 
ENDROOT
BRANCH   1   2
ATOM      2  C   UNL     1     -27.483 -10.917  33.863  1.00  0.00     0.006 C 
BRANCH   2   3
ATOM      3  C   UNL     1     -26.458 -11.651  34.743  1.00  0.00     0.053 C 
BRANCH   3   4
ATOM      4  C   UNL     1     -25.063 -11.542  34.209  1.00  0.00     0.041 C 
ATOM      5  O   UNL     1     -24.868 -11.303  32.989  1.00  0.00    -0.550 OA
ATOM      6  O   UNL     1     -23.978 -11.702  35.060  1.00  0.00    -0.550 OA
ENDBRANCH   3   4
ENDBRANCH   2   3
ENDBRANCH   1   2
BRANCH   1   7
ATOM      7  C   UNL     1     -29.033  -8.877  33.750  1.00  0.00     0.000 C 
BRANCH   7   8
ATOM      8  C   UNL     1     -30.535  -8.689  34.051  1.00  0.00    -0.000 C 
BRANCH   8   9
ATOM      9  C   UNL     1     -31.225  -7.671  33.129  1.00  0.00    -0.003 C 
ATOM     10  C   UNL     1     -32.123  -6.691  33.882  1.00  0.00     0.004 C 
ENDBRANCH   8   9
ENDBRANCH   7   8
ENDBRANCH   1   7
TORSDOF 6
ENDMDL
MODEL 5
REMARK VINA RESULT:    -3.596      9.302     10.206
REMARK INTER + INTRA:          -5.022
REMARK INTER:                  -4.667
REMARK INTRA:                  -0.355
REMARK UNBOUND:                -0.165
REMARK SMILES CCCCCCCC(=O)[O-]
REMARK SMILES IDX 5 1 6 2 7 3 8 4 9 5 10 6 4 7 3 8 2 9 1 10
REMARK H PARENT
REMARK Flexibility Score: inf
ROOT
ATOM      1  C   UNL     1     -24.111 -12.902  38.224  1.00  0.00     0.000 C 
ENDROOT
BRANCH   1   2
ATOM      2  C   UNL     1     -23.841 -14.186  39.034  1.00  0.00     0.006 C 
BRANCH   2   3
ATOM      3  C   UNL     1     -22.584 -14.946  38.580  1.00  0.00     0.053 C 
BRANCH   3   4
ATOM      4  C   UNL     1     -21.540 -15.015  39.651  1.00  0.00     0.041 C 
ATOM      5  O   UNL     1     -20.370 -15.389  39.373  1.00  0.00    -0.550 OA
ATOM      6  O   UNL     1     -21.858 -14.664  40.956  1.00  0.00    -0.550 OA
ENDBRANCH   3   4
ENDBRANCH   2   3
ENDBRANCH   1   2
BRANCH   1   7
ATOM      7  C   UNL     1     -22.958 -11.886  38.319  1.00  0.00     0.000 C 
BRANCH   7   8
ATOM      8  C   UNL     1     -22.903 -11.193  39.697  1.00  0.00    -0.000 C 
BRANCH   8   9
ATOM      9  C   UNL     1     -23.482  -9.768  39.693  1.00  0.00    -0.003 C 
ATOM     10  C   UNL     1     -24.812  -9.659  40.437  1.00  0.00     0.004 C 
ENDBRANCH   8   9
ENDBRANCH   7   8
ENDBRANCH   1   7
TORSDOF 6
ENDMDL
MODEL 6
REMARK VINA RESULT:    -3.460      9.436     11.282
REMARK INTER + INTRA:          -4.838
REMARK INTER:                  -4.185
REMARK INTRA:                  -0.654
REMARK UNBOUND:                -0.165
REMARK SMILES CCCCCCCC(=O)[O-]
REMARK SMILES IDX 5 1 6 2 7 3 8 4 9 5 10 6 4 7 3 8 2 9 1 10
REMARK H PARENT
REMARK Flexibility Score: inf
ROOT
ATOM      1  C   UNL     1     -24.025 -12.784  38.291  1.00  0.00     0.000 C 
ENDROOT
BRANCH   1   2
ATOM      2  C   UNL     1     -22.758 -11.930  38.082  1.00  0.00     0.006 C 
BRANCH   2   3
ATOM      3  C   UNL     1     -22.345 -11.128  39.327  1.00  0.00     0.053 C 
BRANCH   3   4
ATOM      4  C   UNL     1     -20.898 -11.304  39.666  1.00  0.00     0.041 C 
ATOM      5  O   UNL     1     -20.464 -10.956  40.795  1.00  0.00    -0.550 OA
ATOM      6  O   UNL     1     -20.027 -11.857  38.736  1.00  0.00    -0.550 OA
ENDBRANCH   3   4
ENDBRANCH   2   3
ENDBRANCH   1   2
BRANCH   1   7
ATOM      7  C   UNL     1     -23.731 -14.124  38.988  1.00  0.00     0.000 C 
BRANCH   7   8
ATOM      8  C   UNL     1     -22.413 -14.760  38.498  1.00  0.00    -0.000 C 
BRANCH   8   9
ATOM      9  C   UNL     1     -21.413 -15.051  39.629  1.00  0.00    -0.003 C 
ATOM     10  C   UNL     1     -21.869 -14.517  40.986  1.00  0.00     0.004 C 
ENDBRANCH   8   9
ENDBRANCH   7   8
ENDBRANCH   1   7
TORSDOF 6
ENDMDL
MODEL 7
REMARK VINA RESULT:    -3.457      9.696     11.298
REMARK INTER + INTRA:          -4.835
REMARK INTER:                  -4.345
REMARK INTRA:                  -0.490
REMARK UNBOUND:                -0.165
REMARK SMILES CCCCCCCC(=O)[O-]
REMARK SMILES IDX 5 1 6 2 7 3 8 4 9 5 10 6 4 7 3 8 2 9 1 10
REMARK H PARENT
REMARK Flexibility Score: inf
ROOT
ATOM      1  C   UNL     1     -22.302 -14.483  39.069  1.00  0.00     0.000 C 
ENDROOT
BRANCH   1   2
ATOM      2  C   UNL     1     -21.837 -14.795  40.505  1.00  0.00     0.006 C 
BRANCH   2   3
ATOM      3  C   UNL     1     -22.493 -13.902  41.571  1.00  0.00     0.053 C 
BRANCH   3   4
ATOM      4  C   UNL     1     -23.060 -14.692  42.709  1.00  0.00     0.041 C 
ATOM      5  O   UNL     1     -24.174 -14.380  43.206  1.00  0.00    -0.550 OA
ATOM      6  O   UNL     1     -22.359 -15.776  43.221  1.00  0.00    -0.550 OA
ENDBRANCH   3   4
ENDBRANCH   2   3
ENDBRANCH   1   2
BRANCH   1   7
ATOM      7  C   UNL     1     -23.798 -14.132  38.990  1.00  0.00     0.000 C 
BRANCH   7   8
ATOM      8  C   UNL     1     -24.044 -12.771  38.306  1.00  0.00    -0.000 C 
BRANCH   8   9
ATOM      9  C   UNL     1     -22.829 -11.829  38.356  1.00  0.00    -0.003 C 
ATOM     10  C   UNL     1     -22.951 -10.750  39.430  1.00  0.00     0.004 C 
ENDBRANCH   8   9
ENDBRANCH   7   8
ENDBRANCH   1   7
TORSDOF 6
ENDMDL
MODEL 8
REMARK VINA RESULT:    -3.445      9.228     11.242
REMARK INTER + INTRA:          -4.818
REMARK INTER:                  -4.379
REMARK INTRA:                  -0.439
REMARK UNBOUND:                -0.165
REMARK SMILES CCCCCCCC(=O)[O-]
REMARK SMILES IDX 5 1 6 2 7 3 8 4 9 5 10 6 4 7 3 8 2 9 1 10
REMARK H PARENT
REMARK Flexibility Score: inf
ROOT
ATOM      1  C   UNL     1     -23.758 -14.056  39.000  1.00  0.00     0.000 C 
ENDROOT
BRANCH   1   2
ATOM      2  C   UNL     1     -23.878 -12.669  38.337  1.00  0.00     0.006 C 
BRANCH   2   3
ATOM      3  C   UNL     1     -22.552 -11.894  38.288  1.00  0.00     0.053 C 
BRANCH   3   4
ATOM      4  C   UNL     1     -22.398 -10.951  39.440  1.00  0.00     0.041 C 
ATOM      5  O   UNL     1     -21.343 -10.955  40.127  1.00  0.00    -0.550 OA
ATOM      6  O   UNL     1     -23.419 -10.063  39.754  1.00  0.00    -0.550 OA
ENDBRANCH   3   4
ENDBRANCH   2   3
ENDBRANCH   1   2
BRANCH   1   7
ATOM      7  C   UNL     1     -22.296 -14.481  39.230  1.00  0.00     0.000 C 
BRANCH   7   8
ATOM      8  C   UNL     1     -21.941 -14.562  40.730  1.00  0.00    -0.000 C 
BRANCH   8   9
ATOM      9  C   UNL     1     -22.994 -13.918  41.647  1.00  0.00    -0.003 C 
ATOM     10  C   UNL     1     -23.205 -14.687  42.950  1.00  0.00     0.004 C 
ENDBRANCH   8   9
ENDBRANCH   7   8
ENDBRANCH   1   7
TORSDOF 6
ENDMDL
MODEL 9
REMARK VINA RESULT:    -3.413     19.102     20.077
REMARK INTER + INTRA:          -4.775
REMARK INTER:                  -4.372
REMARK INTRA:                  -0.403
REMARK UNBOUND:                -0.165
REMARK SMILES CCCCCCCC(=O)[O-]
REMARK SMILES IDX 5 1 6 2 7 3 8 4 9 5 10 6 4 7 3 8 2 9 1 10
REMARK H PARENT
REMARK Flexibility Score: inf
ROOT
ATOM      1  C   UNL     1     -36.115   0.486  49.912  1.00  0.00     0.000 C 
ENDROOT
BRANCH   1   2
ATOM      2  C   UNL     1     -36.684  -0.704  50.711  1.00  0.00     0.006 C 
BRANCH   2   3
ATOM      3  C   UNL     1     -35.603  -1.573  51.373  1.00  0.00     0.053 C 
BRANCH   3   4
ATOM      4  C   UNL     1     -35.071  -2.626  50.451  1.00  0.00     0.041 C 
ATOM      5  O   UNL     1     -35.641  -3.746  50.371  1.00  0.00    -0.550 OA
ATOM      6  O   UNL     1     -33.948  -2.369  49.675  1.00  0.00    -0.550 OA
ENDBRANCH   3   4
ENDBRANCH   2   3
ENDBRANCH   1   2
BRANCH   1   7
ATOM      7  C   UNL     1     -34.918   1.154  50.612  1.00  0.00     0.000 C 
BRANCH   7   8
ATOM      8  C   UNL     1     -35.166   2.651  50.893  1.00  0.00    -0.000 C 
BRANCH   8   9
ATOM      9  C   UNL     1     -36.451   2.922  51.693  1.00  0.00    -0.003 C 
ATOM     10  C   UNL     1     -37.436   3.827  50.957  1.00  0.00     0.004 C 
ENDBRANCH   8   9
ENDBRANCH   7   8
ENDBRANCH   1   7
TORSDOF 6
ENDMDL
