MODEL 1
REMARK VINA RESULT:    -2.943      0.000      0.000
REMARK INTER + INTRA:          -7.103
REMARK INTER:                  -5.437
REMARK INTRA:                  -1.666
REMARK UNBOUND:                -1.666
REMARK SMILES CCCCCCCCCCCCCCCCO
REMARK SMILES IDX 9 1 8 2 7 3 6 4 5 5 4 6 3 7 2 8 1 9 10 10 11 11 12 12 13 13
REMARK SMILES IDX 14 14 15 15 16 16 17 17
REMARK H PARENT 17 18
REMARK Flexibility Score: inf
ROOT
ATOM      1  C   UNL     1     114.751 114.737 112.715  1.00  0.00     0.000 C 
ENDROOT
BRANCH   1   2
ATOM      2  C   UNL     1     114.025 115.876 111.982  1.00  0.00    -0.000 C 
BRANCH   2   3
ATOM      3  C   UNL     1     113.991 117.148 112.837  1.00  0.00    -0.000 C 
BRANCH   3   4
ATOM      4  C   UNL     1     114.936 117.027 114.041  1.00  0.00    -0.000 C 
BRANCH   4   5
ATOM      5  C   UNL     1     115.862 118.247 114.203  1.00  0.00    -0.000 C 
BRANCH   5   6
ATOM      6  C   UNL     1     116.162 119.013 112.901  1.00  0.00    -0.000 C 
BRANCH   6   7
ATOM      7  C   UNL     1     117.338 118.461 112.073  1.00  0.00    -0.000 C 
BRANCH   7   8
ATOM      8  C   UNL     1     118.703 118.564 112.785  1.00  0.00    -0.003 C 
ATOM      9  C   UNL     1     119.075 120.002 113.144  1.00  0.00     0.004 C 
ENDBRANCH   7   8
ENDBRANCH   6   7
ENDBRANCH   5   6
ENDBRANCH   4   5
ENDBRANCH   3   4
ENDBRANCH   2   3
ENDBRANCH   1   2
BRANCH   1  10
ATOM     10  C   UNL     1     115.921 114.164 111.886  1.00  0.00     0.000 C 
BRANCH  10  11
ATOM     11  C   UNL     1     117.261 114.875 112.137  1.00  0.00     0.000 C 
BRANCH  11  12
ATOM     12  C   UNL     1     118.475 113.972 111.875  1.00  0.00     0.000 C 
BRANCH  12  13
ATOM     13  C   UNL     1     119.678 114.406 112.720  1.00  0.00     0.000 C 
BRANCH  13  14
ATOM     14  C   UNL     1     119.222 115.038 114.043  1.00  0.00     0.002 C 
BRANCH  14  15
ATOM     15  C   UNL     1     118.919 113.997 115.134  1.00  0.00     0.028 C 
BRANCH  15  16
ATOM     16  C   UNL     1     120.174 113.313 115.695  1.00  0.00     0.156 C 
BRANCH  16  17
ATOM     17  O   UNL     1     120.277 111.991 115.241  1.00  0.00    -0.396 OA
ATOM     18  H   UNL     1     119.601 111.882 114.523  1.00  0.00     0.210 HD
ENDBRANCH  16  17
ENDBRANCH  15  16
ENDBRANCH  14  15
ENDBRANCH  13  14
ENDBRANCH  12  13
ENDBRANCH  11  12
ENDBRANCH  10  11
ENDBRANCH   1  10
TORSDOF 15
ENDMDL
MODEL 2
REMARK VINA RESULT:    -2.939      3.310      5.679
REMARK INTER + INTRA:          -7.096
REMARK INTER:                  -4.774
REMARK INTRA:                  -2.322
REMARK UNBOUND:                -1.666
REMARK SMILES CCCCCCCCCCCCCCCCO
REMARK SMILES IDX 9 1 8 2 7 3 6 4 5 5 4 6 3 7 2 8 1 9 10 10 11 11 12 12 13 13
REMARK SMILES IDX 14 14 15 15 16 16 17 17
REMARK H PARENT 17 18
REMARK Flexibility Score: inf
ROOT
ATOM      1  C   UNL     1     114.147 114.969 113.103  1.00  0.00     0.000 C 
ENDROOT
BRANCH   1   2
ATOM      2  C   UNL     1     115.236 113.886 113.061  1.00  0.00    -0.000 C 
BRANCH   2   3
ATOM      3  C   UNL     1     116.245 114.162 111.941  1.00  0.00    -0.000 C 
BRANCH   3   4
ATOM      4  C   UNL     1     117.604 114.586 112.517  1.00  0.00    -0.000 C 
BRANCH   4   5
ATOM      5  C   UNL     1     117.948 116.058 112.224  1.00  0.00    -0.000 C 
BRANCH   5   6
ATOM      6  C   UNL     1     118.888 116.723 113.246  1.00  0.00    -0.000 C 
BRANCH   6   7
ATOM      7  C   UNL     1     118.729 116.233 114.697  1.00  0.00    -0.000 C 
BRANCH   7   8
ATOM      8  C   UNL     1     117.512 116.839 115.429  1.00  0.00    -0.003 C 
ATOM      9  C   UNL     1     116.563 115.773 115.977  1.00  0.00     0.004 C 
ENDBRANCH   7   8
ENDBRANCH   6   7
ENDBRANCH   5   6
ENDBRANCH   4   5
ENDBRANCH   3   4
ENDBRANCH   2   3
ENDBRANCH   1   2
BRANCH   1  10
ATOM     10  C   UNL     1     114.208 115.904 111.875  1.00  0.00     0.000 C 
BRANCH  10  11
ATOM     11  C   UNL     1     113.775 117.348 112.179  1.00  0.00     0.000 C 
BRANCH  11  12
ATOM     12  C   UNL     1     114.933 118.351 112.087  1.00  0.00     0.000 C 
BRANCH  12  13
ATOM     13  C   UNL     1     115.286 118.913 113.469  1.00  0.00     0.000 C 
BRANCH  13  14
ATOM     14  C   UNL     1     114.272 118.453 114.527  1.00  0.00     0.002 C 
BRANCH  14  15
ATOM     15  C   UNL     1     113.935 119.548 115.552  1.00  0.00     0.028 C 
BRANCH  15  16
ATOM     16  C   UNL     1     112.831 120.507 115.084  1.00  0.00     0.156 C 
BRANCH  16  17
ATOM     17  O   UNL     1     111.867 119.836 114.319  1.00  0.00    -0.396 OA
ATOM     18  H   UNL     1     111.735 118.948 114.741  1.00  0.00     0.210 HD
ENDBRANCH  16  17
ENDBRANCH  15  16
ENDBRANCH  14  15
ENDBRANCH  13  14
ENDBRANCH  12  13
ENDBRANCH  11  12
ENDBRANCH  10  11
ENDBRANCH   1  10
TORSDOF 15
ENDMDL
MODEL 3
REMARK VINA RESULT:    -2.885      2.854      5.100
REMARK INTER + INTRA:          -6.996
REMARK INTER:                  -4.881
REMARK INTRA:                  -2.115
REMARK UNBOUND:                -1.666
REMARK SMILES CCCCCCCCCCCCCCCCO
REMARK SMILES IDX 9 1 8 2 7 3 6 4 5 5 4 6 3 7 2 8 1 9 10 10 11 11 12 12 13 13
REMARK SMILES IDX 14 14 15 15 16 16 17 17
REMARK H PARENT 17 18
REMARK Flexibility Score: inf
ROOT
ATOM      1  C   UNL     1     115.415 119.132 114.939  1.00  0.00     0.000 C 
ENDROOT
BRANCH   1   2
ATOM      2  C   UNL     1     114.351 119.050 113.835  1.00  0.00    -0.000 C 
BRANCH   2   3
ATOM      3  C   UNL     1     113.956 117.595 113.556  1.00  0.00    -0.000 C 
BRANCH   3   4
ATOM      4  C   UNL     1     114.176 117.239 112.078  1.00  0.00    -0.000 C 
BRANCH   4   5
ATOM      5  C   UNL     1     115.249 116.154 111.875  1.00  0.00    -0.000 C 
BRANCH   5   6
ATOM      6  C   UNL     1     115.661 115.399 113.152  1.00  0.00    -0.000 C 
BRANCH   6   7
ATOM      7  C   UNL     1     117.146 114.995 113.223  1.00  0.00    -0.000 C 
BRANCH   7   8
ATOM      8  C   UNL     1     118.055 115.792 112.264  1.00  0.00    -0.003 C 
ATOM      9  C   UNL     1     119.534 115.441 112.424  1.00  0.00     0.004 C 
ENDBRANCH   7   8
ENDBRANCH   6   7
ENDBRANCH   5   6
ENDBRANCH   4   5
ENDBRANCH   3   4
ENDBRANCH   2   3
ENDBRANCH   1   2
BRANCH   1  10
ATOM     10  C   UNL     1     116.806 118.680 114.444  1.00  0.00     0.000 C 
BRANCH  10  11
ATOM     11  C   UNL     1     117.232 119.336 113.120  1.00  0.00     0.000 C 
BRANCH  11  12
ATOM     12  C   UNL     1     118.745 119.582 113.034  1.00  0.00     0.000 C 
BRANCH  12  13
ATOM     13  C   UNL     1     119.436 119.231 114.357  1.00  0.00     0.000 C 
BRANCH  13  14
ATOM     14  C   UNL     1     120.431 120.328 114.766  1.00  0.00     0.002 C 
BRANCH  14  15
ATOM     15  C   UNL     1     120.046 121.029 116.079  1.00  0.00     0.028 C 
BRANCH  15  16
ATOM     16  C   UNL     1     118.983 120.273 116.889  1.00  0.00     0.156 C 
BRANCH  16  17
ATOM     17  O   UNL     1     117.833 121.054 117.070  1.00  0.00    -0.396 OA
ATOM     18  H   UNL     1     117.898 121.809 116.430  1.00  0.00     0.210 HD
ENDBRANCH  16  17
ENDBRANCH  15  16
ENDBRANCH  14  15
ENDBRANCH  13  14
ENDBRANCH  12  13
ENDBRANCH  11  12
ENDBRANCH  10  11
ENDBRANCH   1  10
TORSDOF 15
ENDMDL
MODEL 4
REMARK VINA RESULT:    -2.878      3.434      6.492
REMARK INTER + INTRA:          -6.984
REMARK INTER:                  -4.999
REMARK INTRA:                  -1.985
REMARK UNBOUND:                -1.666
REMARK SMILES CCCCCCCCCCCCCCCCO
REMARK SMILES IDX 9 1 8 2 7 3 6 4 5 5 4 6 3 7 2 8 1 9 10 10 11 11 12 12 13 13
REMARK SMILES IDX 14 14 15 15 16 16 17 17
REMARK H PARENT 17 18
REMARK Flexibility Score: inf
ROOT
ATOM      1  C   UNL     1     118.022 118.071 115.249  1.00  0.00     0.000 C 
ENDROOT
BRANCH   1   2
ATOM      2  C   UNL     1     118.553 116.877 114.440  1.00  0.00    -0.000 C 
BRANCH   2   3
ATOM      3  C   UNL     1     117.918 115.564 114.912  1.00  0.00    -0.000 C 
BRANCH   3   4
ATOM      4  C   UNL     1     117.737 114.588 113.741  1.00  0.00    -0.000 C 
BRANCH   4   5
ATOM      5  C   UNL     1     117.372 115.294 112.422  1.00  0.00    -0.000 C 
BRANCH   5   6
ATOM      6  C   UNL     1     115.966 114.974 111.880  1.00  0.00    -0.000 C 
BRANCH   6   7
ATOM      7  C   UNL     1     115.305 113.718 112.478  1.00  0.00    -0.000 C 
BRANCH   7   8
ATOM      8  C   UNL     1     114.017 114.011 113.276  1.00  0.00    -0.003 C 
ATOM      9  C   UNL     1     114.143 115.247 114.166  1.00  0.00     0.004 C 
ENDBRANCH   7   8
ENDBRANCH   6   7
ENDBRANCH   5   6
ENDBRANCH   4   5
ENDBRANCH   3   4
ENDBRANCH   2   3
ENDBRANCH   1   2
BRANCH   1  10
ATOM     10  C   UNL     1     117.526 119.216 114.340  1.00  0.00     0.000 C 
BRANCH  10  11
ATOM     11  C   UNL     1     117.573 118.877 112.841  1.00  0.00     0.000 C 
BRANCH  11  12
ATOM     12  C   UNL     1     116.281 119.254 112.102  1.00  0.00     0.000 C 
BRANCH  12  13
ATOM     13  C   UNL     1     115.078 118.492 112.670  1.00  0.00     0.000 C 
BRANCH  13  14
ATOM     14  C   UNL     1     114.011 119.462 113.196  1.00  0.00     0.002 C 
BRANCH  14  15
ATOM     15  C   UNL     1     113.745 119.303 114.703  1.00  0.00     0.028 C 
BRANCH  15  16
ATOM     16  C   UNL     1     112.619 120.207 115.225  1.00  0.00     0.156 C 
BRANCH  16  17
ATOM     17  O   UNL     1     112.861 121.552 114.912  1.00  0.00    -0.396 OA
ATOM     18  H   UNL     1     112.038 122.053 115.150  1.00  0.00     0.210 HD
ENDBRANCH  16  17
ENDBRANCH  15  16
ENDBRANCH  14  15
ENDBRANCH  13  14
ENDBRANCH  12  13
ENDBRANCH  11  12
ENDBRANCH  10  11
ENDBRANCH   1  10
TORSDOF 15
ENDMDL
MODEL 5
REMARK VINA RESULT:    -2.823      2.965      5.363
REMARK INTER + INTRA:          -6.883
REMARK INTER:                  -5.062
REMARK INTRA:                  -1.820
REMARK UNBOUND:                -1.666
REMARK SMILES CCCCCCCCCCCCCCCCO
REMARK SMILES IDX 9 1 8 2 7 3 6 4 5 5 4 6 3 7 2 8 1 9 10 10 11 11 12 12 13 13
REMARK SMILES IDX 14 14 15 15 16 16 17 17
REMARK H PARENT 17 18
REMARK Flexibility Score: inf
ROOT
ATOM      1  C   UNL     1     116.003 114.201 113.075  1.00  0.00     0.000 C 
ENDROOT
BRANCH   1   2
ATOM      2  C   UNL     1     116.966 114.310 111.883  1.00  0.00    -0.000 C 
BRANCH   2   3
ATOM      3  C   UNL     1     118.421 114.131 112.332  1.00  0.00    -0.000 C 
BRANCH   3   4
ATOM      4  C   UNL     1     119.267 115.357 111.958  1.00  0.00    -0.000 C 
BRANCH   4   5
ATOM      5  C   UNL     1     118.893 116.613 112.767  1.00  0.00    -0.000 C 
BRANCH   5   6
ATOM      6  C   UNL     1     118.578 117.861 111.921  1.00  0.00    -0.000 C 
BRANCH   6   7
ATOM      7  C   UNL     1     118.517 119.185 112.707  1.00  0.00    -0.000 C 
BRANCH   7   8
ATOM      8  C   UNL     1     118.776 119.024 114.220  1.00  0.00    -0.003 C 
ATOM      9  C   UNL     1     117.523 119.263 115.062  1.00  0.00     0.004 C 
ENDBRANCH   7   8
ENDBRANCH   6   7
ENDBRANCH   5   6
ENDBRANCH   4   5
ENDBRANCH   3   4
ENDBRANCH   2   3
ENDBRANCH   1   2
BRANCH   1  10
ATOM     10  C   UNL     1     114.721 115.034 112.866  1.00  0.00     0.000 C 
BRANCH  10  11
ATOM     11  C   UNL     1     114.848 116.491 113.343  1.00  0.00     0.000 C 
BRANCH  11  12
ATOM     12  C   UNL     1     114.903 117.497 112.185  1.00  0.00     0.000 C 
BRANCH  12  13
ATOM     13  C   UNL     1     114.764 118.935 112.697  1.00  0.00     0.000 C 
BRANCH  13  14
ATOM     14  C   UNL     1     113.320 119.230 113.128  1.00  0.00     0.002 C 
BRANCH  14  15
ATOM     15  C   UNL     1     113.236 120.060 114.420  1.00  0.00     0.028 C 
BRANCH  15  16
ATOM     16  C   UNL     1     113.790 119.332 115.653  1.00  0.00     0.156 C 
BRANCH  16  17
ATOM     17  O   UNL     1     114.349 120.236 116.567  1.00  0.00    -0.396 OA
ATOM     18  H   UNL     1     114.961 119.714 117.147  1.00  0.00     0.210 HD
ENDBRANCH  16  17
ENDBRANCH  15  16
ENDBRANCH  14  15
ENDBRANCH  13  14
ENDBRANCH  12  13
ENDBRANCH  11  12
ENDBRANCH  10  11
ENDBRANCH   1  10
TORSDOF 15
ENDMDL
MODEL 6
REMARK VINA RESULT:    -2.823      7.845      9.776
REMARK INTER + INTRA:          -6.881
REMARK INTER:                  -4.938
REMARK INTRA:                  -1.943
REMARK UNBOUND:                -1.666
REMARK SMILES CCCCCCCCCCCCCCCCO
REMARK SMILES IDX 9 1 8 2 7 3 6 4 5 5 4 6 3 7 2 8 1 9 10 10 11 11 12 12 13 13
REMARK SMILES IDX 14 14 15 15 16 16 17 17
REMARK H PARENT 17 18
REMARK Flexibility Score: inf
ROOT
ATOM      1  C   UNL     1     119.551 109.135 117.711  1.00  0.00     0.000 C 
ENDROOT
BRANCH   1   2
ATOM      2  C   UNL     1     120.028 109.523 119.119  1.00  0.00    -0.000 C 
BRANCH   2   3
ATOM      3  C   UNL     1     121.457 109.030 119.373  1.00  0.00    -0.000 C 
BRANCH   3   4
ATOM      4  C   UNL     1     122.334 110.155 119.943  1.00  0.00    -0.000 C 
BRANCH   4   5
ATOM      5  C   UNL     1     123.786 110.102 119.432  1.00  0.00    -0.000 C 
BRANCH   5   6
ATOM      6  C   UNL     1     123.961 110.414 117.934  1.00  0.00    -0.000 C 
BRANCH   6   7
ATOM      7  C   UNL     1     124.595 111.782 117.621  1.00  0.00    -0.000 C 
BRANCH   7   8
ATOM      8  C   UNL     1     123.739 112.667 116.690  1.00  0.00    -0.003 C 
ATOM      9  C   UNL     1     122.256 112.650 117.059  1.00  0.00     0.004 C 
ENDBRANCH   7   8
ENDBRANCH   6   7
ENDBRANCH   5   6
ENDBRANCH   4   5
ENDBRANCH   3   4
ENDBRANCH   2   3
ENDBRANCH   1   2
BRANCH   1  10
ATOM     10  C   UNL     1     120.658 109.317 116.651  1.00  0.00     0.000 C 
BRANCH  10  11
ATOM     11  C   UNL     1     120.510 108.382 115.439  1.00  0.00     0.000 C 
BRANCH  11  12
ATOM     12  C   UNL     1     121.794 107.600 115.128  1.00  0.00     0.000 C 
BRANCH  12  13
ATOM     13  C   UNL     1     122.610 107.349 116.401  1.00  0.00     0.000 C 
BRANCH  13  14
ATOM     14  C   UNL     1     124.096 107.143 116.071  1.00  0.00     0.002 C 
BRANCH  14  15
ATOM     15  C   UNL     1     124.434 107.453 114.603  1.00  0.00     0.028 C 
BRANCH  15  16
ATOM     16  C   UNL     1     125.656 108.367 114.436  1.00  0.00     0.156 C 
BRANCH  16  17
ATOM     17  O   UNL     1     125.345 109.694 114.763  1.00  0.00    -0.396 OA
ATOM     18  H   UNL     1     125.082 110.142 113.918  1.00  0.00     0.210 HD
ENDBRANCH  16  17
ENDBRANCH  15  16
ENDBRANCH  14  15
ENDBRANCH  13  14
ENDBRANCH  12  13
ENDBRANCH  11  12
ENDBRANCH  10  11
ENDBRANCH   1  10
TORSDOF 15
ENDMDL
MODEL 7
REMARK VINA RESULT:    -2.811      3.343      5.424
REMARK INTER + INTRA:          -6.860
REMARK INTER:                  -5.370
REMARK INTRA:                  -1.490
REMARK UNBOUND:                -1.666
REMARK SMILES CCCCCCCCCCCCCCCCO
REMARK SMILES IDX 9 1 8 2 7 3 6 4 5 5 4 6 3 7 2 8 1 9 10 10 11 11 12 12 13 13
REMARK SMILES IDX 14 14 15 15 16 16 17 17
REMARK H PARENT 17 18
REMARK Flexibility Score: inf
ROOT
ATOM      1  C   UNL     1     116.599 114.339 113.752  1.00  0.00     0.000 C 
ENDROOT
BRANCH   1   2
ATOM      2  C   UNL     1     118.085 114.472 113.386  1.00  0.00    -0.000 C 
BRANCH   2   3
ATOM      3  C   UNL     1     118.307 115.614 112.387  1.00  0.00    -0.000 C 
BRANCH   3   4
ATOM      4  C   UNL     1     117.674 116.918 112.894  1.00  0.00    -0.000 C 
BRANCH   4   5
ATOM      5  C   UNL     1     118.181 118.163 112.142  1.00  0.00    -0.000 C 
BRANCH   5   6
ATOM      6  C   UNL     1     118.715 119.294 113.040  1.00  0.00    -0.000 C 
BRANCH   6   7
ATOM      7  C   UNL     1     118.110 119.346 114.456  1.00  0.00    -0.000 C 
BRANCH   7   8
ATOM      8  C   UNL     1     119.111 119.783 115.546  1.00  0.00    -0.003 C 
ATOM      9  C   UNL     1     120.377 120.413 114.966  1.00  0.00     0.004 C 
ENDBRANCH   7   8
ENDBRANCH   6   7
ENDBRANCH   5   6
ENDBRANCH   4   5
ENDBRANCH   3   4
ENDBRANCH   2   3
ENDBRANCH   1   2
BRANCH   1  10
ATOM     10  C   UNL     1     115.747 113.850 112.561  1.00  0.00     0.000 C 
BRANCH  10  11
ATOM     11  C   UNL     1     114.458 114.662 112.351  1.00  0.00     0.000 C 
BRANCH  11  12
ATOM     12  C   UNL     1     114.212 115.692 113.462  1.00  0.00     0.000 C 
BRANCH  12  13
ATOM     13  C   UNL     1     114.012 117.096 112.880  1.00  0.00     0.000 C 
BRANCH  13  14
ATOM     14  C   UNL     1     114.299 118.175 113.933  1.00  0.00     0.002 C 
BRANCH  14  15
ATOM     15  C   UNL     1     113.743 119.556 113.546  1.00  0.00     0.028 C 
BRANCH  15  16
ATOM     16  C   UNL     1     113.062 120.291 114.710  1.00  0.00     0.156 C 
BRANCH  16  17
ATOM     17  O   UNL     1     111.668 120.164 114.643  1.00  0.00    -0.396 OA
ATOM     18  H   UNL     1     111.409 120.347 113.703  1.00  0.00     0.210 HD
ENDBRANCH  16  17
ENDBRANCH  15  16
ENDBRANCH  14  15
ENDBRANCH  13  14
ENDBRANCH  12  13
ENDBRANCH  11  12
ENDBRANCH  10  11
ENDBRANCH   1  10
TORSDOF 15
ENDMDL
MODEL 8
REMARK VINA RESULT:    -2.795      2.227      4.734
REMARK INTER + INTRA:          -6.831
REMARK INTER:                  -5.022
REMARK INTRA:                  -1.809
REMARK UNBOUND:                -1.666
REMARK SMILES CCCCCCCCCCCCCCCCO
REMARK SMILES IDX 9 1 8 2 7 3 6 4 5 5 4 6 3 7 2 8 1 9 10 10 11 11 12 12 13 13
REMARK SMILES IDX 14 14 15 15 16 16 17 17
REMARK H PARENT 17 18
REMARK Flexibility Score: inf
ROOT
ATOM      1  C   UNL     1     114.893 119.240 112.534  1.00  0.00     0.000 C 
ENDROOT
BRANCH   1   2
ATOM      2  C   UNL     1     116.213 118.617 112.053  1.00  0.00    -0.000 C 
BRANCH   2   3
ATOM      3  C   UNL     1     117.326 119.668 111.983  1.00  0.00    -0.000 C 
BRANCH   3   4
ATOM      4  C   UNL     1     118.314 119.500 113.147  1.00  0.00    -0.000 C 
BRANCH   4   5
ATOM      5  C   UNL     1     117.786 118.569 114.253  1.00  0.00    -0.000 C 
BRANCH   5   6
ATOM      6  C   UNL     1     118.785 117.502 114.738  1.00  0.00    -0.000 C 
BRANCH   6   7
ATOM      7  C   UNL     1     118.395 116.047 114.416  1.00  0.00    -0.000 C 
BRANCH   7   8
ATOM      8  C   UNL     1     118.361 115.731 112.906  1.00  0.00    -0.003 C 
ATOM      9  C   UNL     1     119.674 115.136 112.397  1.00  0.00     0.004 C 
ENDBRANCH   7   8
ENDBRANCH   6   7
ENDBRANCH   5   6
ENDBRANCH   4   5
ENDBRANCH   3   4
ENDBRANCH   2   3
ENDBRANCH   1   2
BRANCH   1  10
ATOM     10  C   UNL     1     113.899 118.175 113.047  1.00  0.00     0.000 C 
BRANCH  10  11
ATOM     11  C   UNL     1     114.096 117.811 114.528  1.00  0.00     0.000 C 
BRANCH  11  12
ATOM     12  C   UNL     1     114.784 116.453 114.723  1.00  0.00     0.000 C 
BRANCH  12  13
ATOM     13  C   UNL     1     114.527 115.527 113.529  1.00  0.00     0.000 C 
BRANCH  13  14
ATOM     14  C   UNL     1     114.646 114.052 113.940  1.00  0.00     0.002 C 
BRANCH  14  15
ATOM     15  C   UNL     1     113.310 113.294 113.851  1.00  0.00     0.028 C 
BRANCH  15  16
ATOM     16  C   UNL     1     112.959 112.519 115.129  1.00  0.00     0.156 C 
BRANCH  16  17
ATOM     17  O   UNL     1     114.054 112.457 116.002  1.00  0.00    -0.396 OA
ATOM     18  H   UNL     1     113.685 112.456 116.923  1.00  0.00     0.210 HD
ENDBRANCH  16  17
ENDBRANCH  15  16
ENDBRANCH  14  15
ENDBRANCH  13  14
ENDBRANCH  12  13
ENDBRANCH  11  12
ENDBRANCH  10  11
ENDBRANCH   1  10
TORSDOF 15
ENDMDL
MODEL 9
REMARK VINA RESULT:    -2.765      1.773      3.939
REMARK INTER + INTRA:          -6.774
REMARK INTER:                  -4.719
REMARK INTRA:                  -2.055
REMARK UNBOUND:                -1.666
REMARK SMILES CCCCCCCCCCCCCCCCO
REMARK SMILES IDX 9 1 8 2 7 3 6 4 5 5 4 6 3 7 2 8 1 9 10 10 11 11 12 12 13 13
REMARK SMILES IDX 14 14 15 15 16 16 17 17
REMARK H PARENT 17 18
REMARK Flexibility Score: inf
ROOT
ATOM      1  C   UNL     1     118.734 117.766 113.461  1.00  0.00     0.000 C 
ENDROOT
BRANCH   1   2
ATOM      2  C   UNL     1     117.908 119.060 113.431  1.00  0.00    -0.000 C 
BRANCH   2   3
ATOM      3  C   UNL     1     116.424 118.775 113.691  1.00  0.00    -0.000 C 
BRANCH   3   4
ATOM      4  C   UNL     1     115.620 118.813 112.384  1.00  0.00    -0.000 C 
BRANCH   4   5
ATOM      5  C   UNL     1     115.214 117.412 111.887  1.00  0.00    -0.000 C 
BRANCH   5   6
ATOM      6  C   UNL     1     114.226 116.659 112.798  1.00  0.00    -0.000 C 
BRANCH   6   7
ATOM      7  C   UNL     1     114.833 115.489 113.595  1.00  0.00    -0.000 C 
BRANCH   7   8
ATOM      8  C   UNL     1     114.389 114.098 113.095  1.00  0.00    -0.003 C 
ATOM      9  C   UNL     1     115.182 113.629 111.875  1.00  0.00     0.004 C 
ENDBRANCH   7   8
ENDBRANCH   6   7
ENDBRANCH   5   6
ENDBRANCH   4   5
ENDBRANCH   3   4
ENDBRANCH   2   3
ENDBRANCH   1   2
BRANCH   1  10
ATOM     10  C   UNL     1     118.945 117.176 112.050  1.00  0.00     0.000 C 
BRANCH  10  11
ATOM     11  C   UNL     1     118.549 115.694 111.936  1.00  0.00     0.000 C 
BRANCH  11  12
ATOM     12  C   UNL     1     119.721 114.740 112.204  1.00  0.00     0.000 C 
BRANCH  12  13
ATOM     13  C   UNL     1     119.624 114.127 113.606  1.00  0.00     0.000 C 
BRANCH  13  14
ATOM     14  C   UNL     1     118.163 114.048 114.072  1.00  0.00     0.002 C 
BRANCH  14  15
ATOM     15  C   UNL     1     117.942 114.660 115.466  1.00  0.00     0.028 C 
BRANCH  15  16
ATOM     16  C   UNL     1     116.982 113.848 116.347  1.00  0.00     0.156 C 
BRANCH  16  17
ATOM     17  O   UNL     1     116.171 114.689 117.122  1.00  0.00    -0.396 OA
ATOM     18  H   UNL     1     116.256 115.600 116.738  1.00  0.00     0.210 HD
ENDBRANCH  16  17
ENDBRANCH  15  16
ENDBRANCH  14  15
ENDBRANCH  13  14
ENDBRANCH  12  13
ENDBRANCH  11  12
ENDBRANCH  10  11
ENDBRANCH   1  10
TORSDOF 15
ENDMDL
