MODEL 1
REMARK VINA RESULT:    -4.900      0.000      0.000
REMARK INTER + INTRA:          -7.910
REMARK INTER:                  -7.478
REMARK INTRA:                  -0.432
REMARK UNBOUND:                -0.432
REMARK SMILES CC1=CCC[C@@H](C)C(=O)C[C@H](C(C)C)C(=O)C1
REMARK SMILES IDX 8 1 9 2 6 3 7 4 5 5 4 6 3 7 2 8 1 9 10 11 11 12 15 13 16 14
REMARK SMILES IDX 17 15 12 17 13 18 14 19
REMARK H PARENT
REMARK Flexibility Score: 70.00
ROOT
ATOM      1  C   UNL     1     119.036 176.580 128.893  1.00  0.00     0.136 C 
ATOM      2  O   UNL     1     119.983 176.128 129.522  1.00  0.00    -0.299 OA
ENDROOT
BRANCH   1   3
ATOM      3  C   UNL     1     117.704 175.853 128.908  1.00  0.00     0.053 C 
ATOM      4  C   UNL     1     117.357 175.457 130.347  1.00  0.00     0.016 C 
BRANCH   3   5
ATOM      5  C   UNL     1     117.704 174.608 127.996  1.00  0.00     0.015 C 
BRANCH   5   6
ATOM      6  C   UNL     1     117.378 174.889 126.519  1.00  0.00     0.028 C 
BRANCH   6   7
ATOM      7  C   UNL     1     116.406 176.028 126.306  1.00  0.00    -0.028 C 
ATOM      8  C   UNL     1     116.557 177.126 125.519  1.00  0.00    -0.070 CG0
ATOM      9  C   UNL     1     115.364 178.047 125.407  1.00  0.00     0.039 C 
ATOM     10  G   UNL     1     117.847 177.562 124.831  1.00  0.00     0.000 G0
ENDBRANCH   6   7
ENDBRANCH   5   6
ENDBRANCH   3   5
ENDBRANCH   1   3
BRANCH   1  11
ATOM     11  C   UNL     1     119.199 177.886 128.158  1.00  0.00     0.087 C 
BRANCH  11  12
ATOM     12  C   UNL     1     119.725 177.713 126.707  1.00  0.00     0.066 C 
BRANCH  12  13
ATOM     13  C   UNL     1     118.812 178.375 125.679  1.00  0.00     0.140 C 
ATOM     14  O   UNL     1     118.745 179.596 125.649  1.00  0.00    -0.299 OA
BRANCH  13  15
ATOM     15  C   UNL     1     117.857 177.568 124.835  1.00  0.00     0.106 CG0
ATOM     16  G   UNL     1     116.564 177.145 125.522  1.00  0.00     0.000 G0
ENDBRANCH  13  15
ENDBRANCH  12  13
BRANCH  12  17
ATOM     17  C   UNL     1     121.186 178.245 126.551  1.00  0.00    -0.006 C 
ATOM     18  C   UNL     1     121.812 178.636 127.902  1.00  0.00     0.008 C 
ATOM     19  C   UNL     1     122.096 177.210 125.864  1.00  0.00     0.008 C 
ENDBRANCH  12  17
ENDBRANCH  11  12
ENDBRANCH   1  11
TORSDOF 1
ENDMDL
MODEL 2
REMARK VINA RESULT:    -4.739      1.491      3.911
REMARK INTER + INTRA:          -7.664
REMARK INTER:                  -7.240
REMARK INTRA:                  -0.425
REMARK UNBOUND:                -0.432
REMARK SMILES CC1=CCC[C@@H](C)C(=O)C[C@H](C(C)C)C(=O)C1
REMARK SMILES IDX 8 1 9 2 6 3 7 4 5 5 4 6 3 7 2 8 1 9 10 11 11 12 15 13 16 14
REMARK SMILES IDX 17 15 12 17 13 18 14 19
REMARK H PARENT
REMARK Flexibility Score: 70.00
ROOT
ATOM      1  C   UNL     1     120.170 177.114 127.925  1.00  0.00     0.136 C 
ATOM      2  O   UNL     1     120.496 177.678 128.959  1.00  0.00    -0.299 OA
ENDROOT
BRANCH   1   3
ATOM      3  C   UNL     1     120.842 177.487 126.617  1.00  0.00     0.053 C 
ATOM      4  C   UNL     1     122.152 178.226 126.910  1.00  0.00     0.016 C 
BRANCH   3   5
ATOM      5  C   UNL     1     119.933 178.349 125.715  1.00  0.00     0.015 C 
BRANCH   5   6
ATOM      6  C   UNL     1     119.176 177.569 124.626  1.00  0.00     0.028 C 
BRANCH   6   7
ATOM      7  C   UNL     1     117.698 177.879 124.557  1.00  0.00    -0.028 C 
ATOM      8  C   UNL     1     116.692 177.352 125.305  1.00  0.00    -0.070 CG0
ATOM      9  C   UNL     1     115.316 177.940 125.097  1.00  0.00     0.039 C 
ATOM     10  G   UNL     1     116.811 176.160 126.248  1.00  0.00     0.000 G0
ENDBRANCH   6   7
ENDBRANCH   5   6
ENDBRANCH   3   5
ENDBRANCH   1   3
BRANCH   1  11
ATOM     11  C   UNL     1     119.141 176.013 127.982  1.00  0.00     0.087 C 
BRANCH  11  12
ATOM     12  C   UNL     1     117.826 176.438 128.691  1.00  0.00     0.066 C 
BRANCH  12  13
ATOM     13  C   UNL     1     116.635 176.456 127.737  1.00  0.00     0.140 C 
ATOM     14  O   UNL     1     115.509 176.570 128.200  1.00  0.00    -0.299 OA
BRANCH  13  15
ATOM     15  C   UNL     1     116.794 176.148 126.268  1.00  0.00     0.106 CG0
ATOM     16  G   UNL     1     116.699 177.345 125.329  1.00  0.00     0.000 G0
ENDBRANCH  13  15
ENDBRANCH  12  13
BRANCH  12  17
ATOM     17  C   UNL     1     117.513 175.534 129.926  1.00  0.00    -0.006 C 
ATOM     18  C   UNL     1     117.579 174.035 129.583  1.00  0.00     0.008 C 
ATOM     19  C   UNL     1     118.474 175.819 131.095  1.00  0.00     0.008 C 
ENDBRANCH  12  17
ENDBRANCH  11  12
ENDBRANCH   1  11
TORSDOF 1
ENDMDL
MODEL 3
REMARK VINA RESULT:    -4.569      2.059      4.389
REMARK INTER + INTRA:          -7.405
REMARK INTER:                  -6.960
REMARK INTRA:                  -0.445
REMARK UNBOUND:                -0.432
REMARK SMILES CC1=CCC[C@@H](C)C(=O)C[C@H](C(C)C)C(=O)C1
REMARK SMILES IDX 8 1 9 2 6 3 7 4 5 5 4 6 3 7 2 8 1 9 10 11 11 12 15 13 16 14
REMARK SMILES IDX 17 15 12 17 13 18 14 19
REMARK H PARENT
REMARK Flexibility Score: 70.00
ROOT
ATOM      1  C   UNL     1     119.434 177.508 129.245  1.00  0.00     0.136 C 
ATOM      2  O   UNL     1     118.997 178.345 130.022  1.00  0.00    -0.299 OA
ENDROOT
BRANCH   1   3
ATOM      3  C   UNL     1     120.901 177.124 129.295  1.00  0.00     0.053 C 
ATOM      4  C   UNL     1     121.219 176.505 130.661  1.00  0.00     0.016 C 
BRANCH   3   5
ATOM      5  C   UNL     1     121.832 178.325 129.023  1.00  0.00     0.015 C 
BRANCH   5   6
ATOM      6  C   UNL     1     121.969 178.713 127.540  1.00  0.00     0.028 C 
BRANCH   6   7
ATOM      7  C   UNL     1     122.239 177.546 126.617  1.00  0.00    -0.028 C 
ATOM      8  C   UNL     1     121.520 177.146 125.534  1.00  0.00    -0.070 CG0
ATOM      9  C   UNL     1     122.097 176.008 124.723  1.00  0.00     0.039 C 
ATOM     10  G   UNL     1     120.146 177.670 125.132  1.00  0.00     0.000 G0
ENDBRANCH   6   7
ENDBRANCH   5   6
ENDBRANCH   3   5
ENDBRANCH   1   3
BRANCH   1  11
ATOM     11  C   UNL     1     118.488 176.831 128.286  1.00  0.00     0.087 C 
BRANCH  11  12
ATOM     12  C   UNL     1     118.248 177.644 126.984  1.00  0.00     0.066 C 
BRANCH  12  13
ATOM     13  C   UNL     1     118.942 177.017 125.777  1.00  0.00     0.140 C 
ATOM     14  O   UNL     1     118.622 175.888 125.433  1.00  0.00    -0.299 OA
BRANCH  13  15
ATOM     15  C   UNL     1     120.131 177.673 125.121  1.00  0.00     0.106 CG0
ATOM     16  G   UNL     1     121.496 177.143 125.545  1.00  0.00     0.000 G0
ENDBRANCH  13  15
ENDBRANCH  12  13
BRANCH  12  17
ATOM     17  C   UNL     1     116.725 177.835 126.690  1.00  0.00    -0.006 C 
ATOM     18  C   UNL     1     115.837 177.108 127.716  1.00  0.00     0.008 C 
ATOM     19  C   UNL     1     116.336 179.325 126.663  1.00  0.00     0.008 C 
ENDBRANCH  12  17
ENDBRANCH  11  12
ENDBRANCH   1  11
TORSDOF 1
ENDMDL
MODEL 4
REMARK VINA RESULT:    -4.410      1.881      3.719
REMARK INTER + INTRA:          -7.162
REMARK INTER:                  -6.837
REMARK INTRA:                  -0.325
REMARK UNBOUND:                -0.432
REMARK SMILES CC1=CCC[C@@H](C)C(=O)C[C@H](C(C)C)C(=O)C1
REMARK SMILES IDX 8 1 9 2 6 3 7 4 5 5 4 6 3 7 2 8 1 9 10 11 11 12 15 13 16 14
REMARK SMILES IDX 17 15 12 17 13 18 14 19
REMARK H PARENT
REMARK Flexibility Score: 70.00
ROOT
ATOM      1  C   UNL     1     118.567 178.529 125.469  1.00  0.00     0.136 C 
ATOM      2  O   UNL     1     119.181 179.586 125.504  1.00  0.00    -0.299 OA
ENDROOT
BRANCH   1   3
ATOM      3  C   UNL     1     117.054 178.530 125.582  1.00  0.00     0.053 C 
ATOM      4  C   UNL     1     116.652 178.889 127.017  1.00  0.00     0.016 C 
BRANCH   3   5
ATOM      5  C   UNL     1     116.434 177.176 125.176  1.00  0.00     0.015 C 
BRANCH   5   6
ATOM      6  C   UNL     1     115.934 176.316 126.349  1.00  0.00     0.028 C 
BRANCH   6   7
ATOM      7  C   UNL     1     116.425 174.886 126.322  1.00  0.00    -0.028 C 
ATOM      8  C   UNL     1     117.490 174.350 126.978  1.00  0.00    -0.070 CG0
ATOM      9  C   UNL     1     117.674 172.855 126.856  1.00  0.00     0.039 C 
ATOM     10  G   UNL     1     118.562 175.131 127.729  1.00  0.00     0.000 G0
ENDBRANCH   6   7
ENDBRANCH   5   6
ENDBRANCH   3   5
ENDBRANCH   1   3
BRANCH   1  11
ATOM     11  C   UNL     1     119.329 177.245 125.257  1.00  0.00     0.087 C 
BRANCH  11  12
ATOM     12  C   UNL     1     120.178 176.824 126.487  1.00  0.00     0.066 C 
BRANCH  12  13
ATOM     13  C   UNL     1     119.838 175.417 126.968  1.00  0.00     0.140 C 
ATOM     14  O   UNL     1     120.527 174.480 126.588  1.00  0.00    -0.299 OA
BRANCH  13  15
ATOM     15  C   UNL     1     118.575 175.129 127.741  1.00  0.00     0.106 CG0
ATOM     16  G   UNL     1     117.497 174.362 126.983  1.00  0.00     0.000 G0
ENDBRANCH  13  15
ENDBRANCH  12  13
BRANCH  12  17
ATOM     17  C   UNL     1     121.710 176.940 126.202  1.00  0.00    -0.006 C 
ATOM     18  C   UNL     1     122.033 176.848 124.700  1.00  0.00     0.008 C 
ATOM     19  C   UNL     1     122.292 178.255 126.755  1.00  0.00     0.008 C 
ENDBRANCH  12  17
ENDBRANCH  11  12
ENDBRANCH   1  11
TORSDOF 1
ENDMDL
MODEL 5
REMARK VINA RESULT:    -4.383      1.561      2.221
REMARK INTER + INTRA:          -7.122
REMARK INTER:                  -6.779
REMARK INTRA:                  -0.343
REMARK UNBOUND:                -0.432
REMARK SMILES CC1=CCC[C@@H](C)C(=O)C[C@H](C(C)C)C(=O)C1
REMARK SMILES IDX 8 1 9 2 6 3 7 4 5 5 4 6 3 7 2 8 1 9 10 11 11 12 15 13 16 14
REMARK SMILES IDX 17 15 12 17 13 18 14 19
REMARK H PARENT
REMARK Flexibility Score: 70.00
ROOT
ATOM      1  C   UNL     1     120.861 177.875 128.699  1.00  0.00     0.136 C 
ATOM      2  O   UNL     1     121.994 178.061 129.118  1.00  0.00    -0.299 OA
ENDROOT
BRANCH   1   3
ATOM      3  C   UNL     1     119.822 177.224 129.594  1.00  0.00     0.053 C 
ATOM      4  C   UNL     1     120.026 177.698 131.037  1.00  0.00     0.016 C 
BRANCH   3   5
ATOM      5  C   UNL     1     119.871 175.683 129.525  1.00  0.00     0.015 C 
BRANCH   5   6
ATOM      6  C   UNL     1     118.716 175.035 128.742  1.00  0.00     0.028 C 
BRANCH   6   7
ATOM      7  C   UNL     1     117.536 175.951 128.507  1.00  0.00    -0.028 C 
ATOM      8  C   UNL     1     117.058 176.420 127.324  1.00  0.00    -0.070 CG0
ATOM      9  C   UNL     1     115.784 177.230 127.383  1.00  0.00     0.039 C 
ATOM     10  G   UNL     1     117.745 176.291 125.969  1.00  0.00     0.000 G0
ENDBRANCH   6   7
ENDBRANCH   5   6
ENDBRANCH   3   5
ENDBRANCH   1   3
BRANCH   1  11
ATOM     11  C   UNL     1     120.503 178.349 127.313  1.00  0.00     0.087 C 
BRANCH  11  12
ATOM     12  C   UNL     1     120.217 177.189 126.321  1.00  0.00     0.066 C 
BRANCH  12  13
ATOM     13  C   UNL     1     118.833 177.299 125.688  1.00  0.00     0.140 C 
ATOM     14  O   UNL     1     118.548 178.313 125.065  1.00  0.00    -0.299 OA
BRANCH  13  15
ATOM     15  C   UNL     1     117.753 176.283 125.966  1.00  0.00     0.106 CG0
ATOM     16  G   UNL     1     117.046 176.422 127.310  1.00  0.00     0.000 G0
ENDBRANCH  13  15
ENDBRANCH  12  13
BRANCH  12  17
ATOM     17  C   UNL     1     121.311 177.090 125.210  1.00  0.00    -0.006 C 
ATOM     18  C   UNL     1     122.732 177.277 125.773  1.00  0.00     0.008 C 
ATOM     19  C   UNL     1     121.245 175.744 124.466  1.00  0.00     0.008 C 
ENDBRANCH  12  17
ENDBRANCH  11  12
ENDBRANCH   1  11
TORSDOF 1
ENDMDL
MODEL 6
REMARK VINA RESULT:    -4.372      1.987      4.860
REMARK INTER + INTRA:          -7.104
REMARK INTER:                  -7.103
REMARK INTRA:                  -0.000
REMARK UNBOUND:                -0.432
REMARK SMILES CC1=CCC[C@@H](C)C(=O)C[C@H](C(C)C)C(=O)C1
REMARK SMILES IDX 8 1 9 2 6 3 7 4 5 5 4 6 3 7 2 8 1 9 10 11 11 12 15 13 16 14
REMARK SMILES IDX 17 15 12 17 13 18 14 19
REMARK H PARENT
REMARK Flexibility Score: 70.00
ROOT
ATOM      1  C   UNL     1     118.994 178.328 126.509  1.00  0.00     0.136 C 
ATOM      2  O   UNL     1     119.254 178.600 125.346  1.00  0.00    -0.299 OA
ENDROOT
BRANCH   1   3
ATOM      3  C   UNL     1     120.095 178.347 127.553  1.00  0.00     0.053 C 
ATOM      4  C   UNL     1     121.445 178.580 126.866  1.00  0.00     0.016 C 
BRANCH   3   5
ATOM      5  C   UNL     1     120.137 177.047 128.386  1.00  0.00     0.015 C 
BRANCH   5   6
ATOM      6  C   UNL     1     119.209 177.036 129.613  1.00  0.00     0.028 C 
BRANCH   6   7
ATOM      7  C   UNL     1     118.714 175.662 130.003  1.00  0.00    -0.028 C 
ATOM      8  C   UNL     1     117.702 174.943 129.447  1.00  0.00    -0.070 CG0
ATOM      9  C   UNL     1     117.506 173.538 129.968  1.00  0.00     0.039 C 
ATOM     10  G   UNL     1     116.691 175.463 128.430  1.00  0.00     0.000 G0
ENDBRANCH   6   7
ENDBRANCH   5   6
ENDBRANCH   3   5
ENDBRANCH   1   3
BRANCH   1  11
ATOM     11  C   UNL     1     117.566 178.035 126.893  1.00  0.00     0.087 C 
BRANCH  11  12
ATOM     12  C   UNL     1     116.979 176.791 126.170  1.00  0.00     0.066 C 
BRANCH  12  13
ATOM     13  C   UNL     1     117.121 175.520 127.002  1.00  0.00     0.140 C 
ATOM     14  O   UNL     1     117.468 174.487 126.448  1.00  0.00    -0.299 OA
BRANCH  13  15
ATOM     15  C   UNL     1     116.665 175.461 128.439  1.00  0.00     0.106 CG0
ATOM     16  G   UNL     1     117.695 174.944 129.438  1.00  0.00     0.000 G0
ENDBRANCH  13  15
ENDBRANCH  12  13
BRANCH  12  17
ATOM     17  C   UNL     1     115.486 177.006 125.764  1.00  0.00    -0.006 C 
ATOM     18  C   UNL     1     114.719 177.858 126.791  1.00  0.00     0.008 C 
ATOM     19  C   UNL     1     115.364 177.669 124.380  1.00  0.00     0.008 C 
ENDBRANCH  12  17
ENDBRANCH  11  12
ENDBRANCH   1  11
TORSDOF 1
ENDMDL
MODEL 7
REMARK VINA RESULT:    -4.366      2.289      4.244
REMARK INTER + INTRA:          -7.095
REMARK INTER:                  -6.691
REMARK INTRA:                  -0.404
REMARK UNBOUND:                -0.432
REMARK SMILES CC1=CCC[C@@H](C)C(=O)C[C@H](C(C)C)C(=O)C1
REMARK SMILES IDX 8 1 9 2 6 3 7 4 5 5 4 6 3 7 2 8 1 9 10 11 11 12 15 13 16 14
REMARK SMILES IDX 17 15 12 17 13 18 14 19
REMARK H PARENT
REMARK Flexibility Score: 70.00
ROOT
ATOM      1  C   UNL     1     117.410 177.271 127.785  1.00  0.00     0.136 C 
ATOM      2  O   UNL     1     116.691 176.619 128.528  1.00  0.00    -0.299 OA
ENDROOT
BRANCH   1   3
ATOM      3  C   UNL     1     117.125 177.303 126.295  1.00  0.00     0.053 C 
ATOM      4  C   UNL     1     115.754 176.674 126.025  1.00  0.00     0.016 C 
BRANCH   3   5
ATOM      5  C   UNL     1     118.215 176.581 125.474  1.00  0.00     0.015 C 
BRANCH   5   6
ATOM      6  C   UNL     1     119.125 177.510 124.651  1.00  0.00     0.028 C 
BRANCH   6   7
ATOM      7  C   UNL     1     120.597 177.177 124.746  1.00  0.00    -0.028 C 
ATOM      8  C   UNL     1     121.470 177.500 125.737  1.00  0.00    -0.070 CG0
ATOM      9  C   UNL     1     122.864 176.929 125.623  1.00  0.00     0.039 C 
ATOM     10  G   UNL     1     121.199 178.464 126.887  1.00  0.00     0.000 G0
ENDBRANCH   6   7
ENDBRANCH   5   6
ENDBRANCH   3   5
ENDBRANCH   1   3
BRANCH   1  11
ATOM     11  C   UNL     1     118.537 178.079 128.377  1.00  0.00     0.087 C 
BRANCH  11  12
ATOM     12  C   UNL     1     119.780 177.224 128.742  1.00  0.00     0.066 C 
BRANCH  12  13
ATOM     13  C   UNL     1     121.080 177.857 128.254  1.00  0.00     0.140 C 
ATOM     14  O   UNL     1     122.001 178.000 129.046  1.00  0.00    -0.299 OA
BRANCH  13  15
ATOM     15  C   UNL     1     121.191 178.477 126.883  1.00  0.00     0.106 CG0
ATOM     16  G   UNL     1     121.460 177.507 125.738  1.00  0.00     0.000 G0
ENDBRANCH  13  15
ENDBRANCH  12  13
BRANCH  12  17
ATOM     17  C   UNL     1     119.862 176.942 130.277  1.00  0.00    -0.006 C 
ATOM     18  C   UNL     1     119.315 178.112 131.114  1.00  0.00     0.008 C 
ATOM     19  C   UNL     1     119.101 175.659 130.659  1.00  0.00     0.008 C 
ENDBRANCH  12  17
ENDBRANCH  11  12
ENDBRANCH   1  11
TORSDOF 1
ENDMDL
MODEL 8
REMARK VINA RESULT:    -4.279      2.158      4.696
REMARK INTER + INTRA:          -6.963
REMARK INTER:                  -6.681
REMARK INTRA:                  -0.281
REMARK UNBOUND:                -0.432
REMARK SMILES CC1=CCC[C@@H](C)C(=O)C[C@H](C(C)C)C(=O)C1
REMARK SMILES IDX 8 1 9 2 6 3 7 4 5 5 4 6 3 7 2 8 1 9 10 11 11 12 15 13 16 14
REMARK SMILES IDX 17 15 12 17 13 18 14 19
REMARK H PARENT
REMARK Flexibility Score: 70.00
ROOT
ATOM      1  C   UNL     1     119.707 177.751 124.785  1.00  0.00     0.136 C 
ATOM      2  O   UNL     1     119.835 178.044 123.605  1.00  0.00    -0.299 OA
ENDROOT
BRANCH   1   3
ATOM      3  C   UNL     1     120.592 176.682 125.398  1.00  0.00     0.053 C 
ATOM      4  C   UNL     1     122.047 176.924 124.981  1.00  0.00     0.016 C 
BRANCH   3   5
ATOM      5  C   UNL     1     120.153 175.257 124.999  1.00  0.00     0.015 C 
BRANCH   5   6
ATOM      6  C   UNL     1     119.584 174.410 126.151  1.00  0.00     0.028 C 
BRANCH   6   7
ATOM      7  C   UNL     1     120.082 174.814 127.520  1.00  0.00    -0.028 C 
ATOM      8  C   UNL     1     119.390 175.419 128.522  1.00  0.00    -0.070 CG0
ATOM      9  C   UNL     1     120.118 175.598 129.834  1.00  0.00     0.039 C 
ATOM     10  G   UNL     1     117.993 176.021 128.407  1.00  0.00     0.000 G0
ENDBRANCH   6   7
ENDBRANCH   5   6
ENDBRANCH   3   5
ENDBRANCH   1   3
BRANCH   1  11
ATOM     11  C   UNL     1     118.705 178.503 125.624  1.00  0.00     0.087 C 
BRANCH  11  12
ATOM     12  C   UNL     1     117.653 177.581 126.298  1.00  0.00     0.066 C 
BRANCH  12  13
ATOM     13  C   UNL     1     117.920 177.394 127.789  1.00  0.00     0.140 C 
ATOM     14  O   UNL     1     118.236 178.367 128.459  1.00  0.00    -0.299 OA
BRANCH  13  15
ATOM     15  C   UNL     1     117.989 176.022 128.413  1.00  0.00     0.106 CG0
ATOM     16  G   UNL     1     119.385 175.422 128.537  1.00  0.00     0.000 G0
ENDBRANCH  13  15
ENDBRANCH  12  13
BRANCH  12  17
ATOM     17  C   UNL     1     116.196 178.100 126.073  1.00  0.00    -0.006 C 
ATOM     18  C   UNL     1     116.067 179.610 126.342  1.00  0.00     0.008 C 
ATOM     19  C   UNL     1     115.704 177.806 124.644  1.00  0.00     0.008 C 
ENDBRANCH  12  17
ENDBRANCH  11  12
ENDBRANCH   1  11
TORSDOF 1
ENDMDL
MODEL 9
REMARK VINA RESULT:    -4.259      1.799      4.119
REMARK INTER + INTRA:          -6.932
REMARK INTER:                  -6.543
REMARK INTRA:                  -0.389
REMARK UNBOUND:                -0.432
REMARK SMILES CC1=CCC[C@@H](C)C(=O)C[C@H](C(C)C)C(=O)C1
REMARK SMILES IDX 8 1 9 2 6 3 7 4 5 5 4 6 3 7 2 8 1 9 10 11 11 12 15 13 16 14
REMARK SMILES IDX 17 15 12 17 13 18 14 19
REMARK H PARENT
REMARK Flexibility Score: 70.00
ROOT
ATOM      1  C   UNL     1     117.331 176.330 128.203  1.00  0.00     0.136 C 
ATOM      2  O   UNL     1     116.209 176.185 128.669  1.00  0.00    -0.299 OA
ENDROOT
BRANCH   1   3
ATOM      3  C   UNL     1     118.539 176.303 129.121  1.00  0.00     0.053 C 
ATOM      4  C   UNL     1     118.147 175.669 130.460  1.00  0.00     0.016 C 
BRANCH   3   5
ATOM      5  C   UNL     1     119.134 177.709 129.349  1.00  0.00     0.015 C 
BRANCH   5   6
ATOM      6  C   UNL     1     120.622 177.847 128.985  1.00  0.00     0.028 C 
BRANCH   6   7
ATOM      7  C   UNL     1     121.024 177.102 127.732  1.00  0.00    -0.028 C 
ATOM      8  C   UNL     1     120.850 177.478 126.437  1.00  0.00    -0.070 CG0
ATOM      9  C   UNL     1     121.463 176.582 125.385  1.00  0.00     0.039 C 
ATOM     10  G   UNL     1     120.010 178.655 125.954  1.00  0.00     0.000 G0
ENDBRANCH   6   7
ENDBRANCH   5   6
ENDBRANCH   3   5
ENDBRANCH   1   3
BRANCH   1  11
ATOM     11  C   UNL     1     117.493 176.476 126.712  1.00  0.00     0.087 C 
BRANCH  11  12
ATOM     12  C   UNL     1     117.464 177.954 126.233  1.00  0.00     0.066 C 
BRANCH  12  13
ATOM     13  C   UNL     1     118.661 178.298 125.352  1.00  0.00     0.140 C 
ATOM     14  O   UNL     1     118.571 178.132 124.143  1.00  0.00    -0.299 OA
BRANCH  13  15
ATOM     15  C   UNL     1     120.002 178.655 125.944  1.00  0.00     0.106 CG0
ATOM     16  G   UNL     1     120.836 177.482 126.445  1.00  0.00     0.000 G0
ENDBRANCH  13  15
ENDBRANCH  12  13
BRANCH  12  17
ATOM     17  C   UNL     1     116.132 178.299 125.492  1.00  0.00    -0.006 C 
ATOM     18  C   UNL     1     115.244 177.060 125.281  1.00  0.00     0.008 C 
ATOM     19  C   UNL     1     115.322 179.367 126.249  1.00  0.00     0.008 C 
ENDBRANCH  12  17
ENDBRANCH  11  12
ENDBRANCH   1  11
TORSDOF 1
ENDMDL
