MODEL 1
REMARK VINA RESULT:    -8.158      0.000      0.000
REMARK INTER + INTRA:         -11.785
REMARK INTER:                 -11.019
REMARK INTRA:                  -0.766
REMARK UNBOUND:                -0.766
REMARK SMILES C[C@H]1O[C@H](Oc2cc(O)c3c(=O)c(O)c(-c4ccc(O)cc4)oc3c2)[C@H](O)[C@H](O)[C@@H]1O
REMARK SMILES IDX 6 1 7 2 8 3 10 4 24 5 25 6 23 7 15 8 13 9 11 10 12 11 5 12
REMARK SMILES IDX 4 13 1 14 2 15 30 16 3 17 28 18 26 19 31 20 29 22 27 24 9 26
REMARK SMILES IDX 16 28 17 29 22 30 18 31 21 32 19 33 20 34 14 36
REMARK H PARENT 31 21 29 23 27 25 9 27 20 35 14 37
REMARK Flexibility Score: inf
ROOT
ATOM      1  C   UNL     1      -8.231 -15.078  31.617  1.00  0.00     0.130 A 
ATOM      2  C   UNL     1      -8.171 -13.835  32.254  1.00  0.00     0.093 A 
ATOM      3  C   UNL     1      -7.136 -12.928  31.981  1.00  0.00     0.134 A 
ATOM      4  C   UNL     1      -6.125 -13.277  31.055  1.00  0.00     0.111 A 
ATOM      5  C   UNL     1      -6.164 -14.552  30.444  1.00  0.00     0.146 A 
ATOM      6  C   UNL     1      -7.204 -15.442  30.728  1.00  0.00     0.094 A 
ATOM      7  O   UNL     1      -5.223 -14.917  29.583  1.00  0.00    -0.452 OA
ATOM      8  C   UNL     1      -4.223 -14.123  29.221  1.00  0.00     0.180 A 
ATOM      9  C   UNL     1      -4.117 -12.831  29.759  1.00  0.00     0.208 A 
ATOM     10  C   UNL     1      -5.072 -12.408  30.695  1.00  0.00     0.238 A 
ATOM     11  O   UNL     1      -4.977 -11.255  31.200  1.00  0.00    -0.285 OA
ENDROOT
BRANCH   1  12
ATOM     12  O   UNL     1      -9.329 -15.910  31.899  1.00  0.00    -0.462 OA
BRANCH  12  13
ATOM     13  C   UNL     1     -10.711 -15.620  31.640  1.00  0.00     0.339 C 
ATOM     14  C   UNL     1     -10.789 -16.517  28.074  1.00  0.00     0.042 C 
ATOM     15  C   UNL     1     -10.661 -16.752  29.580  1.00  0.00     0.151 C 
ATOM     16  C   UNL     1     -11.641 -17.855  30.045  1.00  0.00     0.174 C 
ATOM     17  O   UNL     1     -10.933 -15.524  30.241  1.00  0.00    -0.335 OA
ATOM     18  C   UNL     1     -11.543 -18.039  31.571  1.00  0.00     0.180 C 
ATOM     19  C   UNL     1     -11.673 -16.665  32.262  1.00  0.00     0.214 C 
BRANCH  16  20
ATOM     20  O   UNL     1     -11.344 -19.065  29.395  1.00  0.00    -0.388 OA
ATOM     21  H   UNL     1     -11.599 -18.950  28.440  1.00  0.00     0.211 HD
ENDBRANCH  16  20
BRANCH  18  22
ATOM     22  O   UNL     1     -10.320 -18.657  31.893  1.00  0.00    -0.387 OA
ATOM     23  H   UNL     1      -9.920 -18.979  31.042  1.00  0.00     0.211 HD
ENDBRANCH  18  22
BRANCH  19  24
ATOM     24  O   UNL     1     -11.543 -16.756  33.659  1.00  0.00    -0.384 OA
ATOM     25  H   UNL     1     -11.227 -17.666  33.886  1.00  0.00     0.211 HD
ENDBRANCH  19  24
ENDBRANCH  12  13
ENDBRANCH   1  12
BRANCH   3  26
ATOM     26  O   UNL     1      -7.124 -11.691  32.625  1.00  0.00    -0.507 OA
ATOM     27  H   UNL     1      -7.837 -11.434  33.300  1.00  0.00     0.293 HD
ENDBRANCH   3  26
BRANCH   8  28
ATOM     28  C   UNL     1      -3.239 -14.635  28.255  1.00  0.00     0.021 A 
ATOM     29  C   UNL     1      -2.237 -15.518  28.683  1.00  0.00     0.016 A 
ATOM     30  C   UNL     1      -3.336 -14.309  26.894  1.00  0.00     0.016 A 
ATOM     31  C   UNL     1      -1.334 -16.060  27.762  1.00  0.00     0.047 A 
ATOM     32  C   UNL     1      -2.439 -14.858  25.972  1.00  0.00     0.047 A 
ATOM     33  C   UNL     1      -1.443 -15.749  26.403  1.00  0.00     0.115 A 
BRANCH  33  34
ATOM     34  O   UNL     1      -0.567 -16.331  25.491  1.00  0.00    -0.508 OA
ATOM     35  H   UNL     1      -0.909 -16.819  24.671  1.00  0.00     0.293 HD
ENDBRANCH  33  34
ENDBRANCH   8  28
BRANCH   9  36
ATOM     36  O   UNL     1      -3.062 -12.002  29.374  1.00  0.00    -0.502 OA
ATOM     37  H   UNL     1      -2.576 -11.401  30.028  1.00  0.00     0.293 HD
ENDBRANCH   9  36
TORSDOF 9
ENDMDL
MODEL 2
REMARK VINA RESULT:    -8.151      1.817      8.616
REMARK INTER + INTRA:         -11.776
REMARK INTER:                 -11.365
REMARK INTRA:                  -0.411
REMARK UNBOUND:                -0.766
REMARK SMILES C[C@H]1O[C@H](Oc2cc(O)c3c(=O)c(O)c(-c4ccc(O)cc4)oc3c2)[C@H](O)[C@H](O)[C@@H]1O
REMARK SMILES IDX 6 1 7 2 8 3 10 4 24 5 25 6 23 7 15 8 13 9 11 10 12 11 5 12
REMARK SMILES IDX 4 13 1 14 2 15 30 16 3 17 28 18 26 19 31 20 29 22 27 24 9 26
REMARK SMILES IDX 16 28 17 29 22 30 18 31 21 32 19 33 20 34 14 36
REMARK H PARENT 31 21 29 23 27 25 9 27 20 35 14 37
REMARK Flexibility Score: inf
ROOT
ATOM      1  C   UNL     1      -3.386 -13.779  28.485  1.00  0.00     0.130 A 
ATOM      2  C   UNL     1      -3.181 -12.527  29.074  1.00  0.00     0.093 A 
ATOM      3  C   UNL     1      -4.037 -12.046  30.076  1.00  0.00     0.134 A 
ATOM      4  C   UNL     1      -5.137 -12.832  30.494  1.00  0.00     0.111 A 
ATOM      5  C   UNL     1      -5.367 -14.079  29.866  1.00  0.00     0.146 A 
ATOM      6  C   UNL     1      -4.503 -14.541  28.870  1.00  0.00     0.094 A 
ATOM      7  O   UNL     1      -6.398 -14.834  30.223  1.00  0.00    -0.452 OA
ATOM      8  C   UNL     1      -7.245 -14.496  31.188  1.00  0.00     0.180 A 
ATOM      9  C   UNL     1      -7.081 -13.287  31.881  1.00  0.00     0.208 A 
ATOM     10  C   UNL     1      -6.022 -12.441  31.522  1.00  0.00     0.238 A 
ATOM     11  O   UNL     1      -5.874 -11.342  32.125  1.00  0.00    -0.285 OA
ENDROOT
BRANCH   1  12
ATOM     12  O   UNL     1      -2.454 -14.217  27.528  1.00  0.00    -0.462 OA
BRANCH  12  13
ATOM     13  C   UNL     1      -1.083 -14.569  27.768  1.00  0.00     0.339 C 
ATOM     14  C   UNL     1      -1.119 -17.925  26.263  1.00  0.00     0.042 C 
ATOM     15  C   UNL     1      -1.195 -16.397  26.295  1.00  0.00     0.151 C 
ATOM     16  C   UNL     1      -0.195 -15.781  25.288  1.00  0.00     0.174 C 
ATOM     17  O   UNL     1      -0.908 -15.970  27.618  1.00  0.00    -0.335 OA
ATOM     18  C   UNL     1      -0.241 -14.244  25.373  1.00  0.00     0.180 C 
ATOM     19  C   UNL     1      -0.095 -13.807  26.846  1.00  0.00     0.214 C 
BRANCH  16  20
ATOM     20  O   UNL     1      -0.507 -16.200  23.984  1.00  0.00    -0.388 OA
ATOM     21  H   UNL     1      -1.153 -16.954  24.070  1.00  0.00     0.211 HD
ENDBRANCH  16  20
BRANCH  18  22
ATOM     22  O   UNL     1      -1.449 -13.778  24.821  1.00  0.00    -0.387 OA
ATOM     23  H   UNL     1      -2.185 -14.285  25.256  1.00  0.00     0.211 HD
ENDBRANCH  18  22
BRANCH  19  24
ATOM     24  O   UNL     1      -0.178 -12.413  26.999  1.00  0.00    -0.384 OA
ATOM     25  H   UNL     1      -1.093 -12.124  26.757  1.00  0.00     0.211 HD
ENDBRANCH  19  24
ENDBRANCH  12  13
ENDBRANCH   1  12
BRANCH   3  26
ATOM     26  O   UNL     1      -3.786 -10.801  30.650  1.00  0.00    -0.507 OA
ATOM     27  H   UNL     1      -2.843 -10.493  30.865  1.00  0.00     0.293 HD
ENDBRANCH   3  26
BRANCH   8  28
ATOM     28  C   UNL     1      -8.351 -15.415  31.500  1.00  0.00     0.021 A 
ATOM     29  C   UNL     1      -8.074 -16.750  31.832  1.00  0.00     0.016 A 
ATOM     30  C   UNL     1      -9.674 -14.954  31.543  1.00  0.00     0.016 A 
ATOM     31  C   UNL     1      -9.112 -17.617  32.192  1.00  0.00     0.047 A 
ATOM     32  C   UNL     1     -10.710 -15.819  31.911  1.00  0.00     0.047 A 
ATOM     33  C   UNL     1     -10.429 -17.151  32.252  1.00  0.00     0.115 A 
BRANCH  33  34
ATOM     34  O   UNL     1     -11.446 -18.012  32.655  1.00  0.00    -0.508 OA
ATOM     35  H   UNL     1     -12.137 -18.353  31.996  1.00  0.00     0.293 HD
ENDBRANCH  33  34
ENDBRANCH   8  28
BRANCH   9  36
ATOM     36  O   UNL     1      -7.976 -12.938  32.893  1.00  0.00    -0.502 OA
ATOM     37  H   UNL     1      -8.965 -12.806  32.723  1.00  0.00     0.293 HD
ENDBRANCH   9  36
TORSDOF 9
ENDMDL
MODEL 3
REMARK VINA RESULT:    -7.999      1.878      8.700
REMARK INTER + INTRA:         -11.571
REMARK INTER:                 -10.806
REMARK INTRA:                  -0.765
REMARK UNBOUND:                -0.766
REMARK SMILES C[C@H]1O[C@H](Oc2cc(O)c3c(=O)c(O)c(-c4ccc(O)cc4)oc3c2)[C@H](O)[C@H](O)[C@@H]1O
REMARK SMILES IDX 6 1 7 2 8 3 10 4 24 5 25 6 23 7 15 8 13 9 11 10 12 11 5 12
REMARK SMILES IDX 4 13 1 14 2 15 30 16 3 17 28 18 26 19 31 20 29 22 27 24 9 26
REMARK SMILES IDX 16 28 17 29 22 30 18 31 21 32 19 33 20 34 14 36
REMARK H PARENT 31 21 29 23 27 25 9 27 20 35 14 37
REMARK Flexibility Score: inf
ROOT
ATOM      1  C   UNL     1      -2.857 -13.391  28.389  1.00  0.00     0.130 A 
ATOM      2  C   UNL     1      -2.853 -12.098  28.923  1.00  0.00     0.093 A 
ATOM      3  C   UNL     1      -3.830 -11.690  29.844  1.00  0.00     0.134 A 
ATOM      4  C   UNL     1      -4.846 -12.594  30.234  1.00  0.00     0.111 A 
ATOM      5  C   UNL     1      -4.873 -13.887  29.659  1.00  0.00     0.146 A 
ATOM      6  C   UNL     1      -3.890 -14.275  28.744  1.00  0.00     0.094 A 
ATOM      7  O   UNL     1      -5.820 -14.754  29.991  1.00  0.00    -0.452 OA
ATOM      8  C   UNL     1      -6.767 -14.488  30.883  1.00  0.00     0.180 A 
ATOM      9  C   UNL     1      -6.806 -13.238  31.520  1.00  0.00     0.208 A 
ATOM     10  C   UNL     1      -5.842 -12.277  31.184  1.00  0.00     0.238 A 
ATOM     11  O   UNL     1      -5.877 -11.143  31.736  1.00  0.00    -0.285 OA
ENDROOT
BRANCH   1  12
ATOM     12  O   UNL     1      -1.813 -13.745  27.516  1.00  0.00    -0.462 OA
BRANCH  12  13
ATOM     13  C   UNL     1      -1.948 -14.179  26.154  1.00  0.00     0.339 C 
ATOM     14  C   UNL     1       0.849 -12.279  24.705  1.00  0.00     0.042 C 
ATOM     15  C   UNL     1       0.170 -13.338  25.576  1.00  0.00     0.151 C 
ATOM     16  C   UNL     1       0.763 -14.738  25.293  1.00  0.00     0.174 C 
ATOM     17  O   UNL     1      -1.222 -13.313  25.294  1.00  0.00    -0.335 OA
ATOM     18  C   UNL     1       0.032 -15.801  26.133  1.00  0.00     0.180 C 
ATOM     19  C   UNL     1      -1.492 -15.646  25.941  1.00  0.00     0.214 C 
BRANCH  16  20
ATOM     20  O   UNL     1       2.135 -14.747  25.596  1.00  0.00    -0.388 OA
ATOM     21  H   UNL     1       2.284 -14.045  26.287  1.00  0.00     0.211 HD
ENDBRANCH  16  20
BRANCH  18  22
ATOM     22  O   UNL     1       0.391 -15.660  27.487  1.00  0.00    -0.387 OA
ATOM     23  H   UNL     1      -0.417 -15.865  28.028  1.00  0.00     0.211 HD
ENDBRANCH  18  22
BRANCH  19  24
ATOM     24  O   UNL     1      -2.223 -16.558  26.721  1.00  0.00    -0.384 OA
ATOM     25  H   UNL     1      -3.088 -16.142  26.964  1.00  0.00     0.211 HD
ENDBRANCH  19  24
ENDBRANCH  12  13
ENDBRANCH   1  12
BRANCH   3  26
ATOM     26  O   UNL     1      -3.779 -10.399  30.366  1.00  0.00    -0.507 OA
ATOM     27  H   UNL     1      -3.316  -9.642  29.874  1.00  0.00     0.293 HD
ENDBRANCH   3  26
BRANCH   8  28
ATOM     28  C   UNL     1      -7.765 -15.529  31.173  1.00  0.00     0.021 A 
ATOM     29  C   UNL     1      -8.968 -15.561  30.452  1.00  0.00     0.016 A 
ATOM     30  C   UNL     1      -7.496 -16.535  32.113  1.00  0.00     0.016 A 
ATOM     31  C   UNL     1      -9.897 -16.583  30.676  1.00  0.00     0.047 A 
ATOM     32  C   UNL     1      -8.422 -17.561  32.330  1.00  0.00     0.047 A 
ATOM     33  C   UNL     1      -9.620 -17.596  31.599  1.00  0.00     0.115 A 
BRANCH  33  34
ATOM     34  O   UNL     1     -10.533 -18.631  31.780  1.00  0.00    -0.508 OA
ATOM     35  H   UNL     1     -10.828 -19.213  31.003  1.00  0.00     0.293 HD
ENDBRANCH  33  34
ENDBRANCH   8  28
BRANCH   9  36
ATOM     36  O   UNL     1      -7.805 -12.966  32.456  1.00  0.00    -0.502 OA
ATOM     37  H   UNL     1      -8.785 -13.147  32.274  1.00  0.00     0.293 HD
ENDBRANCH   9  36
TORSDOF 9
ENDMDL
MODEL 4
REMARK VINA RESULT:    -7.818      1.572      8.257
REMARK INTER + INTRA:         -11.326
REMARK INTER:                 -10.682
REMARK INTRA:                  -0.643
REMARK UNBOUND:                -0.766
REMARK SMILES C[C@H]1O[C@H](Oc2cc(O)c3c(=O)c(O)c(-c4ccc(O)cc4)oc3c2)[C@H](O)[C@H](O)[C@@H]1O
REMARK SMILES IDX 6 1 7 2 8 3 10 4 24 5 25 6 23 7 15 8 13 9 11 10 12 11 5 12
REMARK SMILES IDX 4 13 1 14 2 15 30 16 3 17 28 18 26 19 31 20 29 22 27 24 9 26
REMARK SMILES IDX 16 28 17 29 22 30 18 31 21 32 19 33 20 34 14 36
REMARK H PARENT 31 21 29 23 27 25 9 27 20 35 14 37
REMARK Flexibility Score: inf
ROOT
ATOM      1  C   UNL     1      -4.981 -13.622  29.218  1.00  0.00     0.130 A 
ATOM      2  C   UNL     1      -5.035 -12.764  30.320  1.00  0.00     0.093 A 
ATOM      3  C   UNL     1      -6.096 -12.824  31.236  1.00  0.00     0.134 A 
ATOM      4  C   UNL     1      -7.140 -13.759  31.038  1.00  0.00     0.111 A 
ATOM      5  C   UNL     1      -7.105 -14.596  29.898  1.00  0.00     0.146 A 
ATOM      6  C   UNL     1      -6.039 -14.522  28.998  1.00  0.00     0.094 A 
ATOM      7  O   UNL     1      -8.076 -15.473  29.674  1.00  0.00    -0.452 OA
ATOM      8  C   UNL     1      -9.104 -15.643  30.496  1.00  0.00     0.180 A 
ATOM      9  C   UNL     1      -9.209 -14.872  31.664  1.00  0.00     0.208 A 
ATOM     10  C   UNL     1      -8.223 -13.912  31.932  1.00  0.00     0.238 A 
ATOM     11  O   UNL     1      -8.316 -13.199  32.969  1.00  0.00    -0.285 OA
ENDROOT
BRANCH   1  12
ATOM     12  O   UNL     1      -3.858 -13.542  28.375  1.00  0.00    -0.462 OA
BRANCH  12  13
ATOM     13  C   UNL     1      -2.481 -13.547  28.783  1.00  0.00     0.339 C 
ATOM     14  C   UNL     1      -1.921 -17.183  28.732  1.00  0.00     0.042 C 
ATOM     15  C   UNL     1      -2.205 -15.795  28.152  1.00  0.00     0.151 C 
ATOM     16  C   UNL     1      -1.205 -15.463  27.020  1.00  0.00     0.174 C 
ATOM     17  O   UNL     1      -2.106 -14.849  29.207  1.00  0.00    -0.335 OA
ATOM     18  C   UNL     1      -1.466 -14.042  26.486  1.00  0.00     0.180 C 
ATOM     19  C   UNL     1      -1.521 -13.053  27.670  1.00  0.00     0.214 C 
BRANCH  16  20
ATOM     20  O   UNL     1      -1.333 -16.398  25.979  1.00  0.00    -0.388 OA
ATOM     21  H   UNL     1      -2.045 -17.038  26.251  1.00  0.00     0.211 HD
ENDBRANCH  16  20
BRANCH  18  22
ATOM     22  O   UNL     1      -2.667 -14.027  25.753  1.00  0.00    -0.387 OA
ATOM     23  H   UNL     1      -3.059 -13.119  25.849  1.00  0.00     0.211 HD
ENDBRANCH  18  22
BRANCH  19  24
ATOM     24  O   UNL     1      -1.805 -11.740  27.254  1.00  0.00    -0.384 OA
ATOM     25  H   UNL     1      -2.461 -11.347  27.883  1.00  0.00     0.211 HD
ENDBRANCH  19  24
ENDBRANCH  12  13
ENDBRANCH   1  12
BRANCH   3  26
ATOM     26  O   UNL     1      -6.102 -11.964  32.333  1.00  0.00    -0.507 OA
ATOM     27  H   UNL     1      -6.106 -10.955  32.219  1.00  0.00     0.293 HD
ENDBRANCH   3  26
BRANCH   8  28
ATOM     28  C   UNL     1     -10.119 -16.648  30.147  1.00  0.00     0.021 A 
ATOM     29  C   UNL     1     -10.221 -17.826  30.902  1.00  0.00     0.016 A 
ATOM     30  C   UNL     1     -11.035 -16.410  29.112  1.00  0.00     0.016 A 
ATOM     31  C   UNL     1     -11.224 -18.760  30.619  1.00  0.00     0.047 A 
ATOM     32  C   UNL     1     -12.042 -17.341  28.834  1.00  0.00     0.047 A 
ATOM     33  C   UNL     1     -12.148 -18.513  29.599  1.00  0.00     0.115 A 
BRANCH  33  34
ATOM     34  O   UNL     1     -13.167 -19.430  29.357  1.00  0.00    -0.508 OA
ATOM     35  H   UNL     1     -13.403 -19.717  28.413  1.00  0.00     0.293 HD
ENDBRANCH  33  34
ENDBRANCH   8  28
BRANCH   9  36
ATOM     36  O   UNL     1     -10.294 -15.055  32.523  1.00  0.00    -0.502 OA
ATOM     37  H   UNL     1     -10.403 -14.530  33.382  1.00  0.00     0.293 HD
ENDBRANCH   9  36
TORSDOF 9
ENDMDL
MODEL 5
REMARK VINA RESULT:    -7.750      1.134      2.131
REMARK INTER + INTRA:         -11.235
REMARK INTER:                 -10.750
REMARK INTRA:                  -0.484
REMARK UNBOUND:                -0.766
REMARK SMILES C[C@H]1O[C@H](Oc2cc(O)c3c(=O)c(O)c(-c4ccc(O)cc4)oc3c2)[C@H](O)[C@H](O)[C@@H]1O
REMARK SMILES IDX 6 1 7 2 8 3 10 4 24 5 25 6 23 7 15 8 13 9 11 10 12 11 5 12
REMARK SMILES IDX 4 13 1 14 2 15 30 16 3 17 28 18 26 19 31 20 29 22 27 24 9 26
REMARK SMILES IDX 16 28 17 29 22 30 18 31 21 32 19 33 20 34 14 36
REMARK H PARENT 31 21 29 23 27 25 9 27 20 35 14 37
REMARK Flexibility Score: inf
ROOT
ATOM      1  C   UNL     1      -7.954 -14.828  30.989  1.00  0.00     0.130 A 
ATOM      2  C   UNL     1      -7.876 -13.716  31.832  1.00  0.00     0.093 A 
ATOM      3  C   UNL     1      -6.780 -12.841  31.779  1.00  0.00     0.134 A 
ATOM      4  C   UNL     1      -5.728 -13.090  30.867  1.00  0.00     0.111 A 
ATOM      5  C   UNL     1      -5.790 -14.240  30.045  1.00  0.00     0.146 A 
ATOM      6  C   UNL     1      -6.889 -15.099  30.112  1.00  0.00     0.094 A 
ATOM      7  O   UNL     1      -4.812 -14.511  29.190  1.00  0.00    -0.452 OA
ATOM      8  C   UNL     1      -3.752 -13.729  29.028  1.00  0.00     0.180 A 
ATOM      9  C   UNL     1      -3.618 -12.555  29.784  1.00  0.00     0.208 A 
ATOM     10  C   UNL     1      -4.611 -12.237  30.722  1.00  0.00     0.238 A 
ATOM     11  O   UNL     1      -4.493 -11.195  31.423  1.00  0.00    -0.285 OA
ENDROOT
BRANCH   1  12
ATOM     12  O   UNL     1      -9.109 -15.628  31.061  1.00  0.00    -0.462 OA
BRANCH  12  13
ATOM     13  C   UNL     1      -9.333 -16.870  30.377  1.00  0.00     0.339 C 
ATOM     14  C   UNL     1     -11.255 -18.589  33.000  1.00  0.00     0.042 C 
ATOM     15  C   UNL     1     -10.971 -17.537  31.925  1.00  0.00     0.151 C 
ATOM     16  C   UNL     1     -12.117 -17.495  30.887  1.00  0.00     0.174 C 
ATOM     17  O   UNL     1      -9.738 -17.867  31.302  1.00  0.00    -0.335 OA
ATOM     18  C   UNL     1     -11.790 -16.474  29.781  1.00  0.00     0.180 C 
ATOM     19  C   UNL     1     -10.374 -16.750  29.233  1.00  0.00     0.214 C 
BRANCH  16  20
ATOM     20  O   UNL     1     -13.323 -17.148  31.520  1.00  0.00    -0.388 OA
ATOM     21  H   UNL     1     -13.189 -17.291  32.496  1.00  0.00     0.211 HD
ENDBRANCH  16  20
BRANCH  18  22
ATOM     22  O   UNL     1     -11.891 -15.170  30.300  1.00  0.00    -0.387 OA
ATOM     23  H   UNL     1     -12.432 -14.639  29.657  1.00  0.00     0.211 HD
ENDBRANCH  18  22
BRANCH  19  24
ATOM     24  O   UNL     1      -9.993 -15.820  28.250  1.00  0.00    -0.384 OA
ATOM     25  H   UNL     1      -9.227 -15.296  28.595  1.00  0.00     0.211 HD
ENDBRANCH  19  24
ENDBRANCH  12  13
ENDBRANCH   1  12
BRANCH   3  26
ATOM     26  O   UNL     1      -6.750 -11.732  32.625  1.00  0.00    -0.507 OA
ATOM     27  H   UNL     1      -7.591 -11.377  33.070  1.00  0.00     0.293 HD
ENDBRANCH   3  26
BRANCH   8  28
ATOM     28  C   UNL     1      -2.732 -14.130  28.046  1.00  0.00     0.021 A 
ATOM     29  C   UNL     1      -1.400 -14.292  28.454  1.00  0.00     0.016 A 
ATOM     30  C   UNL     1      -3.090 -14.426  26.723  1.00  0.00     0.016 A 
ATOM     31  C   UNL     1      -0.433 -14.734  27.544  1.00  0.00     0.047 A 
ATOM     32  C   UNL     1      -2.125 -14.875  25.816  1.00  0.00     0.047 A 
ATOM     33  C   UNL     1      -0.794 -15.045  26.229  1.00  0.00     0.115 A 
BRANCH  33  34
ATOM     34  O   UNL     1       0.169 -15.526  25.347  1.00  0.00    -0.508 OA
ATOM     35  H   UNL     1       0.008 -15.533  24.345  1.00  0.00     0.293 HD
ENDBRANCH  33  34
ENDBRANCH   8  28
BRANCH   9  36
ATOM     36  O   UNL     1      -2.499 -11.739  29.609  1.00  0.00    -0.502 OA
ATOM     37  H   UNL     1      -2.211 -11.055  30.298  1.00  0.00     0.293 HD
ENDBRANCH   9  36
TORSDOF 9
ENDMDL
MODEL 6
REMARK VINA RESULT:    -7.735      3.120      6.458
REMARK INTER + INTRA:         -11.213
REMARK INTER:                 -10.683
REMARK INTRA:                  -0.530
REMARK UNBOUND:                -0.766
REMARK SMILES C[C@H]1O[C@H](Oc2cc(O)c3c(=O)c(O)c(-c4ccc(O)cc4)oc3c2)[C@H](O)[C@H](O)[C@@H]1O
REMARK SMILES IDX 6 1 7 2 8 3 10 4 24 5 25 6 23 7 15 8 13 9 11 10 12 11 5 12
REMARK SMILES IDX 4 13 1 14 2 15 30 16 3 17 28 18 26 19 31 20 29 22 27 24 9 26
REMARK SMILES IDX 16 28 17 29 22 30 18 31 21 32 19 33 20 34 14 36
REMARK H PARENT 31 21 29 23 27 25 9 27 20 35 14 37
REMARK Flexibility Score: inf
ROOT
ATOM      1  C   UNL     1      -3.285 -14.059  28.717  1.00  0.00     0.130 A 
ATOM      2  C   UNL     1      -2.653 -12.837  28.467  1.00  0.00     0.093 A 
ATOM      3  C   UNL     1      -1.644 -12.726  27.499  1.00  0.00     0.134 A 
ATOM      4  C   UNL     1      -1.246 -13.869  26.767  1.00  0.00     0.111 A 
ATOM      5  C   UNL     1      -1.856 -15.114  27.052  1.00  0.00     0.146 A 
ATOM      6  C   UNL     1      -2.860 -15.204  28.020  1.00  0.00     0.094 A 
ATOM      7  O   UNL     1      -1.495 -16.209  26.396  1.00  0.00    -0.452 OA
ATOM      8  C   UNL     1      -0.583 -16.209  25.432  1.00  0.00     0.180 A 
ATOM      9  C   UNL     1       0.059 -15.016  25.066  1.00  0.00     0.208 A 
ATOM     10  C   UNL     1      -0.268 -13.835  25.749  1.00  0.00     0.238 A 
ATOM     11  O   UNL     1       0.316 -12.759  25.443  1.00  0.00    -0.285 OA
ENDROOT
BRANCH   1  12
ATOM     12  O   UNL     1      -4.326 -14.081  29.662  1.00  0.00    -0.462 OA
BRANCH  12  13
ATOM     13  C   UNL     1      -5.691 -13.697  29.439  1.00  0.00     0.339 C 
ATOM     14  C   UNL     1      -7.292 -16.006  31.814  1.00  0.00     0.042 C 
ATOM     15  C   UNL     1      -6.423 -14.829  31.366  1.00  0.00     0.151 C 
ATOM     16  C   UNL     1      -6.845 -13.531  32.094  1.00  0.00     0.174 C 
ATOM     17  O   UNL     1      -6.565 -14.687  29.960  1.00  0.00    -0.335 OA
ATOM     18  C   UNL     1      -6.002 -12.345  31.591  1.00  0.00     0.180 C 
ATOM     19  C   UNL     1      -6.034 -12.312  30.048  1.00  0.00     0.214 C 
BRANCH  16  20
ATOM     20  O   UNL     1      -6.679 -13.684  33.481  1.00  0.00    -0.388 OA
ATOM     21  H   UNL     1      -5.716 -13.882  33.636  1.00  0.00     0.211 HD
ENDBRANCH  16  20
BRANCH  18  22
ATOM     22  O   UNL     1      -4.684 -12.468  32.069  1.00  0.00    -0.387 OA
ATOM     23  H   UNL     1      -4.276 -13.248  31.609  1.00  0.00     0.211 HD
ENDBRANCH  18  22
BRANCH  19  24
ATOM     24  O   UNL     1      -5.242 -11.278  29.520  1.00  0.00    -0.384 OA
ATOM     25  H   UNL     1      -4.833 -10.781  30.272  1.00  0.00     0.211 HD
ENDBRANCH  19  24
ENDBRANCH  12  13
ENDBRANCH   1  12
BRANCH   3  26
ATOM     26  O   UNL     1      -1.053 -11.484  27.268  1.00  0.00    -0.507 OA
ATOM     27  H   UNL     1      -0.393 -11.340  26.510  1.00  0.00     0.293 HD
ENDBRANCH   3  26
BRANCH   8  28
ATOM     28  C   UNL     1      -0.266 -17.484  24.771  1.00  0.00     0.021 A 
ATOM     29  C   UNL     1       0.428 -18.479  25.475  1.00  0.00     0.016 A 
ATOM     30  C   UNL     1      -0.715 -17.746  23.468  1.00  0.00     0.016 A 
ATOM     31  C   UNL     1       0.680 -19.720  24.878  1.00  0.00     0.047 A 
ATOM     32  C   UNL     1      -0.470 -18.989  22.875  1.00  0.00     0.047 A 
ATOM     33  C   UNL     1       0.216 -19.986  23.586  1.00  0.00     0.115 A 
BRANCH  33  34
ATOM     34  O   UNL     1       0.435 -21.240  23.022  1.00  0.00    -0.508 OA
ATOM     35  H   UNL     1       0.646 -21.342  22.035  1.00  0.00     0.293 HD
ENDBRANCH  33  34
ENDBRANCH   8  28
BRANCH   9  36
ATOM     36  O   UNL     1       1.018 -15.025  24.052  1.00  0.00    -0.502 OA
ATOM     37  H   UNL     1       1.472 -15.873  23.740  1.00  0.00     0.293 HD
ENDBRANCH   9  36
TORSDOF 9
ENDMDL
MODEL 7
REMARK VINA RESULT:    -7.431      7.911     10.283
REMARK INTER + INTRA:         -10.803
REMARK INTER:                 -10.060
REMARK INTRA:                  -0.743
REMARK UNBOUND:                -0.766
REMARK SMILES C[C@H]1O[C@H](Oc2cc(O)c3c(=O)c(O)c(-c4ccc(O)cc4)oc3c2)[C@H](O)[C@H](O)[C@@H]1O
REMARK SMILES IDX 6 1 7 2 8 3 10 4 24 5 25 6 23 7 15 8 13 9 11 10 12 11 5 12
REMARK SMILES IDX 4 13 1 14 2 15 30 16 3 17 28 18 26 19 31 20 29 22 27 24 9 26
REMARK SMILES IDX 16 28 17 29 22 30 18 31 21 32 19 33 20 34 14 36
REMARK H PARENT 31 21 29 23 27 25 9 27 20 35 14 37
REMARK Flexibility Score: inf
ROOT
ATOM      1  C   UNL     1       0.079 -20.882  27.613  1.00  0.00     0.130 A 
ATOM      2  C   UNL     1       0.050 -21.551  26.386  1.00  0.00     0.093 A 
ATOM      3  C   UNL     1      -0.011 -20.845  25.175  1.00  0.00     0.134 A 
ATOM      4  C   UNL     1      -0.056 -19.431  25.191  1.00  0.00     0.111 A 
ATOM      5  C   UNL     1      -0.071 -18.758  26.435  1.00  0.00     0.146 A 
ATOM      6  C   UNL     1      -0.009 -19.479  27.630  1.00  0.00     0.094 A 
ATOM      7  O   UNL     1      -0.129 -17.433  26.486  1.00  0.00    -0.452 OA
ATOM      8  C   UNL     1      -0.146 -16.666  25.402  1.00  0.00     0.180 A 
ATOM      9  C   UNL     1      -0.112 -17.246  24.125  1.00  0.00     0.208 A 
ATOM     10  C   UNL     1      -0.078 -18.644  24.018  1.00  0.00     0.238 A 
ATOM     11  O   UNL     1      -0.066 -19.179  22.875  1.00  0.00    -0.285 OA
ENDROOT
BRANCH   1  12
ATOM     12  O   UNL     1       0.197 -21.655  28.782  1.00  0.00    -0.462 OA
BRANCH  12  13
ATOM     13  C   UNL     1      -0.369 -22.955  29.008  1.00  0.00     0.339 C 
ATOM     14  C   UNL     1       2.300 -24.342  31.126  1.00  0.00     0.042 C 
ATOM     15  C   UNL     1       1.143 -23.415  30.749  1.00  0.00     0.151 C 
ATOM     16  C   UNL     1       0.042 -23.449  31.835  1.00  0.00     0.174 C 
ATOM     17  O   UNL     1       0.628 -23.840  29.496  1.00  0.00    -0.335 OA
ATOM     18  C   UNL     1      -1.142 -22.557  31.416  1.00  0.00     0.180 C 
ATOM     19  C   UNL     1      -1.576 -22.926  29.981  1.00  0.00     0.214 C 
BRANCH  16  20
ATOM     20  O   UNL     1       0.565 -23.006  33.062  1.00  0.00    -0.388 OA
ATOM     21  H   UNL     1      -0.203 -22.671  33.600  1.00  0.00     0.211 HD
ENDBRANCH  16  20
BRANCH  18  22
ATOM     22  O   UNL     1      -0.765 -21.204  31.502  1.00  0.00    -0.387 OA
ATOM     23  H   UNL     1       0.152 -21.178  31.883  1.00  0.00     0.211 HD
ENDBRANCH  18  22
BRANCH  19  24
ATOM     24  O   UNL     1      -2.625 -22.113  29.517  1.00  0.00    -0.384 OA
ATOM     25  H   UNL     1      -3.472 -22.437  29.912  1.00  0.00     0.211 HD
ENDBRANCH  19  24
ENDBRANCH  12  13
ENDBRANCH   1  12
BRANCH   3  26
ATOM     26  O   UNL     1      -0.019 -21.550  23.973  1.00  0.00    -0.507 OA
ATOM     27  H   UNL     1      -0.137 -21.081  23.080  1.00  0.00     0.293 HD
ENDBRANCH   3  26
BRANCH   8  28
ATOM     28  C   UNL     1      -0.208 -15.207  25.581  1.00  0.00     0.021 A 
ATOM     29  C   UNL     1       0.980 -14.463  25.646  1.00  0.00     0.016 A 
ATOM     30  C   UNL     1      -1.442 -14.541  25.612  1.00  0.00     0.016 A 
ATOM     31  C   UNL     1       0.933 -13.069  25.752  1.00  0.00     0.047 A 
ATOM     32  C   UNL     1      -1.488 -13.147  25.711  1.00  0.00     0.047 A 
ATOM     33  C   UNL     1      -0.298 -12.404  25.765  1.00  0.00     0.115 A 
BRANCH  33  34
ATOM     34  O   UNL     1      -0.329 -11.014  25.826  1.00  0.00    -0.508 OA
ATOM     35  H   UNL     1       0.515 -10.464  25.710  1.00  0.00     0.293 HD
ENDBRANCH  33  34
ENDBRANCH   8  28
BRANCH   9  36
ATOM     36  O   UNL     1      -0.133 -16.433  22.991  1.00  0.00    -0.502 OA
ATOM     37  H   UNL     1       0.600 -15.764  22.787  1.00  0.00     0.293 HD
ENDBRANCH   9  36
TORSDOF 9
ENDMDL
MODEL 8
REMARK VINA RESULT:    -7.240      4.872      9.319
REMARK INTER + INTRA:         -10.545
REMARK INTER:                  -9.797
REMARK INTRA:                  -0.748
REMARK UNBOUND:                -0.766
REMARK SMILES C[C@H]1O[C@H](Oc2cc(O)c3c(=O)c(O)c(-c4ccc(O)cc4)oc3c2)[C@H](O)[C@H](O)[C@@H]1O
REMARK SMILES IDX 6 1 7 2 8 3 10 4 24 5 25 6 23 7 15 8 13 9 11 10 12 11 5 12
REMARK SMILES IDX 4 13 1 14 2 15 30 16 3 17 28 18 26 19 31 20 29 22 27 24 9 26
REMARK SMILES IDX 16 28 17 29 22 30 18 31 21 32 19 33 20 34 14 36
REMARK H PARENT 31 21 29 23 27 25 9 27 20 35 14 37
REMARK Flexibility Score: inf
ROOT
ATOM      1  C   UNL     1      -0.250 -19.531  28.448  1.00  0.00     0.130 A 
ATOM      2  C   UNL     1       0.224 -19.504  27.133  1.00  0.00     0.093 A 
ATOM      3  C   UNL     1      -0.070 -18.431  26.278  1.00  0.00     0.134 A 
ATOM      4  C   UNL     1      -0.870 -17.361  26.745  1.00  0.00     0.111 A 
ATOM      5  C   UNL     1      -1.383 -17.412  28.063  1.00  0.00     0.146 A 
ATOM      6  C   UNL     1      -1.079 -18.489  28.899  1.00  0.00     0.094 A 
ATOM      7  O   UNL     1      -2.149 -16.433  28.527  1.00  0.00    -0.452 OA
ATOM      8  C   UNL     1      -2.454 -15.352  27.819  1.00  0.00     0.180 A 
ATOM      9  C   UNL     1      -1.970 -15.206  26.510  1.00  0.00     0.208 A 
ATOM     10  C   UNL     1      -1.178 -16.226  25.963  1.00  0.00     0.238 A 
ATOM     11  O   UNL     1      -0.752 -16.115  24.781  1.00  0.00    -0.285 OA
ENDROOT
BRANCH   1  12
ATOM     12  O   UNL     1       0.133 -20.611  29.263  1.00  0.00    -0.462 OA
BRANCH  12  13
ATOM     13  C   UNL     1      -0.141 -22.001  29.025  1.00  0.00     0.339 C 
ATOM     14  C   UNL     1       2.457 -23.438  31.198  1.00  0.00     0.042 C 
ATOM     15  C   UNL     1       1.179 -22.671  30.852  1.00  0.00     0.151 C 
ATOM     16  C   UNL     1      -0.024 -23.228  31.649  1.00  0.00     0.174 C 
ATOM     17  O   UNL     1       0.958 -22.792  29.455  1.00  0.00    -0.335 OA
ATOM     18  C   UNL     1      -1.313 -22.486  31.248  1.00  0.00     0.180 C 
ATOM     19  C   UNL     1      -1.445 -22.484  29.711  1.00  0.00     0.214 C 
BRANCH  16  20
ATOM     20  O   UNL     1       0.205 -23.081  33.028  1.00  0.00    -0.388 OA
ATOM     21  H   UNL     1       0.467 -22.132  33.178  1.00  0.00     0.211 HD
ENDBRANCH  16  20
BRANCH  18  22
ATOM     22  O   UNL     1      -1.278 -21.174  31.758  1.00  0.00    -0.387 OA
ATOM     23  H   UNL     1      -1.360 -20.556  30.984  1.00  0.00     0.211 HD
ENDBRANCH  18  22
BRANCH  19  24
ATOM     24  O   UNL     1      -2.579 -21.778  29.274  1.00  0.00    -0.384 OA
ATOM     25  H   UNL     1      -2.292 -21.105  28.608  1.00  0.00     0.211 HD
ENDBRANCH  19  24
ENDBRANCH  12  13
ENDBRANCH   1  12
BRANCH   3  26
ATOM     26  O   UNL     1       0.437 -18.433  24.979  1.00  0.00    -0.507 OA
ATOM     27  H   UNL     1       1.334 -18.014  24.756  1.00  0.00     0.293 HD
ENDBRANCH   3  26
BRANCH   8  28
ATOM     28  C   UNL     1      -3.309 -14.329  28.440  1.00  0.00     0.021 A 
ATOM     29  C   UNL     1      -2.724 -13.205  29.042  1.00  0.00     0.016 A 
ATOM     30  C   UNL     1      -4.707 -14.427  28.371  1.00  0.00     0.016 A 
ATOM     31  C   UNL     1      -3.529 -12.195  29.580  1.00  0.00     0.047 A 
ATOM     32  C   UNL     1      -5.511 -13.413  28.902  1.00  0.00     0.047 A 
ATOM     33  C   UNL     1      -4.922 -12.284  29.495  1.00  0.00     0.115 A 
BRANCH  33  34
ATOM     34  O   UNL     1      -5.710 -11.251  29.994  1.00  0.00    -0.508 OA
ATOM     35  H   UNL     1      -5.362 -10.300  30.040  1.00  0.00     0.293 HD
ENDBRANCH  33  34
ENDBRANCH   8  28
BRANCH   9  36
ATOM     36  O   UNL     1      -2.296 -14.067  25.771  1.00  0.00    -0.502 OA
ATOM     37  H   UNL     1      -2.429 -13.160  26.200  1.00  0.00     0.293 HD
ENDBRANCH   9  36
TORSDOF 9
ENDMDL
MODEL 9
REMARK VINA RESULT:    -6.949      3.364      7.675
REMARK INTER + INTRA:         -10.152
REMARK INTER:                  -9.397
REMARK INTRA:                  -0.755
REMARK UNBOUND:                -0.766
REMARK SMILES C[C@H]1O[C@H](Oc2cc(O)c3c(=O)c(O)c(-c4ccc(O)cc4)oc3c2)[C@H](O)[C@H](O)[C@@H]1O
REMARK SMILES IDX 6 1 7 2 8 3 10 4 24 5 25 6 23 7 15 8 13 9 11 10 12 11 5 12
REMARK SMILES IDX 4 13 1 14 2 15 30 16 3 17 28 18 26 19 31 20 29 22 27 24 9 26
REMARK SMILES IDX 16 28 17 29 22 30 18 31 21 32 19 33 20 34 14 36
REMARK H PARENT 31 21 29 23 27 25 9 27 20 35 14 37
REMARK Flexibility Score: inf
ROOT
ATOM      1  C   UNL     1      -2.859 -15.110  28.157  1.00  0.00     0.130 A 
ATOM      2  C   UNL     1      -2.594 -14.506  26.925  1.00  0.00     0.093 A 
ATOM      3  C   UNL     1      -1.780 -15.132  25.969  1.00  0.00     0.134 A 
ATOM      4  C   UNL     1      -1.204 -16.392  26.257  1.00  0.00     0.111 A 
ATOM      5  C   UNL     1      -1.438 -16.981  27.522  1.00  0.00     0.146 A 
ATOM      6  C   UNL     1      -2.252 -16.342  28.460  1.00  0.00     0.094 A 
ATOM      7  O   UNL     1      -0.900 -18.154  27.830  1.00  0.00    -0.452 OA
ATOM      8  C   UNL     1      -0.150 -18.853  26.987  1.00  0.00     0.180 A 
ATOM      9  C   UNL     1       0.117 -18.356  25.702  1.00  0.00     0.208 A 
ATOM     10  C   UNL     1      -0.406 -17.107  25.337  1.00  0.00     0.238 A 
ATOM     11  O   UNL     1      -0.158 -16.641  24.191  1.00  0.00    -0.285 OA
ENDROOT
BRANCH   1  12
ATOM     12  O   UNL     1      -3.729 -14.448  29.042  1.00  0.00    -0.462 OA
BRANCH  12  13
ATOM     13  C   UNL     1      -4.926 -13.737  28.691  1.00  0.00     0.339 C 
ATOM     14  C   UNL     1      -7.189 -15.238  31.173  1.00  0.00     0.042 C 
ATOM     15  C   UNL     1      -6.013 -14.400  30.668  1.00  0.00     0.151 C 
ATOM     16  C   UNL     1      -6.086 -12.961  31.232  1.00  0.00     0.174 C 
ATOM     17  O   UNL     1      -6.058 -14.388  29.248  1.00  0.00    -0.335 OA
ATOM     18  C   UNL     1      -4.930 -12.113  30.670  1.00  0.00     0.180 C 
ATOM     19  C   UNL     1      -4.896 -12.250  29.133  1.00  0.00     0.214 C 
BRANCH  16  20
ATOM     20  O   UNL     1      -6.020 -12.993  32.635  1.00  0.00    -0.388 OA
ATOM     21  H   UNL     1      -5.121 -12.650  32.890  1.00  0.00     0.211 HD
ENDBRANCH  16  20
BRANCH  18  22
ATOM     22  O   UNL     1      -3.716 -12.533  31.246  1.00  0.00    -0.387 OA
ATOM     23  H   UNL     1      -3.826 -13.486  31.502  1.00  0.00     0.211 HD
ENDBRANCH  18  22
BRANCH  19  24
ATOM     24  O   UNL     1      -3.829 -11.537  28.558  1.00  0.00    -0.384 OA
ATOM     25  H   UNL     1      -4.119 -10.602  28.414  1.00  0.00     0.211 HD
ENDBRANCH  19  24
ENDBRANCH  12  13
ENDBRANCH   1  12
BRANCH   3  26
ATOM     26  O   UNL     1      -1.556 -14.504  24.745  1.00  0.00    -0.507 OA
ATOM     27  H   UNL     1      -1.726 -13.511  24.616  1.00  0.00     0.293 HD
ENDBRANCH   3  26
BRANCH   8  28
ATOM     28  C   UNL     1       0.390 -20.144  27.438  1.00  0.00     0.021 A 
ATOM     29  C   UNL     1       1.636 -20.191  28.080  1.00  0.00     0.016 A 
ATOM     30  C   UNL     1      -0.360 -21.321  27.300  1.00  0.00     0.016 A 
ATOM     31  C   UNL     1       2.132 -21.405  28.570  1.00  0.00     0.047 A 
ATOM     32  C   UNL     1       0.132 -22.533  27.796  1.00  0.00     0.047 A 
ATOM     33  C   UNL     1       1.375 -22.574  28.448  1.00  0.00     0.115 A 
BRANCH  33  34
ATOM     34  O   UNL     1       1.860 -23.766  28.979  1.00  0.00    -0.508 OA
ATOM     35  H   UNL     1       1.816 -24.632  28.453  1.00  0.00     0.293 HD
ENDBRANCH  33  34
ENDBRANCH   8  28
BRANCH   9  36
ATOM     36  O   UNL     1       0.908 -19.096  24.821  1.00  0.00    -0.502 OA
ATOM     37  H   UNL     1       1.901 -19.231  24.963  1.00  0.00     0.293 HD
ENDBRANCH   9  36
TORSDOF 9
ENDMDL
