MODEL 1
REMARK VINA RESULT:    -3.197      0.000      0.000
REMARK INTER + INTRA:          -3.940
REMARK INTER:                  -3.852
REMARK INTRA:                  -0.089
REMARK UNBOUND:                -0.089
REMARK SMILES CC[C@@H](C)[C@@H]([NH3+])C(=O)[O-]
REMARK SMILES IDX 3 1 4 2 5 3 6 4 7 8 8 9 9 10 2 11 1 12
REMARK H PARENT 6 5 6 6 6 7
REMARK Flexibility Score: inf
ROOT
ATOM      1  C   UNL     1     155.381 103.473  41.131  1.00  0.00     0.050 C 
ATOM      2  C   UNL     1     156.171 104.772  40.888  1.00  0.00     0.014 C 
ENDROOT
BRANCH   1   3
ATOM      3  C   UNL     1     153.936 103.522  40.538  1.00  0.00     0.230 C 
BRANCH   3   4
ATOM      4  N   UNL     1     153.596 102.285  39.819  1.00  0.00    -0.350 N 
ATOM      5  H   UNL     1     153.850 102.389  38.810  1.00  0.00     0.345 HD
ATOM      6  H   UNL     1     152.574 102.073  39.880  1.00  0.00     0.345 HD
ATOM      7  H   UNL     1     154.140 101.482  40.210  1.00  0.00     0.345 HD
ENDBRANCH   3   4
BRANCH   3   8
ATOM      8  C   UNL     1     152.888 103.835  41.580  1.00  0.00     0.099 C 
ATOM      9  O   UNL     1     152.079 102.942  41.948  1.00  0.00    -0.544 OA
ATOM     10  O   UNL     1     152.789 105.110  42.125  1.00  0.00    -0.544 OA
ENDBRANCH   3   8
ENDBRANCH   1   3
BRANCH   1  11
ATOM     11  C   UNL     1     156.207 102.265  40.618  1.00  0.00     0.006 C 
ATOM     12  C   UNL     1     157.449 102.673  39.823  1.00  0.00     0.004 C 
ENDBRANCH   1  11
TORSDOF 4
ENDMDL
MODEL 2
REMARK VINA RESULT:    -3.089      1.791      2.352
REMARK INTER + INTRA:          -3.810
REMARK INTER:                  -3.729
REMARK INTRA:                  -0.081
REMARK UNBOUND:                -0.089
REMARK SMILES CC[C@@H](C)[C@@H]([NH3+])C(=O)[O-]
REMARK SMILES IDX 3 1 4 2 5 3 6 4 7 8 8 9 9 10 2 11 1 12
REMARK H PARENT 6 5 6 6 6 7
REMARK Flexibility Score: inf
ROOT
ATOM      1  C   UNL     1     156.075 103.217  40.507  1.00  0.00     0.050 C 
ATOM      2  C   UNL     1     156.798 101.889  40.798  1.00  0.00     0.014 C 
ENDROOT
BRANCH   1   3
ATOM      3  C   UNL     1     154.739 103.368  41.305  1.00  0.00     0.230 C 
BRANCH   3   4
ATOM      4  N   UNL     1     154.626 104.689  41.940  1.00  0.00    -0.350 N 
ATOM      5  H   UNL     1     155.183 104.699  42.825  1.00  0.00     0.345 HD
ATOM      6  H   UNL     1     153.634 104.919  42.174  1.00  0.00     0.345 HD
ATOM      7  H   UNL     1     155.011 105.427  41.306  1.00  0.00     0.345 HD
ENDBRANCH   3   4
BRANCH   3   8
ATOM      8  C   UNL     1     153.520 103.079  40.461  1.00  0.00     0.099 C 
ATOM      9  O   UNL     1     153.608 103.085  39.204  1.00  0.00    -0.544 OA
ATOM     10  O   UNL     1     152.289 102.829  41.056  1.00  0.00    -0.544 OA
ENDBRANCH   3   8
ENDBRANCH   1   3
BRANCH   1  11
ATOM     11  C   UNL     1     157.054 104.397  40.736  1.00  0.00     0.006 C 
ATOM     12  C   UNL     1     158.253 104.385  39.785  1.00  0.00     0.004 C 
ENDBRANCH   1  11
TORSDOF 4
ENDMDL
MODEL 3
REMARK VINA RESULT:    -3.050      2.240      2.456
REMARK INTER + INTRA:          -3.763
REMARK INTER:                  -3.662
REMARK INTRA:                  -0.101
REMARK UNBOUND:                -0.089
REMARK SMILES CC[C@@H](C)[C@@H]([NH3+])C(=O)[O-]
REMARK SMILES IDX 3 1 4 2 5 3 6 4 7 8 8 9 9 10 2 11 1 12
REMARK H PARENT 6 5 6 6 6 7
REMARK Flexibility Score: inf
ROOT
ATOM      1  C   UNL     1     154.595 103.433  41.242  1.00  0.00     0.050 C 
ATOM      2  C   UNL     1     154.215 104.902  41.503  1.00  0.00     0.014 C 
ENDROOT
BRANCH   1   3
ATOM      3  C   UNL     1     153.810 102.807  40.043  1.00  0.00     0.230 C 
BRANCH   3   4
ATOM      4  N   UNL     1     152.471 102.351  40.443  1.00  0.00    -0.350 N 
ATOM      5  H   UNL     1     152.120 101.652  39.749  1.00  0.00     0.345 HD
ATOM      6  H   UNL     1     151.791 103.143  40.484  1.00  0.00     0.345 HD
ATOM      7  H   UNL     1     152.515 101.885  41.378  1.00  0.00     0.345 HD
ENDBRANCH   3   4
BRANCH   3   8
ATOM      8  C   UNL     1     153.721 103.737  38.856  1.00  0.00     0.099 C 
ATOM      9  O   UNL     1     152.619 104.261  38.548  1.00  0.00    -0.544 OA
ATOM     10  O   UNL     1     154.843 104.003  38.079  1.00  0.00    -0.544 OA
ENDBRANCH   3   8
ENDBRANCH   1   3
BRANCH   1  11
ATOM     11  C   UNL     1     156.133 103.319  41.085  1.00  0.00     0.006 C 
ATOM     12  C   UNL     1     156.605 101.908  40.729  1.00  0.00     0.004 C 
ENDBRANCH   1  11
TORSDOF 4
ENDMDL
MODEL 4
REMARK VINA RESULT:    -2.922      7.155      8.103
REMARK INTER + INTRA:          -3.609
REMARK INTER:                  -3.520
REMARK INTRA:                  -0.089
REMARK UNBOUND:                -0.089
REMARK SMILES CC[C@@H](C)[C@@H]([NH3+])C(=O)[O-]
REMARK SMILES IDX 3 1 4 2 5 3 6 4 7 8 8 9 9 10 2 11 1 12
REMARK H PARENT 6 5 6 6 6 7
REMARK Flexibility Score: inf
ROOT
ATOM      1  C   UNL     1     160.895 107.452  40.452  1.00  0.00     0.050 C 
ATOM      2  C   UNL     1     161.457 108.420  39.395  1.00  0.00     0.014 C 
ENDROOT
BRANCH   1   3
ATOM      3  C   UNL     1     161.821 106.217  40.697  1.00  0.00     0.230 C 
BRANCH   3   4
ATOM      4  N   UNL     1     162.124 106.033  42.124  1.00  0.00    -0.350 N 
ATOM      5  H   UNL     1     161.533 106.682  42.692  1.00  0.00     0.345 HD
ATOM      6  H   UNL     1     163.128 106.235  42.333  1.00  0.00     0.345 HD
ATOM      7  H   UNL     1     161.901 105.053  42.415  1.00  0.00     0.345 HD
ENDBRANCH   3   4
BRANCH   3   8
ATOM      8  C   UNL     1     161.263 104.944  40.105  1.00  0.00     0.099 C 
ATOM      9  O   UNL     1     160.057 104.890  39.749  1.00  0.00    -0.544 OA
ATOM     10  O   UNL     1     162.064 103.816  39.968  1.00  0.00    -0.544 OA
ENDBRANCH   3   8
ENDBRANCH   1   3
BRANCH   1  11
ATOM     11  C   UNL     1     160.577 108.238  41.751  1.00  0.00     0.006 C 
ATOM     12  C   UNL     1     159.178 108.859  41.757  1.00  0.00     0.004 C 
ENDBRANCH   1  11
TORSDOF 4
ENDMDL
MODEL 5
REMARK VINA RESULT:    -2.904      1.749      2.037
REMARK INTER + INTRA:          -3.587
REMARK INTER:                  -3.675
REMARK INTRA:                   0.088
REMARK UNBOUND:                -0.089
REMARK SMILES CC[C@@H](C)[C@@H]([NH3+])C(=O)[O-]
REMARK SMILES IDX 3 1 4 2 5 3 6 4 7 8 8 9 9 10 2 11 1 12
REMARK H PARENT 6 5 6 6 6 7
REMARK Flexibility Score: inf
ROOT
ATOM      1  C   UNL     1     154.719 103.701  40.797  1.00  0.00     0.050 C 
ATOM      2  C   UNL     1     154.096 102.634  39.879  1.00  0.00     0.014 C 
ENDROOT
BRANCH   1   3
ATOM      3  C   UNL     1     153.724 104.223  41.884  1.00  0.00     0.230 C 
BRANCH   3   4
ATOM      4  N   UNL     1     153.879 105.666  42.122  1.00  0.00    -0.350 N 
ATOM      5  H   UNL     1     152.935 106.103  42.229  1.00  0.00     0.345 HD
ATOM      6  H   UNL     1     154.371 106.136  41.329  1.00  0.00     0.345 HD
ATOM      7  H   UNL     1     154.414 105.828  43.006  1.00  0.00     0.345 HD
ENDBRANCH   3   4
BRANCH   3   8
ATOM      8  C   UNL     1     152.286 103.889  41.566  1.00  0.00     0.099 C 
ATOM      9  O   UNL     1     151.729 102.907  42.124  1.00  0.00    -0.544 OA
ATOM     10  O   UNL     1     151.571 104.641  40.642  1.00  0.00    -0.544 OA
ENDBRANCH   3   8
ENDBRANCH   1   3
BRANCH   1  11
ATOM     11  C   UNL     1     156.041 103.156  41.397  1.00  0.00     0.006 C 
ATOM     12  C   UNL     1     156.613 101.965  40.624  1.00  0.00     0.004 C 
ENDBRANCH   1  11
TORSDOF 4
ENDMDL
MODEL 6
REMARK VINA RESULT:    -2.868      2.177      3.840
REMARK INTER + INTRA:          -3.544
REMARK INTER:                  -3.467
REMARK INTRA:                  -0.077
REMARK UNBOUND:                -0.089
REMARK SMILES CC[C@@H](C)[C@@H]([NH3+])C(=O)[O-]
REMARK SMILES IDX 3 1 4 2 5 3 6 4 7 8 8 9 9 10 2 11 1 12
REMARK H PARENT 6 5 6 6 6 7
REMARK Flexibility Score: inf
ROOT
ATOM      1  C   UNL     1     152.627 104.245  40.961  1.00  0.00     0.050 C 
ATOM      2  C   UNL     1     151.577 104.033  42.067  1.00  0.00     0.014 C 
ENDROOT
BRANCH   1   3
ATOM      3  C   UNL     1     153.730 103.137  40.952  1.00  0.00     0.230 C 
BRANCH   3   4
ATOM      4  N   UNL     1     153.736 102.380  39.692  1.00  0.00    -0.350 N 
ATOM      5  H   UNL     1     153.856 101.362  39.898  1.00  0.00     0.345 HD
ATOM      6  H   UNL     1     154.517 102.682  39.066  1.00  0.00     0.345 HD
ATOM      7  H   UNL     1     152.825 102.505  39.193  1.00  0.00     0.345 HD
ENDBRANCH   3   4
BRANCH   3   8
ATOM      8  C   UNL     1     155.107 103.683  41.250  1.00  0.00     0.099 C 
ATOM      9  O   UNL     1     156.064 102.894  41.467  1.00  0.00    -0.544 OA
ATOM     10  O   UNL     1     155.328 105.054  41.310  1.00  0.00    -0.544 OA
ENDBRANCH   3   8
ENDBRANCH   1   3
BRANCH   1  11
ATOM     11  C   UNL     1     151.911 104.399  39.595  1.00  0.00     0.006 C 
ATOM     12  C   UNL     1     151.191 105.740  39.434  1.00  0.00     0.004 C 
ENDBRANCH   1  11
TORSDOF 4
ENDMDL
MODEL 7
REMARK VINA RESULT:    -2.785      2.057      2.177
REMARK INTER + INTRA:          -3.444
REMARK INTER:                  -3.389
REMARK INTRA:                  -0.055
REMARK UNBOUND:                -0.089
REMARK SMILES CC[C@@H](C)[C@@H]([NH3+])C(=O)[O-]
REMARK SMILES IDX 3 1 4 2 5 3 6 4 7 8 8 9 9 10 2 11 1 12
REMARK H PARENT 6 5 6 6 6 7
REMARK Flexibility Score: inf
ROOT
ATOM      1  C   UNL     1     156.283 104.329  41.049  1.00  0.00     0.050 C 
ATOM      2  C   UNL     1     156.699 105.739  40.592  1.00  0.00     0.014 C 
ENDROOT
BRANCH   1   3
ATOM      3  C   UNL     1     154.747 104.205  41.314  1.00  0.00     0.230 C 
BRANCH   3   4
ATOM      4  N   UNL     1     154.239 105.322  42.125  1.00  0.00    -0.350 N 
ATOM      5  H   UNL     1     153.199 105.371  42.035  1.00  0.00     0.345 HD
ATOM      6  H   UNL     1     154.640 106.236  41.814  1.00  0.00     0.345 HD
ATOM      7  H   UNL     1     154.472 105.168  43.133  1.00  0.00     0.345 HD
ENDBRANCH   3   4
BRANCH   3   8
ATOM      8  C   UNL     1     153.944 104.065  40.042  1.00  0.00     0.099 C 
ATOM      9  O   UNL     1     153.470 102.944  39.717  1.00  0.00    -0.544 OA
ATOM     10  O   UNL     1     153.742 105.158  39.208  1.00  0.00    -0.544 OA
ENDBRANCH   3   8
ENDBRANCH   1   3
BRANCH   1  11
ATOM     11  C   UNL     1     156.808 103.283  40.031  1.00  0.00     0.006 C 
ATOM     12  C   UNL     1     156.933 101.875  40.618  1.00  0.00     0.004 C 
ENDBRANCH   1  11
TORSDOF 4
ENDMDL
MODEL 8
REMARK VINA RESULT:    -2.782      2.624      3.479
REMARK INTER + INTRA:          -3.440
REMARK INTER:                  -3.359
REMARK INTRA:                  -0.081
REMARK UNBOUND:                -0.089
REMARK SMILES CC[C@@H](C)[C@@H]([NH3+])C(=O)[O-]
REMARK SMILES IDX 3 1 4 2 5 3 6 4 7 8 8 9 9 10 2 11 1 12
REMARK H PARENT 6 5 6 6 6 7
REMARK Flexibility Score: inf
ROOT
ATOM      1  C   UNL     1     152.654 103.630  41.048  1.00  0.00     0.050 C 
ATOM      2  C   UNL     1     151.887 102.841  42.125  1.00  0.00     0.014 C 
ENDROOT
BRANCH   1   3
ATOM      3  C   UNL     1     151.759 104.679  40.312  1.00  0.00     0.230 C 
BRANCH   3   4
ATOM      4  N   UNL     1     150.774 105.291  41.216  1.00  0.00    -0.350 N 
ATOM      5  H   UNL     1     151.261 105.950  41.866  1.00  0.00     0.345 HD
ATOM      6  H   UNL     1     150.279 104.571  41.790  1.00  0.00     0.345 HD
ATOM      7  H   UNL     1     150.072 105.837  40.666  1.00  0.00     0.345 HD
ENDBRANCH   3   4
BRANCH   3   8
ATOM      8  C   UNL     1     152.567 105.745  39.609  1.00  0.00     0.099 C 
ATOM      9  O   UNL     1     153.245 105.451  38.589  1.00  0.00    -0.544 OA
ATOM     10  O   UNL     1     152.593 107.048  40.091  1.00  0.00    -0.544 OA
ENDBRANCH   3   8
ENDBRANCH   1   3
BRANCH   1  11
ATOM     11  C   UNL     1     153.927 104.254  41.677  1.00  0.00     0.006 C 
ATOM     12  C   UNL     1     155.207 103.483  41.349  1.00  0.00     0.004 C 
ENDBRANCH   1  11
TORSDOF 4
ENDMDL
MODEL 9
REMARK VINA RESULT:    -1.158      6.644      7.622
REMARK INTER + INTRA:          -1.484
REMARK INTER:                  -1.417
REMARK INTRA:                  -0.067
REMARK UNBOUND:                -0.089
REMARK SMILES CC[C@@H](C)[C@@H]([NH3+])C(=O)[O-]
REMARK SMILES IDX 3 1 4 2 5 3 6 4 7 8 8 9 9 10 2 11 1 12
REMARK H PARENT 6 5 6 6 6 7
REMARK Flexibility Score: inf
ROOT
ATOM      1  C   UNL     1     160.719 105.639  40.043  1.00  0.00     0.050 C 
ATOM      2  C   UNL     1     159.246 105.254  39.815  1.00  0.00     0.014 C 
ENDROOT
BRANCH   1   3
ATOM      3  C   UNL     1     160.937 106.460  41.355  1.00  0.00     0.230 C 
BRANCH   3   4
ATOM      4  N   UNL     1     162.125 106.008  42.094  1.00  0.00    -0.350 N 
ATOM      5  H   UNL     1     162.752 106.825  42.277  1.00  0.00     0.345 HD
ATOM      6  H   UNL     1     162.665 105.295  41.554  1.00  0.00     0.345 HD
ATOM      7  H   UNL     1     161.842 105.602  43.015  1.00  0.00     0.345 HD
ENDBRANCH   3   4
BRANCH   3   8
ATOM      8  C   UNL     1     161.000 107.949  41.107  1.00  0.00     0.099 C 
ATOM      9  O   UNL     1     160.239 108.726  41.741  1.00  0.00    -0.544 OA
ATOM     10  O   UNL     1     161.877 108.474  40.165  1.00  0.00    -0.544 OA
ENDBRANCH   3   8
ENDBRANCH   1   3
BRANCH   1  11
ATOM     11  C   UNL     1     161.600 104.365  39.971  1.00  0.00     0.006 C 
ATOM     12  C   UNL     1     160.940 103.212  39.213  1.00  0.00     0.004 C 
ENDBRANCH   1  11
TORSDOF 4
ENDMDL
