MODEL 1
REMARK VINA RESULT:    -5.127      0.000      0.000
REMARK INTER + INTRA:          -8.373
REMARK INTER:                  -7.525
REMARK INTRA:                  -0.848
REMARK UNBOUND:                -0.848
REMARK SMILES CC(C)COC(=O)c1ccccc1C(=O)OCC(C)C
REMARK SMILES IDX 8 1 9 2 10 3 11 4 12 5 13 6 6 7 7 8 5 9 4 10 2 11 1 12 3 13
REMARK SMILES IDX 14 14 15 15 16 16 17 17 18 18 19 19 20 20
REMARK H PARENT
REMARK Flexibility Score: inf
ROOT
ATOM      1  C   UNL     1      -7.180  31.417  58.454  1.00  0.00     0.074 A 
ATOM      2  C   UNL     1      -6.252  31.854  59.418  1.00  0.00     0.016 A 
ATOM      3  C   UNL     1      -5.086  31.127  59.667  1.00  0.00     0.001 A 
ATOM      4  C   UNL     1      -4.831  29.953  58.962  1.00  0.00     0.001 A 
ATOM      5  C   UNL     1      -5.728  29.512  57.989  1.00  0.00     0.016 A 
ATOM      6  C   UNL     1      -6.893  30.243  57.706  1.00  0.00     0.074 A 
ENDROOT
BRANCH   1   7
ATOM      7  C   UNL     1      -8.462  32.152  58.318  1.00  0.00     0.339 C 
ATOM      8  O   UNL     1      -8.568  33.076  57.465  1.00  0.00    -0.246 OA
BRANCH   7   9
ATOM      9  O   UNL     1      -9.537  31.853  59.164  1.00  0.00    -0.462 OA
BRANCH   9  10
ATOM     10  C   UNL     1     -10.673  32.699  59.331  1.00  0.00     0.236 C 
BRANCH  10  11
ATOM     11  C   UNL     1     -11.979  31.889  59.248  1.00  0.00     0.021 C 
ATOM     12  C   UNL     1     -13.139  32.686  59.853  1.00  0.00     0.011 C 
ATOM     13  C   UNL     1     -12.296  31.504  57.797  1.00  0.00     0.011 C 
ENDBRANCH  10  11
ENDBRANCH   9  10
ENDBRANCH   7   9
ENDBRANCH   1   7
BRANCH   6  14
ATOM     14  C   UNL     1      -7.751  29.778  56.601  1.00  0.00     0.339 C 
ATOM     15  O   UNL     1      -7.799  30.431  55.522  1.00  0.00    -0.246 OA
BRANCH  14  16
ATOM     16  O   UNL     1      -8.488  28.598  56.753  1.00  0.00    -0.462 OA
BRANCH  16  17
ATOM     17  C   UNL     1      -8.590  27.601  55.736  1.00  0.00     0.236 C 
BRANCH  17  18
ATOM     18  C   UNL     1      -7.302  26.760  55.645  1.00  0.00     0.021 C 
ATOM     19  C   UNL     1      -6.455  27.169  54.433  1.00  0.00     0.011 C 
ATOM     20  C   UNL     1      -7.645  25.268  55.577  1.00  0.00     0.011 C 
ENDBRANCH  17  18
ENDBRANCH  16  17
ENDBRANCH  14  16
ENDBRANCH   6  14
TORSDOF 8
ENDMDL
MODEL 2
REMARK VINA RESULT:    -5.062      0.155      5.690
REMARK INTER + INTRA:          -8.277
REMARK INTER:                  -7.475
REMARK INTRA:                  -0.801
REMARK UNBOUND:                -0.848
REMARK SMILES CC(C)COC(=O)c1ccccc1C(=O)OCC(C)C
REMARK SMILES IDX 8 1 9 2 10 3 11 4 12 5 13 6 6 7 7 8 5 9 4 10 2 11 1 12 3 13
REMARK SMILES IDX 14 14 15 15 16 16 17 17 18 18 19 19 20 20
REMARK H PARENT
REMARK Flexibility Score: inf
ROOT
ATOM      1  C   UNL     1      -6.855  30.196  57.702  1.00  0.00     0.074 A 
ATOM      2  C   UNL     1      -5.701  29.458  58.027  1.00  0.00     0.016 A 
ATOM      3  C   UNL     1      -4.809  29.916  58.998  1.00  0.00     0.001 A 
ATOM      4  C   UNL     1      -5.052  31.120  59.657  1.00  0.00     0.001 A 
ATOM      5  C   UNL     1      -6.200  31.858  59.365  1.00  0.00     0.016 A 
ATOM      6  C   UNL     1      -7.121  31.400  58.409  1.00  0.00     0.074 A 
ENDROOT
BRANCH   1   7
ATOM      7  C   UNL     1      -7.702  29.732  56.576  1.00  0.00     0.339 C 
ATOM      8  O   UNL     1      -7.749  30.404  55.508  1.00  0.00    -0.246 OA
BRANCH   7   9
ATOM      9  O   UNL     1      -8.482  28.577  56.712  1.00  0.00    -0.462 OA
BRANCH   9  10
ATOM     10  C   UNL     1      -8.585  27.568  55.708  1.00  0.00     0.236 C 
BRANCH  10  11
ATOM     11  C   UNL     1      -7.285  26.748  55.619  1.00  0.00     0.021 C 
ATOM     12  C   UNL     1      -7.603  25.249  55.604  1.00  0.00     0.011 C 
ATOM     13  C   UNL     1      -6.475  27.134  54.375  1.00  0.00     0.011 C 
ENDBRANCH  10  11
ENDBRANCH   9  10
ENDBRANCH   7   9
ENDBRANCH   1   7
BRANCH   6  14
ATOM     14  C   UNL     1      -8.360  32.175  58.216  1.00  0.00     0.339 C 
ATOM     15  O   UNL     1      -8.346  33.222  57.512  1.00  0.00    -0.246 OA
BRANCH  14  16
ATOM     16  O   UNL     1      -9.551  31.724  58.797  1.00  0.00    -0.462 OA
BRANCH  16  17
ATOM     17  C   UNL     1     -10.521  32.597  59.377  1.00  0.00     0.236 C 
BRANCH  17  18
ATOM     18  C   UNL     1     -11.937  31.994  59.295  1.00  0.00     0.021 C 
ATOM     19  C   UNL     1     -12.269  31.547  57.866  1.00  0.00     0.011 C 
ATOM     20  C   UNL     1     -12.974  33.007  59.792  1.00  0.00     0.011 C 
ENDBRANCH  17  18
ENDBRANCH  16  17
ENDBRANCH  14  16
ENDBRANCH   6  14
TORSDOF 8
ENDMDL
MODEL 3
REMARK VINA RESULT:    -4.948      1.677      2.675
REMARK INTER + INTRA:          -8.110
REMARK INTER:                  -7.136
REMARK INTRA:                  -0.974
REMARK UNBOUND:                -0.848
REMARK SMILES CC(C)COC(=O)c1ccccc1C(=O)OCC(C)C
REMARK SMILES IDX 8 1 9 2 10 3 11 4 12 5 13 6 6 7 7 8 5 9 4 10 2 11 1 12 3 13
REMARK SMILES IDX 14 14 15 15 16 16 17 17 18 18 19 19 20 20
REMARK H PARENT
REMARK Flexibility Score: inf
ROOT
ATOM      1  C   UNL     1      -7.253  31.427  58.513  1.00  0.00     0.074 A 
ATOM      2  C   UNL     1      -6.351  31.889  59.489  1.00  0.00     0.016 A 
ATOM      3  C   UNL     1      -5.149  31.220  59.725  1.00  0.00     0.001 A 
ATOM      4  C   UNL     1      -4.830  30.077  58.994  1.00  0.00     0.001 A 
ATOM      5  C   UNL     1      -5.701  29.612  58.008  1.00  0.00     0.016 A 
ATOM      6  C   UNL     1      -6.903  30.287  57.739  1.00  0.00     0.074 A 
ENDROOT
BRANCH   1   7
ATOM      7  C   UNL     1      -8.571  32.096  58.390  1.00  0.00     0.339 C 
ATOM      8  O   UNL     1      -9.472  31.870  59.244  1.00  0.00    -0.246 OA
BRANCH   7   9
ATOM      9  O   UNL     1      -8.831  32.941  57.303  1.00  0.00    -0.462 OA
BRANCH   9  10
ATOM     10  C   UNL     1      -8.988  34.354  57.419  1.00  0.00     0.236 C 
BRANCH  10  11
ATOM     11  C   UNL     1      -8.353  35.078  56.218  1.00  0.00     0.021 C 
ATOM     12  C   UNL     1      -7.797  36.439  56.650  1.00  0.00     0.011 C 
ATOM     13  C   UNL     1      -7.246  34.226  55.585  1.00  0.00     0.011 C 
ENDBRANCH  10  11
ENDBRANCH   9  10
ENDBRANCH   7   9
ENDBRANCH   1   7
BRANCH   6  14
ATOM     14  C   UNL     1      -7.733  29.804  56.621  1.00  0.00     0.339 C 
ATOM     15  O   UNL     1      -7.754  30.439  55.530  1.00  0.00    -0.246 OA
BRANCH  14  16
ATOM     16  O   UNL     1      -8.473  28.626  56.773  1.00  0.00    -0.462 OA
BRANCH  16  17
ATOM     17  C   UNL     1      -8.579  27.629  55.756  1.00  0.00     0.236 C 
BRANCH  17  18
ATOM     18  C   UNL     1      -7.301  26.771  55.676  1.00  0.00     0.021 C 
ATOM     19  C   UNL     1      -6.438  27.172  54.473  1.00  0.00     0.011 C 
ATOM     20  C   UNL     1      -7.663  25.284  55.602  1.00  0.00     0.011 C 
ENDBRANCH  17  18
ENDBRANCH  16  17
ENDBRANCH  14  16
ENDBRANCH   6  14
TORSDOF 8
ENDMDL
MODEL 4
REMARK VINA RESULT:    -4.929      1.610      5.675
REMARK INTER + INTRA:          -8.083
REMARK INTER:                  -7.197
REMARK INTRA:                  -0.886
REMARK UNBOUND:                -0.848
REMARK SMILES CC(C)COC(=O)c1ccccc1C(=O)OCC(C)C
REMARK SMILES IDX 8 1 9 2 10 3 11 4 12 5 13 6 6 7 7 8 5 9 4 10 2 11 1 12 3 13
REMARK SMILES IDX 14 14 15 15 16 16 17 17 18 18 19 19 20 20
REMARK H PARENT
REMARK Flexibility Score: inf
ROOT
ATOM      1  C   UNL     1      -6.978  30.232  57.744  1.00  0.00     0.074 A 
ATOM      2  C   UNL     1      -5.702  29.693  57.990  1.00  0.00     0.016 A 
ATOM      3  C   UNL     1      -4.879  30.227  58.983  1.00  0.00     0.001 A 
ATOM      4  C   UNL     1      -5.315  31.310  59.743  1.00  0.00     0.001 A 
ATOM      5  C   UNL     1      -6.584  31.849  59.530  1.00  0.00     0.016 A 
ATOM      6  C   UNL     1      -7.436  31.308  58.553  1.00  0.00     0.074 A 
ENDROOT
BRANCH   1   7
ATOM      7  C   UNL     1      -7.760  29.714  56.595  1.00  0.00     0.339 C 
ATOM      8  O   UNL     1      -7.748  30.335  55.496  1.00  0.00    -0.246 OA
BRANCH   7   9
ATOM      9  O   UNL     1      -8.545  28.564  56.741  1.00  0.00    -0.462 OA
BRANCH   9  10
ATOM     10  C   UNL     1      -8.644  27.541  55.751  1.00  0.00     0.236 C 
BRANCH  10  11
ATOM     11  C   UNL     1      -7.341  26.727  55.670  1.00  0.00     0.021 C 
ATOM     12  C   UNL     1      -7.652  25.226  55.649  1.00  0.00     0.011 C 
ATOM     13  C   UNL     1      -6.523  27.119  54.433  1.00  0.00     0.011 C 
ENDBRANCH  10  11
ENDBRANCH   9  10
ENDBRANCH   7   9
ENDBRANCH   1   7
BRANCH   6  14
ATOM     14  C   UNL     1      -8.799  31.858  58.442  1.00  0.00     0.339 C 
ATOM     15  O   UNL     1      -9.551  31.890  59.455  1.00  0.00    -0.246 OA
BRANCH  14  16
ATOM     16  O   UNL     1      -9.238  32.364  57.213  1.00  0.00    -0.462 OA
BRANCH  16  17
ATOM     17  C   UNL     1      -9.397  33.758  56.951  1.00  0.00     0.236 C 
BRANCH  17  18
ATOM     18  C   UNL     1      -8.035  34.479  56.906  1.00  0.00     0.021 C 
ATOM     19  C   UNL     1      -8.212  36.002  56.859  1.00  0.00     0.011 C 
ATOM     20  C   UNL     1      -7.219  33.999  55.701  1.00  0.00     0.011 C 
ENDBRANCH  17  18
ENDBRANCH  16  17
ENDBRANCH  14  16
ENDBRANCH   6  14
TORSDOF 8
ENDMDL
MODEL 5
REMARK VINA RESULT:    -4.702     14.335     15.998
REMARK INTER + INTRA:          -7.749
REMARK INTER:                  -6.626
REMARK INTRA:                  -1.123
REMARK UNBOUND:                -0.848
REMARK SMILES CC(C)COC(=O)c1ccccc1C(=O)OCC(C)C
REMARK SMILES IDX 8 1 9 2 10 3 11 4 12 5 13 6 6 7 7 8 5 9 4 10 2 11 1 12 3 13
REMARK SMILES IDX 14 14 15 15 16 16 17 17 18 18 19 19 20 20
REMARK H PARENT
REMARK Flexibility Score: inf
ROOT
ATOM      1  C   UNL     1      -4.492  36.346  42.834  1.00  0.00     0.074 A 
ATOM      2  C   UNL     1      -4.169  37.581  42.243  1.00  0.00     0.016 A 
ATOM      3  C   UNL     1      -3.819  37.657  40.893  1.00  0.00     0.001 A 
ATOM      4  C   UNL     1      -3.784  36.501  40.115  1.00  0.00     0.001 A 
ATOM      5  C   UNL     1      -4.120  35.269  40.676  1.00  0.00     0.016 A 
ATOM      6  C   UNL     1      -4.499  35.177  42.026  1.00  0.00     0.074 A 
ENDROOT
BRANCH   1   7
ATOM      7  C   UNL     1      -4.730  36.300  44.298  1.00  0.00     0.339 C 
ATOM      8  O   UNL     1      -3.773  36.052  45.082  1.00  0.00    -0.246 OA
BRANCH   7   9
ATOM      9  O   UNL     1      -6.022  36.487  44.806  1.00  0.00    -0.462 OA
BRANCH   9  10
ATOM     10  C   UNL     1      -7.173  36.691  43.988  1.00  0.00     0.236 C 
BRANCH  10  11
ATOM     11  C   UNL     1      -7.886  38.002  44.361  1.00  0.00     0.021 C 
ATOM     12  C   UNL     1      -8.385  37.943  45.810  1.00  0.00     0.011 C 
ATOM     13  C   UNL     1      -6.959  39.208  44.166  1.00  0.00     0.011 C 
ENDBRANCH  10  11
ENDBRANCH   9  10
ENDBRANCH   7   9
ENDBRANCH   1   7
BRANCH   6  14
ATOM     14  C   UNL     1      -4.935  33.864  42.534  1.00  0.00     0.339 C 
ATOM     15  O   UNL     1      -4.093  33.071  43.037  1.00  0.00    -0.246 OA
BRANCH  14  16
ATOM     16  O   UNL     1      -6.291  33.521  42.475  1.00  0.00    -0.462 OA
BRANCH  16  17
ATOM     17  C   UNL     1      -7.031  33.052  43.603  1.00  0.00     0.236 C 
BRANCH  17  18
ATOM     18  C   UNL     1      -8.545  33.037  43.313  1.00  0.00     0.021 C 
ATOM     19  C   UNL     1      -9.247  31.910  44.082  1.00  0.00     0.011 C 
ATOM     20  C   UNL     1      -8.796  32.893  41.808  1.00  0.00     0.011 C 
ENDBRANCH  17  18
ENDBRANCH  16  17
ENDBRANCH  14  16
ENDBRANCH   6  14
TORSDOF 8
ENDMDL
MODEL 6
REMARK VINA RESULT:    -4.626     13.890     16.006
REMARK INTER + INTRA:          -7.637
REMARK INTER:                  -6.624
REMARK INTRA:                  -1.014
REMARK UNBOUND:                -0.848
REMARK SMILES CC(C)COC(=O)c1ccccc1C(=O)OCC(C)C
REMARK SMILES IDX 8 1 9 2 10 3 11 4 12 5 13 6 6 7 7 8 5 9 4 10 2 11 1 12 3 13
REMARK SMILES IDX 14 14 15 15 16 16 17 17 18 18 19 19 20 20
REMARK H PARENT
REMARK Flexibility Score: inf
ROOT
ATOM      1  C   UNL     1      -5.512  35.135  43.339  1.00  0.00     0.074 A 
ATOM      2  C   UNL     1      -5.044  34.051  42.575  1.00  0.00     0.016 A 
ATOM      3  C   UNL     1      -4.202  34.257  41.481  1.00  0.00     0.001 A 
ATOM      4  C   UNL     1      -3.817  35.550  41.131  1.00  0.00     0.001 A 
ATOM      5  C   UNL     1      -4.254  36.639  41.886  1.00  0.00     0.016 A 
ATOM      6  C   UNL     1      -5.081  36.448  43.005  1.00  0.00     0.074 A 
ENDROOT
BRANCH   1   7
ATOM      7  C   UNL     1      -6.506  34.875  44.410  1.00  0.00     0.339 C 
ATOM      8  O   UNL     1      -6.158  34.950  45.621  1.00  0.00    -0.246 OA
BRANCH   7   9
ATOM      9  O   UNL     1      -7.815  34.503  44.079  1.00  0.00    -0.462 OA
BRANCH   9  10
ATOM     10  C   UNL     1      -8.445  33.315  44.556  1.00  0.00     0.236 C 
BRANCH  10  11
ATOM     11  C   UNL     1      -8.746  32.349  43.396  1.00  0.00     0.021 C 
ATOM     12  C   UNL     1     -10.142  31.738  43.561  1.00  0.00     0.011 C 
ATOM     13  C   UNL     1      -8.633  33.062  42.043  1.00  0.00     0.011 C 
ENDBRANCH  10  11
ENDBRANCH   9  10
ENDBRANCH   7   9
ENDBRANCH   1   7
BRANCH   6  14
ATOM     14  C   UNL     1      -5.428  37.627  43.818  1.00  0.00     0.339 C 
ATOM     15  O   UNL     1      -4.598  38.087  44.650  1.00  0.00    -0.246 OA
BRANCH  14  16
ATOM     16  O   UNL     1      -6.673  38.242  43.640  1.00  0.00    -0.462 OA
BRANCH  16  17
ATOM     17  C   UNL     1      -7.007  39.513  44.198  1.00  0.00     0.236 C 
BRANCH  17  18
ATOM     18  C   UNL     1      -7.985  39.366  45.380  1.00  0.00     0.021 C 
ATOM     19  C   UNL     1      -7.290  39.655  46.717  1.00  0.00     0.011 C 
ATOM     20  C   UNL     1      -8.599  37.963  45.391  1.00  0.00     0.011 C 
ENDBRANCH  17  18
ENDBRANCH  16  17
ENDBRANCH  14  16
ENDBRANCH   6  14
TORSDOF 8
ENDMDL
MODEL 7
REMARK VINA RESULT:    -4.625     14.381     16.532
REMARK INTER + INTRA:          -7.636
REMARK INTER:                  -6.634
REMARK INTRA:                  -1.002
REMARK UNBOUND:                -0.848
REMARK SMILES CC(C)COC(=O)c1ccccc1C(=O)OCC(C)C
REMARK SMILES IDX 8 1 9 2 10 3 11 4 12 5 13 6 6 7 7 8 5 9 4 10 2 11 1 12 3 13
REMARK SMILES IDX 14 14 15 15 16 16 17 17 18 18 19 19 20 20
REMARK H PARENT
REMARK Flexibility Score: inf
ROOT
ATOM      1  C   UNL     1      -4.472  35.293  42.104  1.00  0.00     0.074 A 
ATOM      2  C   UNL     1      -4.151  35.309  40.734  1.00  0.00     0.016 A 
ATOM      3  C   UNL     1      -3.859  36.508  40.082  1.00  0.00     0.001 A 
ATOM      4  C   UNL     1      -3.887  37.711  40.786  1.00  0.00     0.001 A 
ATOM      5  C   UNL     1      -4.184  37.717  42.149  1.00  0.00     0.016 A 
ATOM      6  C   UNL     1      -4.455  36.517  42.828  1.00  0.00     0.074 A 
ENDROOT
BRANCH   1   7
ATOM      7  C   UNL     1      -4.899  34.013  42.719  1.00  0.00     0.339 C 
ATOM      8  O   UNL     1      -4.070  33.325  43.377  1.00  0.00    -0.246 OA
BRANCH   7   9
ATOM      9  O   UNL     1      -6.206  33.545  42.533  1.00  0.00    -0.462 OA
BRANCH   9  10
ATOM     10  C   UNL     1      -7.034  33.066  43.592  1.00  0.00     0.236 C 
BRANCH  10  11
ATOM     11  C   UNL     1      -8.522  33.160  43.211  1.00  0.00     0.021 C 
ATOM     12  C   UNL     1      -8.696  32.978  41.699  1.00  0.00     0.011 C 
ATOM     13  C   UNL     1      -9.352  32.118  43.972  1.00  0.00     0.011 C 
ENDBRANCH  10  11
ENDBRANCH   9  10
ENDBRANCH   7   9
ENDBRANCH   1   7
BRANCH   6  14
ATOM     14  C   UNL     1      -4.665  36.578  44.285  1.00  0.00     0.339 C 
ATOM     15  O   UNL     1      -3.673  36.622  45.064  1.00  0.00    -0.246 OA
BRANCH  14  16
ATOM     16  O   UNL     1      -5.970  36.613  44.790  1.00  0.00    -0.462 OA
BRANCH  16  17
ATOM     17  C   UNL     1      -7.123  36.806  43.971  1.00  0.00     0.236 C 
BRANCH  17  18
ATOM     18  C   UNL     1      -7.916  38.056  44.404  1.00  0.00     0.021 C 
ATOM     19  C   UNL     1      -7.026  39.305  44.407  1.00  0.00     0.011 C 
ATOM     20  C   UNL     1      -8.534  37.838  45.789  1.00  0.00     0.011 C 
ENDBRANCH  17  18
ENDBRANCH  16  17
ENDBRANCH  14  16
ENDBRANCH   6  14
TORSDOF 8
ENDMDL
MODEL 8
REMARK VINA RESULT:    -4.567     14.180     15.953
REMARK INTER + INTRA:          -7.551
REMARK INTER:                  -6.597
REMARK INTRA:                  -0.954
REMARK UNBOUND:                -0.848
REMARK SMILES CC(C)COC(=O)c1ccccc1C(=O)OCC(C)C
REMARK SMILES IDX 8 1 9 2 10 3 11 4 12 5 13 6 6 7 7 8 5 9 4 10 2 11 1 12 3 13
REMARK SMILES IDX 14 14 15 15 16 16 17 17 18 18 19 19 20 20
REMARK H PARENT
REMARK Flexibility Score: inf
ROOT
ATOM      1  C   UNL     1      -7.032  36.704  44.346  1.00  0.00     0.074 A 
ATOM      2  C   UNL     1      -7.815  37.870  44.421  1.00  0.00     0.016 A 
ATOM      3  C   UNL     1      -7.332  39.088  43.942  1.00  0.00     0.001 A 
ATOM      4  C   UNL     1      -6.057  39.163  43.384  1.00  0.00     0.001 A 
ATOM      5  C   UNL     1      -5.270  38.015  43.281  1.00  0.00     0.016 A 
ATOM      6  C   UNL     1      -5.750  36.775  43.734  1.00  0.00     0.074 A 
ENDROOT
BRANCH   1   7
ATOM      7  C   UNL     1      -7.538  35.464  44.984  1.00  0.00     0.339 C 
ATOM      8  O   UNL     1      -7.405  35.299  46.229  1.00  0.00    -0.246 OA
BRANCH   7   9
ATOM      9  O   UNL     1      -8.122  34.459  44.203  1.00  0.00    -0.462 OA
BRANCH   9  10
ATOM     10  C   UNL     1      -8.294  33.113  44.642  1.00  0.00     0.236 C 
BRANCH  10  11
ATOM     11  C   UNL     1      -8.712  32.202  43.474  1.00  0.00     0.021 C 
ATOM     12  C   UNL     1     -10.113  31.630  43.721  1.00  0.00     0.011 C 
ATOM     13  C   UNL     1      -8.674  32.963  42.143  1.00  0.00     0.011 C 
ENDBRANCH  10  11
ENDBRANCH   9  10
ENDBRANCH   7   9
ENDBRANCH   1   7
BRANCH   6  14
ATOM     14  C   UNL     1      -4.912  35.584  43.510  1.00  0.00     0.339 C 
ATOM     15  O   UNL     1      -3.927  35.354  44.265  1.00  0.00    -0.246 OA
BRANCH  14  16
ATOM     16  O   UNL     1      -5.233  34.704  42.471  1.00  0.00    -0.462 OA
BRANCH  16  17
ATOM     17  C   UNL     1      -4.407  34.510  41.322  1.00  0.00     0.236 C 
BRANCH  17  18
ATOM     18  C   UNL     1      -3.456  35.704  41.109  1.00  0.00     0.021 C 
ATOM     19  C   UNL     1      -3.861  36.525  39.878  1.00  0.00     0.011 C 
ATOM     20  C   UNL     1      -2.011  35.215  40.971  1.00  0.00     0.011 C 
ENDBRANCH  17  18
ENDBRANCH  16  17
ENDBRANCH  14  16
ENDBRANCH   6  14
TORSDOF 8
ENDMDL
MODEL 9
REMARK VINA RESULT:    -4.470     10.462     12.857
REMARK INTER + INTRA:          -7.409
REMARK INTER:                  -6.527
REMARK INTRA:                  -0.882
REMARK UNBOUND:                -0.848
REMARK SMILES CC(C)COC(=O)c1ccccc1C(=O)OCC(C)C
REMARK SMILES IDX 8 1 9 2 10 3 11 4 12 5 13 6 6 7 7 8 5 9 4 10 2 11 1 12 3 13
REMARK SMILES IDX 14 14 15 15 16 16 17 17 18 18 19 19 20 20
REMARK H PARENT
REMARK Flexibility Score: inf
ROOT
ATOM      1  C   UNL     1       4.165  30.263  51.355  1.00  0.00     0.074 A 
ATOM      2  C   UNL     1       4.296  29.991  49.981  1.00  0.00     0.016 A 
ATOM      3  C   UNL     1       4.611  28.707  49.533  1.00  0.00     0.001 A 
ATOM      4  C   UNL     1       4.804  27.676  50.451  1.00  0.00     0.001 A 
ATOM      5  C   UNL     1       4.660  27.919  51.817  1.00  0.00     0.016 A 
ATOM      6  C   UNL     1       4.318  29.198  52.284  1.00  0.00     0.074 A 
ENDROOT
BRANCH   1   7
ATOM      7  C   UNL     1       3.957  31.668  51.786  1.00  0.00     0.339 C 
ATOM      8  O   UNL     1       4.921  32.328  52.263  1.00  0.00    -0.246 OA
BRANCH   7   9
ATOM      9  O   UNL     1       2.684  32.246  51.705  1.00  0.00    -0.462 OA
BRANCH   9  10
ATOM     10  C   UNL     1       1.741  32.238  52.776  1.00  0.00     0.236 C 
BRANCH  10  11
ATOM     11  C   UNL     1       0.451  32.978  52.378  1.00  0.00     0.021 C 
ATOM     12  C   UNL     1       0.404  34.358  53.044  1.00  0.00     0.011 C 
ATOM     13  C   UNL     1       0.344  33.118  50.854  1.00  0.00     0.011 C 
ENDBRANCH  10  11
ENDBRANCH   9  10
ENDBRANCH   7   9
ENDBRANCH   1   7
BRANCH   6  14
ATOM     14  C   UNL     1       4.086  29.368  53.730  1.00  0.00     0.339 C 
ATOM     15  O   UNL     1       5.055  29.612  54.500  1.00  0.00    -0.246 OA
BRANCH  14  16
ATOM     16  O   UNL     1       2.782  29.280  54.231  1.00  0.00    -0.462 OA
BRANCH  16  17
ATOM     17  C   UNL     1       2.328  28.204  55.052  1.00  0.00     0.236 C 
BRANCH  17  18
ATOM     18  C   UNL     1       1.002  28.556  55.755  1.00  0.00     0.021 C 
ATOM     19  C   UNL     1       0.249  29.660  55.002  1.00  0.00     0.011 C 
ATOM     20  C   UNL     1       1.266  28.983  57.203  1.00  0.00     0.011 C 
ENDBRANCH  17  18
ENDBRANCH  16  17
ENDBRANCH  14  16
ENDBRANCH   6  14
TORSDOF 8
ENDMDL
