MODEL 1
REMARK VINA RESULT:    -7.002      0.000      0.000
REMARK INTER + INTRA:         -13.565
REMARK INTER:                 -12.733
REMARK INTRA:                  -0.832
REMARK UNBOUND:                -0.832
REMARK SMILES CCCCCCCCCCCCCCCC(=O)[O-]
REMARK SMILES IDX 9 1 10 2 11 3 12 4 13 5 14 6 15 7 16 8 17 9 18 10 8 11 7 12
REMARK SMILES IDX 6 13 5 14 4 15 3 16 2 17 1 18
REMARK H PARENT
REMARK Flexibility Score: inf
ROOT
ATOM      1  C   UNL     1      -5.601 -11.523 -35.475  1.00  0.00     0.000 C 
ENDROOT
BRANCH   1   2
ATOM      2  C   UNL     1      -6.628 -11.539 -36.621  1.00  0.00     0.000 C 
BRANCH   2   3
ATOM      3  C   UNL     1      -6.131 -10.834 -37.891  1.00  0.00     0.000 C 
BRANCH   3   4
ATOM      4  C   UNL     1      -4.599 -10.844 -38.011  1.00  0.00     0.000 C 
BRANCH   4   5
ATOM      5  C   UNL     1      -4.065  -9.448 -38.368  1.00  0.00     0.000 C 
BRANCH   5   6
ATOM      6  C   UNL     1      -2.836  -9.052 -37.532  1.00  0.00     0.006 C 
BRANCH   6   7
ATOM      7  C   UNL     1      -3.151  -8.930 -36.035  1.00  0.00     0.053 C 
BRANCH   7   8
ATOM      8  C   UNL     1      -2.487  -7.717 -35.462  1.00  0.00     0.041 C 
ATOM      9  O   UNL     1      -1.680  -7.046 -36.158  1.00  0.00    -0.550 OA
ATOM     10  O   UNL     1      -2.712  -7.363 -34.137  1.00  0.00    -0.550 OA
ENDBRANCH   7   8
ENDBRANCH   6   7
ENDBRANCH   5   6
ENDBRANCH   4   5
ENDBRANCH   3   4
ENDBRANCH   2   3
ENDBRANCH   1   2
BRANCH   1  11
ATOM     11  C   UNL     1      -5.892 -12.600 -34.407  1.00  0.00     0.000 C 
BRANCH  11  12
ATOM     12  C   UNL     1      -5.099 -12.424 -33.095  1.00  0.00    -0.000 C 
BRANCH  12  13
ATOM     13  C   UNL     1      -5.551 -13.323 -31.934  1.00  0.00    -0.000 C 
BRANCH  13  14
ATOM     14  C   UNL     1      -4.892 -12.951 -30.592  1.00  0.00    -0.000 C 
BRANCH  14  15
ATOM     15  C   UNL     1      -5.857 -12.223 -29.639  1.00  0.00    -0.000 C 
BRANCH  15  16
ATOM     16  C   UNL     1      -5.163 -11.369 -28.562  1.00  0.00    -0.000 C 
BRANCH  16  17
ATOM     17  C   UNL     1      -4.385 -10.183 -29.152  1.00  0.00    -0.003 C 
ATOM     18  C   UNL     1      -3.605  -9.443 -28.069  1.00  0.00     0.004 C 
ENDBRANCH  16  17
ENDBRANCH  15  16
ENDBRANCH  14  15
ENDBRANCH  13  14
ENDBRANCH  12  13
ENDBRANCH  11  12
ENDBRANCH   1  11
TORSDOF 14
ENDMDL
MODEL 2
REMARK VINA RESULT:    -6.891      2.566      4.674
REMARK INTER + INTRA:         -13.364
REMARK INTER:                 -12.549
REMARK INTRA:                  -0.815
REMARK UNBOUND:                -0.832
REMARK SMILES CCCCCCCCCCCCCCCC(=O)[O-]
REMARK SMILES IDX 9 1 10 2 11 3 12 4 13 5 14 6 15 7 16 8 17 9 18 10 8 11 7 12
REMARK SMILES IDX 6 13 5 14 4 15 3 16 2 17 1 18
REMARK H PARENT
REMARK Flexibility Score: inf
ROOT
ATOM      1  C   UNL     1      -3.367  -8.046 -34.148  1.00  0.00     0.000 C 
ENDROOT
BRANCH   1   2
ATOM      2  C   UNL     1      -2.668  -8.903 -35.218  1.00  0.00     0.000 C 
BRANCH   2   3
ATOM      3  C   UNL     1      -2.309  -8.116 -36.487  1.00  0.00     0.000 C 
BRANCH   3   4
ATOM      4  C   UNL     1      -2.508  -8.939 -37.768  1.00  0.00     0.000 C 
BRANCH   4   5
ATOM      5  C   UNL     1      -4.001  -9.181 -38.042  1.00  0.00     0.000 C 
BRANCH   5   6
ATOM      6  C   UNL     1      -4.363 -10.675 -38.072  1.00  0.00     0.006 C 
BRANCH   6   7
ATOM      7  C   UNL     1      -5.861 -10.927 -37.853  1.00  0.00     0.053 C 
BRANCH   7   8
ATOM      8  C   UNL     1      -6.089 -11.572 -36.521  1.00  0.00     0.041 C 
ATOM      9  O   UNL     1      -6.790 -12.616 -36.433  1.00  0.00    -0.550 OA
ATOM     10  O   UNL     1      -5.580 -10.986 -35.369  1.00  0.00    -0.550 OA
ENDBRANCH   7   8
ENDBRANCH   6   7
ENDBRANCH   5   6
ENDBRANCH   4   5
ENDBRANCH   3   4
ENDBRANCH   2   3
ENDBRANCH   1   2
BRANCH   1  11
ATOM     11  C   UNL     1      -2.509  -6.840 -33.706  1.00  0.00     0.000 C 
BRANCH  11  12
ATOM     12  C   UNL     1      -2.637  -6.485 -32.210  1.00  0.00    -0.000 C 
BRANCH  12  13
ATOM     13  C   UNL     1      -3.559  -7.408 -31.397  1.00  0.00    -0.000 C 
BRANCH  13  14
ATOM     14  C   UNL     1      -2.951  -7.827 -30.045  1.00  0.00    -0.000 C 
BRANCH  14  15
ATOM     15  C   UNL     1      -3.698  -9.010 -29.402  1.00  0.00    -0.000 C 
BRANCH  15  16
ATOM     16  C   UNL     1      -3.501  -9.132 -27.879  1.00  0.00    -0.000 C 
BRANCH  16  17
ATOM     17  C   UNL     1      -4.518 -10.077 -27.221  1.00  0.00    -0.003 C 
ATOM     18  C   UNL     1      -5.071 -11.079 -28.231  1.00  0.00     0.004 C 
ENDBRANCH  16  17
ENDBRANCH  15  16
ENDBRANCH  14  15
ENDBRANCH  13  14
ENDBRANCH  12  13
ENDBRANCH  11  12
ENDBRANCH   1  11
TORSDOF 14
ENDMDL
MODEL 3
REMARK VINA RESULT:    -6.808      2.348      6.995
REMARK INTER + INTRA:         -13.212
REMARK INTER:                 -12.307
REMARK INTRA:                  -0.905
REMARK UNBOUND:                -0.832
REMARK SMILES CCCCCCCCCCCCCCCC(=O)[O-]
REMARK SMILES IDX 9 1 10 2 11 3 12 4 13 5 14 6 15 7 16 8 17 9 18 10 8 11 7 12
REMARK SMILES IDX 6 13 5 14 4 15 3 16 2 17 1 18
REMARK H PARENT
REMARK Flexibility Score: inf
ROOT
ATOM      1  C   UNL     1      -5.737 -11.218 -35.071  1.00  0.00     0.000 C 
ENDROOT
BRANCH   1   2
ATOM      2  C   UNL     1      -5.689 -12.612 -34.421  1.00  0.00     0.000 C 
BRANCH   2   3
ATOM      3  C   UNL     1      -5.105 -12.598 -33.001  1.00  0.00     0.000 C 
BRANCH   3   4
ATOM      4  C   UNL     1      -5.752 -13.651 -32.087  1.00  0.00     0.000 C 
BRANCH   4   5
ATOM      5  C   UNL     1      -5.331 -13.443 -30.624  1.00  0.00     0.000 C 
BRANCH   5   6
ATOM      6  C   UNL     1      -5.256 -11.958 -30.233  1.00  0.00     0.006 C 
BRANCH   6   7
ATOM      7  C   UNL     1      -5.149 -11.746 -28.717  1.00  0.00     0.053 C 
BRANCH   7   8
ATOM      8  C   UNL     1      -4.542 -10.410 -28.421  1.00  0.00     0.041 C 
ATOM      9  O   UNL     1      -4.076  -9.703 -29.354  1.00  0.00    -0.550 OA
ATOM     10  O   UNL     1      -4.434  -9.973 -27.107  1.00  0.00    -0.550 OA
ENDBRANCH   7   8
ENDBRANCH   6   7
ENDBRANCH   5   6
ENDBRANCH   4   5
ENDBRANCH   3   4
ENDBRANCH   2   3
ENDBRANCH   1   2
BRANCH   1  11
ATOM     11  C   UNL     1      -6.280 -11.259 -36.516  1.00  0.00     0.000 C 
BRANCH  11  12
ATOM     12  C   UNL     1      -5.196 -11.458 -37.596  1.00  0.00    -0.000 C 
BRANCH  12  13
ATOM     13  C   UNL     1      -4.985 -10.261 -38.536  1.00  0.00    -0.000 C 
BRANCH  13  14
ATOM     14  C   UNL     1      -3.534  -9.744 -38.536  1.00  0.00    -0.000 C 
BRANCH  14  15
ATOM     15  C   UNL     1      -3.349  -8.498 -37.650  1.00  0.00    -0.000 C 
BRANCH  15  16
ATOM     16  C   UNL     1      -2.134  -8.567 -36.705  1.00  0.00    -0.000 C 
BRANCH  16  17
ATOM     17  C   UNL     1      -2.525  -8.895 -35.256  1.00  0.00    -0.003 C 
ATOM     18  C   UNL     1      -2.923  -7.633 -34.495  1.00  0.00     0.004 C 
ENDBRANCH  16  17
ENDBRANCH  15  16
ENDBRANCH  14  15
ENDBRANCH  13  14
ENDBRANCH  12  13
ENDBRANCH  11  12
ENDBRANCH   1  11
TORSDOF 14
ENDMDL
MODEL 4
REMARK VINA RESULT:    -6.766      3.288      7.809
REMARK INTER + INTRA:         -13.135
REMARK INTER:                 -12.376
REMARK INTRA:                  -0.760
REMARK UNBOUND:                -0.832
REMARK SMILES CCCCCCCCCCCCCCCC(=O)[O-]
REMARK SMILES IDX 9 1 10 2 11 3 12 4 13 5 14 6 15 7 16 8 17 9 18 10 8 11 7 12
REMARK SMILES IDX 6 13 5 14 4 15 3 16 2 17 1 18
REMARK H PARENT
REMARK Flexibility Score: inf
ROOT
ATOM      1  C   UNL     1      -3.145  -7.842 -33.987  1.00  0.00     0.000 C 
ENDROOT
BRANCH   1   2
ATOM      2  C   UNL     1      -2.501  -6.764 -33.098  1.00  0.00     0.000 C 
BRANCH   2   3
ATOM      3  C   UNL     1      -3.283  -6.502 -31.802  1.00  0.00     0.000 C 
BRANCH   3   4
ATOM      4  C   UNL     1      -3.478  -7.775 -30.963  1.00  0.00     0.000 C 
BRANCH   4   5
ATOM      5  C   UNL     1      -2.704  -7.686 -29.639  1.00  0.00     0.000 C 
BRANCH   5   6
ATOM      6  C   UNL     1      -3.143  -8.754 -28.623  1.00  0.00     0.006 C 
BRANCH   6   7
ATOM      7  C   UNL     1      -4.098  -9.791 -29.227  1.00  0.00     0.053 C 
BRANCH   7   8
ATOM      8  C   UNL     1      -4.707 -10.629 -28.146  1.00  0.00     0.041 C 
ATOM      9  O   UNL     1      -4.809 -10.177 -26.974  1.00  0.00    -0.550 OA
ATOM     10  O   UNL     1      -5.107 -11.931 -28.417  1.00  0.00    -0.550 OA
ENDBRANCH   7   8
ENDBRANCH   6   7
ENDBRANCH   5   6
ENDBRANCH   4   5
ENDBRANCH   3   4
ENDBRANCH   2   3
ENDBRANCH   1   2
BRANCH   1  11
ATOM     11  C   UNL     1      -2.676  -7.751 -35.456  1.00  0.00     0.000 C 
BRANCH  11  12
ATOM     12  C   UNL     1      -3.003  -8.998 -36.305  1.00  0.00    -0.000 C 
BRANCH  12  13
ATOM     13  C   UNL     1      -3.234  -8.725 -37.800  1.00  0.00    -0.000 C 
BRANCH  13  14
ATOM     14  C   UNL     1      -4.272  -9.673 -38.431  1.00  0.00    -0.000 C 
BRANCH  14  15
ATOM     15  C   UNL     1      -4.685 -10.814 -37.484  1.00  0.00    -0.000 C 
BRANCH  15  16
ATOM     16  C   UNL     1      -6.191 -11.138 -37.498  1.00  0.00    -0.000 C 
BRANCH  16  17
ATOM     17  C   UNL     1      -6.617 -12.041 -36.331  1.00  0.00    -0.003 C 
ATOM     18  C   UNL     1      -5.732 -11.813 -35.108  1.00  0.00     0.004 C 
ENDBRANCH  16  17
ENDBRANCH  15  16
ENDBRANCH  14  15
ENDBRANCH  13  14
ENDBRANCH  12  13
ENDBRANCH  11  12
ENDBRANCH   1  11
TORSDOF 14
ENDMDL
MODEL 5
REMARK VINA RESULT:    -6.703      2.393      7.185
REMARK INTER + INTRA:         -13.022
REMARK INTER:                 -12.150
REMARK INTRA:                  -0.872
REMARK UNBOUND:                -0.832
REMARK SMILES CCCCCCCCCCCCCCCC(=O)[O-]
REMARK SMILES IDX 9 1 10 2 11 3 12 4 13 5 14 6 15 7 16 8 17 9 18 10 8 11 7 12
REMARK SMILES IDX 6 13 5 14 4 15 3 16 2 17 1 18
REMARK H PARENT
REMARK Flexibility Score: inf
ROOT
ATOM      1  C   UNL     1      -5.801 -12.597 -34.625  1.00  0.00     0.000 C 
ENDROOT
BRANCH   1   2
ATOM      2  C   UNL     1      -5.149 -12.317 -33.260  1.00  0.00     0.000 C 
BRANCH   2   3
ATOM      3  C   UNL     1      -5.631 -13.266 -32.153  1.00  0.00     0.000 C 
BRANCH   3   4
ATOM      4  C   UNL     1      -4.932 -13.008 -30.809  1.00  0.00     0.000 C 
BRANCH   4   5
ATOM      5  C   UNL     1      -5.920 -12.451 -29.772  1.00  0.00     0.000 C 
BRANCH   5   6
ATOM      6  C   UNL     1      -5.229 -11.603 -28.691  1.00  0.00     0.006 C 
BRANCH   6   7
ATOM      7  C   UNL     1      -4.400 -10.452 -29.278  1.00  0.00     0.053 C 
BRANCH   7   8
ATOM      8  C   UNL     1      -4.013  -9.488 -28.200  1.00  0.00     0.041 C 
ATOM      9  O   UNL     1      -3.500  -8.376 -28.496  1.00  0.00    -0.550 OA
ATOM     10  O   UNL     1      -4.162  -9.843 -26.865  1.00  0.00    -0.550 OA
ENDBRANCH   7   8
ENDBRANCH   6   7
ENDBRANCH   5   6
ENDBRANCH   4   5
ENDBRANCH   3   4
ENDBRANCH   2   3
ENDBRANCH   1   2
BRANCH   1  11
ATOM     11  C   UNL     1      -5.783 -11.361 -35.552  1.00  0.00     0.000 C 
BRANCH  11  12
ATOM     12  C   UNL     1      -5.719 -11.696 -37.056  1.00  0.00    -0.000 C 
BRANCH  12  13
ATOM     13  C   UNL     1      -5.534 -10.486 -37.986  1.00  0.00    -0.000 C 
BRANCH  13  14
ATOM     14  C   UNL     1      -4.056 -10.211 -38.327  1.00  0.00    -0.000 C 
BRANCH  14  15
ATOM     15  C   UNL     1      -3.631  -8.769 -37.997  1.00  0.00    -0.000 C 
BRANCH  15  16
ATOM     16  C   UNL     1      -2.324  -8.662 -37.189  1.00  0.00    -0.000 C 
BRANCH  16  17
ATOM     17  C   UNL     1      -2.507  -7.923 -35.855  1.00  0.00    -0.003 C 
ATOM     18  C   UNL     1      -3.096  -8.846 -34.791  1.00  0.00     0.004 C 
ENDBRANCH  16  17
ENDBRANCH  15  16
ENDBRANCH  14  15
ENDBRANCH  13  14
ENDBRANCH  12  13
ENDBRANCH  11  12
ENDBRANCH   1  11
TORSDOF 14
ENDMDL
MODEL 6
REMARK VINA RESULT:    -6.652      1.381      2.586
REMARK INTER + INTRA:         -12.929
REMARK INTER:                 -12.150
REMARK INTRA:                  -0.780
REMARK UNBOUND:                -0.832
REMARK SMILES CCCCCCCCCCCCCCCC(=O)[O-]
REMARK SMILES IDX 9 1 10 2 11 3 12 4 13 5 14 6 15 7 16 8 17 9 18 10 8 11 7 12
REMARK SMILES IDX 6 13 5 14 4 15 3 16 2 17 1 18
REMARK H PARENT
REMARK Flexibility Score: inf
ROOT
ATOM      1  C   UNL     1      -5.907 -13.232 -33.747  1.00  0.00     0.000 C 
ENDROOT
BRANCH   1   2
ATOM      2  C   UNL     1      -5.096 -11.929 -33.865  1.00  0.00     0.000 C 
BRANCH   2   3
ATOM      3  C   UNL     1      -5.447 -11.108 -35.114  1.00  0.00     0.000 C 
BRANCH   3   4
ATOM      4  C   UNL     1      -6.317 -11.890 -36.110  1.00  0.00     0.000 C 
BRANCH   4   5
ATOM      5  C   UNL     1      -6.181 -11.317 -37.530  1.00  0.00     0.000 C 
BRANCH   5   6
ATOM      6  C   UNL     1      -4.716 -11.104 -37.945  1.00  0.00     0.006 C 
BRANCH   6   7
ATOM      7  C   UNL     1      -4.445  -9.684 -38.459  1.00  0.00     0.053 C 
BRANCH   7   8
ATOM      8  C   UNL     1      -3.062  -9.251 -38.082  1.00  0.00     0.041 C 
ATOM      9  O   UNL     1      -2.076  -9.584 -38.793  1.00  0.00    -0.550 OA
ATOM     10  O   UNL     1      -2.855  -8.531 -36.912  1.00  0.00    -0.550 OA
ENDBRANCH   7   8
ENDBRANCH   6   7
ENDBRANCH   5   6
ENDBRANCH   4   5
ENDBRANCH   3   4
ENDBRANCH   2   3
ENDBRANCH   1   2
BRANCH   1  11
ATOM     11  C   UNL     1      -5.916 -13.793 -32.309  1.00  0.00     0.000 C 
BRANCH  11  12
ATOM     12  C   UNL     1      -5.147 -12.930 -31.286  1.00  0.00    -0.000 C 
BRANCH  12  13
ATOM     13  C   UNL     1      -5.938 -12.561 -30.021  1.00  0.00    -0.000 C 
BRANCH  13  14
ATOM     14  C   UNL     1      -5.035 -12.101 -28.860  1.00  0.00    -0.000 C 
BRANCH  14  15
ATOM     15  C   UNL     1      -5.301 -10.643 -28.443  1.00  0.00    -0.000 C 
BRANCH  15  16
ATOM     16  C   UNL     1      -4.365 -10.117 -27.340  1.00  0.00    -0.000 C 
BRANCH  16  17
ATOM     17  C   UNL     1      -3.451  -8.982 -27.826  1.00  0.00    -0.003 C 
ATOM     18  C   UNL     1      -3.530  -8.823 -29.342  1.00  0.00     0.004 C 
ENDBRANCH  16  17
ENDBRANCH  15  16
ENDBRANCH  14  15
ENDBRANCH  13  14
ENDBRANCH  12  13
ENDBRANCH  11  12
ENDBRANCH   1  11
TORSDOF 14
ENDMDL
MODEL 7
REMARK VINA RESULT:    -6.268      2.459      4.875
REMARK INTER + INTRA:         -12.230
REMARK INTER:                 -11.412
REMARK INTRA:                  -0.817
REMARK UNBOUND:                -0.832
REMARK SMILES CCCCCCCCCCCCCCCC(=O)[O-]
REMARK SMILES IDX 9 1 10 2 11 3 12 4 13 5 14 6 15 7 16 8 17 9 18 10 8 11 7 12
REMARK SMILES IDX 6 13 5 14 4 15 3 16 2 17 1 18
REMARK H PARENT
REMARK Flexibility Score: inf
ROOT
ATOM      1  C   UNL     1      -2.464  -8.811 -37.230  1.00  0.00     0.000 C 
ENDROOT
BRANCH   1   2
ATOM      2  C   UNL     1      -3.795  -8.501 -37.938  1.00  0.00     0.000 C 
BRANCH   2   3
ATOM      3  C   UNL     1      -4.350  -9.692 -38.733  1.00  0.00     0.000 C 
BRANCH   3   4
ATOM      4  C   UNL     1      -4.548 -10.942 -37.862  1.00  0.00     0.000 C 
BRANCH   4   5
ATOM      5  C   UNL     1      -6.030 -11.345 -37.806  1.00  0.00     0.000 C 
BRANCH   5   6
ATOM      6  C   UNL     1      -6.610 -11.275 -36.383  1.00  0.00     0.006 C 
BRANCH   6   7
ATOM      7  C   UNL     1      -6.376 -12.563 -35.583  1.00  0.00     0.053 C 
BRANCH   7   8
ATOM      8  C   UNL     1      -5.589 -12.269 -34.344  1.00  0.00     0.041 C 
ATOM      9  O   UNL     1      -5.690 -13.017 -33.335  1.00  0.00    -0.550 OA
ATOM     10  O   UNL     1      -4.792 -11.134 -34.281  1.00  0.00    -0.550 OA
ENDBRANCH   7   8
ENDBRANCH   6   7
ENDBRANCH   5   6
ENDBRANCH   4   5
ENDBRANCH   3   4
ENDBRANCH   2   3
ENDBRANCH   1   2
BRANCH   1  11
ATOM     11  C   UNL     1      -2.619  -8.899 -35.696  1.00  0.00     0.000 C 
BRANCH  11  12
ATOM     12  C   UNL     1      -2.745  -7.532 -34.990  1.00  0.00    -0.000 C 
BRANCH  12  13
ATOM     13  C   UNL     1      -3.158  -7.598 -33.512  1.00  0.00    -0.000 C 
BRANCH  13  14
ATOM     14  C   UNL     1      -2.651  -6.396 -32.691  1.00  0.00    -0.000 C 
BRANCH  14  15
ATOM     15  C   UNL     1      -2.652  -6.671 -31.176  1.00  0.00    -0.000 C 
BRANCH  15  16
ATOM     16  C   UNL     1      -3.421  -7.940 -30.762  1.00  0.00    -0.000 C 
BRANCH  16  17
ATOM     17  C   UNL     1      -3.325  -8.230 -29.256  1.00  0.00    -0.003 C 
ATOM     18  C   UNL     1      -3.972  -9.569 -28.912  1.00  0.00     0.004 C 
ENDBRANCH  16  17
ENDBRANCH  15  16
ENDBRANCH  14  15
ENDBRANCH  13  14
ENDBRANCH  12  13
ENDBRANCH  11  12
ENDBRANCH   1  11
TORSDOF 14
ENDMDL
MODEL 8
REMARK VINA RESULT:    -6.242      3.316      5.822
REMARK INTER + INTRA:         -12.184
REMARK INTER:                 -11.356
REMARK INTRA:                  -0.828
REMARK UNBOUND:                -0.832
REMARK SMILES CCCCCCCCCCCCCCCC(=O)[O-]
REMARK SMILES IDX 9 1 10 2 11 3 12 4 13 5 14 6 15 7 16 8 17 9 18 10 8 11 7 12
REMARK SMILES IDX 6 13 5 14 4 15 3 16 2 17 1 18
REMARK H PARENT
REMARK Flexibility Score: inf
ROOT
ATOM      1  C   UNL     1      -4.237  -9.668 -38.430  1.00  0.00     0.000 C 
ENDROOT
BRANCH   1   2
ATOM      2  C   UNL     1      -4.757 -10.977 -37.810  1.00  0.00     0.000 C 
BRANCH   2   3
ATOM      3  C   UNL     1      -6.290 -11.075 -37.796  1.00  0.00     0.000 C 
BRANCH   3   4
ATOM      4  C   UNL     1      -6.846 -11.443 -36.412  1.00  0.00     0.000 C 
BRANCH   4   5
ATOM      5  C   UNL     1      -5.731 -11.452 -35.354  1.00  0.00     0.000 C 
BRANCH   5   6
ATOM      6  C   UNL     1      -5.852 -12.632 -34.376  1.00  0.00     0.006 C 
BRANCH   6   7
ATOM      7  C   UNL     1      -5.046 -12.419 -33.087  1.00  0.00     0.053 C 
BRANCH   7   8
ATOM      8  C   UNL     1      -5.577 -13.294 -31.993  1.00  0.00     0.041 C 
ATOM      9  O   UNL     1      -6.324 -14.270 -32.267  1.00  0.00    -0.550 OA
ATOM     10  O   UNL     1      -5.296 -12.993 -30.666  1.00  0.00    -0.550 OA
ENDBRANCH   7   8
ENDBRANCH   6   7
ENDBRANCH   5   6
ENDBRANCH   4   5
ENDBRANCH   3   4
ENDBRANCH   2   3
ENDBRANCH   1   2
BRANCH   1  11
ATOM     11  C   UNL     1      -2.846  -9.271 -37.890  1.00  0.00     0.000 C 
BRANCH  11  12
ATOM     12  C   UNL     1      -2.868  -8.111 -36.872  1.00  0.00    -0.000 C 
BRANCH  12  13
ATOM     13  C   UNL     1      -2.748  -8.535 -35.400  1.00  0.00    -0.000 C 
BRANCH  13  14
ATOM     14  C   UNL     1      -2.472  -7.350 -34.454  1.00  0.00    -0.000 C 
BRANCH  14  15
ATOM     15  C   UNL     1      -3.388  -7.356 -33.215  1.00  0.00    -0.000 C 
BRANCH  15  16
ATOM     16  C   UNL     1      -2.731  -6.801 -31.938  1.00  0.00    -0.000 C 
BRANCH  16  17
ATOM     17  C   UNL     1      -2.243  -5.353 -32.100  1.00  0.00    -0.003 C 
ATOM     18  C   UNL     1      -0.975  -5.106 -31.286  1.00  0.00     0.004 C 
ENDBRANCH  16  17
ENDBRANCH  15  16
ENDBRANCH  14  15
ENDBRANCH  13  14
ENDBRANCH  12  13
ENDBRANCH  11  12
ENDBRANCH   1  11
TORSDOF 14
ENDMDL
MODEL 9
REMARK VINA RESULT:    -6.214      1.808      3.908
REMARK INTER + INTRA:         -12.133
REMARK INTER:                 -11.256
REMARK INTRA:                  -0.877
REMARK UNBOUND:                -0.832
REMARK SMILES CCCCCCCCCCCCCCCC(=O)[O-]
REMARK SMILES IDX 9 1 10 2 11 3 12 4 13 5 14 6 15 7 16 8 17 9 18 10 8 11 7 12
REMARK SMILES IDX 6 13 5 14 4 15 3 16 2 17 1 18
REMARK H PARENT
REMARK Flexibility Score: inf
ROOT
ATOM      1  C   UNL     1      -4.372 -10.692 -37.714  1.00  0.00     0.000 C 
ENDROOT
BRANCH   1   2
ATOM      2  C   UNL     1      -3.746  -9.544 -38.525  1.00  0.00     0.000 C 
BRANCH   2   3
ATOM      3  C   UNL     1      -3.349  -8.338 -37.661  1.00  0.00     0.000 C 
BRANCH   3   4
ATOM      4  C   UNL     1      -2.248  -8.677 -36.644  1.00  0.00     0.000 C 
BRANCH   4   5
ATOM      5  C   UNL     1      -2.835  -8.860 -35.236  1.00  0.00     0.000 C 
BRANCH   5   6
ATOM      6  C   UNL     1      -2.826  -7.559 -34.417  1.00  0.00     0.006 C 
BRANCH   6   7
ATOM      7  C   UNL     1      -3.573  -7.692 -33.083  1.00  0.00     0.053 C 
BRANCH   7   8
ATOM      8  C   UNL     1      -2.872  -6.912 -32.015  1.00  0.00     0.041 C 
ATOM      9  O   UNL     1      -3.049  -7.196 -30.800  1.00  0.00    -0.550 OA
ATOM     10  O   UNL     1      -2.071  -5.830 -32.358  1.00  0.00    -0.550 OA
ENDBRANCH   7   8
ENDBRANCH   6   7
ENDBRANCH   5   6
ENDBRANCH   4   5
ENDBRANCH   3   4
ENDBRANCH   2   3
ENDBRANCH   1   2
BRANCH   1  11
ATOM     11  C   UNL     1      -5.875 -10.877 -38.018  1.00  0.00     0.000 C 
BRANCH  11  12
ATOM     12  C   UNL     1      -6.741 -11.181 -36.777  1.00  0.00    -0.000 C 
BRANCH  12  13
ATOM     13  C   UNL     1      -5.985 -11.181 -35.439  1.00  0.00    -0.000 C 
BRANCH  13  14
ATOM     14  C   UNL     1      -5.832 -12.589 -34.834  1.00  0.00    -0.000 C 
BRANCH  14  15
ATOM     15  C   UNL     1      -5.423 -12.555 -33.350  1.00  0.00    -0.000 C 
BRANCH  15  16
ATOM     16  C   UNL     1      -5.881 -13.780 -32.537  1.00  0.00    -0.000 C 
BRANCH  16  17
ATOM     17  C   UNL     1      -5.186 -13.883 -31.171  1.00  0.00    -0.003 C 
ATOM     18  C   UNL     1      -5.250 -12.555 -30.420  1.00  0.00     0.004 C 
ENDBRANCH  16  17
ENDBRANCH  15  16
ENDBRANCH  14  15
ENDBRANCH  13  14
ENDBRANCH  12  13
ENDBRANCH  11  12
ENDBRANCH   1  11
TORSDOF 14
ENDMDL
