MODEL 1
REMARK VINA RESULT:     1.369      0.000      0.000
REMARK INTER + INTRA:           1.067
REMARK INTER:                   1.449
REMARK INTRA:                  -0.382
REMARK UNBOUND:                -0.382
REMARK SMILES CC1=CC[C@]23[C@@H]([C@@H](C(C)C)CC[C@H]2C)[C@@H]13
REMARK SMILES IDX 14 1 13 2 12 3 11 4 7 5 6 6 5 7 15 8 2 9 3 10 4 11 1 12 8 13
REMARK SMILES IDX 9 14 10 15
REMARK H PARENT
REMARK Flexibility Score: inf
ROOT
ATOM      1  C   UNL     1     137.563 139.286 163.102  1.00  0.00     0.008 C 
ATOM      2  C   UNL     1     137.181 137.934 163.729  1.00  0.00    -0.007 C 
ATOM      3  C   UNL     1     138.391 137.212 164.405  1.00  0.00     0.004 C 
ATOM      4  C   UNL     1     139.300 136.400 163.433  1.00  0.00     0.004 C 
ATOM      5  C   UNL     1     138.507 135.597 162.358  1.00  0.00    -0.004 C 
ATOM      6  C   UNL     1     137.572 136.615 161.693  1.00  0.00     0.007 C 
ATOM      7  C   UNL     1     136.477 136.938 162.778  1.00  0.00    -0.013 C 
ATOM      8  C   UNL     1     136.133 136.768 161.305  1.00  0.00     0.025 C 
ATOM      9  C   UNL     1     135.349 135.506 161.218  1.00  0.00    -0.073 C 
ATOM     10  C   UNL     1     135.100 134.984 162.407  1.00  0.00    -0.027 C 
ATOM     11  C   UNL     1     135.681 135.811 163.495  1.00  0.00     0.035 C 
ATOM     12  C   UNL     1     134.875 134.904 159.932  1.00  0.00     0.039 C 
ENDROOT
BRANCH   5  13
ATOM     13  C   UNL     1     139.434 134.877 161.335  1.00  0.00    -0.014 C 
ATOM     14  C   UNL     1     140.863 135.447 161.248  1.00  0.00     0.007 C 
ATOM     15  C   UNL     1     138.795 134.876 159.937  1.00  0.00     0.007 C 
ENDBRANCH   5  13
TORSDOF 1
ENDMDL
MODEL 2
REMARK VINA RESULT:     2.311     13.517     15.734
REMARK INTER + INTRA:           2.064
REMARK INTER:                   2.546
REMARK INTRA:                  -0.482
REMARK UNBOUND:                -0.382
REMARK SMILES CC1=CC[C@]23[C@@H]([C@@H](C(C)C)CC[C@H]2C)[C@@H]13
REMARK SMILES IDX 14 1 13 2 12 3 11 4 7 5 6 6 5 7 15 8 2 9 3 10 4 11 1 12 8 13
REMARK SMILES IDX 9 14 10 15
REMARK H PARENT
REMARK Flexibility Score: inf
ROOT
ATOM      1  C   UNL     1     152.086 136.750 158.341  1.00  0.00     0.008 C 
ATOM      2  C   UNL     1     151.296 136.487 159.635  1.00  0.00    -0.007 C 
ATOM      3  C   UNL     1     150.450 137.718 160.093  1.00  0.00     0.004 C 
ATOM      4  C   UNL     1     151.237 138.792 160.902  1.00  0.00     0.004 C 
ATOM      5  C   UNL     1     152.232 138.191 161.940  1.00  0.00    -0.004 C 
ATOM      6  C   UNL     1     153.094 137.195 161.153  1.00  0.00     0.007 C 
ATOM      7  C   UNL     1     152.136 135.986 160.833  1.00  0.00    -0.013 C 
ATOM      8  C   UNL     1     153.588 135.784 161.243  1.00  0.00     0.025 C 
ATOM      9  C   UNL     1     153.540 135.168 162.597  1.00  0.00    -0.073 C 
ATOM     10  C   UNL     1     152.307 134.890 162.983  1.00  0.00    -0.027 C 
ATOM     11  C   UNL     1     151.315 135.279 161.948  1.00  0.00     0.035 C 
ATOM     12  C   UNL     1     154.754 134.875 163.424  1.00  0.00     0.039 C 
ENDROOT
BRANCH   5  13
ATOM     13  C   UNL     1     153.082 139.277 162.663  1.00  0.00    -0.014 C 
ATOM     14  C   UNL     1     153.924 140.165 161.728  1.00  0.00     0.007 C 
ATOM     15  C   UNL     1     153.995 138.633 163.720  1.00  0.00     0.007 C 
ENDBRANCH   5  13
TORSDOF 1
ENDMDL
MODEL 3
REMARK VINA RESULT:     3.830     13.056     15.872
REMARK INTER + INTRA:           3.671
REMARK INTER:                   4.154
REMARK INTRA:                  -0.483
REMARK UNBOUND:                -0.382
REMARK SMILES CC1=CC[C@]23[C@@H]([C@@H](C(C)C)CC[C@H]2C)[C@@H]13
REMARK SMILES IDX 14 1 13 2 12 3 11 4 7 5 6 6 5 7 15 8 2 9 3 10 4 11 1 12 8 13
REMARK SMILES IDX 9 14 10 15
REMARK H PARENT
REMARK Flexibility Score: inf
ROOT
ATOM      1  C   UNL     1     153.251 134.879 164.011  1.00  0.00     0.008 C 
ATOM      2  C   UNL     1     153.790 135.257 162.620  1.00  0.00    -0.007 C 
ATOM      3  C   UNL     1     155.125 136.067 162.682  1.00  0.00     0.004 C 
ATOM      4  C   UNL     1     154.955 137.596 162.930  1.00  0.00     0.004 C 
ATOM      5  C   UNL     1     153.776 138.233 162.132  1.00  0.00    -0.004 C 
ATOM      6  C   UNL     1     152.549 137.371 162.457  1.00  0.00     0.007 C 
ATOM      7  C   UNL     1     152.794 136.008 161.706  1.00  0.00    -0.013 C 
ATOM      8  C   UNL     1     151.424 136.670 161.760  1.00  0.00     0.025 C 
ATOM      9  C   UNL     1     151.142 137.122 160.370  1.00  0.00    -0.073 C 
ATOM     10  C   UNL     1     152.073 136.738 159.515  1.00  0.00    -0.027 C 
ATOM     11  C   UNL     1     153.144 135.962 160.192  1.00  0.00     0.035 C 
ATOM     12  C   UNL     1     149.928 137.907 159.978  1.00  0.00     0.039 C 
ENDROOT
BRANCH   5  13
ATOM     13  C   UNL     1     153.559 139.737 162.472  1.00  0.00    -0.014 C 
ATOM     14  C   UNL     1     153.270 140.027 163.958  1.00  0.00     0.007 C 
ATOM     15  C   UNL     1     152.437 140.329 161.605  1.00  0.00     0.007 C 
ENDBRANCH   5  13
TORSDOF 1
ENDMDL
MODEL 4
REMARK VINA RESULT:     4.001     13.393     15.961
REMARK INTER + INTRA:           3.852
REMARK INTER:                   4.348
REMARK INTRA:                  -0.495
REMARK UNBOUND:                -0.382
REMARK SMILES CC1=CC[C@]23[C@@H]([C@@H](C(C)C)CC[C@H]2C)[C@@H]13
REMARK SMILES IDX 14 1 13 2 12 3 11 4 7 5 6 6 5 7 15 8 2 9 3 10 4 11 1 12 8 13
REMARK SMILES IDX 9 14 10 15
REMARK H PARENT
REMARK Flexibility Score: inf
ROOT
ATOM      1  C   UNL     1     155.066 134.875 162.343  1.00  0.00     0.008 C 
ATOM      2  C   UNL     1     154.028 135.613 163.207  1.00  0.00    -0.007 C 
ATOM      3  C   UNL     1     152.642 134.891 163.244  1.00  0.00     0.004 C 
ATOM      4  C   UNL     1     151.711 135.192 162.032  1.00  0.00     0.004 C 
ATOM      5  C   UNL     1     151.718 136.688 161.592  1.00  0.00    -0.004 C 
ATOM      6  C   UNL     1     153.196 137.049 161.395  1.00  0.00     0.007 C 
ATOM      7  C   UNL     1     153.804 137.100 162.848  1.00  0.00    -0.013 C 
ATOM      8  C   UNL     1     154.177 138.116 161.776  1.00  0.00     0.025 C 
ATOM      9  C   UNL     1     153.586 139.407 162.224  1.00  0.00    -0.073 C 
ATOM     10  C   UNL     1     153.030 139.319 163.419  1.00  0.00    -0.027 C 
ATOM     11  C   UNL     1     153.151 137.948 163.975  1.00  0.00     0.035 C 
ATOM     12  C   UNL     1     153.634 140.670 161.421  1.00  0.00     0.039 C 
ENDROOT
BRANCH   5  13
ATOM     13  C   UNL     1     150.863 136.948 160.316  1.00  0.00    -0.014 C 
ATOM     14  C   UNL     1     151.607 136.729 158.985  1.00  0.00     0.007 C 
ATOM     15  C   UNL     1     150.268 138.365 160.346  1.00  0.00     0.007 C 
ENDBRANCH   5  13
TORSDOF 1
ENDMDL
