MODEL 1
REMARK VINA RESULT:    -4.224      0.000      0.000
REMARK INTER + INTRA:          -9.240
REMARK INTER:                  -7.434
REMARK INTRA:                  -1.806
REMARK UNBOUND:                -1.806
REMARK SMILES CCCCCCCCCCCCCCC(=O)[O-]
REMARK SMILES IDX 9 1 10 2 11 3 12 4 13 5 14 6 15 7 16 8 17 9 8 10 7 11 6 12
REMARK SMILES IDX 5 13 4 14 3 15 2 16 1 17
REMARK H PARENT
REMARK Flexibility Score: inf
ROOT
ATOM      1  C   UNL     1      -4.680  12.986  -3.277  1.00  0.00     0.000 C 
ENDROOT
BRANCH   1   2
ATOM      2  C   UNL     1      -3.365  13.366  -3.975  1.00  0.00     0.000 C 
BRANCH   2   3
ATOM      3  C   UNL     1      -3.585  13.885  -5.407  1.00  0.00     0.000 C 
BRANCH   3   4
ATOM      4  C   UNL     1      -2.627  13.239  -6.423  1.00  0.00     0.000 C 
BRANCH   4   5
ATOM      5  C   UNL     1      -3.167  11.911  -6.984  1.00  0.00     0.006 C 
BRANCH   5   6
ATOM      6  C   UNL     1      -2.825  11.732  -8.469  1.00  0.00     0.053 C 
BRANCH   6   7
ATOM      7  C   UNL     1      -1.505  11.050  -8.659  1.00  0.00     0.041 C 
ATOM      8  O   UNL     1      -0.457  11.729  -8.824  1.00  0.00    -0.550 OA
ATOM      9  O   UNL     1      -1.427   9.664  -8.623  1.00  0.00    -0.550 OA
ENDBRANCH   6   7
ENDBRANCH   5   6
ENDBRANCH   4   5
ENDBRANCH   3   4
ENDBRANCH   2   3
ENDBRANCH   1   2
BRANCH   1  10
ATOM     10  C   UNL     1      -5.788  14.030  -3.489  1.00  0.00     0.000 C 
BRANCH  10  11
ATOM     11  C   UNL     1      -7.059  13.645  -2.717  1.00  0.00    -0.000 C 
BRANCH  11  12
ATOM     12  C   UNL     1      -8.340  13.798  -3.559  1.00  0.00    -0.000 C 
BRANCH  12  13
ATOM     13  C   UNL     1      -9.146  12.500  -3.762  1.00  0.00    -0.000 C 
BRANCH  13  14
ATOM     14  C   UNL     1      -8.296  11.226  -3.941  1.00  0.00    -0.000 C 
BRANCH  14  15
ATOM     15  C   UNL     1      -7.977  10.855  -5.403  1.00  0.00    -0.000 C 
BRANCH  15  16
ATOM     16  C   UNL     1      -6.645  11.413  -5.935  1.00  0.00    -0.003 C 
ATOM     17  C   UNL     1      -6.830  12.594  -6.887  1.00  0.00     0.004 C 
ENDBRANCH  15  16
ENDBRANCH  14  15
ENDBRANCH  13  14
ENDBRANCH  12  13
ENDBRANCH  11  12
ENDBRANCH  10  11
ENDBRANCH   1  10
TORSDOF 13
ENDMDL
MODEL 2
REMARK VINA RESULT:    -4.172      0.877      1.880
REMARK INTER + INTRA:          -9.149
REMARK INTER:                  -7.189
REMARK INTRA:                  -1.960
REMARK UNBOUND:                -1.806
REMARK SMILES CCCCCCCCCCCCCCC(=O)[O-]
REMARK SMILES IDX 9 1 10 2 11 3 12 4 13 5 14 6 15 7 16 8 17 9 8 10 7 11 6 12
REMARK SMILES IDX 5 13 4 14 3 15 2 16 1 17
REMARK H PARENT
REMARK Flexibility Score: inf
ROOT
ATOM      1  C   UNL     1      -5.091  12.735  -3.420  1.00  0.00     0.000 C 
ENDROOT
BRANCH   1   2
ATOM      2  C   UNL     1      -3.746  12.517  -4.131  1.00  0.00     0.000 C 
BRANCH   2   3
ATOM      3  C   UNL     1      -3.305  13.744  -4.949  1.00  0.00     0.000 C 
BRANCH   3   4
ATOM      4  C   UNL     1      -2.688  13.358  -6.304  1.00  0.00     0.000 C 
BRANCH   4   5
ATOM      5  C   UNL     1      -3.104  11.950  -6.766  1.00  0.00     0.006 C 
BRANCH   5   6
ATOM      6  C   UNL     1      -2.862  11.739  -8.266  1.00  0.00     0.053 C 
BRANCH   6   7
ATOM      7  C   UNL     1      -1.563  11.040  -8.528  1.00  0.00     0.041 C 
ATOM      8  O   UNL     1      -1.497   9.783  -8.476  1.00  0.00    -0.550 OA
ATOM      9  O   UNL     1      -0.433  11.775  -8.859  1.00  0.00    -0.550 OA
ENDBRANCH   6   7
ENDBRANCH   5   6
ENDBRANCH   4   5
ENDBRANCH   3   4
ENDBRANCH   2   3
ENDBRANCH   1   2
BRANCH   1  10
ATOM     10  C   UNL     1      -5.694  14.121  -3.700  1.00  0.00     0.000 C 
BRANCH  10  11
ATOM     11  C   UNL     1      -7.227  14.051  -3.756  1.00  0.00    -0.000 C 
BRANCH  11  12
ATOM     12  C   UNL     1      -7.774  14.055  -5.195  1.00  0.00    -0.000 C 
BRANCH  12  13
ATOM     13  C   UNL     1      -6.724  13.787  -6.292  1.00  0.00    -0.000 C 
BRANCH  13  14
ATOM     14  C   UNL     1      -6.713  12.349  -6.848  1.00  0.00    -0.000 C 
BRANCH  14  15
ATOM     15  C   UNL     1      -7.966  11.513  -6.518  1.00  0.00    -0.000 C 
BRANCH  15  16
ATOM     16  C   UNL     1      -7.698  10.251  -5.679  1.00  0.00    -0.003 C 
ATOM     17  C   UNL     1      -8.016  10.442  -4.196  1.00  0.00     0.004 C 
ENDBRANCH  15  16
ENDBRANCH  14  15
ENDBRANCH  13  14
ENDBRANCH  12  13
ENDBRANCH  11  12
ENDBRANCH  10  11
ENDBRANCH   1  10
TORSDOF 13
ENDMDL
MODEL 3
REMARK VINA RESULT:    -4.099     13.764     16.109
REMARK INTER + INTRA:          -9.020
REMARK INTER:                  -7.076
REMARK INTRA:                  -1.944
REMARK UNBOUND:                -1.806
REMARK SMILES CCCCCCCCCCCCCCC(=O)[O-]
REMARK SMILES IDX 9 1 10 2 11 3 12 4 13 5 14 6 15 7 16 8 17 9 8 10 7 11 6 12
REMARK SMILES IDX 5 13 4 14 3 15 2 16 1 17
REMARK H PARENT
REMARK Flexibility Score: inf
ROOT
ATOM      1  C   UNL     1       5.528   2.999  -9.211  1.00  0.00     0.000 C 
ENDROOT
BRANCH   1   2
ATOM      2  C   UNL     1       6.728   2.049  -9.070  1.00  0.00     0.000 C 
BRANCH   2   3
ATOM      3  C   UNL     1       8.072   2.752  -9.333  1.00  0.00     0.000 C 
BRANCH   3   4
ATOM      4  C   UNL     1       9.191   2.252  -8.404  1.00  0.00     0.000 C 
BRANCH   4   5
ATOM      5  C   UNL     1       8.661   1.369  -7.259  1.00  0.00     0.006 C 
BRANCH   5   6
ATOM      6  C   UNL     1       9.795   0.801  -6.396  1.00  0.00     0.053 C 
BRANCH   6   7
ATOM      7  C   UNL     1       9.302   0.350  -5.055  1.00  0.00     0.041 C 
ATOM      8  O   UNL     1       9.333  -0.870  -4.745  1.00  0.00    -0.550 OA
ATOM      9  O   UNL     1       8.837   1.282  -4.137  1.00  0.00    -0.550 OA
ENDBRANCH   6   7
ENDBRANCH   5   6
ENDBRANCH   4   5
ENDBRANCH   3   4
ENDBRANCH   2   3
ENDBRANCH   1   2
BRANCH   1  10
ATOM     10  C   UNL     1       5.803   4.165 -10.174  1.00  0.00     0.000 C 
BRANCH  10  11
ATOM     11  C   UNL     1       4.968   5.397  -9.795  1.00  0.00    -0.000 C 
BRANCH  11  12
ATOM     12  C   UNL     1       5.833   6.618  -9.432  1.00  0.00    -0.000 C 
BRANCH  12  13
ATOM     13  C   UNL     1       7.046   6.312  -8.531  1.00  0.00    -0.000 C 
BRANCH  13  14
ATOM     14  C   UNL     1       6.967   6.899  -7.108  1.00  0.00    -0.000 C 
BRANCH  14  15
ATOM     15  C   UNL     1       6.480   5.917  -6.023  1.00  0.00    -0.000 C 
BRANCH  15  16
ATOM     16  C   UNL     1       6.987   4.473  -6.185  1.00  0.00    -0.003 C 
ATOM     17  C   UNL     1       6.086   3.445  -5.502  1.00  0.00     0.004 C 
ENDBRANCH  15  16
ENDBRANCH  14  15
ENDBRANCH  13  14
ENDBRANCH  12  13
ENDBRANCH  11  12
ENDBRANCH  10  11
ENDBRANCH   1  10
TORSDOF 13
ENDMDL
MODEL 4
REMARK VINA RESULT:    -3.963     14.202     16.240
REMARK INTER + INTRA:          -8.780
REMARK INTER:                  -6.611
REMARK INTRA:                  -2.169
REMARK UNBOUND:                -1.806
REMARK SMILES CCCCCCCCCCCCCCC(=O)[O-]
REMARK SMILES IDX 9 1 10 2 11 3 12 4 13 5 14 6 15 7 16 8 17 9 8 10 7 11 6 12
REMARK SMILES IDX 5 13 4 14 3 15 2 16 1 17
REMARK H PARENT
REMARK Flexibility Score: inf
ROOT
ATOM      1  C   UNL     1       6.726   5.842  -6.457  1.00  0.00     0.000 C 
ENDROOT
BRANCH   1   2
ATOM      2  C   UNL     1       6.628   4.760  -5.370  1.00  0.00     0.000 C 
BRANCH   2   3
ATOM      3  C   UNL     1       5.895   3.498  -5.859  1.00  0.00     0.000 C 
BRANCH   3   4
ATOM      4  C   UNL     1       6.744   2.225  -5.703  1.00  0.00     0.000 C 
BRANCH   4   5
ATOM      5  C   UNL     1       7.996   2.450  -4.835  1.00  0.00     0.006 C 
BRANCH   5   6
ATOM      6  C   UNL     1       9.276   1.975  -5.535  1.00  0.00     0.053 C 
BRANCH   6   7
ATOM      7  C   UNL     1       9.263   0.497  -5.777  1.00  0.00     0.041 C 
ATOM      8  O   UNL     1       9.687   0.029  -6.867  1.00  0.00    -0.550 OA
ATOM      9  O   UNL     1       8.811  -0.365  -4.787  1.00  0.00    -0.550 OA
ENDBRANCH   6   7
ENDBRANCH   5   6
ENDBRANCH   4   5
ENDBRANCH   3   4
ENDBRANCH   2   3
ENDBRANCH   1   2
BRANCH   1  10
ATOM     10  C   UNL     1       6.760   5.258  -7.877  1.00  0.00     0.000 C 
BRANCH  10  11
ATOM     11  C   UNL     1       8.203   5.133  -8.386  1.00  0.00    -0.000 C 
BRANCH  11  12
ATOM     12  C   UNL     1       8.363   4.060  -9.479  1.00  0.00    -0.000 C 
BRANCH  12  13
ATOM     13  C   UNL     1       8.291   2.604  -8.978  1.00  0.00    -0.000 C 
BRANCH  13  14
ATOM     14  C   UNL     1       7.375   1.675  -9.800  1.00  0.00    -0.000 C 
BRANCH  14  15
ATOM     15  C   UNL     1       5.923   1.575  -9.292  1.00  0.00    -0.000 C 
BRANCH  15  16
ATOM     16  C   UNL     1       4.875   2.249 -10.196  1.00  0.00    -0.003 C 
ATOM     17  C   UNL     1       3.998   3.251  -9.446  1.00  0.00     0.004 C 
ENDBRANCH  15  16
ENDBRANCH  14  15
ENDBRANCH  13  14
ENDBRANCH  12  13
ENDBRANCH  11  12
ENDBRANCH  10  11
ENDBRANCH   1  10
TORSDOF 13
ENDMDL
MODEL 5
REMARK VINA RESULT:    -3.951      2.964      5.734
REMARK INTER + INTRA:          -8.760
REMARK INTER:                  -7.121
REMARK INTRA:                  -1.639
REMARK UNBOUND:                -1.806
REMARK SMILES CCCCCCCCCCCCCCC(=O)[O-]
REMARK SMILES IDX 9 1 10 2 11 3 12 4 13 5 14 6 15 7 16 8 17 9 8 10 7 11 6 12
REMARK SMILES IDX 5 13 4 14 3 15 2 16 1 17
REMARK H PARENT
REMARK Flexibility Score: inf
ROOT
ATOM      1  C   UNL     1      -5.388  14.054  -3.057  1.00  0.00     0.000 C 
ENDROOT
BRANCH   1   2
ATOM      2  C   UNL     1      -6.682  13.771  -2.277  1.00  0.00     0.000 C 
BRANCH   2   3
ATOM      3  C   UNL     1      -7.754  13.084  -3.143  1.00  0.00     0.000 C 
BRANCH   3   4
ATOM      4  C   UNL     1      -7.651  13.472  -4.627  1.00  0.00     0.000 C 
BRANCH   4   5
ATOM      5  C   UNL     1      -7.885  12.278  -5.570  1.00  0.00     0.006 C 
BRANCH   5   6
ATOM      6  C   UNL     1      -7.125  11.025  -5.114  1.00  0.00     0.053 C 
BRANCH   6   7
ATOM      7  C   UNL     1      -8.048   9.869  -4.877  1.00  0.00     0.041 C 
ATOM      8  O   UNL     1      -8.296   9.054  -5.806  1.00  0.00    -0.550 OA
ATOM      9  O   UNL     1      -8.612   9.675  -3.623  1.00  0.00    -0.550 OA
ENDBRANCH   6   7
ENDBRANCH   5   6
ENDBRANCH   4   5
ENDBRANCH   3   4
ENDBRANCH   2   3
ENDBRANCH   1   2
BRANCH   1  10
ATOM     10  C   UNL     1      -4.521  12.799  -3.246  1.00  0.00     0.000 C 
BRANCH  10  11
ATOM     11  C   UNL     1      -3.401  13.055  -4.266  1.00  0.00    -0.000 C 
BRANCH  11  12
ATOM     12  C   UNL     1      -3.906  13.738  -5.550  1.00  0.00    -0.000 C 
BRANCH  12  13
ATOM     13  C   UNL     1      -4.301  12.777  -6.688  1.00  0.00    -0.000 C 
BRANCH  13  14
ATOM     14  C   UNL     1      -3.257  11.691  -7.018  1.00  0.00    -0.000 C 
BRANCH  14  15
ATOM     15  C   UNL     1      -2.686  11.749  -8.449  1.00  0.00    -0.000 C 
BRANCH  15  16
ATOM     16  C   UNL     1      -1.167  11.982  -8.530  1.00  0.00    -0.003 C 
ATOM     17  C   UNL     1      -0.733  13.307  -7.905  1.00  0.00     0.004 C 
ENDBRANCH  15  16
ENDBRANCH  14  15
ENDBRANCH  13  14
ENDBRANCH  12  13
ENDBRANCH  11  12
ENDBRANCH  10  11
ENDBRANCH   1  10
TORSDOF 13
ENDMDL
MODEL 6
REMARK VINA RESULT:    -3.951     13.504     15.565
REMARK INTER + INTRA:          -8.760
REMARK INTER:                  -7.349
REMARK INTRA:                  -1.411
REMARK UNBOUND:                -1.806
REMARK SMILES CCCCCCCCCCCCCCC(=O)[O-]
REMARK SMILES IDX 9 1 10 2 11 3 12 4 13 5 14 6 15 7 16 8 17 9 8 10 7 11 6 12
REMARK SMILES IDX 5 13 4 14 3 15 2 16 1 17
REMARK H PARENT
REMARK Flexibility Score: inf
ROOT
ATOM      1  C   UNL     1       6.805   6.003  -6.911  1.00  0.00     0.000 C 
ENDROOT
BRANCH   1   2
ATOM      2  C   UNL     1       6.818   4.578  -6.336  1.00  0.00     0.000 C 
BRANCH   2   3
ATOM      3  C   UNL     1       6.922   4.563  -4.800  1.00  0.00     0.000 C 
BRANCH   3   4
ATOM      4  C   UNL     1       7.977   3.567  -4.290  1.00  0.00     0.000 C 
BRANCH   4   5
ATOM      5  C   UNL     1       8.730   2.863  -5.433  1.00  0.00     0.006 C 
BRANCH   5   6
ATOM      6  C   UNL     1       9.549   1.666  -4.934  1.00  0.00     0.053 C 
BRANCH   6   7
ATOM      7  C   UNL     1       8.797   0.378  -5.077  1.00  0.00     0.041 C 
ATOM      8  O   UNL     1       7.612   0.378  -5.505  1.00  0.00    -0.550 OA
ATOM      9  O   UNL     1       9.416  -0.826  -4.766  1.00  0.00    -0.550 OA
ENDBRANCH   6   7
ENDBRANCH   5   6
ENDBRANCH   4   5
ENDBRANCH   3   4
ENDBRANCH   2   3
ENDBRANCH   1   2
BRANCH   1  10
ATOM     10  C   UNL     1       7.578   6.118  -8.235  1.00  0.00     0.000 C 
BRANCH  10  11
ATOM     11  C   UNL     1       6.868   7.075  -9.204  1.00  0.00    -0.000 C 
BRANCH  11  12
ATOM     12  C   UNL     1       6.183   6.343 -10.373  1.00  0.00    -0.000 C 
BRANCH  12  13
ATOM     13  C   UNL     1       4.717   5.939 -10.120  1.00  0.00    -0.000 C 
BRANCH  13  14
ATOM     14  C   UNL     1       4.402   4.447 -10.350  1.00  0.00    -0.000 C 
BRANCH  14  15
ATOM     15  C   UNL     1       4.789   3.513  -9.186  1.00  0.00    -0.000 C 
BRANCH  15  16
ATOM     16  C   UNL     1       5.501   2.216  -9.608  1.00  0.00    -0.003 C 
ATOM     17  C   UNL     1       6.625   1.815  -8.653  1.00  0.00     0.004 C 
ENDBRANCH  15  16
ENDBRANCH  14  15
ENDBRANCH  13  14
ENDBRANCH  12  13
ENDBRANCH  11  12
ENDBRANCH  10  11
ENDBRANCH   1  10
TORSDOF 13
ENDMDL
MODEL 7
REMARK VINA RESULT:    -3.914     14.406     16.681
REMARK INTER + INTRA:          -8.695
REMARK INTER:                  -6.578
REMARK INTRA:                  -2.117
REMARK UNBOUND:                -1.806
REMARK SMILES CCCCCCCCCCCCCCC(=O)[O-]
REMARK SMILES IDX 9 1 10 2 11 3 12 4 13 5 14 6 15 7 16 8 17 9 8 10 7 11 6 12
REMARK SMILES IDX 5 13 4 14 3 15 2 16 1 17
REMARK H PARENT
REMARK Flexibility Score: inf
ROOT
ATOM      1  C   UNL     1       6.654   1.124 -10.129  1.00  0.00     0.000 C 
ENDROOT
BRANCH   1   2
ATOM      2  C   UNL     1       7.915   1.687 -10.805  1.00  0.00     0.000 C 
BRANCH   2   3
ATOM      3  C   UNL     1       9.132   1.704  -9.862  1.00  0.00     0.000 C 
BRANCH   3   4
ATOM      4  C   UNL     1       8.855   0.992  -8.528  1.00  0.00     0.000 C 
BRANCH   4   5
ATOM      5  C   UNL     1       9.856   1.385  -7.427  1.00  0.00     0.006 C 
BRANCH   5   6
ATOM      6  C   UNL     1       9.156   1.947  -6.183  1.00  0.00     0.053 C 
BRANCH   6   7
ATOM      7  C   UNL     1       8.528   0.865  -5.360  1.00  0.00     0.041 C 
ATOM      8  O   UNL     1       9.184   0.301  -4.444  1.00  0.00    -0.550 OA
ATOM      9  O   UNL     1       7.207   0.499  -5.585  1.00  0.00    -0.550 OA
ENDBRANCH   6   7
ENDBRANCH   5   6
ENDBRANCH   4   5
ENDBRANCH   3   4
ENDBRANCH   2   3
ENDBRANCH   1   2
BRANCH   1  10
ATOM     10  C   UNL     1       5.358   1.738 -10.682  1.00  0.00     0.000 C 
BRANCH  10  11
ATOM     11  C   UNL     1       5.571   3.208 -11.071  1.00  0.00    -0.000 C 
BRANCH  11  12
ATOM     12  C   UNL     1       5.305   4.180  -9.906  1.00  0.00    -0.000 C 
BRANCH  12  13
ATOM     13  C   UNL     1       6.561   4.850  -9.317  1.00  0.00    -0.000 C 
BRANCH  13  14
ATOM     14  C   UNL     1       6.949   4.380  -7.900  1.00  0.00    -0.000 C 
BRANCH  14  15
ATOM     15  C   UNL     1       5.969   3.379  -7.255  1.00  0.00    -0.000 C 
BRANCH  15  16
ATOM     16  C   UNL     1       5.733   3.586  -5.749  1.00  0.00    -0.003 C 
ATOM     17  C   UNL     1       6.767   4.507  -5.104  1.00  0.00     0.004 C 
ENDBRANCH  15  16
ENDBRANCH  14  15
ENDBRANCH  13  14
ENDBRANCH  12  13
ENDBRANCH  11  12
ENDBRANCH  10  11
ENDBRANCH   1  10
TORSDOF 13
ENDMDL
MODEL 8
REMARK VINA RESULT:    -3.883      3.236      5.381
REMARK INTER + INTRA:          -8.640
REMARK INTER:                  -6.606
REMARK INTRA:                  -2.034
REMARK UNBOUND:                -1.806
REMARK SMILES CCCCCCCCCCCCCCC(=O)[O-]
REMARK SMILES IDX 9 1 10 2 11 3 12 4 13 5 14 6 15 7 16 8 17 9 8 10 7 11 6 12
REMARK SMILES IDX 5 13 4 14 3 15 2 16 1 17
REMARK H PARENT
REMARK Flexibility Score: inf
ROOT
ATOM      1  C   UNL     1      -6.886  13.476  -2.731  1.00  0.00     0.000 C 
ENDROOT
BRANCH   1   2
ATOM      2  C   UNL     1      -7.761  13.794  -3.954  1.00  0.00     0.000 C 
BRANCH   2   3
ATOM      3  C   UNL     1      -8.730  12.650  -4.300  1.00  0.00     0.000 C 
BRANCH   3   4
ATOM      4  C   UNL     1      -8.444  11.371  -3.496  1.00  0.00     0.000 C 
BRANCH   4   5
ATOM      5  C   UNL     1      -8.609  10.092  -4.337  1.00  0.00     0.006 C 
BRANCH   5   6
ATOM      6  C   UNL     1      -9.366  10.355  -5.645  1.00  0.00     0.053 C 
BRANCH   6   7
ATOM      7  C   UNL     1      -9.002   9.365  -6.709  1.00  0.00     0.041 C 
ATOM      8  O   UNL     1      -9.087   9.680  -7.926  1.00  0.00    -0.550 OA
ATOM      9  O   UNL     1      -8.541   8.104  -6.355  1.00  0.00    -0.550 OA
ENDBRANCH   6   7
ENDBRANCH   5   6
ENDBRANCH   4   5
ENDBRANCH   3   4
ENDBRANCH   2   3
ENDBRANCH   1   2
BRANCH   1  10
ATOM     10  C   UNL     1      -5.412  13.859  -2.938  1.00  0.00     0.000 C 
BRANCH  10  11
ATOM     11  C   UNL     1      -4.553  12.612  -3.201  1.00  0.00    -0.000 C 
BRANCH  11  12
ATOM     12  C   UNL     1      -3.574  12.797  -4.375  1.00  0.00    -0.000 C 
BRANCH  12  13
ATOM     13  C   UNL     1      -3.987  12.096  -5.685  1.00  0.00    -0.000 C 
BRANCH  13  14
ATOM     14  C   UNL     1      -5.040  12.847  -6.524  1.00  0.00    -0.000 C 
BRANCH  14  15
ATOM     15  C   UNL     1      -6.275  12.012  -6.918  1.00  0.00    -0.000 C 
BRANCH  15  16
ATOM     16  C   UNL     1      -7.029  12.521  -8.160  1.00  0.00    -0.003 C 
ATOM     17  C   UNL     1      -8.271  13.338  -7.811  1.00  0.00     0.004 C 
ENDBRANCH  15  16
ENDBRANCH  14  15
ENDBRANCH  13  14
ENDBRANCH  12  13
ENDBRANCH  11  12
ENDBRANCH  10  11
ENDBRANCH   1  10
TORSDOF 13
ENDMDL
MODEL 9
REMARK VINA RESULT:    -3.879     13.656     16.126
REMARK INTER + INTRA:          -8.633
REMARK INTER:                  -7.040
REMARK INTRA:                  -1.593
REMARK UNBOUND:                -1.806
REMARK SMILES CCCCCCCCCCCCCCC(=O)[O-]
REMARK SMILES IDX 9 1 10 2 11 3 12 4 13 5 14 6 15 7 16 8 17 9 8 10 7 11 6 12
REMARK SMILES IDX 5 13 4 14 3 15 2 16 1 17
REMARK H PARENT
REMARK Flexibility Score: inf
ROOT
ATOM      1  C   UNL     1       6.059   2.906  -6.951  1.00  0.00     0.000 C 
ENDROOT
BRANCH   1   2
ATOM      2  C   UNL     1       5.782   3.721  -5.678  1.00  0.00     0.000 C 
BRANCH   2   3
ATOM      3  C   UNL     1       7.071   4.100  -4.927  1.00  0.00     0.000 C 
BRANCH   3   4
ATOM      4  C   UNL     1       8.325   3.461  -5.548  1.00  0.00     0.000 C 
BRANCH   4   5
ATOM      5  C   UNL     1       9.183   2.711  -4.513  1.00  0.00     0.006 C 
BRANCH   5   6
ATOM      6  C   UNL     1       9.910   1.509  -5.128  1.00  0.00     0.053 C 
BRANCH   6   7
ATOM      7  C   UNL     1       9.098   0.254  -5.026  1.00  0.00     0.041 C 
ATOM      8  O   UNL     1       7.880   0.258  -5.346  1.00  0.00    -0.550 OA
ATOM      9  O   UNL     1       9.695  -0.927  -4.604  1.00  0.00    -0.550 OA
ENDBRANCH   6   7
ENDBRANCH   5   6
ENDBRANCH   4   5
ENDBRANCH   3   4
ENDBRANCH   2   3
ENDBRANCH   1   2
BRANCH   1  10
ATOM     10  C   UNL     1       5.392   3.506  -8.199  1.00  0.00     0.000 C 
BRANCH  10  11
ATOM     11  C   UNL     1       5.998   2.918  -9.481  1.00  0.00    -0.000 C 
BRANCH  11  12
ATOM     12  C   UNL     1       5.978   3.908 -10.661  1.00  0.00    -0.000 C 
BRANCH  12  13
ATOM     13  C   UNL     1       6.817   5.185 -10.455  1.00  0.00    -0.000 C 
BRANCH  13  14
ATOM     14  C   UNL     1       8.096   4.998  -9.613  1.00  0.00    -0.000 C 
BRANCH  14  15
ATOM     15  C   UNL     1       8.324   6.069  -8.528  1.00  0.00    -0.000 C 
BRANCH  15  16
ATOM     16  C   UNL     1       7.224   7.141  -8.437  1.00  0.00    -0.003 C 
ATOM     17  C   UNL     1       6.394   7.036  -7.159  1.00  0.00     0.004 C 
ENDBRANCH  15  16
ENDBRANCH  14  15
ENDBRANCH  13  14
ENDBRANCH  12  13
ENDBRANCH  11  12
ENDBRANCH  10  11
ENDBRANCH   1  10
TORSDOF 13
ENDMDL
