MODEL 1
REMARK VINA RESULT:    -2.121      0.000      0.000
REMARK INTER + INTRA:          -3.126
REMARK INTER:                  -2.865
REMARK INTRA:                  -0.261
REMARK UNBOUND:                -0.261
REMARK SMILES CCCCCCC=CC(=O)[O-]
REMARK SMILES IDX 5 1 6 2 7 3 8 4 9 5 10 6 11 7 4 8 3 9 2 10 1 11
REMARK H PARENT
REMARK Flexibility Score: inf
ROOT
ATOM      1  C   UNL     1     137.354 127.252 131.324  1.00  0.00     0.004 C 
ENDROOT
BRANCH   1   2
ATOM      2  C   UNL     1     138.247 128.468 131.627  1.00  0.00     0.027 C 
BRANCH   2   3
ATOM      3  C   UNL     1     139.710 128.169 131.454  1.00  0.00    -0.025 C 
ATOM      4  C   UNL     1     140.374 128.537 130.353  1.00  0.00     0.020 C 
BRANCH   4   5
ATOM      5  C   UNL     1     141.805 128.249 130.162  1.00  0.00     0.064 C 
ATOM      6  O   UNL     1     142.510 127.798 131.104  1.00  0.00    -0.545 OA
ATOM      7  O   UNL     1     142.387 128.479 128.922  1.00  0.00    -0.545 OA
ENDBRANCH   4   5
ENDBRANCH   2   3
ENDBRANCH   1   2
BRANCH   1   8
ATOM      8  C   UNL     1     137.435 126.750 129.870  1.00  0.00     0.000 C 
BRANCH   8   9
ATOM      9  C   UNL     1     136.299 127.294 128.989  1.00  0.00    -0.000 C 
BRANCH   9  10
ATOM     10  C   UNL     1     135.172 127.939 129.813  1.00  0.00    -0.003 C 
ATOM     11  C   UNL     1     134.281 128.860 128.980  1.00  0.00     0.004 C 
ENDBRANCH   9  10
ENDBRANCH   8   9
ENDBRANCH   1   8
TORSDOF 6
ENDMDL
MODEL 2
REMARK VINA RESULT:    -1.860      2.010      3.243
REMARK INTER + INTRA:          -2.773
REMARK INTER:                  -2.560
REMARK INTRA:                  -0.213
REMARK UNBOUND:                -0.261
REMARK SMILES CCCCCCC=CC(=O)[O-]
REMARK SMILES IDX 5 1 6 2 7 3 8 4 9 5 10 6 11 7 4 8 3 9 2 10 1 11
REMARK H PARENT
REMARK Flexibility Score: inf
ROOT
ATOM      1  C   UNL     1     139.822 128.552 130.292  1.00  0.00     0.004 C 
ENDROOT
BRANCH   1   2
ATOM      2  C   UNL     1     141.351 128.382 130.341  1.00  0.00     0.027 C 
BRANCH   2   3
ATOM      3  C   UNL     1     142.016 128.757 129.046  1.00  0.00    -0.025 C 
ATOM      4  C   UNL     1     143.134 128.150 128.632  1.00  0.00     0.020 C 
BRANCH   4   5
ATOM      5  C   UNL     1     143.803 128.507 127.371  1.00  0.00     0.064 C 
ATOM      6  O   UNL     1     144.123 129.699 127.118  1.00  0.00    -0.545 OA
ATOM      7  O   UNL     1     144.087 127.512 126.444  1.00  0.00    -0.545 OA
ENDBRANCH   4   5
ENDBRANCH   2   3
ENDBRANCH   1   2
BRANCH   1   8
ATOM      8  C   UNL     1     139.085 128.038 131.543  1.00  0.00     0.000 C 
BRANCH   8   9
ATOM      9  C   UNL     1     137.605 127.721 131.272  1.00  0.00    -0.000 C 
BRANCH   9  10
ATOM     10  C   UNL     1     137.419 126.701 130.138  1.00  0.00    -0.003 C 
ATOM     11  C   UNL     1     136.736 127.299 128.908  1.00  0.00     0.004 C 
ENDBRANCH   9  10
ENDBRANCH   8   9
ENDBRANCH   1   8
TORSDOF 6
ENDMDL
MODEL 3
REMARK VINA RESULT:    -1.596      3.333      6.151
REMARK INTER + INTRA:          -2.416
REMARK INTER:                  -2.232
REMARK INTRA:                  -0.184
REMARK UNBOUND:                -0.261
REMARK SMILES CCCCCCC=CC(=O)[O-]
REMARK SMILES IDX 5 1 6 2 7 3 8 4 9 5 10 6 11 7 4 8 3 9 2 10 1 11
REMARK H PARENT
REMARK Flexibility Score: inf
ROOT
ATOM      1  C   UNL     1     142.487 128.043 130.153  1.00  0.00     0.004 C 
ENDROOT
BRANCH   1   2
ATOM      2  C   UNL     1     141.243 128.489 130.941  1.00  0.00     0.027 C 
BRANCH   2   3
ATOM      3  C   UNL     1     139.958 128.105 130.262  1.00  0.00    -0.025 C 
ATOM      4  C   UNL     1     138.841 127.868 130.959  1.00  0.00     0.020 C 
BRANCH   4   5
ATOM      5  C   UNL     1     137.575 127.485 130.314  1.00  0.00     0.064 C 
ATOM      6  O   UNL     1     137.529 127.199 129.088  1.00  0.00    -0.545 OA
ATOM      7  O   UNL     1     136.411 127.440 131.070  1.00  0.00    -0.545 OA
ENDBRANCH   4   5
ENDBRANCH   2   3
ENDBRANCH   1   2
BRANCH   1   8
ATOM      8  C   UNL     1     142.489 128.471 128.673  1.00  0.00     0.000 C 
BRANCH   8   9
ATOM      9  C   UNL     1     143.844 128.231 127.987  1.00  0.00    -0.000 C 
BRANCH   9  10
ATOM     10  C   UNL     1     144.057 129.145 126.770  1.00  0.00    -0.003 C 
ATOM     11  C   UNL     1     143.949 128.397 125.441  1.00  0.00     0.004 C 
ENDBRANCH   9  10
ENDBRANCH   8   9
ENDBRANCH   1   8
TORSDOF 6
ENDMDL
MODEL 4
REMARK VINA RESULT:    -1.558      3.768      5.927
REMARK INTER + INTRA:          -2.365
REMARK INTER:                  -2.035
REMARK INTRA:                  -0.330
REMARK UNBOUND:                -0.261
REMARK SMILES CCCCCCC=CC(=O)[O-]
REMARK SMILES IDX 5 1 6 2 7 3 8 4 9 5 10 6 11 7 4 8 3 9 2 10 1 11
REMARK H PARENT
REMARK Flexibility Score: inf
ROOT
ATOM      1  C   UNL     1     138.535 127.070 130.127  1.00  0.00     0.004 C 
ENDROOT
BRANCH   1   2
ATOM      2  C   UNL     1     137.215 126.308 129.918  1.00  0.00     0.027 C 
BRANCH   2   3
ATOM      3  C   UNL     1     136.006 127.175 130.128  1.00  0.00    -0.025 C 
ATOM      4  C   UNL     1     135.587 128.032 129.190  1.00  0.00     0.020 C 
BRANCH   4   5
ATOM      5  C   UNL     1     134.409 128.894 129.378  1.00  0.00     0.064 C 
ATOM      6  O   UNL     1     133.790 128.919 130.475  1.00  0.00    -0.545 OA
ATOM      7  O   UNL     1     133.972 129.691 128.328  1.00  0.00    -0.545 OA
ENDBRANCH   4   5
ENDBRANCH   2   3
ENDBRANCH   1   2
BRANCH   1   8
ATOM      8  C   UNL     1     138.610 127.861 131.446  1.00  0.00     0.000 C 
BRANCH   8   9
ATOM      9  C   UNL     1     139.911 128.671 131.580  1.00  0.00    -0.000 C 
BRANCH   9  10
ATOM     10  C   UNL     1     140.870 128.445 130.401  1.00  0.00    -0.003 C 
ATOM     11  C   UNL     1     142.275 128.042 130.848  1.00  0.00     0.004 C 
ENDBRANCH   9  10
ENDBRANCH   8   9
ENDBRANCH   1   8
TORSDOF 6
ENDMDL
MODEL 5
REMARK VINA RESULT:    -1.017      3.039      5.063
REMARK INTER + INTRA:          -1.634
REMARK INTER:                  -1.209
REMARK INTRA:                  -0.425
REMARK UNBOUND:                -0.261
REMARK SMILES CCCCCCC=CC(=O)[O-]
REMARK SMILES IDX 5 1 6 2 7 3 8 4 9 5 10 6 11 7 4 8 3 9 2 10 1 11
REMARK H PARENT
REMARK Flexibility Score: inf
ROOT
ATOM      1  C   UNL     1     137.772 127.015 129.780  1.00  0.00     0.004 C 
ENDROOT
BRANCH   1   2
ATOM      2  C   UNL     1     136.593 127.389 128.863  1.00  0.00     0.027 C 
BRANCH   2   3
ATOM      3  C   UNL     1     137.042 127.875 127.513  1.00  0.00    -0.025 C 
ATOM      4  C   UNL     1     137.433 129.139 127.318  1.00  0.00     0.020 C 
BRANCH   4   5
ATOM      5  C   UNL     1     137.870 129.636 126.004  1.00  0.00     0.064 C 
ATOM      6  O   UNL     1     138.202 128.840 125.085  1.00  0.00    -0.545 OA
ATOM      7  O   UNL     1     137.918 131.005 125.773  1.00  0.00    -0.545 OA
ENDBRANCH   4   5
ENDBRANCH   2   3
ENDBRANCH   1   2
BRANCH   1   8
ATOM      8  C   UNL     1     137.731 127.676 131.170  1.00  0.00     0.000 C 
BRANCH   8   9
ATOM      9  C   UNL     1     139.117 128.138 131.650  1.00  0.00    -0.000 C 
BRANCH   9  10
ATOM     10  C   UNL     1     140.089 128.390 130.486  1.00  0.00    -0.003 C 
ATOM     11  C   UNL     1     141.545 128.112 130.858  1.00  0.00     0.004 C 
ENDBRANCH   9  10
ENDBRANCH   8   9
ENDBRANCH   1   8
TORSDOF 6
ENDMDL
MODEL 6
REMARK VINA RESULT:    -0.991      3.289      5.903
REMARK INTER + INTRA:          -1.599
REMARK INTER:                  -1.402
REMARK INTRA:                  -0.197
REMARK UNBOUND:                -0.261
REMARK SMILES CCCCCCC=CC(=O)[O-]
REMARK SMILES IDX 5 1 6 2 7 3 8 4 9 5 10 6 11 7 4 8 3 9 2 10 1 11
REMARK H PARENT
REMARK Flexibility Score: inf
ROOT
ATOM      1  C   UNL     1     140.739 128.731 131.238  1.00  0.00     0.004 C 
ENDROOT
BRANCH   1   2
ATOM      2  C   UNL     1     139.633 127.703 131.537  1.00  0.00     0.027 C 
BRANCH   2   3
ATOM      3  C   UNL     1     138.519 127.741 130.529  1.00  0.00    -0.025 C 
ATOM      4  C   UNL     1     137.252 127.488 130.875  1.00  0.00     0.020 C 
BRANCH   4   5
ATOM      5  C   UNL     1     136.149 127.514 129.901  1.00  0.00     0.064 C 
ATOM      6  O   UNL     1     135.036 128.029 130.192  1.00  0.00    -0.545 OA
ATOM      7  O   UNL     1     136.337 126.961 128.642  1.00  0.00    -0.545 OA
ENDBRANCH   4   5
ENDBRANCH   2   3
ENDBRANCH   1   2
BRANCH   1   8
ATOM      8  C   UNL     1     142.019 128.129 130.631  1.00  0.00     0.000 C 
BRANCH   8   9
ATOM      9  C   UNL     1     142.148 128.404 129.123  1.00  0.00    -0.000 C 
BRANCH   9  10
ATOM     10  C   UNL     1     143.558 128.104 128.588  1.00  0.00    -0.003 C 
ATOM     11  C   UNL     1     143.840 128.780 127.247  1.00  0.00     0.004 C 
ENDBRANCH   9  10
ENDBRANCH   8   9
ENDBRANCH   1   8
TORSDOF 6
ENDMDL
MODEL 7
REMARK VINA RESULT:    -0.886      1.389      2.018
REMARK INTER + INTRA:          -1.457
REMARK INTER:                  -1.114
REMARK INTRA:                  -0.343
REMARK UNBOUND:                -0.261
REMARK SMILES CCCCCCC=CC(=O)[O-]
REMARK SMILES IDX 5 1 6 2 7 3 8 4 9 5 10 6 11 7 4 8 3 9 2 10 1 11
REMARK H PARENT
REMARK Flexibility Score: inf
ROOT
ATOM      1  C   UNL     1     136.242 127.632 130.836  1.00  0.00     0.004 C 
ENDROOT
BRANCH   1   2
ATOM      2  C   UNL     1     137.379 127.883 131.842  1.00  0.00     0.027 C 
BRANCH   2   3
ATOM      3  C   UNL     1     138.736 127.585 131.268  1.00  0.00    -0.025 C 
ATOM      4  C   UNL     1     139.618 128.558 131.012  1.00  0.00     0.020 C 
BRANCH   4   5
ATOM      5  C   UNL     1     140.948 128.288 130.445  1.00  0.00     0.064 C 
ATOM      6  O   UNL     1     141.133 128.266 129.199  1.00  0.00    -0.545 OA
ATOM      7  O   UNL     1     142.018 128.052 131.299  1.00  0.00    -0.545 OA
ENDBRANCH   4   5
ENDBRANCH   2   3
ENDBRANCH   1   2
BRANCH   1   8
ATOM      8  C   UNL     1     136.603 126.661 129.697  1.00  0.00     0.000 C 
BRANCH   8   9
ATOM      9  C   UNL     1     136.566 127.329 128.312  1.00  0.00    -0.000 C 
BRANCH   9  10
ATOM     10  C   UNL     1     137.723 128.319 128.105  1.00  0.00    -0.003 C 
ATOM     11  C   UNL     1     137.655 129.037 126.757  1.00  0.00     0.004 C 
ENDBRANCH   9  10
ENDBRANCH   8   9
ENDBRANCH   1   8
TORSDOF 6
ENDMDL
MODEL 8
REMARK VINA RESULT:    -0.762      1.323      2.225
REMARK INTER + INTRA:          -1.290
REMARK INTER:                  -0.882
REMARK INTRA:                  -0.408
REMARK UNBOUND:                -0.261
REMARK SMILES CCCCCCC=CC(=O)[O-]
REMARK SMILES IDX 5 1 6 2 7 3 8 4 9 5 10 6 11 7 4 8 3 9 2 10 1 11
REMARK H PARENT
REMARK Flexibility Score: inf
ROOT
ATOM      1  C   UNL     1     136.161 127.003 128.995  1.00  0.00     0.004 C 
ENDROOT
BRANCH   1   2
ATOM      2  C   UNL     1     137.576 127.546 128.725  1.00  0.00     0.027 C 
BRANCH   2   3
ATOM      3  C   UNL     1     138.412 127.627 129.971  1.00  0.00    -0.025 C 
ATOM      4  C   UNL     1     139.600 128.242 129.979  1.00  0.00     0.020 C 
BRANCH   4   5
ATOM      5  C   UNL     1     140.436 128.328 131.187  1.00  0.00     0.064 C 
ATOM      6  O   UNL     1     139.930 128.580 132.313  1.00  0.00    -0.545 OA
ATOM      7  O   UNL     1     141.806 128.129 131.083  1.00  0.00    -0.545 OA
ENDBRANCH   4   5
ENDBRANCH   2   3
ENDBRANCH   1   2
BRANCH   1   8
ATOM      8  C   UNL     1     135.544 127.471 130.327  1.00  0.00     0.000 C 
BRANCH   8   9
ATOM      9  C   UNL     1     134.506 128.589 130.140  1.00  0.00    -0.000 C 
BRANCH   9  10
ATOM     10  C   UNL     1     133.983 128.673 128.697  1.00  0.00    -0.003 C 
ATOM     11  C   UNL     1     134.028 130.092 128.131  1.00  0.00     0.004 C 
ENDBRANCH   9  10
ENDBRANCH   8   9
ENDBRANCH   1   8
TORSDOF 6
ENDMDL
MODEL 9
REMARK VINA RESULT:    -0.531      3.087      5.374
REMARK INTER + INTRA:          -0.978
REMARK INTER:                  -0.787
REMARK INTRA:                  -0.191
REMARK UNBOUND:                -0.261
REMARK SMILES CCCCCCC=CC(=O)[O-]
REMARK SMILES IDX 5 1 6 2 7 3 8 4 9 5 10 6 11 7 4 8 3 9 2 10 1 11
REMARK H PARENT
REMARK Flexibility Score: inf
ROOT
ATOM      1  C   UNL     1     139.262 128.114 132.354  1.00  0.00     0.004 C 
ENDROOT
BRANCH   1   2
ATOM      2  C   UNL     1     137.925 127.355 132.433  1.00  0.00     0.027 C 
BRANCH   2   3
ATOM      3  C   UNL     1     136.979 127.732 131.327  1.00  0.00    -0.025 C 
ATOM      4  C   UNL     1     136.896 127.015 130.201  1.00  0.00     0.020 C 
BRANCH   4   5
ATOM      5  C   UNL     1     135.980 127.371 129.105  1.00  0.00     0.064 C 
ATOM      6  O   UNL     1     136.201 126.994 127.924  1.00  0.00    -0.545 OA
ATOM      7  O   UNL     1     134.854 128.136 129.379  1.00  0.00    -0.545 OA
ENDBRANCH   4   5
ENDBRANCH   2   3
ENDBRANCH   1   2
BRANCH   1   8
ATOM      8  C   UNL     1     139.388 129.055 131.141  1.00  0.00     0.000 C 
BRANCH   8   9
ATOM      9  C   UNL     1     140.286 128.480 130.034  1.00  0.00    -0.000 C 
BRANCH   9  10
ATOM     10  C   UNL     1     141.707 128.166 130.531  1.00  0.00    -0.003 C 
ATOM     11  C   UNL     1     142.750 128.211 129.415  1.00  0.00     0.004 C 
ENDBRANCH   9  10
ENDBRANCH   8   9
ENDBRANCH   1   8
TORSDOF 6
ENDMDL
