MODEL 1
REMARK VINA RESULT:    -4.031      0.000      0.000
REMARK INTER + INTRA:          -4.764
REMARK INTER:                  -4.620
REMARK INTRA:                  -0.144
REMARK UNBOUND:                -0.144
REMARK SMILES CC=Cc1ccc(O)c(OC)c1
REMARK SMILES IDX 4 1 12 2 9 3 7 4 6 5 5 6 3 7 1 8 2 9 10 10 11 11 8 12
REMARK H PARENT 8 13
REMARK Flexibility Score: inf
ROOT
ATOM      1  C   UNL     1     115.630 118.689 120.033  1.00  0.00    -0.022 A 
ATOM      2  C   UNL     1     115.068 117.964 121.103  1.00  0.00     0.058 A 
ATOM      3  C   UNL     1     115.893 117.315 122.046  1.00  0.00     0.161 A 
ATOM      4  C   UNL     1     117.290 117.392 121.903  1.00  0.00     0.157 A 
ATOM      5  C   UNL     1     117.847 118.097 120.833  1.00  0.00     0.051 A 
ATOM      6  C   UNL     1     117.026 118.735 119.903  1.00  0.00     0.012 A 
ENDROOT
BRANCH   1   7
ATOM      7  C   UNL     1     114.802 119.378 119.013  1.00  0.00     0.003 C 
ATOM      8  C   UNL     1     113.901 121.328 117.805  1.00  0.00     0.035 C 
ATOM      9  C   UNL     1     114.750 120.708 118.868  1.00  0.00    -0.030 C 
ENDBRANCH   1   7
BRANCH   3  10
ATOM     10  O   UNL     1     115.362 116.590 123.125  1.00  0.00    -0.493 OA
ATOM     11  C   UNL     1     115.127 115.186 123.119  1.00  0.00     0.278 C 
ENDBRANCH   3  10
BRANCH   4  12
ATOM     12  O   UNL     1     118.143 116.768 122.815  1.00  0.00    -0.504 OA
ATOM     13  H   UNL     1     117.945 116.741 123.808  1.00  0.00     0.293 HD
ENDBRANCH   4  12
TORSDOF 3
ENDMDL
MODEL 2
REMARK VINA RESULT:    -4.014      2.963      3.853
REMARK INTER + INTRA:          -4.745
REMARK INTER:                  -4.578
REMARK INTRA:                  -0.167
REMARK UNBOUND:                -0.144
REMARK SMILES CC=Cc1ccc(O)c(OC)c1
REMARK SMILES IDX 4 1 12 2 9 3 7 4 6 5 5 6 3 7 1 8 2 9 10 10 11 11 8 12
REMARK H PARENT 8 13
REMARK Flexibility Score: inf
ROOT
ATOM      1  C   UNL     1     114.435 115.694 119.994  1.00  0.00    -0.022 A 
ATOM      2  C   UNL     1     115.145 115.148 121.083  1.00  0.00     0.058 A 
ATOM      3  C   UNL     1     115.775 115.985 122.025  1.00  0.00     0.161 A 
ATOM      4  C   UNL     1     115.697 117.380 121.865  1.00  0.00     0.157 A 
ATOM      5  C   UNL     1     115.007 117.922 120.777  1.00  0.00     0.051 A 
ATOM      6  C   UNL     1     114.386 117.088 119.847  1.00  0.00     0.012 A 
ENDROOT
BRANCH   1   7
ATOM      7  C   UNL     1     113.764 114.851 118.974  1.00  0.00     0.003 C 
ATOM      8  C   UNL     1     111.834 113.887 117.783  1.00  0.00     0.035 C 
ATOM      9  C   UNL     1     112.435 114.747 118.848  1.00  0.00    -0.030 C 
ENDBRANCH   1   7
BRANCH   3  10
ATOM     10  O   UNL     1     116.485 115.471 123.122  1.00  0.00    -0.493 OA
ATOM     11  C   UNL     1     117.863 115.113 123.099  1.00  0.00     0.278 C 
ENDBRANCH   3  10
BRANCH   4  12
ATOM     12  O   UNL     1     116.303 118.246 122.776  1.00  0.00    -0.504 OA
ATOM     13  H   UNL     1     117.262 118.556 122.670  1.00  0.00     0.293 HD
ENDBRANCH   4  12
TORSDOF 3
ENDMDL
MODEL 3
REMARK VINA RESULT:    -3.981      3.664      5.490
REMARK INTER + INTRA:          -4.707
REMARK INTER:                  -4.563
REMARK INTRA:                  -0.145
REMARK UNBOUND:                -0.144
REMARK SMILES CC=Cc1ccc(O)c(OC)c1
REMARK SMILES IDX 4 1 12 2 9 3 7 4 6 5 5 6 3 7 1 8 2 9 10 10 11 11 8 12
REMARK H PARENT 8 13
REMARK Flexibility Score: inf
ROOT
ATOM      1  C   UNL     1     117.606 114.418 119.834  1.00  0.00    -0.022 A 
ATOM      2  C   UNL     1     118.099 115.091 120.971  1.00  0.00     0.058 A 
ATOM      3  C   UNL     1     117.216 115.679 121.899  1.00  0.00     0.161 A 
ATOM      4  C   UNL     1     115.830 115.596 121.677  1.00  0.00     0.157 A 
ATOM      5  C   UNL     1     115.342 114.943 120.542  1.00  0.00     0.051 A 
ATOM      6  C   UNL     1     116.220 114.364 119.626  1.00  0.00     0.012 A 
ENDROOT
BRANCH   1   7
ATOM      7  C   UNL     1     118.498 113.793 118.826  1.00  0.00     0.003 C 
ATOM      8  C   UNL     1     119.419 111.932 117.500  1.00  0.00     0.035 C 
ATOM      9  C   UNL     1     118.500 112.485 118.542  1.00  0.00    -0.030 C 
ENDBRANCH   1   7
BRANCH   3  10
ATOM     10  O   UNL     1     117.678 116.351 123.043  1.00  0.00    -0.493 OA
ATOM     11  C   UNL     1     117.891 117.757 123.125  1.00  0.00     0.278 C 
ENDBRANCH   3  10
BRANCH   4  12
ATOM     12  O   UNL     1     114.921 116.161 122.572  1.00  0.00    -0.504 OA
ATOM     13  H   UNL     1     113.932 116.230 122.365  1.00  0.00     0.293 HD
ENDBRANCH   4  12
TORSDOF 3
ENDMDL
MODEL 4
REMARK VINA RESULT:    -3.916      1.162      2.825
REMARK INTER + INTRA:          -4.632
REMARK INTER:                  -4.485
REMARK INTRA:                  -0.147
REMARK UNBOUND:                -0.144
REMARK SMILES CC=Cc1ccc(O)c(OC)c1
REMARK SMILES IDX 4 1 12 2 9 3 7 4 6 5 5 6 3 7 1 8 2 9 10 10 11 11 8 12
REMARK H PARENT 8 13
REMARK Flexibility Score: inf
ROOT
ATOM      1  C   UNL     1     115.638 118.850 119.893  1.00  0.00    -0.022 A 
ATOM      2  C   UNL     1     117.038 118.883 119.737  1.00  0.00     0.058 A 
ATOM      3  C   UNL     1     117.883 118.262 120.680  1.00  0.00     0.161 A 
ATOM      4  C   UNL     1     117.313 117.613 121.790  1.00  0.00     0.157 A 
ATOM      5  C   UNL     1     115.926 117.595 121.954  1.00  0.00     0.051 A 
ATOM      6  C   UNL     1     115.095 118.211 121.018  1.00  0.00     0.012 A 
ENDROOT
BRANCH   1   7
ATOM      7  C   UNL     1     114.712 119.497 118.931  1.00  0.00     0.003 C 
ATOM      8  C   UNL     1     113.722 121.391 117.704  1.00  0.00     0.035 C 
ATOM      9  C   UNL     1     114.675 120.816 118.702  1.00  0.00    -0.030 C 
ENDBRANCH   1   7
BRANCH   3  10
ATOM     10  O   UNL     1     119.281 118.273 120.549  1.00  0.00    -0.493 OA
ATOM     11  C   UNL     1     119.979 118.162 119.313  1.00  0.00     0.278 C 
ENDBRANCH   3  10
BRANCH   4  12
ATOM     12  O   UNL     1     118.112 116.983 122.746  1.00  0.00    -0.504 OA
ATOM     13  H   UNL     1     118.766 117.495 123.324  1.00  0.00     0.293 HD
ENDBRANCH   4  12
TORSDOF 3
ENDMDL
MODEL 5
REMARK VINA RESULT:    -3.907      3.946      5.516
REMARK INTER + INTRA:          -4.622
REMARK INTER:                  -4.471
REMARK INTRA:                  -0.151
REMARK UNBOUND:                -0.144
REMARK SMILES CC=Cc1ccc(O)c(OC)c1
REMARK SMILES IDX 4 1 12 2 9 3 7 4 6 5 5 6 3 7 1 8 2 9 10 10 11 11 8 12
REMARK H PARENT 8 13
REMARK Flexibility Score: inf
ROOT
ATOM      1  C   UNL     1     117.556 114.348 119.809  1.00  0.00    -0.022 A 
ATOM      2  C   UNL     1     116.152 114.299 119.688  1.00  0.00     0.058 A 
ATOM      3  C   UNL     1     115.324 114.924 120.643  1.00  0.00     0.161 A 
ATOM      4  C   UNL     1     115.913 115.595 121.729  1.00  0.00     0.157 A 
ATOM      5  C   UNL     1     117.304 115.630 121.858  1.00  0.00     0.051 A 
ATOM      6  C   UNL     1     118.118 115.009 120.911  1.00  0.00     0.012 A 
ENDROOT
BRANCH   1   7
ATOM      7  C   UNL     1     118.465 113.697 118.834  1.00  0.00     0.003 C 
ATOM      8  C   UNL     1     119.421 111.800 117.587  1.00  0.00     0.035 C 
ATOM      9  C   UNL     1     118.484 112.379 118.598  1.00  0.00    -0.030 C 
ENDBRANCH   1   7
BRANCH   3  10
ATOM     10  O   UNL     1     113.923 114.897 120.546  1.00  0.00    -0.493 OA
ATOM     11  C   UNL     1     113.188 115.189 119.362  1.00  0.00     0.278 C 
ENDBRANCH   3  10
BRANCH   4  12
ATOM     12  O   UNL     1     115.132 116.231 122.695  1.00  0.00    -0.504 OA
ATOM     13  H   UNL     1     114.425 116.915 122.453  1.00  0.00     0.293 HD
ENDBRANCH   4  12
TORSDOF 3
ENDMDL
MODEL 6
REMARK VINA RESULT:    -3.894      3.155      4.449
REMARK INTER + INTRA:          -4.607
REMARK INTER:                  -4.460
REMARK INTRA:                  -0.147
REMARK UNBOUND:                -0.144
REMARK SMILES CC=Cc1ccc(O)c(OC)c1
REMARK SMILES IDX 4 1 12 2 9 3 7 4 6 5 5 6 3 7 1 8 2 9 10 10 11 11 8 12
REMARK H PARENT 8 13
REMARK Flexibility Score: inf
ROOT
ATOM      1  C   UNL     1     114.288 115.654 119.817  1.00  0.00    -0.022 A 
ATOM      2  C   UNL     1     114.286 117.055 119.660  1.00  0.00     0.058 A 
ATOM      3  C   UNL     1     114.909 117.888 120.611  1.00  0.00     0.161 A 
ATOM      4  C   UNL     1     115.530 117.307 121.731  1.00  0.00     0.157 A 
ATOM      5  C   UNL     1     115.518 115.919 121.896  1.00  0.00     0.051 A 
ATOM      6  C   UNL     1     114.899 115.100 120.952  1.00  0.00     0.012 A 
ENDROOT
BRANCH   1   7
ATOM      7  C   UNL     1     113.637 114.740 118.847  1.00  0.00     0.003 C 
ATOM      8  C   UNL     1     111.732 113.718 117.664  1.00  0.00     0.035 C 
ATOM      9  C   UNL     1     112.312 114.655 118.675  1.00  0.00    -0.030 C 
ENDBRANCH   1   7
BRANCH   3  10
ATOM     10  O   UNL     1     114.927 119.286 120.479  1.00  0.00    -0.493 OA
ATOM     11  C   UNL     1     115.027 119.980 119.239  1.00  0.00     0.278 C 
ENDBRANCH   3  10
BRANCH   4  12
ATOM     12  O   UNL     1     116.161 118.094 122.695  1.00  0.00    -0.504 OA
ATOM     13  H   UNL     1     115.729 118.306 123.586  1.00  0.00     0.293 HD
ENDBRANCH   4  12
TORSDOF 3
ENDMDL
MODEL 7
REMARK VINA RESULT:    -3.882      3.076      4.374
REMARK INTER + INTRA:          -4.594
REMARK INTER:                  -4.447
REMARK INTRA:                  -0.147
REMARK UNBOUND:                -0.144
REMARK SMILES CC=Cc1ccc(O)c(OC)c1
REMARK SMILES IDX 4 1 12 2 9 3 7 4 6 5 5 6 3 7 1 8 2 9 10 10 11 11 8 12
REMARK H PARENT 8 13
REMARK Flexibility Score: inf
ROOT
ATOM      1  C   UNL     1     118.817 117.569 119.877  1.00  0.00    -0.022 A 
ATOM      2  C   UNL     1     118.836 116.168 119.718  1.00  0.00     0.058 A 
ATOM      3  C   UNL     1     118.153 115.331 120.624  1.00  0.00     0.161 A 
ATOM      4  C   UNL     1     117.454 115.908 121.699  1.00  0.00     0.157 A 
ATOM      5  C   UNL     1     117.448 117.295 121.866  1.00  0.00     0.051 A 
ATOM      6  C   UNL     1     118.127 118.119 120.967  1.00  0.00     0.012 A 
ENDROOT
BRANCH   1   7
ATOM      7  C   UNL     1     119.529 118.487 118.954  1.00  0.00     0.003 C 
ATOM      8  C   UNL     1     121.501 119.444 117.828  1.00  0.00     0.035 C 
ATOM      9  C   UNL     1     120.858 118.497 118.790  1.00  0.00    -0.030 C 
ENDBRANCH   1   7
BRANCH   3  10
ATOM     10  O   UNL     1     118.150 113.933 120.489  1.00  0.00    -0.493 OA
ATOM     11  C   UNL     1     118.122 113.240 119.245  1.00  0.00     0.278 C 
ENDBRANCH   3  10
BRANCH   4  12
ATOM     12  O   UNL     1     116.761 115.117 122.617  1.00  0.00    -0.504 OA
ATOM     13  H   UNL     1     116.957 114.131 122.735  1.00  0.00     0.293 HD
ENDBRANCH   4  12
TORSDOF 3
ENDMDL
MODEL 8
REMARK VINA RESULT:    -3.820      2.820      4.026
REMARK INTER + INTRA:          -4.522
REMARK INTER:                  -4.358
REMARK INTRA:                  -0.164
REMARK UNBOUND:                -0.144
REMARK SMILES CC=Cc1ccc(O)c(OC)c1
REMARK SMILES IDX 4 1 12 2 9 3 7 4 6 5 5 6 3 7 1 8 2 9 10 10 11 11 8 12
REMARK H PARENT 8 13
REMARK Flexibility Score: inf
ROOT
ATOM      1  C   UNL     1     115.671 116.110 121.078  1.00  0.00    -0.022 A 
ATOM      2  C   UNL     1     116.573 116.896 120.333  1.00  0.00     0.058 A 
ATOM      3  C   UNL     1     117.539 117.694 120.981  1.00  0.00     0.161 A 
ATOM      4  C   UNL     1     117.590 117.705 122.386  1.00  0.00     0.157 A 
ATOM      5  C   UNL     1     116.685 116.938 123.125  1.00  0.00     0.051 A 
ATOM      6  C   UNL     1     115.731 116.152 122.479  1.00  0.00     0.012 A 
ENDROOT
BRANCH   1   7
ATOM      7  C   UNL     1     114.633 115.264 120.439  1.00  0.00     0.003 C 
ATOM      8  C   UNL     1     112.715 114.806 118.961  1.00  0.00     0.035 C 
ATOM      9  C   UNL     1     113.721 115.726 119.575  1.00  0.00    -0.030 C 
ENDBRANCH   1   7
BRANCH   3  10
ATOM     10  O   UNL     1     118.454 118.483 120.265  1.00  0.00    -0.493 OA
ATOM     11  C   UNL     1     119.583 117.976 119.561  1.00  0.00     0.278 C 
ENDBRANCH   3  10
BRANCH   4  12
ATOM     12  O   UNL     1     118.532 118.477 123.068  1.00  0.00    -0.504 OA
ATOM     13  H   UNL     1     118.268 119.276 123.632  1.00  0.00     0.293 HD
ENDBRANCH   4  12
TORSDOF 3
ENDMDL
MODEL 9
REMARK VINA RESULT:    -3.474      3.016      3.896
REMARK INTER + INTRA:          -4.125
REMARK INTER:                  -3.962
REMARK INTRA:                  -0.163
REMARK UNBOUND:                -0.144
REMARK SMILES CC=Cc1ccc(O)c(OC)c1
REMARK SMILES IDX 4 1 12 2 9 3 7 4 6 5 5 6 3 7 1 8 2 9 10 10 11 11 8 12
REMARK H PARENT 8 13
REMARK Flexibility Score: inf
ROOT
ATOM      1  C   UNL     1     118.812 117.568 119.977  1.00  0.00    -0.022 A 
ATOM      2  C   UNL     1     118.094 118.077 121.079  1.00  0.00     0.058 A 
ATOM      3  C   UNL     1     117.494 117.207 122.013  1.00  0.00     0.161 A 
ATOM      4  C   UNL     1     117.611 115.818 121.830  1.00  0.00     0.157 A 
ATOM      5  C   UNL     1     118.308 115.313 120.730  1.00  0.00     0.051 A 
ATOM      6  C   UNL     1     118.899 116.178 119.809  1.00  0.00     0.012 A 
ENDROOT
BRANCH   1   7
ATOM      7  C   UNL     1     119.451 118.445 118.966  1.00  0.00     0.003 C 
ATOM      8  C   UNL     1     121.338 119.385 117.690  1.00  0.00     0.035 C 
ATOM      9  C   UNL     1     120.770 118.484 118.739  1.00  0.00    -0.030 C 
ENDBRANCH   1   7
BRANCH   3  10
ATOM     10  O   UNL     1     116.778 117.685 123.122  1.00  0.00    -0.493 OA
ATOM     11  C   UNL     1     115.381 117.963 123.125  1.00  0.00     0.278 C 
ENDBRANCH   3  10
BRANCH   4  12
ATOM     12  O   UNL     1     117.036 114.921 122.732  1.00  0.00    -0.504 OA
ATOM     13  H   UNL     1     117.284 113.939 122.748  1.00  0.00     0.293 HD
ENDBRANCH   4  12
TORSDOF 3
ENDMDL
