MODEL 1
REMARK VINA RESULT:    -4.649      0.000      0.000
REMARK INTER + INTRA:         -12.068
REMARK INTER:                 -10.085
REMARK INTRA:                  -1.983
REMARK UNBOUND:                -1.983
REMARK SMILES CCCCCCCCCCCCCCCCCCCCCC(=O)[O-]
REMARK SMILES IDX 12 1 11 2 10 3 9 4 8 5 7 6 6 7 5 8 4 9 3 10 2 11 1 12 13 13
REMARK SMILES IDX 14 14 15 15 16 16 17 17 18 18 19 19 20 20 21 21 22 22 23 23
REMARK SMILES IDX 24 24
REMARK H PARENT
REMARK Flexibility Score: inf
ROOT
ATOM      1  C   UNL     1      -1.638  -3.234   4.952  1.00  0.00     0.000 C 
ENDROOT
BRANCH   1   2
ATOM      2  C   UNL     1      -1.339  -2.071   5.914  1.00  0.00     0.000 C 
BRANCH   2   3
ATOM      3  C   UNL     1      -1.365  -0.700   5.214  1.00  0.00     0.000 C 
BRANCH   3   4
ATOM      4  C   UNL     1      -1.183   0.466   6.201  1.00  0.00    -0.000 C 
BRANCH   4   5
ATOM      5  C   UNL     1      -1.490   0.063   7.654  1.00  0.00    -0.000 C 
BRANCH   5   6
ATOM      6  C   UNL     1      -0.282   0.245   8.588  1.00  0.00    -0.000 C 
BRANCH   6   7
ATOM      7  C   UNL     1      -0.440  -0.519   9.914  1.00  0.00    -0.000 C 
BRANCH   7   8
ATOM      8  C   UNL     1       0.655  -1.579  10.112  1.00  0.00    -0.000 C 
BRANCH   8   9
ATOM      9  C   UNL     1       0.290  -2.931   9.473  1.00  0.00    -0.000 C 
BRANCH   9  10
ATOM     10  C   UNL     1       1.209  -4.073   9.959  1.00  0.00    -0.000 C 
BRANCH  10  11
ATOM     11  C   UNL     1       2.638  -3.995   9.398  1.00  0.00    -0.003 C 
ATOM     12  C   UNL     1       3.083  -5.285   8.710  1.00  0.00     0.004 C 
ENDBRANCH  10  11
ENDBRANCH   9  10
ENDBRANCH   8   9
ENDBRANCH   7   8
ENDBRANCH   6   7
ENDBRANCH   5   6
ENDBRANCH   4   5
ENDBRANCH   3   4
ENDBRANCH   2   3
ENDBRANCH   1   2
BRANCH   1  13
ATOM     13  C   UNL     1      -0.820  -4.497   5.270  1.00  0.00     0.000 C 
BRANCH  13  14
ATOM     14  C   UNL     1      -0.806  -4.825   6.772  1.00  0.00     0.000 C 
BRANCH  14  15
ATOM     15  C   UNL     1      -0.092  -6.149   7.078  1.00  0.00     0.000 C 
BRANCH  15  16
ATOM     16  C   UNL     1      -0.973  -7.061   7.944  1.00  0.00     0.000 C 
BRANCH  16  17
ATOM     17  C   UNL     1      -1.365  -8.362   7.225  1.00  0.00     0.000 C 
BRANCH  17  18
ATOM     18  C   UNL     1      -1.935  -9.417   8.188  1.00  0.00     0.000 C 
BRANCH  18  19
ATOM     19  C   UNL     1      -2.605  -8.793   9.423  1.00  0.00     0.000 C 
BRANCH  19  20
ATOM     20  C   UNL     1      -3.974  -9.416   9.730  1.00  0.00     0.006 C 
BRANCH  20  21
ATOM     21  C   UNL     1      -5.108  -8.442   9.389  1.00  0.00     0.053 C 
BRANCH  21  22
ATOM     22  C   UNL     1      -5.227  -8.262   7.909  1.00  0.00     0.041 C 
ATOM     23  O   UNL     1      -5.057  -7.128   7.391  1.00  0.00    -0.550 OA
ATOM     24  O   UNL     1      -5.553  -9.341   7.101  1.00  0.00    -0.550 OA
ENDBRANCH  21  22
ENDBRANCH  20  21
ENDBRANCH  19  20
ENDBRANCH  18  19
ENDBRANCH  17  18
ENDBRANCH  16  17
ENDBRANCH  15  16
ENDBRANCH  14  15
ENDBRANCH  13  14
ENDBRANCH   1  13
TORSDOF 20
ENDMDL
MODEL 2
REMARK VINA RESULT:    -4.109      4.365      8.767
REMARK INTER + INTRA:         -10.897
REMARK INTER:                 -10.082
REMARK INTRA:                  -0.815
REMARK UNBOUND:                -1.983
REMARK SMILES CCCCCCCCCCCCCCCCCCCCCC(=O)[O-]
REMARK SMILES IDX 12 1 11 2 10 3 9 4 8 5 7 6 6 7 5 8 4 9 3 10 2 11 1 12 13 13
REMARK SMILES IDX 14 14 15 15 16 16 17 17 18 18 19 19 20 20 21 21 22 22 23 23
REMARK SMILES IDX 24 24
REMARK H PARENT
REMARK Flexibility Score: inf
ROOT
ATOM      1  C   UNL     1      -1.887  -1.054   4.167  1.00  0.00     0.000 C 
ENDROOT
BRANCH   1   2
ATOM      2  C   UNL     1      -1.249  -2.450   4.071  1.00  0.00     0.000 C 
BRANCH   2   3
ATOM      3  C   UNL     1      -1.815  -3.436   5.109  1.00  0.00     0.000 C 
BRANCH   3   4
ATOM      4  C   UNL     1      -0.776  -4.475   5.560  1.00  0.00    -0.000 C 
BRANCH   4   5
ATOM      5  C   UNL     1      -0.607  -4.515   7.090  1.00  0.00    -0.000 C 
BRANCH   5   6
ATOM      6  C   UNL     1      -0.106  -5.878   7.596  1.00  0.00    -0.000 C 
BRANCH   6   7
ATOM      7  C   UNL     1      -1.087  -6.541   8.578  1.00  0.00    -0.000 C 
BRANCH   7   8
ATOM      8  C   UNL     1      -1.943  -7.625   7.907  1.00  0.00    -0.000 C 
BRANCH   8   9
ATOM      9  C   UNL     1      -2.751  -8.452   8.923  1.00  0.00    -0.000 C 
BRANCH   9  10
ATOM     10  C   UNL     1      -4.051  -9.019   8.311  1.00  0.00    -0.000 C 
BRANCH  10  11
ATOM     11  C   UNL     1      -5.046  -7.935   7.865  1.00  0.00    -0.003 C 
ATOM     12  C   UNL     1      -5.415  -6.963   8.984  1.00  0.00     0.004 C 
ENDBRANCH  10  11
ENDBRANCH   9  10
ENDBRANCH   8   9
ENDBRANCH   7   8
ENDBRANCH   6   7
ENDBRANCH   5   6
ENDBRANCH   4   5
ENDBRANCH   3   4
ENDBRANCH   2   3
ENDBRANCH   1   2
BRANCH   1  13
ATOM     13  C   UNL     1      -1.235  -0.172   5.245  1.00  0.00     0.000 C 
BRANCH  13  14
ATOM     14  C   UNL     1      -1.156  -0.874   6.610  1.00  0.00     0.000 C 
BRANCH  14  15
ATOM     15  C   UNL     1      -1.092   0.120   7.779  1.00  0.00     0.000 C 
BRANCH  15  16
ATOM     16  C   UNL     1      -0.570  -0.563   9.052  1.00  0.00     0.000 C 
BRANCH  16  17
ATOM     17  C   UNL     1       0.123   0.420  10.008  1.00  0.00     0.000 C 
BRANCH  17  18
ATOM     18  C   UNL     1       1.649   0.444   9.823  1.00  0.00     0.000 C 
BRANCH  18  19
ATOM     19  C   UNL     1       2.243   1.854   9.975  1.00  0.00     0.000 C 
BRANCH  19  20
ATOM     20  C   UNL     1       3.750   1.893   9.685  1.00  0.00     0.006 C 
BRANCH  20  21
ATOM     21  C   UNL     1       4.315   0.478   9.525  1.00  0.00     0.053 C 
BRANCH  21  22
ATOM     22  C   UNL     1       5.451   0.465   8.552  1.00  0.00     0.041 C 
ATOM     23  O   UNL     1       6.588   0.880   8.897  1.00  0.00    -0.550 OA
ATOM     24  O   UNL     1       5.249   0.020   7.254  1.00  0.00    -0.550 OA
ENDBRANCH  21  22
ENDBRANCH  20  21
ENDBRANCH  19  20
ENDBRANCH  18  19
ENDBRANCH  17  18
ENDBRANCH  16  17
ENDBRANCH  15  16
ENDBRANCH  14  15
ENDBRANCH  13  14
ENDBRANCH   1  13
TORSDOF 20
ENDMDL
MODEL 3
REMARK VINA RESULT:    -4.086      2.699      8.602
REMARK INTER + INTRA:         -10.847
REMARK INTER:                  -9.300
REMARK INTRA:                  -1.547
REMARK UNBOUND:                -1.983
REMARK SMILES CCCCCCCCCCCCCCCCCCCCCC(=O)[O-]
REMARK SMILES IDX 12 1 11 2 10 3 9 4 8 5 7 6 6 7 5 8 4 9 3 10 2 11 1 12 13 13
REMARK SMILES IDX 14 14 15 15 16 16 17 17 18 18 19 19 20 20 21 21 22 22 23 23
REMARK SMILES IDX 24 24
REMARK H PARENT
REMARK Flexibility Score: inf
ROOT
ATOM      1  C   UNL     1      -0.419  -6.040   7.103  1.00  0.00     0.000 C 
ENDROOT
BRANCH   1   2
ATOM      2  C   UNL     1      -1.220  -6.912   8.085  1.00  0.00     0.000 C 
BRANCH   2   3
ATOM      3  C   UNL     1      -1.623  -8.270   7.482  1.00  0.00     0.000 C 
BRANCH   3   4
ATOM      4  C   UNL     1      -2.285  -9.198   8.514  1.00  0.00    -0.000 C 
BRANCH   4   5
ATOM      5  C   UNL     1      -3.652  -8.672   8.990  1.00  0.00    -0.000 C 
BRANCH   5   6
ATOM      6  C   UNL     1      -4.433  -7.956   7.876  1.00  0.00    -0.000 C 
BRANCH   6   7
ATOM      7  C   UNL     1      -5.735  -8.686   7.504  1.00  0.00    -0.000 C 
BRANCH   7   8
ATOM      8  C   UNL     1      -6.217  -9.627   8.619  1.00  0.00    -0.000 C 
BRANCH   8   9
ATOM      9  C   UNL     1      -7.504  -9.125   9.299  1.00  0.00    -0.000 C 
BRANCH   9  10
ATOM     10  C   UNL     1      -8.010  -7.802   8.686  1.00  0.00    -0.000 C 
BRANCH  10  11
ATOM     11  C   UNL     1      -9.466  -7.867   8.197  1.00  0.00    -0.003 C 
ATOM     12  C   UNL     1      -9.930  -9.288   7.881  1.00  0.00     0.004 C 
ENDBRANCH  10  11
ENDBRANCH   9  10
ENDBRANCH   8   9
ENDBRANCH   7   8
ENDBRANCH   6   7
ENDBRANCH   5   6
ENDBRANCH   4   5
ENDBRANCH   3   4
ENDBRANCH   2   3
ENDBRANCH   1   2
BRANCH   1  13
ATOM     13  C   UNL     1       0.799  -5.367   7.759  1.00  0.00     0.000 C 
BRANCH  13  14
ATOM     14  C   UNL     1       0.656  -5.253   9.285  1.00  0.00     0.000 C 
BRANCH  14  15
ATOM     15  C   UNL     1       0.111  -3.886   9.723  1.00  0.00     0.000 C 
BRANCH  15  16
ATOM     16  C   UNL     1       1.235  -2.841   9.783  1.00  0.00     0.000 C 
BRANCH  16  17
ATOM     17  C   UNL     1       0.712  -1.402   9.654  1.00  0.00     0.000 C 
BRANCH  17  18
ATOM     18  C   UNL     1      -0.639  -1.330   8.924  1.00  0.00     0.000 C 
BRANCH  18  19
ATOM     19  C   UNL     1      -0.854   0.011   8.204  1.00  0.00     0.000 C 
BRANCH  19  20
ATOM     20  C   UNL     1      -1.093  -0.160   6.697  1.00  0.00     0.006 C 
BRANCH  20  21
ATOM     21  C   UNL     1      -1.185  -1.643   6.322  1.00  0.00     0.053 C 
BRANCH  21  22
ATOM     22  C   UNL     1      -1.544  -1.806   4.879  1.00  0.00     0.041 C 
ATOM     23  O   UNL     1      -1.598  -2.952   4.362  1.00  0.00    -0.550 OA
ATOM     24  O   UNL     1      -1.794  -0.689   4.095  1.00  0.00    -0.550 OA
ENDBRANCH  21  22
ENDBRANCH  20  21
ENDBRANCH  19  20
ENDBRANCH  18  19
ENDBRANCH  17  18
ENDBRANCH  16  17
ENDBRANCH  15  16
ENDBRANCH  14  15
ENDBRANCH  13  14
ENDBRANCH   1  13
TORSDOF 20
ENDMDL
MODEL 4
REMARK VINA RESULT:    -4.074     15.439     17.370
REMARK INTER + INTRA:         -10.821
REMARK INTER:                  -7.436
REMARK INTRA:                  -3.385
REMARK UNBOUND:                -1.983
REMARK SMILES CCCCCCCCCCCCCCCCCCCCCC(=O)[O-]
REMARK SMILES IDX 12 1 11 2 10 3 9 4 8 5 7 6 6 7 5 8 4 9 3 10 2 11 1 12 13 13
REMARK SMILES IDX 14 14 15 15 16 16 17 17 18 18 19 19 20 20 21 21 22 22 23 23
REMARK SMILES IDX 24 24
REMARK H PARENT
REMARK Flexibility Score: inf
ROOT
ATOM      1  C   UNL     1      -6.460   2.800  -4.438  1.00  0.00     0.000 C 
ENDROOT
BRANCH   1   2
ATOM      2  C   UNL     1      -5.874   4.076  -5.066  1.00  0.00     0.000 C 
BRANCH   2   3
ATOM      3  C   UNL     1      -6.145   5.334  -4.221  1.00  0.00     0.000 C 
BRANCH   3   4
ATOM      4  C   UNL     1      -6.583   6.533  -5.077  1.00  0.00    -0.000 C 
BRANCH   4   5
ATOM      5  C   UNL     1      -8.065   6.896  -4.870  1.00  0.00    -0.000 C 
BRANCH   5   6
ATOM      6  C   UNL     1      -8.567   6.558  -3.457  1.00  0.00    -0.000 C 
BRANCH   6   7
ATOM      7  C   UNL     1      -8.742   7.807  -2.577  1.00  0.00    -0.000 C 
BRANCH   7   8
ATOM      8  C   UNL     1      -7.416   8.283  -1.966  1.00  0.00    -0.000 C 
BRANCH   8   9
ATOM      9  C   UNL     1      -6.766   7.219  -1.063  1.00  0.00    -0.000 C 
BRANCH   9  10
ATOM     10  C   UNL     1      -6.402   7.779   0.329  1.00  0.00    -0.000 C 
BRANCH  10  11
ATOM     11  C   UNL     1      -6.286   9.312   0.365  1.00  0.00    -0.003 C 
ATOM     12  C   UNL     1      -4.839   9.804   0.388  1.00  0.00     0.004 C 
ENDBRANCH  10  11
ENDBRANCH   9  10
ENDBRANCH   8   9
ENDBRANCH   7   8
ENDBRANCH   6   7
ENDBRANCH   5   6
ENDBRANCH   4   5
ENDBRANCH   3   4
ENDBRANCH   2   3
ENDBRANCH   1   2
BRANCH   1  13
ATOM     13  C   UNL     1      -7.475   3.097  -3.320  1.00  0.00     0.000 C 
BRANCH  13  14
ATOM     14  C   UNL     1      -8.918   2.770  -3.738  1.00  0.00     0.000 C 
BRANCH  14  15
ATOM     15  C   UNL     1      -8.982   1.731  -4.867  1.00  0.00     0.000 C 
BRANCH  15  16
ATOM     16  C   UNL     1      -9.766   2.275  -6.070  1.00  0.00     0.000 C 
BRANCH  16  17
ATOM     17  C   UNL     1      -9.657   3.801  -6.207  1.00  0.00     0.000 C 
BRANCH  17  18
ATOM     18  C   UNL     1      -8.753   4.223  -7.378  1.00  0.00     0.000 C 
BRANCH  18  19
ATOM     19  C   UNL     1      -8.381   3.047  -8.294  1.00  0.00     0.000 C 
BRANCH  19  20
ATOM     20  C   UNL     1      -6.885   2.706  -8.237  1.00  0.00     0.006 C 
BRANCH  20  21
ATOM     21  C   UNL     1      -6.603   1.360  -8.915  1.00  0.00     0.053 C 
BRANCH  21  22
ATOM     22  C   UNL     1      -6.533   0.260  -7.904  1.00  0.00     0.041 C 
ATOM     23  O   UNL     1      -5.419  -0.172  -7.511  1.00  0.00    -0.550 OA
ATOM     24  O   UNL     1      -7.700  -0.309  -7.415  1.00  0.00    -0.550 OA
ENDBRANCH  21  22
ENDBRANCH  20  21
ENDBRANCH  19  20
ENDBRANCH  18  19
ENDBRANCH  17  18
ENDBRANCH  16  17
ENDBRANCH  15  16
ENDBRANCH  14  15
ENDBRANCH  13  14
ENDBRANCH   1  13
TORSDOF 20
ENDMDL
MODEL 5
REMARK VINA RESULT:    -4.048     15.543     18.672
REMARK INTER + INTRA:         -10.764
REMARK INTER:                  -6.722
REMARK INTRA:                  -4.041
REMARK UNBOUND:                -1.983
REMARK SMILES CCCCCCCCCCCCCCCCCCCCCC(=O)[O-]
REMARK SMILES IDX 12 1 11 2 10 3 9 4 8 5 7 6 6 7 5 8 4 9 3 10 2 11 1 12 13 13
REMARK SMILES IDX 14 14 15 15 16 16 17 17 18 18 19 19 20 20 21 21 22 22 23 23
REMARK SMILES IDX 24 24
REMARK H PARENT
REMARK Flexibility Score: inf
ROOT
ATOM      1  C   UNL     1      -6.277   4.623  -4.133  1.00  0.00     0.000 C 
ENDROOT
BRANCH   1   2
ATOM      2  C   UNL     1      -6.031   3.285  -4.852  1.00  0.00     0.000 C 
BRANCH   2   3
ATOM      3  C   UNL     1      -7.059   2.206  -4.467  1.00  0.00     0.000 C 
BRANCH   3   4
ATOM      4  C   UNL     1      -8.355   2.806  -3.896  1.00  0.00    -0.000 C 
BRANCH   4   5
ATOM      5  C   UNL     1      -9.425   3.039  -4.978  1.00  0.00    -0.000 C 
BRANCH   5   6
ATOM      6  C   UNL     1      -9.581   4.522  -5.348  1.00  0.00    -0.000 C 
BRANCH   6   7
ATOM      7  C   UNL     1      -9.443   4.773  -6.860  1.00  0.00    -0.000 C 
BRANCH   7   8
ATOM      8  C   UNL     1      -9.135   3.486  -7.639  1.00  0.00    -0.000 C 
BRANCH   8   9
ATOM      9  C   UNL     1      -7.943   3.648  -8.599  1.00  0.00    -0.000 C 
BRANCH   9  10
ATOM     10  C   UNL     1      -6.877   2.550  -8.396  1.00  0.00    -0.000 C 
BRANCH  10  11
ATOM     11  C   UNL     1      -7.468   1.173  -8.052  1.00  0.00    -0.003 C 
ATOM     12  C   UNL     1      -6.419   0.171  -7.573  1.00  0.00     0.004 C 
ENDBRANCH  10  11
ENDBRANCH   9  10
ENDBRANCH   8   9
ENDBRANCH   7   8
ENDBRANCH   6   7
ENDBRANCH   5   6
ENDBRANCH   4   5
ENDBRANCH   3   4
ENDBRANCH   2   3
ENDBRANCH   1   2
BRANCH   1  13
ATOM     13  C   UNL     1      -5.727   5.830  -4.913  1.00  0.00     0.000 C 
BRANCH  13  14
ATOM     14  C   UNL     1      -5.825   5.639  -6.435  1.00  0.00     0.000 C 
BRANCH  14  15
ATOM     15  C   UNL     1      -6.390   6.877  -7.146  1.00  0.00     0.000 C 
BRANCH  15  16
ATOM     16  C   UNL     1      -6.699   7.995  -6.140  1.00  0.00     0.000 C 
BRANCH  16  17
ATOM     17  C   UNL     1      -8.207   8.242  -5.974  1.00  0.00     0.000 C 
BRANCH  17  18
ATOM     18  C   UNL     1      -8.555   8.867  -4.613  1.00  0.00     0.000 C 
BRANCH  18  19
ATOM     19  C   UNL     1      -8.566   7.837  -3.473  1.00  0.00     0.000 C 
BRANCH  19  20
ATOM     20  C   UNL     1      -7.758   8.300  -2.252  1.00  0.00     0.006 C 
BRANCH  20  21
ATOM     21  C   UNL     1      -6.985   7.131  -1.631  1.00  0.00     0.053 C 
BRANCH  21  22
ATOM     22  C   UNL     1      -6.520   7.473  -0.252  1.00  0.00     0.041 C 
ATOM     23  O   UNL     1      -5.965   8.579  -0.024  1.00  0.00    -0.550 OA
ATOM     24  O   UNL     1      -6.674   6.559   0.780  1.00  0.00    -0.550 OA
ENDBRANCH  21  22
ENDBRANCH  20  21
ENDBRANCH  19  20
ENDBRANCH  18  19
ENDBRANCH  17  18
ENDBRANCH  16  17
ENDBRANCH  15  16
ENDBRANCH  14  15
ENDBRANCH  13  14
ENDBRANCH   1  13
TORSDOF 20
ENDMDL
MODEL 6
REMARK VINA RESULT:    -3.975     15.241     17.311
REMARK INTER + INTRA:         -10.605
REMARK INTER:                  -7.582
REMARK INTRA:                  -3.022
REMARK UNBOUND:                -1.983
REMARK SMILES CCCCCCCCCCCCCCCCCCCCCC(=O)[O-]
REMARK SMILES IDX 12 1 11 2 10 3 9 4 8 5 7 6 6 7 5 8 4 9 3 10 2 11 1 12 13 13
REMARK SMILES IDX 14 14 15 15 16 16 17 17 18 18 19 19 20 20 21 21 22 22 23 23
REMARK SMILES IDX 24 24
REMARK H PARENT
REMARK Flexibility Score: inf
ROOT
ATOM      1  C   UNL     1      -6.524   2.791  -4.095  1.00  0.00     0.000 C 
ENDROOT
BRANCH   1   2
ATOM      2  C   UNL     1      -8.002   2.446  -4.343  1.00  0.00     0.000 C 
BRANCH   2   3
ATOM      3  C   UNL     1      -8.963   3.506  -3.776  1.00  0.00     0.000 C 
BRANCH   3   4
ATOM      4  C   UNL     1      -8.550   3.983  -2.374  1.00  0.00    -0.000 C 
BRANCH   4   5
ATOM      5  C   UNL     1      -8.794   5.489  -2.166  1.00  0.00    -0.000 C 
BRANCH   5   6
ATOM      6  C   UNL     1      -7.906   6.087  -1.063  1.00  0.00    -0.000 C 
BRANCH   6   7
ATOM      7  C   UNL     1      -6.806   7.007  -1.622  1.00  0.00    -0.000 C 
BRANCH   7   8
ATOM      8  C   UNL     1      -6.961   8.459  -1.147  1.00  0.00    -0.000 C 
BRANCH   8   9
ATOM      9  C   UNL     1      -5.931   8.840  -0.068  1.00  0.00    -0.000 C 
BRANCH   9  10
ATOM     10  C   UNL     1      -6.592   9.106   1.302  1.00  0.00    -0.000 C 
BRANCH  10  11
ATOM     11  C   UNL     1      -6.989   7.825   2.054  1.00  0.00    -0.003 C 
ATOM     12  C   UNL     1      -8.423   7.858   2.580  1.00  0.00     0.004 C 
ENDBRANCH  10  11
ENDBRANCH   9  10
ENDBRANCH   8   9
ENDBRANCH   7   8
ENDBRANCH   6   7
ENDBRANCH   5   6
ENDBRANCH   4   5
ENDBRANCH   3   4
ENDBRANCH   2   3
ENDBRANCH   1   2
BRANCH   1  13
ATOM     13  C   UNL     1      -5.975   3.823  -5.095  1.00  0.00     0.000 C 
BRANCH  13  14
ATOM     14  C   UNL     1      -5.840   5.224  -4.477  1.00  0.00     0.000 C 
BRANCH  14  15
ATOM     15  C   UNL     1      -6.235   6.338  -5.458  1.00  0.00     0.000 C 
BRANCH  15  16
ATOM     16  C   UNL     1      -7.710   6.214  -5.865  1.00  0.00     0.000 C 
BRANCH  16  17
ATOM     17  C   UNL     1      -7.900   6.141  -7.388  1.00  0.00     0.000 C 
BRANCH  17  18
ATOM     18  C   UNL     1      -8.096   4.700  -7.888  1.00  0.00     0.000 C 
BRANCH  18  19
ATOM     19  C   UNL     1      -6.797   4.077  -8.424  1.00  0.00     0.000 C 
BRANCH  19  20
ATOM     20  C   UNL     1      -7.001   2.647  -8.946  1.00  0.00     0.006 C 
BRANCH  20  21
ATOM     21  C   UNL     1      -7.907   1.845  -8.006  1.00  0.00     0.053 C 
BRANCH  21  22
ATOM     22  C   UNL     1      -7.198   0.632  -7.491  1.00  0.00     0.041 C 
ATOM     23  O   UNL     1      -7.775  -0.486  -7.483  1.00  0.00    -0.550 OA
ATOM     24  O   UNL     1      -5.909   0.741  -6.992  1.00  0.00    -0.550 OA
ENDBRANCH  21  22
ENDBRANCH  20  21
ENDBRANCH  19  20
ENDBRANCH  18  19
ENDBRANCH  17  18
ENDBRANCH  16  17
ENDBRANCH  15  16
ENDBRANCH  14  15
ENDBRANCH  13  14
ENDBRANCH   1  13
TORSDOF 20
ENDMDL
MODEL 7
REMARK VINA RESULT:    -3.948     16.854     19.997
REMARK INTER + INTRA:         -10.547
REMARK INTER:                  -7.506
REMARK INTRA:                  -3.041
REMARK UNBOUND:                -1.983
REMARK SMILES CCCCCCCCCCCCCCCCCCCCCC(=O)[O-]
REMARK SMILES IDX 12 1 11 2 10 3 9 4 8 5 7 6 6 7 5 8 4 9 3 10 2 11 1 12 13 13
REMARK SMILES IDX 14 14 15 15 16 16 17 17 18 18 19 19 20 20 21 21 22 22 23 23
REMARK SMILES IDX 24 24
REMARK H PARENT
REMARK Flexibility Score: inf
ROOT
ATOM      1  C   UNL     1       5.244   4.038  -4.158  1.00  0.00     0.000 C 
ENDROOT
BRANCH   1   2
ATOM      2  C   UNL     1       5.460   5.560  -4.132  1.00  0.00     0.000 C 
BRANCH   2   3
ATOM      3  C   UNL     1       6.941   5.948  -3.969  1.00  0.00     0.000 C 
BRANCH   3   4
ATOM      4  C   UNL     1       7.637   6.188  -5.319  1.00  0.00    -0.000 C 
BRANCH   4   5
ATOM      5  C   UNL     1       6.872   7.185  -6.209  1.00  0.00    -0.000 C 
BRANCH   5   6
ATOM      6  C   UNL     1       7.600   8.532  -6.352  1.00  0.00    -0.000 C 
BRANCH   6   7
ATOM      7  C   UNL     1       6.967   9.434  -7.426  1.00  0.00    -0.000 C 
BRANCH   7   8
ATOM      8  C   UNL     1       6.217   8.629  -8.498  1.00  0.00    -0.000 C 
BRANCH   8   9
ATOM      9  C   UNL     1       5.101   9.445  -9.175  1.00  0.00    -0.000 C 
BRANCH   9  10
ATOM     10  C   UNL     1       3.695   9.008  -8.710  1.00  0.00    -0.000 C 
BRANCH  10  11
ATOM     11  C   UNL     1       3.627   7.543  -8.246  1.00  0.00    -0.003 C 
ATOM     12  C   UNL     1       2.335   7.209  -7.501  1.00  0.00     0.004 C 
ENDBRANCH  10  11
ENDBRANCH   9  10
ENDBRANCH   8   9
ENDBRANCH   7   8
ENDBRANCH   6   7
ENDBRANCH   5   6
ENDBRANCH   4   5
ENDBRANCH   3   4
ENDBRANCH   2   3
ENDBRANCH   1   2
BRANCH   1  13
ATOM     13  C   UNL     1       4.200   3.601  -5.201  1.00  0.00     0.000 C 
BRANCH  13  14
ATOM     14  C   UNL     1       4.350   4.354  -6.532  1.00  0.00     0.000 C 
BRANCH  14  15
ATOM     15  C   UNL     1       5.546   3.857  -7.357  1.00  0.00     0.000 C 
BRANCH  15  16
ATOM     16  C   UNL     1       5.756   4.730  -8.603  1.00  0.00     0.000 C 
BRANCH  16  17
ATOM     17  C   UNL     1       7.199   4.676  -9.128  1.00  0.00     0.000 C 
BRANCH  17  18
ATOM     18  C   UNL     1       8.149   3.949  -8.162  1.00  0.00     0.000 C 
BRANCH  18  19
ATOM     19  C   UNL     1       8.726   2.655  -8.758  1.00  0.00     0.000 C 
BRANCH  19  20
ATOM     20  C   UNL     1       8.448   1.426  -7.881  1.00  0.00     0.006 C 
BRANCH  20  21
ATOM     21  C   UNL     1       6.981   0.996  -7.988  1.00  0.00     0.053 C 
BRANCH  21  22
ATOM     22  C   UNL     1       6.503   0.409  -6.698  1.00  0.00     0.041 C 
ATOM     23  O   UNL     1       7.328   0.025  -5.830  1.00  0.00    -0.550 OA
ATOM     24  O   UNL     1       5.144   0.259  -6.465  1.00  0.00    -0.550 OA
ENDBRANCH  21  22
ENDBRANCH  20  21
ENDBRANCH  19  20
ENDBRANCH  18  19
ENDBRANCH  17  18
ENDBRANCH  16  17
ENDBRANCH  15  16
ENDBRANCH  14  15
ENDBRANCH  13  14
ENDBRANCH   1  13
TORSDOF 20
ENDMDL
MODEL 8
REMARK VINA RESULT:    -3.862     15.415     18.011
REMARK INTER + INTRA:         -10.360
REMARK INTER:                  -6.818
REMARK INTRA:                  -3.542
REMARK UNBOUND:                -1.983
REMARK SMILES CCCCCCCCCCCCCCCCCCCCCC(=O)[O-]
REMARK SMILES IDX 12 1 11 2 10 3 9 4 8 5 7 6 6 7 5 8 4 9 3 10 2 11 1 12 13 13
REMARK SMILES IDX 14 14 15 15 16 16 17 17 18 18 19 19 20 20 21 21 22 22 23 23
REMARK SMILES IDX 24 24
REMARK H PARENT
REMARK Flexibility Score: inf
ROOT
ATOM      1  C   UNL     1      -7.346   3.088  -4.097  1.00  0.00     0.000 C 
ENDROOT
BRANCH   1   2
ATOM      2  C   UNL     1      -6.017   3.740  -4.514  1.00  0.00     0.000 C 
BRANCH   2   3
ATOM      3  C   UNL     1      -6.065   5.277  -4.455  1.00  0.00     0.000 C 
BRANCH   3   4
ATOM      4  C   UNL     1      -5.655   5.929  -5.786  1.00  0.00    -0.000 C 
BRANCH   4   5
ATOM      5  C   UNL     1      -6.797   6.744  -6.420  1.00  0.00    -0.000 C 
BRANCH   5   6
ATOM      6  C   UNL     1      -7.596   5.937  -7.457  1.00  0.00    -0.000 C 
BRANCH   6   7
ATOM      7  C   UNL     1      -6.821   4.717  -7.983  1.00  0.00    -0.000 C 
BRANCH   7   8
ATOM      8  C   UNL     1      -7.598   3.405  -7.796  1.00  0.00    -0.000 C 
BRANCH   8   9
ATOM      9  C   UNL     1      -6.808   2.177  -8.281  1.00  0.00    -0.000 C 
BRANCH   9  10
ATOM     10  C   UNL     1      -6.820   1.030  -7.247  1.00  0.00    -0.000 C 
BRANCH  10  11
ATOM     11  C   UNL     1      -6.582  -0.358  -7.864  1.00  0.00    -0.003 C 
ATOM     12  C   UNL     1      -5.261  -0.459  -8.624  1.00  0.00     0.004 C 
ENDBRANCH  10  11
ENDBRANCH   9  10
ENDBRANCH   8   9
ENDBRANCH   7   8
ENDBRANCH   6   7
ENDBRANCH   5   6
ENDBRANCH   4   5
ENDBRANCH   3   4
ENDBRANCH   2   3
ENDBRANCH   1   2
BRANCH   1  13
ATOM     13  C   UNL     1      -7.869   3.609  -2.747  1.00  0.00     0.000 C 
BRANCH  13  14
ATOM     14  C   UNL     1      -9.321   4.105  -2.833  1.00  0.00     0.000 C 
BRANCH  14  15
ATOM     15  C   UNL     1      -9.744   4.435  -4.272  1.00  0.00     0.000 C 
BRANCH  15  16
ATOM     16  C   UNL     1      -9.763   5.953  -4.505  1.00  0.00     0.000 C 
BRANCH  16  17
ATOM     17  C   UNL     1      -9.604   6.754  -3.203  1.00  0.00     0.000 C 
BRANCH  17  18
ATOM     18  C   UNL     1      -8.587   7.899  -3.337  1.00  0.00     0.000 C 
BRANCH  18  19
ATOM     19  C   UNL     1      -7.955   8.291  -1.992  1.00  0.00     0.000 C 
BRANCH  19  20
ATOM     20  C   UNL     1      -6.810   7.353  -1.583  1.00  0.00     0.006 C 
BRANCH  20  21
ATOM     21  C   UNL     1      -7.170   6.570  -0.316  1.00  0.00     0.053 C 
BRANCH  21  22
ATOM     22  C   UNL     1      -7.150   7.463   0.884  1.00  0.00     0.041 C 
ATOM     23  O   UNL     1      -8.014   7.331   1.789  1.00  0.00    -0.550 OA
ATOM     24  O   UNL     1      -6.192   8.461   0.992  1.00  0.00    -0.550 OA
ENDBRANCH  21  22
ENDBRANCH  20  21
ENDBRANCH  19  20
ENDBRANCH  18  19
ENDBRANCH  17  18
ENDBRANCH  16  17
ENDBRANCH  15  16
ENDBRANCH  14  15
ENDBRANCH  13  14
ENDBRANCH   1  13
TORSDOF 20
ENDMDL
MODEL 9
REMARK VINA RESULT:    -3.842     16.876     20.359
REMARK INTER + INTRA:         -10.318
REMARK INTER:                  -6.351
REMARK INTRA:                  -3.966
REMARK UNBOUND:                -1.983
REMARK SMILES CCCCCCCCCCCCCCCCCCCCCC(=O)[O-]
REMARK SMILES IDX 12 1 11 2 10 3 9 4 8 5 7 6 6 7 5 8 4 9 3 10 2 11 1 12 13 13
REMARK SMILES IDX 14 14 15 15 16 16 17 17 18 18 19 19 20 20 21 21 22 22 23 23
REMARK SMILES IDX 24 24
REMARK H PARENT
REMARK Flexibility Score: inf
ROOT
ATOM      1  C   UNL     1       4.882   3.648  -4.520  1.00  0.00     0.000 C 
ENDROOT
BRANCH   1   2
ATOM      2  C   UNL     1       4.132   4.439  -5.605  1.00  0.00     0.000 C 
BRANCH   2   3
ATOM      3  C   UNL     1       4.543   4.030  -7.031  1.00  0.00     0.000 C 
BRANCH   3   4
ATOM      4  C   UNL     1       4.126   5.072  -8.083  1.00  0.00    -0.000 C 
BRANCH   4   5
ATOM      5  C   UNL     1       4.082   6.501  -7.514  1.00  0.00    -0.000 C 
BRANCH   5   6
ATOM      6  C   UNL     1       4.976   7.478  -8.294  1.00  0.00    -0.000 C 
BRANCH   6   7
ATOM      7  C   UNL     1       6.010   6.758  -9.177  1.00  0.00    -0.000 C 
BRANCH   7   8
ATOM      8  C   UNL     1       7.231   7.638  -9.483  1.00  0.00    -0.000 C 
BRANCH   8   9
ATOM      9  C   UNL     1       7.346   8.841  -8.531  1.00  0.00    -0.000 C 
BRANCH   9  10
ATOM     10  C   UNL     1       8.809   9.297  -8.339  1.00  0.00    -0.000 C 
BRANCH  10  11
ATOM     11  C   UNL     1       9.173   9.599  -6.876  1.00  0.00    -0.003 C 
ATOM     12  C   UNL     1       7.954   9.884  -6.000  1.00  0.00     0.004 C 
ENDBRANCH  10  11
ENDBRANCH   9  10
ENDBRANCH   8   9
ENDBRANCH   7   8
ENDBRANCH   6   7
ENDBRANCH   5   6
ENDBRANCH   4   5
ENDBRANCH   3   4
ENDBRANCH   2   3
ENDBRANCH   1   2
BRANCH   1  13
ATOM     13  C   UNL     1       5.922   4.500  -3.772  1.00  0.00     0.000 C 
BRANCH  13  14
ATOM     14  C   UNL     1       5.823   5.992  -4.126  1.00  0.00     0.000 C 
BRANCH  14  15
ATOM     15  C   UNL     1       7.139   6.551  -4.687  1.00  0.00     0.000 C 
BRANCH  15  16
ATOM     16  C   UNL     1       7.443   5.957  -6.070  1.00  0.00     0.000 C 
BRANCH  16  17
ATOM     17  C   UNL     1       8.941   5.993  -6.413  1.00  0.00     0.000 C 
BRANCH  17  18
ATOM     18  C   UNL     1       9.376   4.794  -7.272  1.00  0.00     0.000 C 
BRANCH  18  19
ATOM     19  C   UNL     1       8.187   4.058  -7.910  1.00  0.00     0.000 C 
BRANCH  19  20
ATOM     20  C   UNL     1       8.462   2.562  -8.118  1.00  0.00     0.006 C 
BRANCH  20  21
ATOM     21  C   UNL     1       7.159   1.796  -8.374  1.00  0.00     0.053 C 
BRANCH  21  22
ATOM     22  C   UNL     1       6.917   0.784  -7.299  1.00  0.00     0.041 C 
ATOM     23  O   UNL     1       5.780   0.675  -6.773  1.00  0.00    -0.550 OA
ATOM     24  O   UNL     1       7.956  -0.021  -6.857  1.00  0.00    -0.550 OA
ENDBRANCH  21  22
ENDBRANCH  20  21
ENDBRANCH  19  20
ENDBRANCH  18  19
ENDBRANCH  17  18
ENDBRANCH  16  17
ENDBRANCH  15  16
ENDBRANCH  14  15
ENDBRANCH  13  14
ENDBRANCH   1  13
TORSDOF 20
ENDMDL
