MODEL 1
REMARK VINA RESULT:    -4.827      0.000      0.000
REMARK INTER + INTRA:          -4.969
REMARK INTER:                  -4.969
REMARK INTRA:                   0.000
REMARK UNBOUND:                 0.000
REMARK SMILES Nc1ncnc2nc[nH]c12
REMARK SMILES IDX 8 1 7 2 6 3 5 4 4 5 3 6 2 7 10 8 9 9 1 11
REMARK H PARENT 9 10 1 12 1 13
REMARK Flexibility Score: inf
ROOT
ATOM      1  C   UNL     1      -0.890  -0.423   0.015  1.00  0.00     0.199 A 
ATOM      2  N   UNL     1       0.466  -0.306   0.054  1.00  0.00    -0.217 NA
ATOM      3  C   UNL     1       0.634   0.845   0.725  1.00  0.00     0.182 A 
ATOM      4  N   UNL     1       1.814   1.430   1.042  1.00  0.00    -0.215 NA
ATOM      5  C   UNL     1       1.783   2.609   1.735  1.00  0.00     0.226 A 
ATOM      6  N   UNL     1       0.586   3.176   2.093  1.00  0.00    -0.217 NA
ATOM      7  C   UNL     1      -0.605   2.587   1.774  1.00  0.00     0.152 A 
ATOM      8  C   UNL     1      -0.557   1.387   1.070  1.00  0.00     0.127 A 
ATOM      9  N   UNL     1      -1.543   0.597   0.628  1.00  0.00    -0.340 N 
ATOM     10  H   UNL     1      -2.575   0.723   0.725  1.00  0.00     0.168 HD
ENDROOT
BRANCH   7  11
ATOM     11  N   UNL     1      -1.838   3.195   2.158  1.00  0.00    -0.382 N 
ATOM     12  H   UNL     1      -2.145   4.085   1.706  1.00  0.00     0.158 HD
ATOM     13  H   UNL     1      -2.450   2.769   2.889  1.00  0.00     0.158 HD
ENDBRANCH   7  11
TORSDOF 1
ENDMDL
MODEL 2
REMARK VINA RESULT:    -4.746      1.207      2.456
REMARK INTER + INTRA:          -4.884
REMARK INTER:                  -4.884
REMARK INTRA:                   0.000
REMARK UNBOUND:                 0.000
REMARK SMILES Nc1ncnc2nc[nH]c12
REMARK SMILES IDX 8 1 7 2 6 3 5 4 4 5 3 6 2 7 10 8 9 9 1 11
REMARK H PARENT 9 10 1 12 1 13
REMARK Flexibility Score: inf
ROOT
ATOM      1  C   UNL     1      -0.121  -0.974   1.137  1.00  0.00     0.199 A 
ATOM      2  N   UNL     1      -1.305  -0.343   0.903  1.00  0.00    -0.217 NA
ATOM      3  C   UNL     1      -0.994   0.942   1.139  1.00  0.00     0.182 A 
ATOM      4  N   UNL     1      -1.829   2.005   1.048  1.00  0.00    -0.215 NA
ATOM      5  C   UNL     1      -1.328   3.246   1.329  1.00  0.00     0.226 A 
ATOM      6  N   UNL     1      -0.014   3.400   1.693  1.00  0.00    -0.217 NA
ATOM      7  C   UNL     1       0.830   2.329   1.785  1.00  0.00     0.152 A 
ATOM      8  C   UNL     1       0.304   1.073   1.496  1.00  0.00     0.127 A 
ATOM      9  N   UNL     1       0.882  -0.135   1.501  1.00  0.00    -0.340 N 
ATOM     10  H   UNL     1       1.869  -0.386   1.730  1.00  0.00     0.168 HD
ENDROOT
BRANCH   7  11
ATOM     11  N   UNL     1       2.194   2.514   2.165  1.00  0.00    -0.382 N 
ATOM     12  H   UNL     1       2.960   2.280   1.495  1.00  0.00     0.158 HD
ATOM     13  H   UNL     1       2.450   2.882   3.108  1.00  0.00     0.158 HD
ENDBRANCH   7  11
TORSDOF 1
ENDMDL
MODEL 3
REMARK VINA RESULT:    -4.636      1.387      3.947
REMARK INTER + INTRA:          -4.772
REMARK INTER:                  -4.772
REMARK INTRA:                   0.000
REMARK UNBOUND:                 0.000
REMARK SMILES Nc1ncnc2nc[nH]c12
REMARK SMILES IDX 8 1 7 2 6 3 5 4 4 5 3 6 2 7 10 8 9 9 1 11
REMARK H PARENT 9 10 1 12 1 13
REMARK Flexibility Score: inf
ROOT
ATOM      1  C   UNL     1       1.054   4.633   1.393  1.00  0.00     0.199 A 
ATOM      2  N   UNL     1      -0.236   4.531   1.818  1.00  0.00    -0.217 NA
ATOM      3  C   UNL     1      -0.579   3.304   1.393  1.00  0.00     0.182 A 
ATOM      4  N   UNL     1      -1.779   2.699   1.559  1.00  0.00    -0.215 NA
ATOM      5  C   UNL     1      -1.941   1.438   1.052  1.00  0.00     0.226 A 
ATOM      6  N   UNL     1      -0.911   0.814   0.395  1.00  0.00    -0.217 NA
ATOM      7  C   UNL     1       0.300   1.424   0.227  1.00  0.00     0.152 A 
ATOM      8  C   UNL     1       0.449   2.706   0.748  1.00  0.00     0.127 A 
ATOM      9  N   UNL     1       1.501   3.533   0.737  1.00  0.00    -0.340 N 
ATOM     10  H   UNL     1       2.448   3.381   0.323  1.00  0.00     0.168 HD
ENDROOT
BRANCH   7  11
ATOM     11  N   UNL     1       1.358   0.753  -0.460  1.00  0.00    -0.382 N 
ATOM     12  H   UNL     1       2.140   1.304  -0.878  1.00  0.00     0.158 HD
ATOM     13  H   UNL     1       1.370  -0.286  -0.556  1.00  0.00     0.158 HD
ENDBRANCH   7  11
TORSDOF 1
ENDMDL
MODEL 4
REMARK VINA RESULT:    -4.580      2.021      2.986
REMARK INTER + INTRA:          -4.714
REMARK INTER:                  -4.714
REMARK INTRA:                   0.000
REMARK UNBOUND:                 0.000
REMARK SMILES Nc1ncnc2nc[nH]c12
REMARK SMILES IDX 8 1 7 2 6 3 5 4 4 5 3 6 2 7 10 8 9 9 1 11
REMARK H PARENT 9 10 1 12 1 13
REMARK Flexibility Score: inf
ROOT
ATOM      1  C   UNL     1       0.691  -2.508  -1.087  1.00  0.00     0.199 A 
ATOM      2  N   UNL     1       0.408  -2.596   0.242  1.00  0.00    -0.217 NA
ATOM      3  C   UNL     1       0.254  -1.307   0.586  1.00  0.00     0.182 A 
ATOM      4  N   UNL     1      -0.043  -0.830   1.819  1.00  0.00    -0.215 NA
ATOM      5  C   UNL     1      -0.161   0.523   1.976  1.00  0.00     0.226 A 
ATOM      6  N   UNL     1       0.017   1.367   0.908  1.00  0.00    -0.217 NA
ATOM      7  C   UNL     1       0.317   0.887  -0.336  1.00  0.00     0.152 A 
ATOM      8  C   UNL     1       0.434  -0.492  -0.479  1.00  0.00     0.127 A 
ATOM      9  N   UNL     1       0.713  -1.235  -1.557  1.00  0.00    -0.340 N 
ATOM     10  H   UNL     1       0.905  -0.922  -2.534  1.00  0.00     0.168 HD
ENDROOT
BRANCH   7  11
ATOM     11  N   UNL     1       0.498   1.784  -1.432  1.00  0.00    -0.382 N 
ATOM     12  H   UNL     1       1.459   2.083  -1.709  1.00  0.00     0.158 HD
ATOM     13  H   UNL     1      -0.315   2.155  -1.972  1.00  0.00     0.158 HD
ENDBRANCH   7  11
TORSDOF 1
ENDMDL
MODEL 5
REMARK VINA RESULT:    -4.559      1.329      2.678
REMARK INTER + INTRA:          -4.692
REMARK INTER:                  -4.692
REMARK INTRA:                   0.000
REMARK UNBOUND:                 0.000
REMARK SMILES Nc1ncnc2nc[nH]c12
REMARK SMILES IDX 8 1 7 2 6 3 5 4 4 5 3 6 2 7 10 8 9 9 1 11
REMARK H PARENT 9 10 1 12 1 13
REMARK Flexibility Score: inf
ROOT
ATOM      1  C   UNL     1      -1.512   0.732   0.897  1.00  0.00     0.199 A 
ATOM      2  N   UNL     1      -1.957   2.016   0.984  1.00  0.00    -0.217 NA
ATOM      3  C   UNL     1      -0.821   2.697   1.209  1.00  0.00     0.182 A 
ATOM      4  N   UNL     1      -0.701   4.035   1.375  1.00  0.00    -0.215 NA
ATOM      5  C   UNL     1       0.547   4.549   1.596  1.00  0.00     0.226 A 
ATOM      6  N   UNL     1       1.642   3.723   1.645  1.00  0.00    -0.217 NA
ATOM      7  C   UNL     1       1.522   2.372   1.477  1.00  0.00     0.152 A 
ATOM      8  C   UNL     1       0.246   1.865   1.254  1.00  0.00     0.127 A 
ATOM      9  N   UNL     1      -0.170   0.608   1.058  1.00  0.00    -0.340 N 
ATOM     10  H   UNL     1       0.395  -0.270   1.033  1.00  0.00     0.168 HD
ENDROOT
BRANCH   7  11
ATOM     11  N   UNL     1       2.676   1.532   1.533  1.00  0.00    -0.382 N 
ATOM     12  H   UNL     1       2.695   0.635   1.000  1.00  0.00     0.158 HD
ATOM     13  H   UNL     1       3.513   1.795   2.100  1.00  0.00     0.158 HD
ENDBRANCH   7  11
TORSDOF 1
ENDMDL
MODEL 6
REMARK VINA RESULT:    -4.540      1.308      3.693
REMARK INTER + INTRA:          -4.673
REMARK INTER:                  -4.673
REMARK INTRA:                   0.000
REMARK UNBOUND:                 0.000
REMARK SMILES Nc1ncnc2nc[nH]c12
REMARK SMILES IDX 8 1 7 2 6 3 5 4 4 5 3 6 2 7 10 8 9 9 1 11
REMARK H PARENT 9 10 1 12 1 13
REMARK Flexibility Score: inf
ROOT
ATOM      1  C   UNL     1       1.530   3.446   1.748  1.00  0.00     0.199 A 
ATOM      2  N   UNL     1       0.297   3.723   1.239  1.00  0.00    -0.217 NA
ATOM      3  C   UNL     1      -0.255   2.502   1.152  1.00  0.00     0.182 A 
ATOM      4  N   UNL     1      -1.498   2.208   0.700  1.00  0.00    -0.215 NA
ATOM      5  C   UNL     1      -1.886   0.897   0.686  1.00  0.00     0.226 A 
ATOM      6  N   UNL     1      -1.034  -0.087   1.120  1.00  0.00    -0.217 NA
ATOM      7  C   UNL     1       0.220   0.208   1.577  1.00  0.00     0.152 A 
ATOM      8  C   UNL     1       0.600   1.547   1.585  1.00  0.00     0.127 A 
ATOM      9  N   UNL     1       1.745   2.125   1.970  1.00  0.00    -0.340 N 
ATOM     10  H   UNL     1       2.607   1.676   2.351  1.00  0.00     0.168 HD
ENDROOT
BRANCH   7  11
ATOM     11  N   UNL     1       1.089  -0.833   2.024  1.00  0.00    -0.382 N 
ATOM     12  H   UNL     1       2.084  -0.854   1.708  1.00  0.00     0.158 HD
ATOM     13  H   UNL     1       0.753  -1.584   2.666  1.00  0.00     0.158 HD
ENDBRANCH   7  11
TORSDOF 1
ENDMDL
MODEL 7
REMARK VINA RESULT:    -4.536      0.605      2.797
REMARK INTER + INTRA:          -4.669
REMARK INTER:                  -4.669
REMARK INTRA:                   0.000
REMARK UNBOUND:                 0.000
REMARK SMILES Nc1ncnc2nc[nH]c12
REMARK SMILES IDX 8 1 7 2 6 3 5 4 4 5 3 6 2 7 10 8 9 9 1 11
REMARK H PARENT 9 10 1 12 1 13
REMARK Flexibility Score: inf
ROOT
ATOM      1  C   UNL     1       2.250   2.520   1.770  1.00  0.00     0.199 A 
ATOM      2  N   UNL     1       2.204   1.359   1.059  1.00  0.00    -0.217 NA
ATOM      3  C   UNL     1       0.883   1.159   0.924  1.00  0.00     0.182 A 
ATOM      4  N   UNL     1       0.284   0.126   0.286  1.00  0.00    -0.215 NA
ATOM      5  C   UNL     1      -1.083   0.093   0.254  1.00  0.00     0.226 A 
ATOM      6  N   UNL     1      -1.818   1.085   0.854  1.00  0.00    -0.217 NA
ATOM      7  C   UNL     1      -1.215   2.128   1.498  1.00  0.00     0.152 A 
ATOM      8  C   UNL     1       0.177   2.146   1.522  1.00  0.00     0.127 A 
ATOM      9  N   UNL     1       1.026   3.026   2.068  1.00  0.00    -0.340 N 
ATOM     10  H   UNL     1       0.811   3.898   2.600  1.00  0.00     0.168 HD
ENDROOT
BRANCH   7  11
ATOM     11  N   UNL     1      -2.001   3.148   2.115  1.00  0.00    -0.382 N 
ATOM     12  H   UNL     1      -1.553   4.042   2.416  1.00  0.00     0.158 HD
ATOM     13  H   UNL     1      -3.025   3.023   2.275  1.00  0.00     0.158 HD
ENDBRANCH   7  11
TORSDOF 1
ENDMDL
MODEL 8
REMARK VINA RESULT:    -4.487      1.185      3.149
REMARK INTER + INTRA:          -4.618
REMARK INTER:                  -4.618
REMARK INTRA:                   0.000
REMARK UNBOUND:                 0.000
REMARK SMILES Nc1ncnc2nc[nH]c12
REMARK SMILES IDX 8 1 7 2 6 3 5 4 4 5 3 6 2 7 10 8 9 9 1 11
REMARK H PARENT 9 10 1 12 1 13
REMARK Flexibility Score: inf
ROOT
ATOM      1  C   UNL     1      -1.858   3.204   1.826  1.00  0.00     0.199 A 
ATOM      2  N   UNL     1      -2.181   2.278   0.882  1.00  0.00    -0.217 NA
ATOM      3  C   UNL     1      -0.996   1.695   0.637  1.00  0.00     0.182 A 
ATOM      4  N   UNL     1      -0.756   0.690  -0.238  1.00  0.00    -0.215 NA
ATOM      5  C   UNL     1       0.526   0.225  -0.351  1.00  0.00     0.226 A 
ATOM      6  N   UNL     1       1.533   0.767   0.408  1.00  0.00    -0.217 NA
ATOM      7  C   UNL     1       1.292   1.781   1.292  1.00  0.00     0.152 A 
ATOM      8  C   UNL     1      -0.017   2.243   1.393  1.00  0.00     0.127 A 
ATOM      9  N   UNL     1      -0.542   3.207   2.160  1.00  0.00    -0.340 N 
ATOM     10  H   UNL     1      -0.064   3.824   2.854  1.00  0.00     0.168 HD
ENDROOT
BRANCH   7  11
ATOM     11  N   UNL     1       2.356   2.329   2.070  1.00  0.00    -0.382 N 
ATOM     12  H   UNL     1       3.309   1.906   2.024  1.00  0.00     0.158 HD
ATOM     13  H   UNL     1       2.206   3.154   2.692  1.00  0.00     0.158 HD
ENDBRANCH   7  11
TORSDOF 1
ENDMDL
MODEL 9
REMARK VINA RESULT:    -4.343      2.011      3.795
REMARK INTER + INTRA:          -4.470
REMARK INTER:                  -4.470
REMARK INTRA:                   0.000
REMARK UNBOUND:                 0.000
REMARK SMILES Nc1ncnc2nc[nH]c12
REMARK SMILES IDX 8 1 7 2 6 3 5 4 4 5 3 6 2 7 10 8 9 9 1 11
REMARK H PARENT 9 10 1 12 1 13
REMARK Flexibility Score: inf
ROOT
ATOM      1  C   UNL     1       0.913   6.232   1.790  1.00  0.00     0.199 A 
ATOM      2  N   UNL     1       1.924   5.384   1.453  1.00  0.00    -0.217 NA
ATOM      3  C   UNL     1       1.309   4.190   1.464  1.00  0.00     0.182 A 
ATOM      4  N   UNL     1       1.873   2.989   1.193  1.00  0.00    -0.215 NA
ATOM      5  C   UNL     1       1.082   1.875   1.256  1.00  0.00     0.226 A 
ATOM      6  N   UNL     1      -0.247   1.982   1.584  1.00  0.00    -0.217 NA
ATOM      7  C   UNL     1      -0.817   3.194   1.857  1.00  0.00     0.152 A 
ATOM      8  C   UNL     1       0.002   4.317   1.790  1.00  0.00     0.127 A 
ATOM      9  N   UNL     1      -0.274   5.610   2.001  1.00  0.00    -0.340 N 
ATOM     10  H   UNL     1      -1.183   6.048   2.268  1.00  0.00     0.168 HD
ENDROOT
BRANCH   7  11
ATOM     11  N   UNL     1      -2.202   3.280   2.197  1.00  0.00    -0.382 N 
ATOM     12  H   UNL     1      -2.840   3.888   1.637  1.00  0.00     0.158 HD
ATOM     13  H   UNL     1      -2.599   2.744   3.000  1.00  0.00     0.158 HD
ENDBRANCH   7  11
TORSDOF 1
ENDMDL
