MODEL 1
REMARK VINA RESULT:    -3.326      0.000      0.000
REMARK INTER + INTRA:          -3.867
REMARK INTER:                  -3.812
REMARK INTRA:                  -0.055
REMARK UNBOUND:                -0.055
REMARK SMILES CC(C)[C@@H]([NH3+])C(=O)[O-]
REMARK SMILES IDX 4 1 5 2 6 6 7 7 8 8 2 9 1 10 3 11
REMARK H PARENT 5 3 5 4 5 5
REMARK Flexibility Score: inf
ROOT
ATOM      1  C   UNL     1      21.662  13.429 -20.223  1.00  0.00     0.230 C 
ENDROOT
BRANCH   1   2
ATOM      2  N   UNL     1      21.846  11.979 -20.068  1.00  0.00    -0.350 N 
ATOM      3  H   UNL     1      21.861  11.736 -19.050  1.00  0.00     0.345 HD
ATOM      4  H   UNL     1      21.049  11.467 -20.511  1.00  0.00     0.345 HD
ATOM      5  H   UNL     1      22.743  11.658 -20.499  1.00  0.00     0.345 HD
ENDBRANCH   1   2
BRANCH   1   6
ATOM      6  C   UNL     1      20.566  13.729 -21.218  1.00  0.00     0.099 C 
ATOM      7  O   UNL     1      19.438  14.135 -20.830  1.00  0.00    -0.544 OA
ATOM      8  O   UNL     1      20.807  13.585 -22.578  1.00  0.00    -0.544 OA
ENDBRANCH   1   6
BRANCH   1   9
ATOM      9  C   UNL     1      21.441  14.133 -18.850  1.00  0.00     0.047 C 
ATOM     10  C   UNL     1      21.116  13.115 -17.747  1.00  0.00     0.014 C 
ATOM     11  C   UNL     1      22.617  15.024 -18.415  1.00  0.00     0.014 C 
ENDBRANCH   1   9
TORSDOF 3
ENDMDL
MODEL 2
REMARK VINA RESULT:    -3.174      2.582      3.687
REMARK INTER + INTRA:          -3.693
REMARK INTER:                  -3.637
REMARK INTRA:                  -0.055
REMARK UNBOUND:                -0.055
REMARK SMILES CC(C)[C@@H]([NH3+])C(=O)[O-]
REMARK SMILES IDX 4 1 5 2 6 6 7 7 8 8 2 9 1 10 3 11
REMARK H PARENT 5 3 5 4 5 5
REMARK Flexibility Score: inf
ROOT
ATOM      1  C   UNL     1      21.598  13.232 -18.375  1.00  0.00     0.230 C 
ENDROOT
BRANCH   1   2
ATOM      2  N   UNL     1      21.639  14.691 -18.551  1.00  0.00    -0.350 N 
ATOM      3  H   UNL     1      22.614  14.986 -18.791  1.00  0.00     0.345 HD
ATOM      4  H   UNL     1      21.013  14.975 -19.339  1.00  0.00     0.345 HD
ATOM      5  H   UNL     1      21.345  15.190 -17.681  1.00  0.00     0.345 HD
ENDBRANCH   1   2
BRANCH   1   6
ATOM      6  C   UNL     1      20.441  12.829 -17.491  1.00  0.00     0.099 C 
ATOM      7  O   UNL     1      19.403  12.312 -17.983  1.00  0.00    -0.544 OA
ATOM      8  O   UNL     1      20.530  13.002 -16.115  1.00  0.00    -0.544 OA
ENDBRANCH   1   6
BRANCH   1   9
ATOM      9  C   UNL     1      21.600  12.485 -19.743  1.00  0.00     0.047 C 
ATOM     10  C   UNL     1      21.297  13.445 -20.903  1.00  0.00     0.014 C 
ATOM     11  C   UNL     1      22.900  11.713 -20.023  1.00  0.00     0.014 C 
ENDBRANCH   1   9
TORSDOF 3
ENDMDL
MODEL 3
REMARK VINA RESULT:    -3.052      1.806      2.407
REMARK INTER + INTRA:          -3.553
REMARK INTER:                  -3.656
REMARK INTRA:                   0.103
REMARK UNBOUND:                -0.055
REMARK SMILES CC(C)[C@@H]([NH3+])C(=O)[O-]
REMARK SMILES IDX 4 1 5 2 6 6 7 7 8 8 2 9 1 10 3 11
REMARK H PARENT 5 3 5 4 5 5
REMARK Flexibility Score: inf
ROOT
ATOM      1  C   UNL     1      22.010  12.696 -19.023  1.00  0.00     0.230 C 
ENDROOT
BRANCH   1   2
ATOM      2  N   UNL     1      22.303  11.736 -20.096  1.00  0.00    -0.350 N 
ATOM      3  H   UNL     1      23.110  12.084 -20.666  1.00  0.00     0.345 HD
ATOM      4  H   UNL     1      22.572  10.812 -19.687  1.00  0.00     0.345 HD
ATOM      5  H   UNL     1      21.482  11.606 -20.729  1.00  0.00     0.345 HD
ENDBRANCH   1   2
BRANCH   1   6
ATOM      6  C   UNL     1      21.888  14.098 -19.573  1.00  0.00     0.099 C 
ATOM      7  O   UNL     1      22.419  15.073 -18.976  1.00  0.00    -0.544 OA
ATOM      8  O   UNL     1      21.208  14.316 -20.764  1.00  0.00    -0.544 OA
ENDBRANCH   1   6
BRANCH   1   9
ATOM      9  C   UNL     1      20.767  12.267 -18.186  1.00  0.00     0.047 C 
ATOM     10  C   UNL     1      20.750  12.962 -16.816  1.00  0.00     0.014 C 
ATOM     11  C   UNL     1      19.428  12.493 -18.908  1.00  0.00     0.014 C 
ENDBRANCH   1   9
TORSDOF 3
ENDMDL
MODEL 4
REMARK VINA RESULT:    -3.011      1.503      1.859
REMARK INTER + INTRA:          -3.506
REMARK INTER:                  -3.595
REMARK INTRA:                   0.089
REMARK UNBOUND:                -0.055
REMARK SMILES CC(C)[C@@H]([NH3+])C(=O)[O-]
REMARK SMILES IDX 4 1 5 2 6 6 7 7 8 8 2 9 1 10 3 11
REMARK H PARENT 5 3 5 4 5 5
REMARK Flexibility Score: inf
ROOT
ATOM      1  C   UNL     1      21.319  14.155 -19.298  1.00  0.00     0.230 C 
ENDROOT
BRANCH   1   2
ATOM      2  N   UNL     1      22.585  14.882 -19.466  1.00  0.00    -0.350 N 
ATOM      3  H   UNL     1      22.998  15.087 -18.526  1.00  0.00     0.345 HD
ATOM      4  H   UNL     1      23.268  14.294 -19.997  1.00  0.00     0.345 HD
ATOM      5  H   UNL     1      22.444  15.786 -19.971  1.00  0.00     0.345 HD
ENDBRANCH   1   2
BRANCH   1   6
ATOM      6  C   UNL     1      20.583  14.044 -20.612  1.00  0.00     0.099 C 
ATOM      7  O   UNL     1      19.354  14.312 -20.688  1.00  0.00    -0.544 OA
ATOM      8  O   UNL     1      21.270  13.669 -21.760  1.00  0.00    -0.544 OA
ENDBRANCH   1   6
BRANCH   1   9
ATOM      9  C   UNL     1      21.532  12.774 -18.608  1.00  0.00     0.047 C 
ATOM     10  C   UNL     1      20.191  12.092 -18.298  1.00  0.00     0.014 C 
ATOM     11  C   UNL     1      22.438  11.819 -19.404  1.00  0.00     0.014 C 
ENDBRANCH   1   9
TORSDOF 3
ENDMDL
MODEL 5
REMARK VINA RESULT:    -2.995      1.625      1.795
REMARK INTER + INTRA:          -3.488
REMARK INTER:                  -3.489
REMARK INTRA:                   0.001
REMARK UNBOUND:                -0.055
REMARK SMILES CC(C)[C@@H]([NH3+])C(=O)[O-]
REMARK SMILES IDX 4 1 5 2 6 6 7 7 8 8 2 9 1 10 3 11
REMARK H PARENT 5 3 5 4 5 5
REMARK Flexibility Score: inf
ROOT
ATOM      1  C   UNL     1      20.725  12.520 -19.419  1.00  0.00     0.230 C 
ENDROOT
BRANCH   1   2
ATOM      2  N   UNL     1      19.773  12.438 -18.301  1.00  0.00    -0.350 N 
ATOM      3  H   UNL     1      19.429  11.454 -18.208  1.00  0.00     0.345 HD
ATOM      4  H   UNL     1      20.248  12.700 -17.407  1.00  0.00     0.345 HD
ATOM      5  H   UNL     1      18.951  13.065 -18.451  1.00  0.00     0.345 HD
ENDBRANCH   1   2
BRANCH   1   6
ATOM      6  C   UNL     1      20.314  13.595 -20.398  1.00  0.00     0.099 C 
ATOM      7  O   UNL     1      19.529  14.517 -20.050  1.00  0.00    -0.544 OA
ATOM      8  O   UNL     1      20.828  13.588 -21.688  1.00  0.00    -0.544 OA
ENDBRANCH   1   6
BRANCH   1   9
ATOM      9  C   UNL     1      22.192  12.689 -18.919  1.00  0.00     0.047 C 
ATOM     10  C   UNL     1      23.154  11.777 -19.696  1.00  0.00     0.014 C 
ATOM     11  C   UNL     1      22.695  14.142 -18.958  1.00  0.00     0.014 C 
ENDBRANCH   1   9
TORSDOF 3
ENDMDL
MODEL 6
REMARK VINA RESULT:    -2.989      2.318      3.072
REMARK INTER + INTRA:          -3.481
REMARK INTER:                  -3.494
REMARK INTRA:                   0.013
REMARK UNBOUND:                -0.055
REMARK SMILES CC(C)[C@@H]([NH3+])C(=O)[O-]
REMARK SMILES IDX 4 1 5 2 6 6 7 7 8 8 2 9 1 10 3 11
REMARK H PARENT 5 3 5 4 5 5
REMARK Flexibility Score: inf
ROOT
ATOM      1  C   UNL     1      20.591  13.993 -19.292  1.00  0.00     0.230 C 
ENDROOT
BRANCH   1   2
ATOM      2  N   UNL     1      19.806  13.977 -20.535  1.00  0.00    -0.350 N 
ATOM      3  H   UNL     1      19.044  13.264 -20.458  1.00  0.00     0.345 HD
ATOM      4  H   UNL     1      19.360  14.910 -20.689  1.00  0.00     0.345 HD
ATOM      5  H   UNL     1      20.401  13.740 -21.361  1.00  0.00     0.345 HD
ENDBRANCH   1   2
BRANCH   1   6
ATOM      6  C   UNL     1      20.215  12.831 -18.403  1.00  0.00     0.099 C 
ATOM      7  O   UNL     1      19.744  11.770 -18.894  1.00  0.00    -0.544 OA
ATOM      8  O   UNL     1      20.416  12.917 -17.031  1.00  0.00    -0.544 OA
ENDBRANCH   1   6
BRANCH   1   9
ATOM      9  C   UNL     1      22.122  14.064 -19.576  1.00  0.00     0.047 C 
ATOM     10  C   UNL     1      22.809  15.098 -18.671  1.00  0.00     0.014 C 
ATOM     11  C   UNL     1      22.836  12.707 -19.461  1.00  0.00     0.014 C 
ENDBRANCH   1   9
TORSDOF 3
ENDMDL
MODEL 7
REMARK VINA RESULT:    -2.983      2.784      3.444
REMARK INTER + INTRA:          -3.475
REMARK INTER:                  -3.446
REMARK INTRA:                  -0.029
REMARK UNBOUND:                -0.055
REMARK SMILES CC(C)[C@@H]([NH3+])C(=O)[O-]
REMARK SMILES IDX 4 1 5 2 6 6 7 7 8 8 2 9 1 10 3 11
REMARK H PARENT 5 3 5 4 5 5
REMARK Flexibility Score: inf
ROOT
ATOM      1  C   UNL     1      21.637  14.474 -18.885  1.00  0.00     0.230 C 
ENDROOT
BRANCH   1   2
ATOM      2  N   UNL     1      21.336  13.757 -17.638  1.00  0.00    -0.350 N 
ATOM      3  H   UNL     1      20.804  12.882 -17.857  1.00  0.00     0.345 HD
ATOM      4  H   UNL     1      22.224  13.482 -17.159  1.00  0.00     0.345 HD
ATOM      5  H   UNL     1      20.762  14.341 -16.989  1.00  0.00     0.345 HD
ENDBRANCH   1   2
BRANCH   1   6
ATOM      6  C   UNL     1      23.048  15.013 -18.869  1.00  0.00     0.099 C 
ATOM      7  O   UNL     1      23.263  16.252 -18.799  1.00  0.00    -0.544 OA
ATOM      8  O   UNL     1      24.124  14.134 -18.903  1.00  0.00    -0.544 OA
ENDBRANCH   1   6
BRANCH   1   9
ATOM      9  C   UNL     1      21.340  13.598 -20.141  1.00  0.00     0.047 C 
ATOM     10  C   UNL     1      21.460  12.101 -19.818  1.00  0.00     0.014 C 
ATOM     11  C   UNL     1      19.976  13.890 -20.789  1.00  0.00     0.014 C 
ENDBRANCH   1   9
TORSDOF 3
ENDMDL
MODEL 8
REMARK VINA RESULT:    -2.973      2.526      3.481
REMARK INTER + INTRA:          -3.462
REMARK INTER:                  -3.573
REMARK INTRA:                   0.110
REMARK UNBOUND:                -0.055
REMARK SMILES CC(C)[C@@H]([NH3+])C(=O)[O-]
REMARK SMILES IDX 4 1 5 2 6 6 7 7 8 8 2 9 1 10 3 11
REMARK H PARENT 5 3 5 4 5 5
REMARK Flexibility Score: inf
ROOT
ATOM      1  C   UNL     1      21.973  14.046 -19.526  1.00  0.00     0.230 C 
ENDROOT
BRANCH   1   2
ATOM      2  N   UNL     1      22.013  15.021 -18.427  1.00  0.00    -0.350 N 
ATOM      3  H   UNL     1      21.494  14.639 -17.603  1.00  0.00     0.345 HD
ATOM      4  H   UNL     1      23.003  15.190 -18.135  1.00  0.00     0.345 HD
ATOM      5  H   UNL     1      21.576  15.929 -18.704  1.00  0.00     0.345 HD
ENDBRANCH   1   2
BRANCH   1   6
ATOM      6  C   UNL     1      21.985  12.632 -18.993  1.00  0.00     0.099 C 
ATOM      7  O   UNL     1      22.716  11.751 -19.519  1.00  0.00    -0.544 OA
ATOM      8  O   UNL     1      21.205  12.302 -17.892  1.00  0.00    -0.544 OA
ENDBRANCH   1   6
BRANCH   1   9
ATOM      9  C   UNL     1      20.780  14.314 -20.494  1.00  0.00     0.047 C 
ATOM     10  C   UNL     1      20.990  13.614 -21.845  1.00  0.00     0.014 C 
ATOM     11  C   UNL     1      19.411  13.930 -19.909  1.00  0.00     0.014 C 
ENDBRANCH   1   9
TORSDOF 3
ENDMDL
MODEL 9
REMARK VINA RESULT:    -2.928      2.268      2.991
REMARK INTER + INTRA:          -3.411
REMARK INTER:                  -3.517
REMARK INTRA:                   0.106
REMARK UNBOUND:                -0.055
REMARK SMILES CC(C)[C@@H]([NH3+])C(=O)[O-]
REMARK SMILES IDX 4 1 5 2 6 6 7 7 8 8 2 9 1 10 3 11
REMARK H PARENT 5 3 5 4 5 5
REMARK Flexibility Score: inf
ROOT
ATOM      1  C   UNL     1      21.484  12.460 -19.335  1.00  0.00     0.230 C 
ENDROOT
BRANCH   1   2
ATOM      2  N   UNL     1      22.811  11.930 -18.993  1.00  0.00    -0.350 N 
ATOM      3  H   UNL     1      22.732  10.911 -18.766  1.00  0.00     0.345 HD
ATOM      4  H   UNL     1      23.458  12.030 -19.808  1.00  0.00     0.345 HD
ATOM      5  H   UNL     1      23.220  12.423 -18.167  1.00  0.00     0.345 HD
ENDBRANCH   1   2
BRANCH   1   6
ATOM      6  C   UNL     1      20.589  12.497 -18.118  1.00  0.00     0.099 C 
ATOM      7  O   UNL     1      19.414  12.046 -18.168  1.00  0.00    -0.544 OA
ATOM      8  O   UNL     1      21.073  13.008 -16.920  1.00  0.00    -0.544 OA
ENDBRANCH   1   6
BRANCH   1   9
ATOM      9  C   UNL     1      21.580  13.840 -20.054  1.00  0.00     0.047 C 
ATOM     10  C   UNL     1      20.218  14.270 -20.620  1.00  0.00     0.014 C 
ATOM     11  C   UNL     1      22.161  14.958 -19.172  1.00  0.00     0.014 C 
ENDBRANCH   1   9
TORSDOF 3
ENDMDL
