MODEL 1
REMARK VINA RESULT:    -4.974      0.000      0.000
REMARK INTER + INTRA:         -10.692
REMARK INTER:                  -9.335
REMARK INTRA:                  -1.357
REMARK UNBOUND:                -1.357
REMARK SMILES CCCCCCCCC=CCCCCCCCC(=O)[O-]
REMARK SMILES IDX 10 1 9 2 11 3 12 4 13 5 14 6 15 7 16 8 17 9 18 10 19 11
REMARK SMILES IDX 20 12 8 13 7 14 6 15 5 16 4 17 3 18 2 19 1 20
REMARK H PARENT
REMARK Flexibility Score: inf
ROOT
ATOM      1  C   UNL     1      -2.111  -8.175  -3.326  1.00  0.00    -0.031 C 
ATOM      2  C   UNL     1      -3.306  -7.708  -3.735  1.00  0.00    -0.031 C 
ENDROOT
BRANCH   1   3
ATOM      3  C   UNL     1      -0.957  -7.320  -2.855  1.00  0.00     0.027 C 
BRANCH   3   4
ATOM      4  C   UNL     1       0.395  -7.935  -3.251  1.00  0.00     0.004 C 
BRANCH   4   5
ATOM      5  C   UNL     1       1.456  -7.858  -2.138  1.00  0.00     0.000 C 
BRANCH   5   6
ATOM      6  C   UNL     1       2.540  -6.807  -2.433  1.00  0.00     0.000 C 
BRANCH   6   7
ATOM      7  C   UNL     1       3.869  -7.435  -2.894  1.00  0.00     0.000 C 
BRANCH   7   8
ATOM      8  C   UNL     1       4.250  -8.743  -2.179  1.00  0.00     0.006 C 
BRANCH   8   9
ATOM      9  C   UNL     1       5.492  -8.600  -1.290  1.00  0.00     0.053 C 
BRANCH   9  10
ATOM     10  C   UNL     1       5.255  -7.580  -0.222  1.00  0.00     0.041 C 
ATOM     11  O   UNL     1       5.934  -6.522  -0.194  1.00  0.00    -0.550 OA
ATOM     12  O   UNL     1       4.316  -7.822   0.774  1.00  0.00    -0.550 OA
ENDBRANCH   9  10
ENDBRANCH   8   9
ENDBRANCH   7   8
ENDBRANCH   6   7
ENDBRANCH   5   6
ENDBRANCH   4   5
ENDBRANCH   3   4
ENDBRANCH   1   3
BRANCH   2  13
ATOM     13  C   UNL     1      -3.676  -6.250  -3.841  1.00  0.00     0.027 C 
BRANCH  13  14
ATOM     14  C   UNL     1      -4.543  -5.961  -5.076  1.00  0.00     0.004 C 
BRANCH  14  15
ATOM     15  C   UNL     1      -3.930  -6.547  -6.360  1.00  0.00     0.000 C 
BRANCH  15  16
ATOM     16  C   UNL     1      -4.853  -7.567  -7.044  1.00  0.00     0.000 C 
BRANCH  16  17
ATOM     17  C   UNL     1      -6.342  -7.274  -6.801  1.00  0.00    -0.000 C 
BRANCH  17  18
ATOM     18  C   UNL     1      -7.137  -8.577  -6.633  1.00  0.00    -0.000 C 
BRANCH  18  19
ATOM     19  C   UNL     1      -7.857  -8.659  -5.277  1.00  0.00    -0.003 C 
ATOM     20  C   UNL     1      -6.889  -8.751  -4.098  1.00  0.00     0.004 C 
ENDBRANCH  18  19
ENDBRANCH  17  18
ENDBRANCH  16  17
ENDBRANCH  15  16
ENDBRANCH  14  15
ENDBRANCH  13  14
ENDBRANCH   2  13
TORSDOF 15
ENDMDL
MODEL 2
REMARK VINA RESULT:    -4.906      1.508      2.717
REMARK INTER + INTRA:         -10.565
REMARK INTER:                  -9.427
REMARK INTRA:                  -1.137
REMARK UNBOUND:                -1.357
REMARK SMILES CCCCCCCCC=CCCCCCCCC(=O)[O-]
REMARK SMILES IDX 10 1 9 2 11 3 12 4 13 5 14 6 15 7 16 8 17 9 18 10 19 11
REMARK SMILES IDX 20 12 8 13 7 14 6 15 5 16 4 17 3 18 2 19 1 20
REMARK H PARENT
REMARK Flexibility Score: inf
ROOT
ATOM      1  C   UNL     1      -0.103  -7.114  -2.704  1.00  0.00    -0.031 C 
ATOM      2  C   UNL     1      -1.436  -7.024  -2.867  1.00  0.00    -0.031 C 
ENDROOT
BRANCH   1   3
ATOM      3  C   UNL     1       0.742  -8.311  -3.075  1.00  0.00     0.027 C 
BRANCH   3   4
ATOM      4  C   UNL     1       1.942  -8.466  -2.128  1.00  0.00     0.004 C 
BRANCH   4   5
ATOM      5  C   UNL     1       2.732  -7.161  -1.918  1.00  0.00     0.000 C 
BRANCH   5   6
ATOM      6  C   UNL     1       3.728  -6.888  -3.059  1.00  0.00     0.000 C 
BRANCH   6   7
ATOM      7  C   UNL     1       4.764  -8.014  -3.229  1.00  0.00     0.000 C 
BRANCH   7   8
ATOM      8  C   UNL     1       5.535  -8.385  -1.949  1.00  0.00     0.006 C 
BRANCH   8   9
ATOM      9  C   UNL     1       6.964  -7.829  -1.930  1.00  0.00     0.053 C 
BRANCH   9  10
ATOM     10  C   UNL     1       7.107  -6.791  -0.863  1.00  0.00     0.041 C 
ATOM     11  O   UNL     1       8.243  -6.505  -0.404  1.00  0.00    -0.550 OA
ATOM     12  O   UNL     1       5.978  -6.173  -0.339  1.00  0.00    -0.550 OA
ENDBRANCH   9  10
ENDBRANCH   8   9
ENDBRANCH   7   8
ENDBRANCH   6   7
ENDBRANCH   5   6
ENDBRANCH   4   5
ENDBRANCH   3   4
ENDBRANCH   1   3
BRANCH   2  13
ATOM     13  C   UNL     1      -2.319  -8.126  -3.398  1.00  0.00     0.027 C 
BRANCH  13  14
ATOM     14  C   UNL     1      -3.733  -7.625  -3.731  1.00  0.00     0.004 C 
BRANCH  14  15
ATOM     15  C   UNL     1      -3.726  -6.168  -4.227  1.00  0.00     0.000 C 
BRANCH  15  16
ATOM     16  C   UNL     1      -5.030  -5.780  -4.940  1.00  0.00     0.000 C 
BRANCH  16  17
ATOM     17  C   UNL     1      -5.509  -6.856  -5.926  1.00  0.00    -0.000 C 
BRANCH  17  18
ATOM     18  C   UNL     1      -5.232  -6.432  -7.376  1.00  0.00    -0.000 C 
BRANCH  18  19
ATOM     19  C   UNL     1      -3.903  -6.988  -7.912  1.00  0.00    -0.003 C 
ATOM     20  C   UNL     1      -3.464  -6.318  -9.213  1.00  0.00     0.004 C 
ENDBRANCH  18  19
ENDBRANCH  17  18
ENDBRANCH  16  17
ENDBRANCH  15  16
ENDBRANCH  14  15
ENDBRANCH  13  14
ENDBRANCH   2  13
TORSDOF 15
ENDMDL
MODEL 3
REMARK VINA RESULT:    -4.874      1.063      2.445
REMARK INTER + INTRA:         -10.505
REMARK INTER:                  -9.328
REMARK INTRA:                  -1.177
REMARK UNBOUND:                -1.357
REMARK SMILES CCCCCCCCC=CCCCCCCCC(=O)[O-]
REMARK SMILES IDX 10 1 9 2 11 3 12 4 13 5 14 6 15 7 16 8 17 9 18 10 19 11
REMARK SMILES IDX 20 12 8 13 7 14 6 15 5 16 4 17 3 18 2 19 1 20
REMARK H PARENT
REMARK Flexibility Score: inf
ROOT
ATOM      1  C   UNL     1      -2.597  -6.880  -3.712  1.00  0.00    -0.031 C 
ATOM      2  C   UNL     1      -3.923  -7.105  -3.769  1.00  0.00    -0.031 C 
ENDROOT
BRANCH   1   3
ATOM      3  C   UNL     1      -1.569  -7.854  -3.185  1.00  0.00     0.027 C 
BRANCH   3   4
ATOM      4  C   UNL     1      -0.336  -7.123  -2.631  1.00  0.00     0.004 C 
BRANCH   4   5
ATOM      5  C   UNL     1       0.999  -7.778  -3.031  1.00  0.00     0.000 C 
BRANCH   5   6
ATOM      6  C   UNL     1       2.186  -7.234  -2.217  1.00  0.00     0.000 C 
BRANCH   6   7
ATOM      7  C   UNL     1       3.384  -6.839  -3.101  1.00  0.00     0.000 C 
BRANCH   7   8
ATOM      8  C   UNL     1       4.692  -7.589  -2.791  1.00  0.00     0.006 C 
BRANCH   8   9
ATOM      9  C   UNL     1       4.620  -8.405  -1.495  1.00  0.00     0.053 C 
BRANCH   9  10
ATOM     10  C   UNL     1       5.220  -7.638  -0.360  1.00  0.00     0.041 C 
ATOM     11  O   UNL     1       5.234  -8.127   0.799  1.00  0.00    -0.550 OA
ATOM     12  O   UNL     1       5.720  -6.359  -0.574  1.00  0.00    -0.550 OA
ENDBRANCH   9  10
ENDBRANCH   8   9
ENDBRANCH   7   8
ENDBRANCH   6   7
ENDBRANCH   5   6
ENDBRANCH   4   5
ENDBRANCH   3   4
ENDBRANCH   1   3
BRANCH   2  13
ATOM     13  C   UNL     1      -4.612  -8.350  -3.266  1.00  0.00     0.027 C 
BRANCH  13  14
ATOM     14  C   UNL     1      -5.307  -9.124  -4.396  1.00  0.00     0.004 C 
BRANCH  14  15
ATOM     15  C   UNL     1      -6.340  -8.256  -5.138  1.00  0.00     0.000 C 
BRANCH  15  16
ATOM     16  C   UNL     1      -6.288  -8.447  -6.661  1.00  0.00     0.000 C 
BRANCH  16  17
ATOM     17  C   UNL     1      -6.352  -7.116  -7.427  1.00  0.00    -0.000 C 
BRANCH  17  18
ATOM     18  C   UNL     1      -5.289  -6.135  -6.909  1.00  0.00    -0.000 C 
BRANCH  18  19
ATOM     19  C   UNL     1      -3.869  -6.510  -7.361  1.00  0.00    -0.003 C 
ATOM     20  C   UNL     1      -3.811  -6.954  -8.822  1.00  0.00     0.004 C 
ENDBRANCH  18  19
ENDBRANCH  17  18
ENDBRANCH  16  17
ENDBRANCH  15  16
ENDBRANCH  14  15
ENDBRANCH  13  14
ENDBRANCH   2  13
TORSDOF 15
ENDMDL
MODEL 4
REMARK VINA RESULT:    -4.809      1.785      2.529
REMARK INTER + INTRA:         -10.384
REMARK INTER:                  -9.695
REMARK INTRA:                  -0.688
REMARK UNBOUND:                -1.357
REMARK SMILES CCCCCCCCC=CCCCCCCCC(=O)[O-]
REMARK SMILES IDX 10 1 9 2 11 3 12 4 13 5 14 6 15 7 16 8 17 9 18 10 19 11
REMARK SMILES IDX 20 12 8 13 7 14 6 15 5 16 4 17 3 18 2 19 1 20
REMARK H PARENT
REMARK Flexibility Score: inf
ROOT
ATOM      1  C   UNL     1      -2.354  -7.908  -3.162  1.00  0.00    -0.031 C 
ATOM      2  C   UNL     1      -3.492  -7.439  -3.707  1.00  0.00    -0.031 C 
ENDROOT
BRANCH   1   3
ATOM      3  C   UNL     1      -1.108  -7.092  -2.909  1.00  0.00     0.027 C 
BRANCH   3   4
ATOM      4  C   UNL     1       0.147  -7.980  -2.876  1.00  0.00     0.004 C 
BRANCH   4   5
ATOM      5  C   UNL     1       1.451  -7.194  -2.648  1.00  0.00     0.000 C 
BRANCH   5   6
ATOM      6  C   UNL     1       2.691  -7.960  -3.141  1.00  0.00     0.000 C 
BRANCH   6   7
ATOM      7  C   UNL     1       3.984  -7.129  -3.043  1.00  0.00     0.000 C 
BRANCH   7   8
ATOM      8  C   UNL     1       5.259  -7.945  -2.767  1.00  0.00     0.006 C 
BRANCH   8   9
ATOM      9  C   UNL     1       5.178  -8.760  -1.470  1.00  0.00     0.053 C 
BRANCH   9  10
ATOM     10  C   UNL     1       5.635  -7.939  -0.307  1.00  0.00     0.041 C 
ATOM     11  O   UNL     1       6.854  -7.665  -0.164  1.00  0.00    -0.550 OA
ATOM     12  O   UNL     1       4.718  -7.517   0.648  1.00  0.00    -0.550 OA
ENDBRANCH   9  10
ENDBRANCH   8   9
ENDBRANCH   7   8
ENDBRANCH   6   7
ENDBRANCH   5   6
ENDBRANCH   4   5
ENDBRANCH   3   4
ENDBRANCH   1   3
BRANCH   2  13
ATOM     13  C   UNL     1      -3.695  -6.031  -4.208  1.00  0.00     0.027 C 
BRANCH  13  14
ATOM     14  C   UNL     1      -4.916  -5.915  -5.132  1.00  0.00     0.004 C 
BRANCH  14  15
ATOM     15  C   UNL     1      -4.559  -6.211  -6.600  1.00  0.00     0.000 C 
BRANCH  15  16
ATOM     16  C   UNL     1      -5.793  -6.533  -7.456  1.00  0.00     0.000 C 
BRANCH  16  17
ATOM     17  C   UNL     1      -5.477  -6.567  -8.960  1.00  0.00    -0.000 C 
BRANCH  17  18
ATOM     18  C   UNL     1      -6.013  -5.309  -9.660  1.00  0.00    -0.000 C 
BRANCH  18  19
ATOM     19  C   UNL     1      -6.863  -4.430  -8.729  1.00  0.00    -0.003 C 
ATOM     20  C   UNL     1      -6.855  -2.957  -9.137  1.00  0.00     0.004 C 
ENDBRANCH  18  19
ENDBRANCH  17  18
ENDBRANCH  16  17
ENDBRANCH  15  16
ENDBRANCH  14  15
ENDBRANCH  13  14
ENDBRANCH   2  13
TORSDOF 15
ENDMDL
MODEL 5
REMARK VINA RESULT:    -4.738      1.536      3.038
REMARK INTER + INTRA:         -10.249
REMARK INTER:                  -8.903
REMARK INTRA:                  -1.346
REMARK UNBOUND:                -1.357
REMARK SMILES CCCCCCCCC=CCCCCCCCC(=O)[O-]
REMARK SMILES IDX 10 1 9 2 11 3 12 4 13 5 14 6 15 7 16 8 17 9 18 10 19 11
REMARK SMILES IDX 20 12 8 13 7 14 6 15 5 16 4 17 3 18 2 19 1 20
REMARK H PARENT
REMARK Flexibility Score: inf
ROOT
ATOM      1  C   UNL     1      -3.603  -6.112  -4.495  1.00  0.00    -0.031 C 
ATOM      2  C   UNL     1      -4.161  -6.335  -5.700  1.00  0.00    -0.031 C 
ENDROOT
BRANCH   1   3
ATOM      3  C   UNL     1      -3.517  -7.122  -3.375  1.00  0.00     0.027 C 
BRANCH   3   4
ATOM      4  C   UNL     1      -2.209  -7.926  -3.444  1.00  0.00     0.004 C 
BRANCH   4   5
ATOM      5  C   UNL     1      -1.022  -7.231  -2.753  1.00  0.00     0.000 C 
BRANCH   5   6
ATOM      6  C   UNL     1       0.294  -8.010  -2.923  1.00  0.00     0.000 C 
BRANCH   6   7
ATOM      7  C   UNL     1       1.540  -7.124  -2.736  1.00  0.00     0.000 C 
BRANCH   7   8
ATOM      8  C   UNL     1       2.868  -7.893  -2.616  1.00  0.00     0.006 C 
BRANCH   8   9
ATOM      9  C   UNL     1       3.288  -8.139  -1.162  1.00  0.00     0.053 C 
BRANCH   9  10
ATOM     10  C   UNL     1       4.654  -7.585  -0.911  1.00  0.00     0.041 C 
ATOM     11  O   UNL     1       5.413  -7.309  -1.875  1.00  0.00    -0.550 OA
ATOM     12  O   UNL     1       5.108  -7.419   0.392  1.00  0.00    -0.550 OA
ENDBRANCH   9  10
ENDBRANCH   8   9
ENDBRANCH   7   8
ENDBRANCH   6   7
ENDBRANCH   5   6
ENDBRANCH   4   5
ENDBRANCH   3   4
ENDBRANCH   1   3
BRANCH   2  13
ATOM     13  C   UNL     1      -4.843  -7.615  -6.115  1.00  0.00     0.027 C 
BRANCH  13  14
ATOM     14  C   UNL     1      -6.344  -7.604  -5.787  1.00  0.00     0.004 C 
BRANCH  14  15
ATOM     15  C   UNL     1      -7.134  -8.580  -6.676  1.00  0.00     0.000 C 
BRANCH  15  16
ATOM     16  C   UNL     1      -8.198  -7.874  -7.530  1.00  0.00     0.000 C 
BRANCH  16  17
ATOM     17  C   UNL     1      -7.589  -7.083  -8.699  1.00  0.00    -0.000 C 
BRANCH  17  18
ATOM     18  C   UNL     1      -7.828  -5.576  -8.523  1.00  0.00    -0.000 C 
BRANCH  18  19
ATOM     19  C   UNL     1      -6.521  -4.787  -8.342  1.00  0.00    -0.003 C 
ATOM     20  C   UNL     1      -5.350  -5.400  -9.109  1.00  0.00     0.004 C 
ENDBRANCH  18  19
ENDBRANCH  17  18
ENDBRANCH  16  17
ENDBRANCH  15  16
ENDBRANCH  14  15
ENDBRANCH  13  14
ENDBRANCH   2  13
TORSDOF 15
ENDMDL
MODEL 6
REMARK VINA RESULT:    -4.551      4.181      9.929
REMARK INTER + INTRA:          -9.899
REMARK INTER:                  -8.686
REMARK INTRA:                  -1.212
REMARK UNBOUND:                -1.357
REMARK SMILES CCCCCCCCC=CCCCCCCCC(=O)[O-]
REMARK SMILES IDX 10 1 9 2 11 3 12 4 13 5 14 6 15 7 16 8 17 9 18 10 19 11
REMARK SMILES IDX 20 12 8 13 7 14 6 15 5 16 4 17 3 18 2 19 1 20
REMARK H PARENT
REMARK Flexibility Score: inf
ROOT
ATOM      1  C   UNL     1      -1.432  -6.944  -2.967  1.00  0.00    -0.031 C 
ATOM      2  C   UNL     1      -0.111  -7.062  -2.733  1.00  0.00    -0.031 C 
ENDROOT
BRANCH   1   3
ATOM      3  C   UNL     1      -2.355  -8.079  -3.347  1.00  0.00     0.027 C 
BRANCH   3   4
ATOM      4  C   UNL     1      -3.788  -7.578  -3.590  1.00  0.00     0.004 C 
BRANCH   4   5
ATOM      5  C   UNL     1      -3.882  -6.474  -4.658  1.00  0.00     0.000 C 
BRANCH   5   6
ATOM      6  C   UNL     1      -5.335  -6.168  -5.060  1.00  0.00     0.000 C 
BRANCH   6   7
ATOM      7  C   UNL     1      -5.978  -7.300  -5.881  1.00  0.00     0.000 C 
BRANCH   7   8
ATOM      8  C   UNL     1      -5.070  -7.914  -6.962  1.00  0.00     0.006 C 
BRANCH   8   9
ATOM      9  C   UNL     1      -5.311  -7.318  -8.355  1.00  0.00     0.053 C 
BRANCH   9  10
ATOM     10  C   UNL     1      -4.507  -6.071  -8.537  1.00  0.00     0.041 C 
ATOM     11  O   UNL     1      -5.078  -4.982  -8.804  1.00  0.00    -0.550 OA
ATOM     12  O   UNL     1      -3.120  -6.120  -8.459  1.00  0.00    -0.550 OA
ENDBRANCH   9  10
ENDBRANCH   8   9
ENDBRANCH   7   8
ENDBRANCH   6   7
ENDBRANCH   5   6
ENDBRANCH   4   5
ENDBRANCH   3   4
ENDBRANCH   1   3
BRANCH   2  13
ATOM     13  C   UNL     1       0.680  -8.340  -2.864  1.00  0.00     0.027 C 
BRANCH  13  14
ATOM     14  C   UNL     1       1.921  -8.348  -1.960  1.00  0.00     0.004 C 
BRANCH  14  15
ATOM     15  C   UNL     1       2.752  -7.061  -2.111  1.00  0.00     0.000 C 
BRANCH  15  16
ATOM     16  C   UNL     1       3.770  -7.145  -3.258  1.00  0.00     0.000 C 
BRANCH  16  17
ATOM     17  C   UNL     1       5.130  -7.699  -2.804  1.00  0.00    -0.000 C 
BRANCH  17  18
ATOM     18  C   UNL     1       5.474  -7.211  -1.388  1.00  0.00    -0.000 C 
BRANCH  18  19
ATOM     19  C   UNL     1       5.852  -8.362  -0.443  1.00  0.00    -0.003 C 
ATOM     20  C   UNL     1       4.769  -8.654   0.595  1.00  0.00     0.004 C 
ENDBRANCH  18  19
ENDBRANCH  17  18
ENDBRANCH  16  17
ENDBRANCH  15  16
ENDBRANCH  14  15
ENDBRANCH  13  14
ENDBRANCH   2  13
TORSDOF 15
ENDMDL
MODEL 7
REMARK VINA RESULT:    -4.481      4.954     10.107
REMARK INTER + INTRA:          -9.768
REMARK INTER:                  -8.576
REMARK INTRA:                  -1.192
REMARK UNBOUND:                -1.357
REMARK SMILES CCCCCCCCC=CCCCCCCCC(=O)[O-]
REMARK SMILES IDX 10 1 9 2 11 3 12 4 13 5 14 6 15 7 16 8 17 9 18 10 19 11
REMARK SMILES IDX 20 12 8 13 7 14 6 15 5 16 4 17 3 18 2 19 1 20
REMARK H PARENT
REMARK Flexibility Score: inf
ROOT
ATOM      1  C   UNL     1      -3.105  -7.535  -3.639  1.00  0.00    -0.031 C 
ATOM      2  C   UNL     1      -1.930  -7.983  -3.158  1.00  0.00    -0.031 C 
ENDROOT
BRANCH   1   3
ATOM      3  C   UNL     1      -3.380  -6.118  -4.088  1.00  0.00     0.027 C 
BRANCH   3   4
ATOM      4  C   UNL     1      -4.227  -6.091  -5.370  1.00  0.00     0.004 C 
BRANCH   4   5
ATOM      5  C   UNL     1      -5.417  -7.067  -5.343  1.00  0.00     0.000 C 
BRANCH   5   6
ATOM      6  C   UNL     1      -5.461  -7.975  -6.584  1.00  0.00     0.000 C 
BRANCH   6   7
ATOM      7  C   UNL     1      -4.544  -7.480  -7.718  1.00  0.00     0.000 C 
BRANCH   7   8
ATOM      8  C   UNL     1      -5.279  -6.933  -8.954  1.00  0.00     0.006 C 
BRANCH   8   9
ATOM      9  C   UNL     1      -4.969  -5.456  -9.228  1.00  0.00     0.053 C 
BRANCH   9  10
ATOM     10  C   UNL     1      -6.139  -4.599  -8.862  1.00  0.00     0.041 C 
ATOM     11  O   UNL     1      -6.953  -4.981  -7.982  1.00  0.00    -0.550 OA
ATOM     12  O   UNL     1      -6.359  -3.401  -9.530  1.00  0.00    -0.550 OA
ENDBRANCH   9  10
ENDBRANCH   8   9
ENDBRANCH   7   8
ENDBRANCH   6   7
ENDBRANCH   5   6
ENDBRANCH   4   5
ENDBRANCH   3   4
ENDBRANCH   1   3
BRANCH   2  13
ATOM     13  C   UNL     1      -0.705  -7.131  -2.937  1.00  0.00     0.027 C 
BRANCH  13  14
ATOM     14  C   UNL     1       0.533  -7.974  -2.596  1.00  0.00     0.004 C 
BRANCH  14  15
ATOM     15  C   UNL     1       1.836  -7.165  -2.730  1.00  0.00     0.000 C 
BRANCH  15  16
ATOM     16  C   UNL     1       2.934  -7.933  -3.483  1.00  0.00     0.000 C 
BRANCH  16  17
ATOM     17  C   UNL     1       4.349  -7.526  -3.041  1.00  0.00    -0.000 C 
BRANCH  17  18
ATOM     18  C   UNL     1       4.406  -7.308  -1.522  1.00  0.00    -0.000 C 
BRANCH  18  19
ATOM     19  C   UNL     1       4.431  -8.629  -0.735  1.00  0.00    -0.003 C 
ATOM     20  C   UNL     1       3.696  -8.534   0.601  1.00  0.00     0.004 C 
ENDBRANCH  18  19
ENDBRANCH  17  18
ENDBRANCH  16  17
ENDBRANCH  15  16
ENDBRANCH  14  15
ENDBRANCH  13  14
ENDBRANCH   2  13
TORSDOF 15
ENDMDL
MODEL 8
REMARK VINA RESULT:    -4.453     12.119     13.856
REMARK INTER + INTRA:          -9.715
REMARK INTER:                  -8.301
REMARK INTRA:                  -1.414
REMARK UNBOUND:                -1.357
REMARK SMILES CCCCCCCCC=CCCCCCCCC(=O)[O-]
REMARK SMILES IDX 10 1 9 2 11 3 12 4 13 5 14 6 15 7 16 8 17 9 18 10 19 11
REMARK SMILES IDX 20 12 8 13 7 14 6 15 5 16 4 17 3 18 2 19 1 20
REMARK H PARENT
REMARK Flexibility Score: inf
ROOT
ATOM      1  C   UNL     1       7.316   1.327  -4.472  1.00  0.00    -0.031 C 
ATOM      2  C   UNL     1       6.956   0.887  -5.692  1.00  0.00    -0.031 C 
ENDROOT
BRANCH   1   3
ATOM      3  C   UNL     1       8.674   1.127  -3.839  1.00  0.00     0.027 C 
BRANCH   3   4
ATOM      4  C   UNL     1       9.583   2.346  -4.066  1.00  0.00     0.004 C 
BRANCH   4   5
ATOM      5  C   UNL     1       8.826   3.686  -4.070  1.00  0.00     0.000 C 
BRANCH   5   6
ATOM      6  C   UNL     1       9.400   4.687  -3.052  1.00  0.00     0.000 C 
BRANCH   6   7
ATOM      7  C   UNL     1       8.314   5.565  -2.402  1.00  0.00     0.000 C 
BRANCH   7   8
ATOM      8  C   UNL     1       8.285   5.527  -0.863  1.00  0.00     0.006 C 
BRANCH   8   9
ATOM      9  C   UNL     1       8.999   4.299  -0.282  1.00  0.00     0.053 C 
BRANCH   9  10
ATOM     10  C   UNL     1       8.007   3.241   0.079  1.00  0.00     0.041 C 
ATOM     11  O   UNL     1       7.745   2.314  -0.730  1.00  0.00    -0.550 OA
ATOM     12  O   UNL     1       7.333   3.305   1.293  1.00  0.00    -0.550 OA
ENDBRANCH   9  10
ENDBRANCH   8   9
ENDBRANCH   7   8
ENDBRANCH   6   7
ENDBRANCH   5   6
ENDBRANCH   4   5
ENDBRANCH   3   4
ENDBRANCH   1   3
BRANCH   2  13
ATOM     13  C   UNL     1       7.832   0.072  -6.611  1.00  0.00     0.027 C 
BRANCH  13  14
ATOM     14  C   UNL     1       8.259   0.864  -7.856  1.00  0.00     0.004 C 
BRANCH  14  15
ATOM     15  C   UNL     1       7.269   1.994  -8.188  1.00  0.00     0.000 C 
BRANCH  15  16
ATOM     16  C   UNL     1       6.150   1.541  -9.138  1.00  0.00     0.000 C 
BRANCH  16  17
ATOM     17  C   UNL     1       5.033   2.587  -9.279  1.00  0.00    -0.000 C 
BRANCH  17  18
ATOM     18  C   UNL     1       3.650   1.921  -9.243  1.00  0.00    -0.000 C 
BRANCH  18  19
ATOM     19  C   UNL     1       2.519   2.920  -8.952  1.00  0.00    -0.003 C 
ATOM     20  C   UNL     1       3.039   4.314  -8.601  1.00  0.00     0.004 C 
ENDBRANCH  18  19
ENDBRANCH  17  18
ENDBRANCH  16  17
ENDBRANCH  15  16
ENDBRANCH  14  15
ENDBRANCH  13  14
ENDBRANCH   2  13
TORSDOF 15
ENDMDL
MODEL 9
REMARK VINA RESULT:    -4.401     11.621     15.630
REMARK INTER + INTRA:          -9.616
REMARK INTER:                  -8.375
REMARK INTRA:                  -1.241
REMARK UNBOUND:                -1.357
REMARK SMILES CCCCCCCCC=CCCCCCCCC(=O)[O-]
REMARK SMILES IDX 10 1 9 2 11 3 12 4 13 5 14 6 15 7 16 8 17 9 18 10 19 11
REMARK SMILES IDX 20 12 8 13 7 14 6 15 5 16 4 17 3 18 2 19 1 20
REMARK H PARENT
REMARK Flexibility Score: inf
ROOT
ATOM      1  C   UNL     1       7.951   1.362  -3.605  1.00  0.00    -0.031 C 
ATOM      2  C   UNL     1       8.863   2.329  -3.394  1.00  0.00    -0.031 C 
ENDROOT
BRANCH   1   3
ATOM      3  C   UNL     1       7.140   1.189  -4.869  1.00  0.00     0.027 C 
BRANCH   3   4
ATOM      4  C   UNL     1       7.529  -0.099  -5.612  1.00  0.00     0.004 C 
BRANCH   4   5
ATOM      5  C   UNL     1       7.860   0.124  -7.099  1.00  0.00     0.000 C 
BRANCH   5   6
ATOM      6  C   UNL     1       6.599   0.327  -7.956  1.00  0.00     0.000 C 
BRANCH   6   7
ATOM      7  C   UNL     1       6.415   1.787  -8.409  1.00  0.00     0.000 C 
BRANCH   7   8
ATOM      8  C   UNL     1       5.022   2.120  -8.974  1.00  0.00     0.006 C 
BRANCH   8   9
ATOM      9  C   UNL     1       4.267   0.880  -9.470  1.00  0.00     0.053 C 
BRANCH   9  10
ATOM     10  C   UNL     1       2.795   1.049  -9.266  1.00  0.00     0.041 C 
ATOM     11  O   UNL     1       2.354   2.024  -8.605  1.00  0.00    -0.550 OA
ATOM     12  O   UNL     1       1.911   0.099  -9.764  1.00  0.00    -0.550 OA
ENDBRANCH   9  10
ENDBRANCH   8   9
ENDBRANCH   7   8
ENDBRANCH   6   7
ENDBRANCH   5   6
ENDBRANCH   4   5
ENDBRANCH   3   4
ENDBRANCH   1   3
BRANCH   2  13
ATOM     13  C   UNL     1       9.192   3.436  -4.365  1.00  0.00     0.027 C 
BRANCH  13  14
ATOM     14  C   UNL     1       9.354   4.792  -3.664  1.00  0.00     0.004 C 
BRANCH  14  15
ATOM     15  C   UNL     1       8.231   5.052  -2.644  1.00  0.00     0.000 C 
BRANCH  15  16
ATOM     16  C   UNL     1       8.612   6.115  -1.602  1.00  0.00     0.000 C 
BRANCH  16  17
ATOM     17  C   UNL     1       8.919   5.508  -0.224  1.00  0.00    -0.000 C 
BRANCH  17  18
ATOM     18  C   UNL     1       8.391   4.069  -0.129  1.00  0.00    -0.000 C 
BRANCH  18  19
ATOM     19  C   UNL     1       7.719   3.773   1.221  1.00  0.00    -0.003 C 
ATOM     20  C   UNL     1       7.262   5.040   1.943  1.00  0.00     0.004 C 
ENDBRANCH  18  19
ENDBRANCH  17  18
ENDBRANCH  16  17
ENDBRANCH  15  16
ENDBRANCH  14  15
ENDBRANCH  13  14
ENDBRANCH   2  13
TORSDOF 15
ENDMDL
