MODEL 1
REMARK VINA RESULT:    -2.859      0.000      0.000
REMARK INTER + INTRA:          -3.133
REMARK INTER:                  -4.028
REMARK INTRA:                   0.896
REMARK UNBOUND:                 0.896
REMARK SMILES CC1=CCC(=C(C)C)C(=O)CC(C)=CCC1
REMARK SMILES IDX 12 1 14 2 13 3 15 4 16 5 2 6 1 7 3 8 11 10 9 11 10 12 5 13
REMARK SMILES IDX 6 14 7 15 8 16 4 17
REMARK H PARENT
REMARK Flexibility Score: 60.00
ROOT
ATOM      1  C   UNL     1      -1.776  -6.710 -15.000  1.00  0.00    -0.070 C 
ATOM      2  C   UNL     1      -1.911  -7.987 -15.432  1.00  0.00    -0.027 C 
ATOM      3  C   UNL     1      -2.488  -6.329 -13.726  1.00  0.00     0.039 C 
ENDROOT
BRANCH   2   4
ATOM      4  C   UNL     1      -1.207  -8.610 -16.613  1.00  0.00     0.032 C 
BRANCH   4   5
ATOM      5  C   UNL     1      -1.759  -8.110 -17.962  1.00  0.00     0.034 C 
BRANCH   5   6
ATOM      6  C   UNL     1      -3.242  -7.800 -17.894  1.00  0.00    -0.077 C 
ATOM      7  C   UNL     1      -4.209  -8.952 -17.781  1.00  0.00     0.039 C 
ATOM      8  C   UNL     1      -3.751  -6.550 -17.955  1.00  0.00    -0.023 CG0
ATOM      9  G   UNL     1      -2.951  -5.278 -18.104  1.00  0.00     0.000 G0
ENDBRANCH   5   6
ENDBRANCH   4   5
ENDBRANCH   2   4
BRANCH   1  10
ATOM     10  C   UNL     1      -0.901  -5.674 -15.687  1.00  0.00     0.111 C 
BRANCH  10  11
ATOM     11  C   UNL     1      -1.684  -4.433 -16.038  1.00  0.00     0.163 C 
ATOM     12  O   UNL     1      -1.246  -3.322 -15.635  1.00  0.00    -0.294 OA
BRANCH  11  13
ATOM     13  C   UNL     1      -2.973  -4.497 -16.794  1.00  0.00    -0.002 C 
ATOM     14  C   UNL     1      -4.093  -3.841 -16.363  1.00  0.00    -0.069 C 
ATOM     15  C   UNL     1      -5.403  -3.942 -17.114  1.00  0.00     0.039 C 
ATOM     16  C   UNL     1      -4.072  -2.958 -15.136  1.00  0.00     0.039 C 
BRANCH  13  17
ATOM     17  C   UNL     1      -2.966  -5.259 -18.107  1.00  0.00     0.066 CG0
ATOM     18  G   UNL     1      -3.743  -6.545 -17.958  1.00  0.00     0.000 G0
ENDBRANCH  13  17
ENDBRANCH  11  13
ENDBRANCH  10  11
ENDBRANCH   1  10
TORSDOF 0
ENDMDL
MODEL 2
REMARK VINA RESULT:    -1.257      1.329      3.706
REMARK INTER + INTRA:          -0.875
REMARK INTER:                  -3.179
REMARK INTRA:                   2.304
REMARK UNBOUND:                 0.896
REMARK SMILES CC1=CCC(=C(C)C)C(=O)CC(C)=CCC1
REMARK SMILES IDX 12 1 14 2 13 3 15 4 16 5 2 6 1 7 3 8 11 10 9 11 10 12 5 13
REMARK SMILES IDX 6 14 7 15 8 16 4 17
REMARK H PARENT
REMARK Flexibility Score: 60.00
ROOT
ATOM      1  C   UNL     1      -1.550  -5.595 -14.758  1.00  0.00    -0.070 C 
ATOM      2  C   UNL     1      -1.610  -4.262 -14.989  1.00  0.00    -0.027 C 
ATOM      3  C   UNL     1      -2.076  -6.095 -13.435  1.00  0.00     0.039 C 
ENDROOT
BRANCH   2   4
ATOM      4  C   UNL     1      -1.240  -3.561 -16.274  1.00  0.00     0.032 C 
BRANCH   4   5
ATOM      5  C   UNL     1      -2.474  -3.086 -17.065  1.00  0.00     0.034 C 
BRANCH   5   6
ATOM      6  C   UNL     1      -3.767  -3.630 -16.490  1.00  0.00    -0.077 C 
ATOM      7  C   UNL     1      -4.402  -2.896 -15.336  1.00  0.00     0.039 C 
ATOM      8  C   UNL     1      -4.373  -4.753 -16.937  1.00  0.00    -0.023 CG0
ATOM      9  G   UNL     1      -3.875  -5.640 -18.053  1.00  0.00     0.000 G0
ENDBRANCH   5   6
ENDBRANCH   4   5
ENDBRANCH   2   4
BRANCH   1  10
ATOM     10  C   UNL     1      -1.049  -6.609 -15.774  1.00  0.00     0.111 C 
BRANCH  10  11
ATOM     11  C   UNL     1      -1.598  -6.330 -17.151  1.00  0.00     0.163 C 
ATOM     12  O   UNL     1      -0.875  -5.687 -17.959  1.00  0.00    -0.294 OA
BRANCH  11  13
ATOM     13  C   UNL     1      -2.977  -6.748 -17.554  1.00  0.00    -0.002 C 
ATOM     14  C   UNL     1      -3.410  -8.037 -17.407  1.00  0.00    -0.069 C 
ATOM     15  C   UNL     1      -4.794  -8.459 -17.853  1.00  0.00     0.039 C 
ATOM     16  C   UNL     1      -2.544  -9.096 -16.764  1.00  0.00     0.039 C 
BRANCH  13  17
ATOM     17  C   UNL     1      -3.906  -5.660 -18.063  1.00  0.00     0.066 CG0
ATOM     18  G   UNL     1      -4.370  -4.801 -16.911  1.00  0.00     0.000 G0
ENDBRANCH  13  17
ENDBRANCH  11  13
ENDBRANCH  10  11
ENDBRANCH   1  10
TORSDOF 0
ENDMDL
MODEL 3
REMARK VINA RESULT:    -1.161      1.520      3.164
REMARK INTER + INTRA:          -0.741
REMARK INTER:                  -2.195
REMARK INTRA:                   1.454
REMARK UNBOUND:                 0.896
REMARK SMILES CC1=CCC(=C(C)C)C(=O)CC(C)=CCC1
REMARK SMILES IDX 12 1 14 2 13 3 15 4 16 5 2 6 1 7 3 8 11 10 9 11 10 12 5 13
REMARK SMILES IDX 6 14 7 15 8 16 4 17
REMARK H PARENT
REMARK Flexibility Score: 60.00
ROOT
ATOM      1  C   UNL     1      -3.017  -4.440 -14.991  1.00  0.00    -0.070 C 
ATOM      2  C   UNL     1      -3.018  -5.295 -13.941  1.00  0.00    -0.027 C 
ATOM      3  C   UNL     1      -4.326  -3.784 -15.354  1.00  0.00     0.039 C 
ENDROOT
BRANCH   2   4
ATOM      4  C   UNL     1      -1.812  -5.976 -13.342  1.00  0.00     0.032 C 
BRANCH   4   5
ATOM      5  C   UNL     1      -0.877  -6.574 -14.411  1.00  0.00     0.034 C 
BRANCH   5   6
ATOM      6  C   UNL     1      -1.434  -7.852 -15.008  1.00  0.00    -0.077 C 
ATOM      7  C   UNL     1      -1.823  -8.969 -14.072  1.00  0.00     0.039 C 
ATOM      8  C   UNL     1      -1.579  -8.059 -16.336  1.00  0.00    -0.023 CG0
ATOM      9  G   UNL     1      -1.214  -7.081 -17.426  1.00  0.00     0.000 G0
ENDBRANCH   5   6
ENDBRANCH   4   5
ENDBRANCH   2   4
BRANCH   1  10
ATOM     10  C   UNL     1      -1.769  -4.061 -15.771  1.00  0.00     0.111 C 
BRANCH  10  11
ATOM     11  C   UNL     1      -1.811  -4.598 -17.180  1.00  0.00     0.163 C 
ATOM     12  O   UNL     1      -1.481  -3.825 -18.120  1.00  0.00    -0.294 OA
BRANCH  11  13
ATOM     13  C   UNL     1      -2.277  -5.986 -17.486  1.00  0.00    -0.002 C 
ATOM     14  C   UNL     1      -3.569  -6.247 -17.851  1.00  0.00    -0.069 C 
ATOM     15  C   UNL     1      -4.042  -7.659 -18.121  1.00  0.00     0.039 C 
ATOM     16  C   UNL     1      -4.580  -5.138 -18.035  1.00  0.00     0.039 C 
BRANCH  13  17
ATOM     17  C   UNL     1      -1.233  -7.088 -17.448  1.00  0.00     0.066 CG0
ATOM     18  G   UNL     1      -1.568  -8.075 -16.356  1.00  0.00     0.000 G0
ENDBRANCH  13  17
ENDBRANCH  11  13
ENDBRANCH  10  11
ENDBRANCH   1  10
TORSDOF 0
ENDMDL
