MODEL 1
REMARK VINA RESULT:    -3.942      0.000      0.000
REMARK INTER + INTRA:          -4.057
REMARK INTER:                  -4.057
REMARK INTRA:                   0.000
REMARK UNBOUND:                 0.000
REMARK SMILES Oc1ccc2[nH]ccc2c1
REMARK SMILES IDX 3 1 4 2 5 3 9 4 8 5 7 6 6 7 10 8 2 9 1 11
REMARK H PARENT 6 10 1 12
REMARK Flexibility Score: inf
ROOT
ATOM      1  C   UNL     1     -11.919   8.940 -37.414  1.00  0.00     0.048 A 
ATOM      2  C   UNL     1     -12.233   9.237 -38.754  1.00  0.00     0.030 A 
ATOM      3  C   UNL     1     -12.801   8.228 -39.527  1.00  0.00     0.046 A 
ATOM      4  C   UNL     1     -13.052   6.983 -39.016  1.00  0.00     0.003 A 
ATOM      5  C   UNL     1     -13.609   6.227 -40.024  1.00  0.00     0.028 A 
ATOM      6  C   UNL     1     -13.669   7.076 -41.125  1.00  0.00     0.083 A 
ATOM      7  N   UNL     1     -13.173   8.298 -40.816  1.00  0.00    -0.361 N 
ATOM      8  C   UNL     1     -12.755   6.656 -37.695  1.00  0.00     0.056 A 
ATOM      9  C   UNL     1     -12.179   7.652 -36.883  1.00  0.00     0.116 A 
ATOM     10  H   UNL     1     -13.098   9.122 -41.453  1.00  0.00     0.166 HD
ENDROOT
BRANCH   9  11
ATOM     11  O   UNL     1     -11.869   7.359 -35.557  1.00  0.00    -0.508 OA
ATOM     12  H   UNL     1     -11.796   6.403 -35.230  1.00  0.00     0.293 HD
ENDBRANCH   9  11
TORSDOF 1
ENDMDL
MODEL 2
REMARK VINA RESULT:    -3.825      3.372      4.539
REMARK INTER + INTRA:          -3.937
REMARK INTER:                  -3.937
REMARK INTRA:                   0.000
REMARK UNBOUND:                 0.000
REMARK SMILES Oc1ccc2[nH]ccc2c1
REMARK SMILES IDX 3 1 4 2 5 3 9 4 8 5 7 6 6 7 10 8 2 9 1 11
REMARK H PARENT 6 10 1 12
REMARK Flexibility Score: inf
ROOT
ATOM      1  C   UNL     1     -11.743   8.882 -38.426  1.00  0.00     0.048 A 
ATOM      2  C   UNL     1     -10.337   8.811 -38.394  1.00  0.00     0.030 A 
ATOM      3  C   UNL     1      -9.628   9.543 -39.345  1.00  0.00     0.046 A 
ATOM      4  C   UNL     1     -10.263  10.309 -40.285  1.00  0.00     0.003 A 
ATOM      5  C   UNL     1      -9.291  10.896 -41.064  1.00  0.00     0.028 A 
ATOM      6  C   UNL     1      -8.083  10.443 -40.542  1.00  0.00     0.083 A 
ATOM      7  N   UNL     1      -8.295   9.616 -39.491  1.00  0.00    -0.361 N 
ATOM      8  C   UNL     1     -11.652  10.401 -40.344  1.00  0.00     0.056 A 
ATOM      9  C   UNL     1     -12.402   9.674 -39.398  1.00  0.00     0.116 A 
ATOM     10  H   UNL     1      -7.568   9.136 -38.916  1.00  0.00     0.166 HD
ENDROOT
BRANCH   9  11
ATOM     11  O   UNL     1     -13.792   9.744 -39.428  1.00  0.00    -0.508 OA
ATOM     12  H   UNL     1     -14.362   8.907 -39.470  1.00  0.00     0.293 HD
ENDBRANCH   9  11
TORSDOF 1
ENDMDL
MODEL 3
REMARK VINA RESULT:    -3.730      2.793      3.182
REMARK INTER + INTRA:          -3.839
REMARK INTER:                  -3.839
REMARK INTRA:                   0.000
REMARK UNBOUND:                 0.000
REMARK SMILES Oc1ccc2[nH]ccc2c1
REMARK SMILES IDX 3 1 4 2 5 3 9 4 8 5 7 6 6 7 10 8 2 9 1 11
REMARK H PARENT 6 10 1 12
REMARK Flexibility Score: inf
ROOT
ATOM      1  C   UNL     1     -11.526   9.896 -40.061  1.00  0.00     0.048 A 
ATOM      2  C   UNL     1     -10.404   9.183 -40.524  1.00  0.00     0.030 A 
ATOM      3  C   UNL     1     -10.534   7.807 -40.695  1.00  0.00     0.046 A 
ATOM      4  C   UNL     1     -11.707   7.155 -40.425  1.00  0.00     0.003 A 
ATOM      5  C   UNL     1     -11.507   5.818 -40.694  1.00  0.00     0.028 A 
ATOM      6  C   UNL     1     -10.187   5.727 -41.124  1.00  0.00     0.083 A 
ATOM      7  N   UNL     1      -9.596   6.945 -41.123  1.00  0.00    -0.361 N 
ATOM      8  C   UNL     1     -12.836   7.830 -39.967  1.00  0.00     0.056 A 
ATOM      9  C   UNL     1     -12.741   9.223 -39.782  1.00  0.00     0.116 A 
ATOM     10  H   UNL     1      -8.614   7.164 -41.398  1.00  0.00     0.166 HD
ENDROOT
BRANCH   9  11
ATOM     11  O   UNL     1     -13.851   9.929 -39.325  1.00  0.00    -0.508 OA
ATOM     12  H   UNL     1     -14.447  10.447 -39.960  1.00  0.00     0.293 HD
ENDBRANCH   9  11
TORSDOF 1
ENDMDL
MODEL 4
REMARK VINA RESULT:    -3.726     18.330     19.253
REMARK INTER + INTRA:          -3.835
REMARK INTER:                  -3.835
REMARK INTRA:                   0.000
REMARK UNBOUND:                 0.000
REMARK SMILES Oc1ccc2[nH]ccc2c1
REMARK SMILES IDX 3 1 4 2 5 3 9 4 8 5 7 6 6 7 10 8 2 9 1 11
REMARK H PARENT 6 10 1 12
REMARK Flexibility Score: inf
ROOT
ATOM      1  C   UNL     1     -15.164  -6.498 -24.798  1.00  0.00     0.048 A 
ATOM      2  C   UNL     1     -16.260  -7.341 -25.064  1.00  0.00     0.030 A 
ATOM      3  C   UNL     1     -16.684  -7.458 -26.386  1.00  0.00     0.046 A 
ATOM      4  C   UNL     1     -16.066  -6.781 -27.403  1.00  0.00     0.003 A 
ATOM      5  C   UNL     1     -16.718  -7.109 -28.572  1.00  0.00     0.028 A 
ATOM      6  C   UNL     1     -17.725  -7.991 -28.192  1.00  0.00     0.083 A 
ATOM      7  N   UNL     1     -17.700  -8.200 -26.855  1.00  0.00    -0.361 N 
ATOM      8  C   UNL     1     -14.980  -5.940 -27.175  1.00  0.00     0.056 A 
ATOM      9  C   UNL     1     -14.524  -5.797 -25.850  1.00  0.00     0.116 A 
ATOM     10  H   UNL     1     -18.341  -8.814 -26.306  1.00  0.00     0.166 HD
ENDROOT
BRANCH   9  11
ATOM     11  O   UNL     1     -13.439  -4.964 -25.586  1.00  0.00    -0.508 OA
ATOM     12  H   UNL     1     -13.537  -4.136 -25.010  1.00  0.00     0.293 HD
ENDBRANCH   9  11
TORSDOF 1
ENDMDL
MODEL 5
REMARK VINA RESULT:    -3.687      2.615      3.755
REMARK INTER + INTRA:          -3.794
REMARK INTER:                  -3.794
REMARK INTRA:                   0.000
REMARK UNBOUND:                 0.000
REMARK SMILES Oc1ccc2[nH]ccc2c1
REMARK SMILES IDX 3 1 4 2 5 3 9 4 8 5 7 6 6 7 10 8 2 9 1 11
REMARK H PARENT 6 10 1 12
REMARK Flexibility Score: inf
ROOT
ATOM      1  C   UNL     1     -13.068   7.137 -38.858  1.00  0.00     0.048 A 
ATOM      2  C   UNL     1     -12.170   8.029 -38.241  1.00  0.00     0.030 A 
ATOM      3  C   UNL     1     -11.607   9.032 -39.027  1.00  0.00     0.046 A 
ATOM      4  C   UNL     1     -11.905   9.158 -40.357  1.00  0.00     0.003 A 
ATOM      5  C   UNL     1     -11.192  10.234 -40.840  1.00  0.00     0.028 A 
ATOM      6  C   UNL     1     -10.478  10.717 -39.747  1.00  0.00     0.083 A 
ATOM      7  N   UNL     1     -10.735   9.978 -38.642  1.00  0.00    -0.361 N 
ATOM      8  C   UNL     1     -12.789   8.293 -40.998  1.00  0.00     0.056 A 
ATOM      9  C   UNL     1     -13.378   7.267 -40.235  1.00  0.00     0.116 A 
ATOM     10  H   UNL     1     -10.335  10.120 -37.688  1.00  0.00     0.166 HD
ENDROOT
BRANCH   9  11
ATOM     11  O   UNL     1     -14.267   6.385 -40.844  1.00  0.00    -0.508 OA
ATOM     12  H   UNL     1     -15.167   6.696 -41.191  1.00  0.00     0.293 HD
ENDBRANCH   9  11
TORSDOF 1
ENDMDL
MODEL 6
REMARK VINA RESULT:    -3.677      2.579      3.561
REMARK INTER + INTRA:          -3.784
REMARK INTER:                  -3.784
REMARK INTRA:                   0.000
REMARK UNBOUND:                 0.000
REMARK SMILES Oc1ccc2[nH]ccc2c1
REMARK SMILES IDX 3 1 4 2 5 3 9 4 8 5 7 6 6 7 10 8 2 9 1 11
REMARK H PARENT 6 10 1 12
REMARK Flexibility Score: inf
ROOT
ATOM      1  C   UNL     1     -12.236   9.244 -38.991  1.00  0.00     0.048 A 
ATOM      2  C   UNL     1     -11.824   9.046 -37.659  1.00  0.00     0.030 A 
ATOM      3  C   UNL     1     -12.123   7.824 -37.060  1.00  0.00     0.046 A 
ATOM      4  C   UNL     1     -12.795   6.839 -37.733  1.00  0.00     0.003 A 
ATOM      5  C   UNL     1     -12.930   5.771 -36.872  1.00  0.00     0.028 A 
ATOM      6  C   UNL     1     -12.317   6.176 -35.690  1.00  0.00     0.083 A 
ATOM      7  N   UNL     1     -11.826   7.432 -35.811  1.00  0.00    -0.361 N 
ATOM      8  C   UNL     1     -13.215   7.001 -39.050  1.00  0.00     0.056 A 
ATOM      9  C   UNL     1     -12.930   8.224 -39.687  1.00  0.00     0.116 A 
ATOM     10  H   UNL     1     -11.320   7.979 -35.079  1.00  0.00     0.166 HD
ENDROOT
BRANCH   9  11
ATOM     11  O   UNL     1     -13.336   8.420 -41.005  1.00  0.00    -0.508 OA
ATOM     12  H   UNL     1     -13.203   7.706 -41.711  1.00  0.00     0.293 HD
ENDBRANCH   9  11
TORSDOF 1
ENDMDL
MODEL 7
REMARK VINA RESULT:    -3.655      3.026      4.058
REMARK INTER + INTRA:          -3.762
REMARK INTER:                  -3.762
REMARK INTRA:                   0.000
REMARK UNBOUND:                 0.000
REMARK SMILES Oc1ccc2[nH]ccc2c1
REMARK SMILES IDX 3 1 4 2 5 3 9 4 8 5 7 6 6 7 10 8 2 9 1 11
REMARK H PARENT 6 10 1 12
REMARK Flexibility Score: inf
ROOT
ATOM      1  C   UNL     1     -12.939   7.834 -40.055  1.00  0.00     0.048 A 
ATOM      2  C   UNL     1     -11.788   7.143 -40.477  1.00  0.00     0.030 A 
ATOM      3  C   UNL     1     -10.618   7.878 -40.658  1.00  0.00     0.046 A 
ATOM      4  C   UNL     1     -10.575   9.228 -40.438  1.00  0.00     0.003 A 
ATOM      5  C   UNL     1      -9.290   9.648 -40.704  1.00  0.00     0.028 A 
ATOM      6  C   UNL     1      -8.602   8.499 -41.082  1.00  0.00     0.083 A 
ATOM      7  N   UNL     1      -9.419   7.420 -41.053  1.00  0.00    -0.361 N 
ATOM      8  C   UNL     1     -11.695   9.942 -40.020  1.00  0.00     0.056 A 
ATOM      9  C   UNL     1     -12.895   9.232 -39.827  1.00  0.00     0.116 A 
ATOM     10  H   UNL     1      -9.163   6.436 -41.290  1.00  0.00     0.166 HD
ENDROOT
BRANCH   9  11
ATOM     11  O   UNL     1     -14.035   9.915 -39.408  1.00  0.00    -0.508 OA
ATOM     12  H   UNL     1     -14.506   9.677 -38.543  1.00  0.00     0.293 HD
ENDBRANCH   9  11
TORSDOF 1
ENDMDL
MODEL 8
REMARK VINA RESULT:    -3.570      2.277      3.359
REMARK INTER + INTRA:          -3.674
REMARK INTER:                  -3.674
REMARK INTRA:                   0.000
REMARK UNBOUND:                 0.000
REMARK SMILES Oc1ccc2[nH]ccc2c1
REMARK SMILES IDX 3 1 4 2 5 3 9 4 8 5 7 6 6 7 10 8 2 9 1 11
REMARK H PARENT 6 10 1 12
REMARK Flexibility Score: inf
ROOT
ATOM      1  C   UNL     1     -13.011   8.076 -41.125  1.00  0.00     0.048 A 
ATOM      2  C   UNL     1     -13.425   6.742 -40.946  1.00  0.00     0.030 A 
ATOM      3  C   UNL     1     -13.410   6.225 -39.652  1.00  0.00     0.046 A 
ATOM      4  C   UNL     1     -13.008   6.976 -38.581  1.00  0.00     0.003 A 
ATOM      5  C   UNL     1     -13.109   6.182 -37.459  1.00  0.00     0.028 A 
ATOM      6  C   UNL     1     -13.580   4.957 -37.922  1.00  0.00     0.083 A 
ATOM      7  N   UNL     1     -13.762   4.988 -39.263  1.00  0.00    -0.361 N 
ATOM      8  C   UNL     1     -12.593   8.298 -38.723  1.00  0.00     0.056 A 
ATOM      9  C   UNL     1     -12.595   8.855 -40.016  1.00  0.00     0.116 A 
ATOM     10  H   UNL     1     -14.105   4.209 -39.866  1.00  0.00     0.166 HD
ENDROOT
BRANCH   9  11
ATOM     11  O   UNL     1     -12.186  10.174 -40.194  1.00  0.00    -0.508 OA
ATOM     12  H   UNL     1     -12.818  10.879 -40.554  1.00  0.00     0.293 HD
ENDBRANCH   9  11
TORSDOF 1
ENDMDL
MODEL 9
REMARK VINA RESULT:    -2.830      1.226      2.075
REMARK INTER + INTRA:          -2.912
REMARK INTER:                  -2.912
REMARK INTRA:                   0.000
REMARK UNBOUND:                 0.000
REMARK SMILES Oc1ccc2[nH]ccc2c1
REMARK SMILES IDX 3 1 4 2 5 3 9 4 8 5 7 6 6 7 10 8 2 9 1 11
REMARK H PARENT 6 10 1 12
REMARK Flexibility Score: inf
ROOT
ATOM      1  C   UNL     1     -13.611   6.168 -36.701  1.00  0.00     0.048 A 
ATOM      2  C   UNL     1     -14.253   5.843 -37.911  1.00  0.00     0.030 A 
ATOM      3  C   UNL     1     -13.764   6.420 -39.082  1.00  0.00     0.046 A 
ATOM      4  C   UNL     1     -12.696   7.276 -39.071  1.00  0.00     0.003 A 
ATOM      5  C   UNL     1     -12.466   7.665 -40.372  1.00  0.00     0.028 A 
ATOM      6  C   UNL     1     -13.434   7.007 -41.125  1.00  0.00     0.083 A 
ATOM      7  N   UNL     1     -14.224   6.247 -40.331  1.00  0.00    -0.361 N 
ATOM      8  C   UNL     1     -12.038   7.618 -37.892  1.00  0.00     0.056 A 
ATOM      9  C   UNL     1     -12.505   7.054 -36.689  1.00  0.00     0.116 A 
ATOM     10  H   UNL     1     -15.027   5.651 -40.634  1.00  0.00     0.166 HD
ENDROOT
BRANCH   9  11
ATOM     11  O   UNL     1     -11.870   7.374 -35.491  1.00  0.00    -0.508 OA
ATOM     12  H   UNL     1     -10.893   7.639 -35.465  1.00  0.00     0.293 HD
ENDBRANCH   9  11
TORSDOF 1
ENDMDL
