MODEL 1
REMARK VINA RESULT:    -4.290      0.000      0.000
REMARK INTER + INTRA:          -6.121
REMARK INTER:                  -5.795
REMARK INTRA:                  -0.326
REMARK UNBOUND:                -0.326
REMARK SMILES O=C[C@H](O)[C@@H](O)[C@@H](O)CO
REMARK SMILES IDX 7 1 9 2 10 3 5 5 3 6 2 7 1 8 4 9 6 11 8 13
REMARK H PARENT 10 4 4 10 6 12 8 14
REMARK Flexibility Score: inf
ROOT
ATOM      1  C   UNL     1      13.511  23.333  -7.238  1.00  0.00     0.171 C 
ENDROOT
BRANCH   1   2
ATOM      2  C   UNL     1      14.060  23.592  -8.654  1.00  0.00     0.190 C 
BRANCH   2   3
ATOM      3  O   UNL     1      13.773  22.509  -9.496  1.00  0.00    -0.394 OA
ATOM      4  H   UNL     1      14.181  21.707  -9.077  1.00  0.00     0.210 HD
ENDBRANCH   2   3
ENDBRANCH   1   2
BRANCH   1   5
ATOM      5  C   UNL     1      11.964  23.437  -7.167  1.00  0.00     0.181 C 
BRANCH   5   6
ATOM      6  C   UNL     1      11.361  24.434  -8.185  1.00  0.00     0.209 C 
BRANCH   6   7
ATOM      7  C   UNL     1      10.061  24.999  -7.674  1.00  0.00     0.258 C 
ATOM      8  O   UNL     1       9.117  24.266  -7.426  1.00  0.00    -0.300 OA
ENDBRANCH   6   7
BRANCH   6   9
ATOM      9  O   UNL     1      11.148  23.803  -9.421  1.00  0.00    -0.383 OA
ATOM     10  H   UNL     1      12.036  23.503  -9.749  1.00  0.00     0.211 HD
ENDBRANCH   6   9
ENDBRANCH   5   6
BRANCH   5  11
ATOM     11  O   UNL     1      11.405  22.164  -7.376  1.00  0.00    -0.387 OA
ATOM     12  H   UNL     1      11.882  21.535  -6.773  1.00  0.00     0.211 HD
ENDBRANCH   5  11
ENDBRANCH   1   5
BRANCH   1  13
ATOM     13  O   UNL     1      13.932  22.074  -6.777  1.00  0.00    -0.388 OA
ATOM     14  H   UNL     1      14.862  22.182  -6.446  1.00  0.00     0.211 HD
ENDBRANCH   1  13
TORSDOF 8
ENDMDL
MODEL 2
REMARK VINA RESULT:    -4.279      1.604      2.802
REMARK INTER + INTRA:          -6.106
REMARK INTER:                  -5.608
REMARK INTRA:                  -0.498
REMARK UNBOUND:                -0.326
REMARK SMILES O=C[C@H](O)[C@@H](O)[C@@H](O)CO
REMARK SMILES IDX 7 1 9 2 10 3 5 5 3 6 2 7 1 8 4 9 6 11 8 13
REMARK H PARENT 10 4 4 10 6 12 8 14
REMARK Flexibility Score: inf
ROOT
ATOM      1  C   UNL     1      13.222  23.510  -8.906  1.00  0.00     0.171 C 
ENDROOT
BRANCH   1   2
ATOM      2  C   UNL     1      14.059  24.724  -9.350  1.00  0.00     0.190 C 
BRANCH   2   3
ATOM      3  O   UNL     1      14.123  24.788 -10.749  1.00  0.00    -0.394 OA
ATOM      4  H   UNL     1      14.161  23.851 -11.076  1.00  0.00     0.210 HD
ENDBRANCH   2   3
ENDBRANCH   1   2
BRANCH   1   5
ATOM      5  C   UNL     1      13.216  23.318  -7.366  1.00  0.00     0.181 C 
BRANCH   5   6
ATOM      6  C   UNL     1      11.799  23.336  -6.743  1.00  0.00     0.209 C 
BRANCH   6   7
ATOM      7  C   UNL     1      11.872  23.573  -5.257  1.00  0.00     0.258 C 
ATOM      8  O   UNL     1      12.950  23.635  -4.687  1.00  0.00    -0.300 OA
ENDBRANCH   6   7
BRANCH   6   9
ATOM      9  O   UNL     1      11.137  22.123  -6.995  1.00  0.00    -0.383 OA
ATOM     10  H   UNL     1      10.201  22.350  -7.235  1.00  0.00     0.211 HD
ENDBRANCH   6   9
ENDBRANCH   5   6
BRANCH   5  11
ATOM     11  O   UNL     1      13.847  22.102  -7.050  1.00  0.00    -0.387 OA
ATOM     12  H   UNL     1      13.491  21.810  -6.170  1.00  0.00     0.211 HD
ENDBRANCH   5  11
ENDBRANCH   1   5
BRANCH   1  13
ATOM     13  O   UNL     1      11.905  23.626  -9.384  1.00  0.00    -0.388 OA
ATOM     14  H   UNL     1      11.786  24.567  -9.678  1.00  0.00     0.211 HD
ENDBRANCH   1  13
TORSDOF 8
ENDMDL
MODEL 3
REMARK VINA RESULT:    -4.072      1.144      4.149
REMARK INTER + INTRA:          -5.827
REMARK INTER:                  -5.339
REMARK INTRA:                  -0.489
REMARK UNBOUND:                -0.326
REMARK SMILES O=C[C@H](O)[C@@H](O)[C@@H](O)CO
REMARK SMILES IDX 7 1 9 2 10 3 5 5 3 6 2 7 1 8 4 9 6 11 8 13
REMARK H PARENT 10 4 4 10 6 12 8 14
REMARK Flexibility Score: inf
ROOT
ATOM      1  C   UNL     1       9.569  24.430  -7.823  1.00  0.00     0.171 C 
ENDROOT
BRANCH   1   2
ATOM      2  C   UNL     1       8.619  25.021  -8.883  1.00  0.00     0.190 C 
BRANCH   2   3
ATOM      3  O   UNL     1       8.015  23.995  -9.624  1.00  0.00    -0.394 OA
ATOM      4  H   UNL     1       8.105  23.165  -9.087  1.00  0.00     0.210 HD
ENDBRANCH   2   3
ENDBRANCH   1   2
BRANCH   1   5
ATOM      5  C   UNL     1      11.052  24.436  -8.278  1.00  0.00     0.181 C 
BRANCH   5   6
ATOM      6  C   UNL     1      11.975  23.557  -7.400  1.00  0.00     0.209 C 
BRANCH   6   7
ATOM      7  C   UNL     1      13.389  23.580  -7.922  1.00  0.00     0.258 C 
ATOM      8  O   UNL     1      13.716  22.884  -8.869  1.00  0.00    -0.300 OA
ENDBRANCH   6   7
BRANCH   6   9
ATOM      9  O   UNL     1      11.506  22.234  -7.368  1.00  0.00    -0.383 OA
ATOM     10  H   UNL     1      10.578  22.249  -7.720  1.00  0.00     0.211 HD
ENDBRANCH   6   9
ENDBRANCH   5   6
BRANCH   5  11
ATOM     11  O   UNL     1      11.127  24.000  -9.613  1.00  0.00    -0.387 OA
ATOM     12  H   UNL     1      10.199  23.982  -9.965  1.00  0.00     0.211 HD
ENDBRANCH   5  11
ENDBRANCH   1   5
BRANCH   1  13
ATOM     13  O   UNL     1       9.433  25.125  -6.609  1.00  0.00    -0.388 OA
ATOM     14  H   UNL     1       8.814  25.883  -6.776  1.00  0.00     0.211 HD
ENDBRANCH   1  13
TORSDOF 8
ENDMDL
MODEL 4
REMARK VINA RESULT:    -4.069      1.496      3.604
REMARK INTER + INTRA:          -5.822
REMARK INTER:                  -5.324
REMARK INTRA:                  -0.498
REMARK UNBOUND:                -0.326
REMARK SMILES O=C[C@H](O)[C@@H](O)[C@@H](O)CO
REMARK SMILES IDX 7 1 9 2 10 3 5 5 3 6 2 7 1 8 4 9 6 11 8 13
REMARK H PARENT 10 4 4 10 6 12 8 14
REMARK Flexibility Score: inf
ROOT
ATOM      1  C   UNL     1      11.131  23.438  -7.145  1.00  0.00     0.171 C 
ENDROOT
BRANCH   1   2
ATOM      2  C   UNL     1      11.510  24.040  -5.779  1.00  0.00     0.190 C 
BRANCH   2   3
ATOM      3  O   UNL     1      10.888  23.330  -4.742  1.00  0.00    -0.394 OA
ATOM      4  H   UNL     1      10.350  23.988  -4.230  1.00  0.00     0.210 HD
ENDBRANCH   2   3
ENDBRANCH   1   2
BRANCH   1   5
ATOM      5  C   UNL     1      11.859  24.130  -8.328  1.00  0.00     0.181 C 
BRANCH   5   6
ATOM      6  C   UNL     1      13.365  23.784  -8.418  1.00  0.00     0.209 C 
BRANCH   6   7
ATOM      7  C   UNL     1      14.112  24.847  -9.181  1.00  0.00     0.258 C 
ATOM      8  O   UNL     1      13.814  25.115 -10.334  1.00  0.00    -0.300 OA
ENDBRANCH   6   7
BRANCH   6   9
ATOM      9  O   UNL     1      13.545  22.540  -9.044  1.00  0.00    -0.383 OA
ATOM     10  H   UNL     1      13.363  21.844  -8.359  1.00  0.00     0.211 HD
ENDBRANCH   6   9
ENDBRANCH   5   6
BRANCH   5  11
ATOM     11  O   UNL     1      11.227  23.773  -9.532  1.00  0.00    -0.387 OA
ATOM     12  H   UNL     1      10.289  24.094  -9.474  1.00  0.00     0.211 HD
ENDBRANCH   5  11
ENDBRANCH   1   5
BRANCH   1  13
ATOM     13  O   UNL     1      11.393  22.057  -7.157  1.00  0.00    -0.388 OA
ATOM     14  H   UNL     1      10.647  21.625  -7.650  1.00  0.00     0.211 HD
ENDBRANCH   1  13
TORSDOF 8
ENDMDL
MODEL 5
REMARK VINA RESULT:    -3.879      0.883      3.931
REMARK INTER + INTRA:          -5.565
REMARK INTER:                  -5.295
REMARK INTRA:                  -0.270
REMARK UNBOUND:                -0.326
REMARK SMILES O=C[C@H](O)[C@@H](O)[C@@H](O)CO
REMARK SMILES IDX 7 1 9 2 10 3 5 5 3 6 2 7 1 8 4 9 6 11 8 13
REMARK H PARENT 10 4 4 10 6 12 8 14
REMARK Flexibility Score: inf
ROOT
ATOM      1  C   UNL     1      11.081  24.388  -8.024  1.00  0.00     0.171 C 
ENDROOT
BRANCH   1   2
ATOM      2  C   UNL     1       9.980  24.491  -6.951  1.00  0.00     0.190 C 
BRANCH   2   3
ATOM      3  O   UNL     1       8.956  23.570  -7.211  1.00  0.00    -0.394 OA
ATOM      4  H   UNL     1       8.192  24.089  -7.576  1.00  0.00     0.210 HD
ENDBRANCH   2   3
ENDBRANCH   1   2
BRANCH   1   5
ATOM      5  C   UNL     1      11.874  23.057  -7.942  1.00  0.00     0.181 C 
BRANCH   5   6
ATOM      6  C   UNL     1      13.390  23.249  -7.694  1.00  0.00     0.209 C 
BRANCH   6   7
ATOM      7  C   UNL     1      14.125  23.432  -8.997  1.00  0.00     0.258 C 
ATOM      8  O   UNL     1      14.051  24.483  -9.613  1.00  0.00    -0.300 OA
ENDBRANCH   6   7
BRANCH   6   9
ATOM      9  O   UNL     1      13.917  22.146  -7.005  1.00  0.00    -0.383 OA
ATOM     10  H   UNL     1      14.738  22.460  -6.542  1.00  0.00     0.211 HD
ENDBRANCH   6   9
ENDBRANCH   5   6
BRANCH   5  11
ATOM     11  O   UNL     1      11.333  22.259  -6.918  1.00  0.00    -0.387 OA
ATOM     12  H   UNL     1      12.017  22.206  -6.199  1.00  0.00     0.211 HD
ENDBRANCH   5  11
ENDBRANCH   1   5
BRANCH   1  13
ATOM     13  O   UNL     1      10.526  24.542  -9.306  1.00  0.00    -0.388 OA
ATOM     14  H   UNL     1       9.964  25.360  -9.281  1.00  0.00     0.211 HD
ENDBRANCH   1  13
TORSDOF 8
ENDMDL
MODEL 6
REMARK VINA RESULT:    -3.864      1.874      3.657
REMARK INTER + INTRA:          -5.545
REMARK INTER:                  -4.993
REMARK INTRA:                  -0.552
REMARK UNBOUND:                -0.326
REMARK SMILES O=C[C@H](O)[C@@H](O)[C@@H](O)CO
REMARK SMILES IDX 7 1 9 2 10 3 5 5 3 6 2 7 1 8 4 9 6 11 8 13
REMARK H PARENT 10 4 4 10 6 12 8 14
REMARK Flexibility Score: inf
ROOT
ATOM      1  C   UNL     1      10.891  24.867  -8.619  1.00  0.00     0.171 C 
ENDROOT
BRANCH   1   2
ATOM      2  C   UNL     1       9.367  25.037  -8.472  1.00  0.00     0.190 C 
BRANCH   2   3
ATOM      3  O   UNL     1       8.693  24.225  -9.395  1.00  0.00    -0.394 OA
ATOM      4  H   UNL     1       8.876  23.285  -9.134  1.00  0.00     0.210 HD
ENDBRANCH   2   3
ENDBRANCH   1   2
BRANCH   1   5
ATOM      5  C   UNL     1      11.591  24.547  -7.272  1.00  0.00     0.181 C 
BRANCH   5   6
ATOM      6  C   UNL     1      10.928  23.391  -6.486  1.00  0.00     0.209 C 
BRANCH   6   7
ATOM      7  C   UNL     1      11.407  23.372  -5.058  1.00  0.00     0.258 C 
ATOM      8  O   UNL     1      12.590  23.512  -4.794  1.00  0.00    -0.300 OA
ENDBRANCH   6   7
BRANCH   6   9
ATOM      9  O   UNL     1      11.212  22.158  -7.095  1.00  0.00    -0.383 OA
ATOM     10  H   UNL     1      10.440  21.561  -6.913  1.00  0.00     0.211 HD
ENDBRANCH   6   9
ENDBRANCH   5   6
BRANCH   5  11
ATOM     11  O   UNL     1      12.939  24.230  -7.516  1.00  0.00    -0.387 OA
ATOM     12  H   UNL     1      13.327  24.986  -8.031  1.00  0.00     0.211 HD
ENDBRANCH   5  11
ENDBRANCH   1   5
BRANCH   1  13
ATOM     13  O   UNL     1      11.179  23.867  -9.564  1.00  0.00    -0.388 OA
ATOM     14  H   UNL     1      10.501  23.152  -9.444  1.00  0.00     0.211 HD
ENDBRANCH   1  13
TORSDOF 8
ENDMDL
MODEL 7
REMARK VINA RESULT:    -3.775     16.149     16.831
REMARK INTER + INTRA:          -5.426
REMARK INTER:                  -4.582
REMARK INTRA:                  -0.844
REMARK UNBOUND:                -0.326
REMARK SMILES O=C[C@H](O)[C@@H](O)[C@@H](O)CO
REMARK SMILES IDX 7 1 9 2 10 3 5 5 3 6 2 7 1 8 4 9 6 11 8 13
REMARK H PARENT 10 4 4 10 6 12 8 14
REMARK Flexibility Score: inf
ROOT
ATOM      1  C   UNL     1       8.412   7.852 -13.479  1.00  0.00     0.171 C 
ENDROOT
BRANCH   1   2
ATOM      2  C   UNL     1       8.795   6.678 -14.400  1.00  0.00     0.190 C 
BRANCH   2   3
ATOM      3  O   UNL     1      10.074   6.203 -14.080  1.00  0.00    -0.394 OA
ATOM      4  H   UNL     1       9.950   5.311 -13.661  1.00  0.00     0.210 HD
ENDBRANCH   2   3
ENDBRANCH   1   2
BRANCH   1   5
ATOM      5  C   UNL     1       8.901   9.221 -14.018  1.00  0.00     0.181 C 
BRANCH   5   6
ATOM      6  C   UNL     1      10.324   9.604 -13.544  1.00  0.00     0.209 C 
BRANCH   6   7
ATOM      7  C   UNL     1      11.305   9.535 -14.685  1.00  0.00     0.258 C 
ATOM      8  O   UNL     1      11.634   8.460 -15.161  1.00  0.00    -0.300 OA
ENDBRANCH   6   7
BRANCH   6   9
ATOM      9  O   UNL     1      10.741   8.751 -12.510  1.00  0.00    -0.383 OA
ATOM     10  H   UNL     1       9.932   8.279 -12.181  1.00  0.00     0.211 HD
ENDBRANCH   6   9
ENDBRANCH   5   6
BRANCH   5  11
ATOM     11  O   UNL     1       8.870   9.202 -15.424  1.00  0.00    -0.387 OA
ATOM     12  H   UNL     1       8.881  10.148 -15.728  1.00  0.00     0.211 HD
ENDBRANCH   5  11
ENDBRANCH   1   5
BRANCH   1  13
ATOM     13  O   UNL     1       7.020   7.879 -13.281  1.00  0.00    -0.388 OA
ATOM     14  H   UNL     1       6.600   7.909 -14.180  1.00  0.00     0.211 HD
ENDBRANCH   1  13
TORSDOF 8
ENDMDL
MODEL 8
REMARK VINA RESULT:    -3.669      1.670      3.302
REMARK INTER + INTRA:          -5.282
REMARK INTER:                  -4.327
REMARK INTRA:                  -0.955
REMARK UNBOUND:                -0.326
REMARK SMILES O=C[C@H](O)[C@@H](O)[C@@H](O)CO
REMARK SMILES IDX 7 1 9 2 10 3 5 5 3 6 2 7 1 8 4 9 6 11 8 13
REMARK H PARENT 10 4 4 10 6 12 8 14
REMARK Flexibility Score: inf
ROOT
ATOM      1  C   UNL     1      11.029  23.232  -6.837  1.00  0.00     0.171 C 
ENDROOT
BRANCH   1   2
ATOM      2  C   UNL     1      10.013  24.286  -7.317  1.00  0.00     0.190 C 
BRANCH   2   3
ATOM      3  O   UNL     1      10.051  24.402  -8.714  1.00  0.00    -0.394 OA
ATOM      4  H   UNL     1       9.552  25.229  -8.945  1.00  0.00     0.210 HD
ENDBRANCH   2   3
ENDBRANCH   1   2
BRANCH   1   5
ATOM      5  C   UNL     1      12.496  23.722  -6.946  1.00  0.00     0.181 C 
BRANCH   5   6
ATOM      6  C   UNL     1      13.202  23.287  -8.253  1.00  0.00     0.209 C 
BRANCH   6   7
ATOM      7  C   UNL     1      13.650  24.490  -9.043  1.00  0.00     0.258 C 
ATOM      8  O   UNL     1      12.856  25.125  -9.718  1.00  0.00    -0.300 OA
ENDBRANCH   6   7
BRANCH   6   9
ATOM      9  O   UNL     1      12.342  22.502  -9.036  1.00  0.00    -0.383 OA
ATOM     10  H   UNL     1      12.752  21.600  -9.099  1.00  0.00     0.211 HD
ENDBRANCH   6   9
ENDBRANCH   5   6
BRANCH   5  11
ATOM     11  O   UNL     1      12.524  25.124  -6.847  1.00  0.00    -0.387 OA
ATOM     12  H   UNL     1      12.996  25.463  -7.652  1.00  0.00     0.211 HD
ENDBRANCH   5  11
ENDBRANCH   1   5
BRANCH   1  13
ATOM     13  O   UNL     1      10.743  22.849  -5.515  1.00  0.00    -0.388 OA
ATOM     14  H   UNL     1      10.434  23.663  -5.038  1.00  0.00     0.211 HD
ENDBRANCH   1  13
TORSDOF 8
ENDMDL
MODEL 9
REMARK VINA RESULT:    -3.649     16.875     17.556
REMARK INTER + INTRA:          -5.254
REMARK INTER:                  -4.274
REMARK INTRA:                  -0.981
REMARK UNBOUND:                -0.326
REMARK SMILES O=C[C@H](O)[C@@H](O)[C@@H](O)CO
REMARK SMILES IDX 7 1 9 2 10 3 5 5 3 6 2 7 1 8 4 9 6 11 8 13
REMARK H PARENT 10 4 4 10 6 12 8 14
REMARK Flexibility Score: inf
ROOT
ATOM      1  C   UNL     1       8.047   8.085 -13.913  1.00  0.00     0.171 C 
ENDROOT
BRANCH   1   2
ATOM      2  C   UNL     1       8.619   9.507 -13.750  1.00  0.00     0.190 C 
BRANCH   2   3
ATOM      3  O   UNL     1       9.607   9.750 -14.714  1.00  0.00    -0.394 OA
ATOM      4  H   UNL     1       9.353  10.590 -15.177  1.00  0.00     0.210 HD
ENDBRANCH   2   3
ENDBRANCH   1   2
BRANCH   1   5
ATOM      5  C   UNL     1       9.127   6.983 -13.750  1.00  0.00     0.181 C 
BRANCH   5   6
ATOM      6  C   UNL     1       9.618   6.389 -15.093  1.00  0.00     0.209 C 
BRANCH   6   7
ATOM      7  C   UNL     1      11.104   6.581 -15.251  1.00  0.00     0.258 C 
ATOM      8  O   UNL     1      11.562   7.663 -15.580  1.00  0.00    -0.300 OA
ENDBRANCH   6   7
BRANCH   6   9
ATOM      9  O   UNL     1       8.947   6.992 -16.169  1.00  0.00    -0.383 OA
ATOM     10  H   UNL     1       9.458   7.810 -16.406  1.00  0.00     0.211 HD
ENDBRANCH   6   9
ENDBRANCH   5   6
BRANCH   5  11
ATOM     11  O   UNL     1      10.224   7.512 -13.048  1.00  0.00    -0.387 OA
ATOM     12  H   UNL     1      10.085   7.300 -12.088  1.00  0.00     0.211 HD
ENDBRANCH   5  11
ENDBRANCH   1   5
BRANCH   1  13
ATOM     13  O   UNL     1       7.000   7.875 -13.000  1.00  0.00    -0.388 OA
ATOM     14  H   UNL     1       7.241   8.358 -12.166  1.00  0.00     0.211 HD
ENDBRANCH   1  13
TORSDOF 8
ENDMDL
