MODEL 1
REMARK VINA RESULT:    -5.219      0.000      0.000
REMARK INTER + INTRA:          -5.825
REMARK INTER:                  -5.676
REMARK INTRA:                  -0.148
REMARK UNBOUND:                -0.148
REMARK SMILES Cc1ccc(C(C)C)c(O)c1
REMARK SMILES IDX 1 1 2 2 11 3 9 4 5 5 4 6 3 7 10 8 6 10 7 11 8 12
REMARK H PARENT 10 9
REMARK Flexibility Score: inf
ROOT
ATOM      1  C   UNL     1       6.258   3.397   0.864  1.00  0.00     0.044 C 
ATOM      2  C   UNL     1       6.488   4.308  -0.305  1.00  0.00    -0.047 A 
ATOM      3  C   UNL     1       6.540   3.789  -1.605  1.00  0.00     0.049 A 
ATOM      4  C   UNL     1       6.791   4.627  -2.701  1.00  0.00     0.119 A 
ATOM      5  C   UNL     1       7.007   6.012  -2.499  1.00  0.00    -0.004 A 
ATOM      6  C   UNL     1       6.971   6.516  -1.186  1.00  0.00     0.008 A 
ATOM      7  C   UNL     1       6.720   5.673  -0.101  1.00  0.00     0.004 A 
ENDROOT
BRANCH   4   8
ATOM      8  O   UNL     1       6.828   4.081  -3.984  1.00  0.00    -0.508 OA
ATOM      9  H   UNL     1       6.675   4.648  -4.810  1.00  0.00     0.293 HD
ENDBRANCH   4   8
BRANCH   5  10
ATOM     10  C   UNL     1       7.283   6.972  -3.648  1.00  0.00     0.017 C 
ATOM     11  C   UNL     1       6.912   8.415  -3.287  1.00  0.00     0.012 C 
ATOM     12  C   UNL     1       8.731   6.869  -4.143  1.00  0.00     0.012 C 
ENDBRANCH   5  10
TORSDOF 2
ENDMDL
MODEL 2
REMARK VINA RESULT:    -5.101      5.540      7.663
REMARK INTER + INTRA:          -5.697
REMARK INTER:                  -5.909
REMARK INTRA:                   0.212
REMARK UNBOUND:                -0.148
REMARK SMILES Cc1ccc(C(C)C)c(O)c1
REMARK SMILES IDX 1 1 2 2 11 3 9 4 5 5 4 6 3 7 10 8 6 10 7 11 8 12
REMARK H PARENT 10 9
REMARK Flexibility Score: inf
ROOT
ATOM      1  C   UNL     1       9.501   6.709  -5.803  1.00  0.00     0.044 C 
ATOM      2  C   UNL     1       9.271   5.951  -7.077  1.00  0.00    -0.047 A 
ATOM      3  C   UNL     1       8.890   4.603  -7.038  1.00  0.00     0.049 A 
ATOM      4  C   UNL     1       8.709   3.877  -8.223  1.00  0.00     0.119 A 
ATOM      5  C   UNL     1       8.922   4.500  -9.476  1.00  0.00    -0.004 A 
ATOM      6  C   UNL     1       9.322   5.849  -9.500  1.00  0.00     0.008 A 
ATOM      7  C   UNL     1       9.500   6.564  -8.314  1.00  0.00     0.004 A 
ENDROOT
BRANCH   4   8
ATOM      8  O   UNL     1       8.320   2.539  -8.151  1.00  0.00    -0.508 OA
ATOM      9  H   UNL     1       7.930   2.142  -7.304  1.00  0.00     0.293 HD
ENDBRANCH   4   8
BRANCH   5  10
ATOM     10  C   UNL     1       8.739   3.764 -10.797  1.00  0.00     0.017 C 
ATOM     11  C   UNL     1       9.700   2.575 -10.923  1.00  0.00     0.012 C 
ATOM     12  C   UNL     1       7.283   3.338 -11.016  1.00  0.00     0.012 C 
ENDBRANCH   5  10
TORSDOF 2
ENDMDL
MODEL 3
REMARK VINA RESULT:    -4.953      4.745      7.134
REMARK INTER + INTRA:          -5.535
REMARK INTER:                  -5.346
REMARK INTRA:                  -0.189
REMARK UNBOUND:                -0.148
REMARK SMILES Cc1ccc(C(C)C)c(O)c1
REMARK SMILES IDX 1 1 2 2 11 3 9 4 5 5 4 6 3 7 10 8 6 10 7 11 8 12
REMARK H PARENT 10 9
REMARK Flexibility Score: inf
ROOT
ATOM      1  C   UNL     1       9.074   3.289 -10.627  1.00  0.00     0.044 C 
ATOM      2  C   UNL     1       9.064   4.229  -9.458  1.00  0.00    -0.047 A 
ATOM      3  C   UNL     1       9.359   5.586  -9.642  1.00  0.00     0.049 A 
ATOM      4  C   UNL     1       9.388   6.466  -8.549  1.00  0.00     0.119 A 
ATOM      5  C   UNL     1       9.131   5.983  -7.244  1.00  0.00    -0.004 A 
ATOM      6  C   UNL     1       8.855   4.614  -7.072  1.00  0.00     0.008 A 
ATOM      7  C   UNL     1       8.828   3.746  -8.166  1.00  0.00     0.004 A 
ENDROOT
BRANCH   4   8
ATOM      8  O   UNL     1       9.676   7.813  -8.766  1.00  0.00    -0.508 OA
ATOM      9  H   UNL     1      10.459   8.106  -9.338  1.00  0.00     0.293 HD
ENDBRANCH   4   8
BRANCH   5  10
ATOM     10  C   UNL     1       9.147   6.889  -6.020  1.00  0.00     0.017 C 
ATOM     11  C   UNL     1       8.152   6.421  -4.951  1.00  0.00     0.012 C 
ATOM     12  C   UNL     1      10.560   7.045  -5.445  1.00  0.00     0.012 C 
ENDBRANCH   5  10
TORSDOF 2
ENDMDL
MODEL 4
REMARK VINA RESULT:    -4.813      1.281      1.721
REMARK INTER + INTRA:          -5.384
REMARK INTER:                  -5.192
REMARK INTRA:                  -0.191
REMARK UNBOUND:                -0.148
REMARK SMILES Cc1ccc(C(C)C)c(O)c1
REMARK SMILES IDX 1 1 2 2 11 3 9 4 5 5 4 6 3 7 10 8 6 10 7 11 8 12
REMARK H PARENT 10 9
REMARK Flexibility Score: inf
ROOT
ATOM      1  C   UNL     1       6.262   4.066  -0.312  1.00  0.00     0.044 C 
ATOM      2  C   UNL     1       6.570   5.261  -1.165  1.00  0.00    -0.047 A 
ATOM      3  C   UNL     1       7.027   5.092  -2.478  1.00  0.00     0.049 A 
ATOM      4  C   UNL     1       7.353   6.202  -3.271  1.00  0.00     0.119 A 
ATOM      5  C   UNL     1       7.233   7.510  -2.743  1.00  0.00    -0.004 A 
ATOM      6  C   UNL     1       6.791   7.664  -1.416  1.00  0.00     0.008 A 
ATOM      7  C   UNL     1       6.469   6.552  -0.634  1.00  0.00     0.004 A 
ENDROOT
BRANCH   4   8
ATOM      8  O   UNL     1       7.797   6.000  -4.578  1.00  0.00    -0.508 OA
ATOM      9  H   UNL     1       8.746   6.215  -4.858  1.00  0.00     0.293 HD
ENDBRANCH   4   8
BRANCH   5  10
ATOM     10  C   UNL     1       7.571   8.753  -3.555  1.00  0.00     0.017 C 
ATOM     11  C   UNL     1       6.372   9.701  -3.670  1.00  0.00     0.012 C 
ATOM     12  C   UNL     1       8.809   9.473  -3.007  1.00  0.00     0.012 C 
ENDBRANCH   5  10
TORSDOF 2
ENDMDL
MODEL 5
REMARK VINA RESULT:    -4.789      1.629      2.196
REMARK INTER + INTRA:          -5.357
REMARK INTER:                  -5.672
REMARK INTRA:                   0.315
REMARK UNBOUND:                -0.148
REMARK SMILES Cc1ccc(C(C)C)c(O)c1
REMARK SMILES IDX 1 1 2 2 11 3 9 4 5 5 4 6 3 7 10 8 6 10 7 11 8 12
REMARK H PARENT 10 9
REMARK Flexibility Score: inf
ROOT
ATOM      1  C   UNL     1       6.256   3.423   0.740  1.00  0.00     0.044 C 
ATOM      2  C   UNL     1       6.597   4.363  -0.378  1.00  0.00    -0.047 A 
ATOM      3  C   UNL     1       6.679   5.742  -0.141  1.00  0.00     0.049 A 
ATOM      4  C   UNL     1       6.962   6.632  -1.187  1.00  0.00     0.119 A 
ATOM      5  C   UNL     1       7.156   6.142  -2.501  1.00  0.00    -0.004 A 
ATOM      6  C   UNL     1       7.053   4.757  -2.728  1.00  0.00     0.008 A 
ATOM      7  C   UNL     1       6.771   3.879  -1.680  1.00  0.00     0.004 A 
ENDROOT
BRANCH   4   8
ATOM      8  O   UNL     1       7.045   7.998  -0.917  1.00  0.00    -0.508 OA
ATOM      9  H   UNL     1       6.361   8.469  -0.337  1.00  0.00     0.293 HD
ENDBRANCH   4   8
BRANCH   5  10
ATOM     10  C   UNL     1       7.467   7.059  -3.677  1.00  0.00     0.017 C 
ATOM     11  C   UNL     1       8.550   8.087  -3.327  1.00  0.00     0.012 C 
ATOM     12  C   UNL     1       7.829   6.266  -4.939  1.00  0.00     0.012 C 
ENDBRANCH   5  10
TORSDOF 2
ENDMDL
MODEL 6
REMARK VINA RESULT:    -4.712      1.672      2.459
REMARK INTER + INTRA:          -5.274
REMARK INTER:                  -5.268
REMARK INTRA:                  -0.006
REMARK UNBOUND:                -0.148
REMARK SMILES Cc1ccc(C(C)C)c(O)c1
REMARK SMILES IDX 1 1 2 2 11 3 9 4 5 5 4 6 3 7 10 8 6 10 7 11 8 12
REMARK H PARENT 10 9
REMARK Flexibility Score: inf
ROOT
ATOM      1  C   UNL     1       6.026   3.421   0.276  1.00  0.00     0.044 C 
ATOM      2  C   UNL     1       6.493   4.478  -0.681  1.00  0.00    -0.047 A 
ATOM      3  C   UNL     1       6.653   5.801  -0.247  1.00  0.00     0.049 A 
ATOM      4  C   UNL     1       7.054   6.804  -1.143  1.00  0.00     0.119 A 
ATOM      5  C   UNL     1       7.291   6.486  -2.502  1.00  0.00    -0.004 A 
ATOM      6  C   UNL     1       7.108   5.157  -2.927  1.00  0.00     0.008 A 
ATOM      7  C   UNL     1       6.708   4.166  -2.028  1.00  0.00     0.004 A 
ENDROOT
BRANCH   4   8
ATOM      8  O   UNL     1       7.214   8.109  -0.678  1.00  0.00    -0.508 OA
ATOM      9  H   UNL     1       7.013   8.911  -1.264  1.00  0.00     0.293 HD
ENDBRANCH   4   8
BRANCH   5  10
ATOM     10  C   UNL     1       7.728   7.530  -3.520  1.00  0.00     0.017 C 
ATOM     11  C   UNL     1       8.165   6.888  -4.843  1.00  0.00     0.012 C 
ATOM     12  C   UNL     1       6.651   8.599  -3.741  1.00  0.00     0.012 C 
ENDBRANCH   5  10
TORSDOF 2
ENDMDL
MODEL 7
REMARK VINA RESULT:    -4.390      5.926      7.159
REMARK INTER + INTRA:          -4.923
REMARK INTER:                  -4.727
REMARK INTRA:                  -0.196
REMARK UNBOUND:                -0.148
REMARK SMILES Cc1ccc(C(C)C)c(O)c1
REMARK SMILES IDX 1 1 2 2 11 3 9 4 5 5 4 6 3 7 10 8 6 10 7 11 8 12
REMARK H PARENT 10 9
REMARK Flexibility Score: inf
ROOT
ATOM      1  C   UNL     1       8.564   2.261  -9.040  1.00  0.00     0.044 C 
ATOM      2  C   UNL     1       8.856   3.703  -8.749  1.00  0.00    -0.047 A 
ATOM      3  C   UNL     1       8.820   4.178  -7.432  1.00  0.00     0.049 A 
ATOM      4  C   UNL     1       9.056   5.532  -7.153  1.00  0.00     0.119 A 
ATOM      5  C   UNL     1       9.321   6.437  -8.209  1.00  0.00    -0.004 A 
ATOM      6  C   UNL     1       9.335   5.949  -9.529  1.00  0.00     0.008 A 
ATOM      7  C   UNL     1       9.099   4.599  -9.796  1.00  0.00     0.004 A 
ENDROOT
BRANCH   4   8
ATOM      8  O   UNL     1       9.023   5.972  -5.830  1.00  0.00    -0.508 OA
ATOM      9  H   UNL     1       8.607   5.415  -5.093  1.00  0.00     0.293 HD
ENDBRANCH   4   8
BRANCH   5  10
ATOM     10  C   UNL     1       9.585   7.918  -7.969  1.00  0.00     0.017 C 
ATOM     11  C   UNL     1      11.079   8.205  -7.775  1.00  0.00     0.012 C 
ATOM     12  C   UNL     1       8.982   8.792  -9.075  1.00  0.00     0.012 C 
ENDBRANCH   5  10
TORSDOF 2
ENDMDL
MODEL 8
REMARK VINA RESULT:    -4.295      4.038      6.992
REMARK INTER + INTRA:          -4.820
REMARK INTER:                  -4.636
REMARK INTRA:                  -0.184
REMARK UNBOUND:                -0.148
REMARK SMILES Cc1ccc(C(C)C)c(O)c1
REMARK SMILES IDX 1 1 2 2 11 3 9 4 5 5 4 6 3 7 10 8 6 10 7 11 8 12
REMARK H PARENT 10 9
REMARK Flexibility Score: inf
ROOT
ATOM      1  C   UNL     1       9.470   6.373 -11.069  1.00  0.00     0.044 C 
ATOM      2  C   UNL     1       9.381   6.291  -9.574  1.00  0.00    -0.047 A 
ATOM      3  C   UNL     1       9.004   5.093  -8.953  1.00  0.00     0.049 A 
ATOM      4  C   UNL     1       8.883   5.017  -7.558  1.00  0.00     0.119 A 
ATOM      5  C   UNL     1       9.130   6.162  -6.763  1.00  0.00    -0.004 A 
ATOM      6  C   UNL     1       9.489   7.363  -7.401  1.00  0.00     0.008 A 
ATOM      7  C   UNL     1       9.608   7.429  -8.791  1.00  0.00     0.004 A 
ENDROOT
BRANCH   4   8
ATOM      8  O   UNL     1       8.515   3.807  -6.970  1.00  0.00    -0.508 OA
ATOM      9  H   UNL     1       8.803   2.917  -7.358  1.00  0.00     0.293 HD
ENDBRANCH   4   8
BRANCH   5  10
ATOM     10  C   UNL     1       9.015   6.141  -5.244  1.00  0.00     0.017 C 
ATOM     11  C   UNL     1       9.975   7.140  -4.587  1.00  0.00     0.012 C 
ATOM     12  C   UNL     1       7.570   6.357  -4.778  1.00  0.00     0.012 C 
ENDBRANCH   5  10
TORSDOF 2
ENDMDL
MODEL 9
REMARK VINA RESULT:    -4.072      1.990      4.756
REMARK INTER + INTRA:          -4.577
REMARK INTER:                  -4.540
REMARK INTRA:                  -0.037
REMARK UNBOUND:                -0.148
REMARK SMILES Cc1ccc(C(C)C)c(O)c1
REMARK SMILES IDX 1 1 2 2 11 3 9 4 5 5 4 6 3 7 10 8 6 10 7 11 8 12
REMARK H PARENT 10 9
REMARK Flexibility Score: inf
ROOT
ATOM      1  C   UNL     1       9.098   9.476  -4.505  1.00  0.00     0.044 C 
ATOM      2  C   UNL     1       8.363   8.400  -3.762  1.00  0.00    -0.047 A 
ATOM      3  C   UNL     1       7.660   8.706  -2.589  1.00  0.00     0.049 A 
ATOM      4  C   UNL     1       7.000   7.700  -1.868  1.00  0.00     0.119 A 
ATOM      5  C   UNL     1       7.049   6.358  -2.317  1.00  0.00    -0.004 A 
ATOM      6  C   UNL     1       7.774   6.063  -3.486  1.00  0.00     0.008 A 
ATOM      7  C   UNL     1       8.428   7.072  -4.197  1.00  0.00     0.004 A 
ENDROOT
BRANCH   4   8
ATOM      8  O   UNL     1       6.301   8.039  -0.710  1.00  0.00    -0.508 OA
ATOM      9  H   UNL     1       5.390   7.646  -0.502  1.00  0.00     0.293 HD
ENDBRANCH   4   8
BRANCH   5  10
ATOM     10  C   UNL     1       6.352   5.224  -1.577  1.00  0.00     0.017 C 
ATOM     11  C   UNL     1       6.296   3.945  -2.421  1.00  0.00     0.012 C 
ATOM     12  C   UNL     1       6.982   4.966  -0.203  1.00  0.00     0.012 C 
ENDBRANCH   5  10
TORSDOF 2
ENDMDL
