MODEL 1
REMARK VINA RESULT:    -2.321      0.000      0.000
REMARK INTER + INTRA:          -2.762
REMARK INTER:                  -2.456
REMARK INTRA:                  -0.306
REMARK UNBOUND:                -0.306
REMARK SMILES C=C1CC[C@@]2(C(C)C)C[C@@H]12
REMARK SMILES IDX 5 1 4 2 3 3 2 4 1 5 10 6 9 7 6 8 7 9 8 10
REMARK H PARENT
REMARK Flexibility Score: inf
ROOT
ATOM      1  C   UNL     1     167.675 175.115 139.839  1.00  0.00    -0.020 C 
ATOM      2  C   UNL     1     167.731 173.697 140.437  1.00  0.00     0.012 C 
ATOM      3  C   UNL     1     168.065 172.736 139.295  1.00  0.00     0.031 C 
ATOM      4  C   UNL     1     168.279 173.609 138.105  1.00  0.00    -0.074 C 
ATOM      5  C   UNL     1     168.647 173.139 136.910  1.00  0.00     0.008 C 
ATOM      6  C   UNL     1     168.055 175.054 138.369  1.00  0.00     0.021 C 
ATOM      7  C   UNL     1     169.001 175.708 139.370  1.00  0.00     0.016 C 
ENDROOT
BRANCH   1   8
ATOM      8  C   UNL     1     166.558 176.115 140.224  1.00  0.00    -0.011 C 
ATOM      9  C   UNL     1     165.426 176.125 139.187  1.00  0.00     0.008 C 
ATOM     10  C   UNL     1     166.012 175.792 141.618  1.00  0.00     0.008 C 
ENDBRANCH   1   8
TORSDOF 1
ENDMDL
MODEL 2
REMARK VINA RESULT:    -2.315     16.022     18.018
REMARK INTER + INTRA:          -2.756
REMARK INTER:                  -2.445
REMARK INTRA:                  -0.311
REMARK UNBOUND:                -0.306
REMARK SMILES C=C1CC[C@@]2(C(C)C)C[C@@H]12
REMARK SMILES IDX 5 1 4 2 3 3 2 4 1 5 10 6 9 7 6 8 7 9 8 10
REMARK H PARENT
REMARK Flexibility Score: inf
ROOT
ATOM      1  C   UNL     1     164.388 156.863 139.840  1.00  0.00    -0.020 C 
ATOM      2  C   UNL     1     164.335 158.295 140.404  1.00  0.00     0.012 C 
ATOM      3  C   UNL     1     163.985 159.226 139.242  1.00  0.00     0.031 C 
ATOM      4  C   UNL     1     163.758 158.324 138.077  1.00  0.00    -0.074 C 
ATOM      5  C   UNL     1     163.374 158.763 136.875  1.00  0.00     0.008 C 
ATOM      6  C   UNL     1     163.989 156.886 138.374  1.00  0.00     0.021 C 
ATOM      7  C   UNL     1     163.058 156.255 139.403  1.00  0.00     0.016 C 
ENDROOT
BRANCH   1   8
ATOM      8  C   UNL     1     165.512 155.875 140.236  1.00  0.00    -0.011 C 
ATOM      9  C   UNL     1     166.675 155.912 139.236  1.00  0.00     0.008 C 
ATOM     10  C   UNL     1     166.007 156.173 141.654  1.00  0.00     0.008 C 
ENDBRANCH   1   8
TORSDOF 1
ENDMDL
MODEL 3
REMARK VINA RESULT:    -2.158     16.577     18.182
REMARK INTER + INTRA:          -2.590
REMARK INTER:                  -2.283
REMARK INTRA:                  -0.307
REMARK UNBOUND:                -0.306
REMARK SMILES C=C1CC[C@@]2(C(C)C)C[C@@H]12
REMARK SMILES IDX 5 1 4 2 3 3 2 4 1 5 10 6 9 7 6 8 7 9 8 10
REMARK H PARENT
REMARK Flexibility Score: inf
ROOT
ATOM      1  C   UNL     1     165.382 156.930 139.302  1.00  0.00    -0.020 C 
ATOM      2  C   UNL     1     165.827 158.352 139.691  1.00  0.00     0.012 C 
ATOM      3  C   UNL     1     166.274 158.302 141.153  1.00  0.00     0.031 C 
ATOM      4  C   UNL     1     166.166 156.867 141.542  1.00  0.00    -0.074 C 
ATOM      5  C   UNL     1     166.525 156.406 142.744  1.00  0.00     0.008 C 
ATOM      6  C   UNL     1     165.630 155.989 140.469  1.00  0.00     0.021 C 
ATOM      7  C   UNL     1     166.481 155.875 139.209  1.00  0.00     0.016 C 
ENDROOT
BRANCH   1   8
ATOM      8  C   UNL     1     164.099 156.679 138.472  1.00  0.00    -0.011 C 
ATOM      9  C   UNL     1     162.905 156.329 139.370  1.00  0.00     0.008 C 
ATOM     10  C   UNL     1     163.782 157.897 137.600  1.00  0.00     0.008 C 
ENDBRANCH   1   8
TORSDOF 1
ENDMDL
MODEL 4
REMARK VINA RESULT:    -2.055     15.305     17.187
REMARK INTER + INTRA:          -2.481
REMARK INTER:                  -2.189
REMARK INTRA:                  -0.292
REMARK UNBOUND:                -0.306
REMARK SMILES C=C1CC[C@@]2(C(C)C)C[C@@H]12
REMARK SMILES IDX 5 1 4 2 3 3 2 4 1 5 10 6 9 7 6 8 7 9 8 10
REMARK H PARENT
REMARK Flexibility Score: inf
ROOT
ATOM      1  C   UNL     1     164.450 158.300 138.681  1.00  0.00    -0.020 C 
ATOM      2  C   UNL     1     163.830 156.988 138.166  1.00  0.00     0.012 C 
ATOM      3  C   UNL     1     164.848 155.875 138.422  1.00  0.00     0.031 C 
ATOM      4  C   UNL     1     165.971 156.536 139.145  1.00  0.00    -0.074 C 
ATOM      5  C   UNL     1     167.041 155.875 139.596  1.00  0.00     0.008 C 
ATOM      6  C   UNL     1     165.792 158.000 139.329  1.00  0.00     0.021 C 
ATOM      7  C   UNL     1     164.611 158.428 140.194  1.00  0.00     0.016 C 
ENDROOT
BRANCH   1   8
ATOM      8  C   UNL     1     164.351 159.617 137.875  1.00  0.00    -0.011 C 
ATOM      9  C   UNL     1     165.663 159.932 137.143  1.00  0.00     0.008 C 
ATOM     10  C   UNL     1     163.182 159.550 136.887  1.00  0.00     0.008 C 
ENDBRANCH   1   8
TORSDOF 1
ENDMDL
MODEL 5
REMARK VINA RESULT:    -2.040      1.249      3.997
REMARK INTER + INTRA:          -2.465
REMARK INTER:                  -2.161
REMARK INTRA:                  -0.304
REMARK UNBOUND:                -0.306
REMARK SMILES C=C1CC[C@@]2(C(C)C)C[C@@H]12
REMARK SMILES IDX 5 1 4 2 3 3 2 4 1 5 10 6 9 7 6 8 7 9 8 10
REMARK H PARENT
REMARK Flexibility Score: inf
ROOT
ATOM      1  C   UNL     1     167.847 173.794 138.649  1.00  0.00    -0.020 C 
ATOM      2  C   UNL     1     168.247 175.188 138.135  1.00  0.00     0.012 C 
ATOM      3  C   UNL     1     167.067 176.125 138.399  1.00  0.00     0.031 C 
ATOM      4  C   UNL     1     166.068 175.292 139.127  1.00  0.00    -0.074 C 
ATOM      5  C   UNL     1     164.909 175.774 139.586  1.00  0.00     0.008 C 
ATOM      6  C   UNL     1     166.478 173.875 139.305  1.00  0.00     0.021 C 
ATOM      7  C   UNL     1     167.717 173.639 140.162  1.00  0.00     0.016 C 
ENDROOT
BRANCH   1   8
ATOM      8  C   UNL     1     168.150 172.511 137.838  1.00  0.00    -0.011 C 
ATOM      9  C   UNL     1     166.924 172.045 137.039  1.00  0.00     0.008 C 
ATOM     10  C   UNL     1     169.347 172.737 136.910  1.00  0.00     0.008 C 
ENDBRANCH   1   8
TORSDOF 1
ENDMDL
MODEL 6
REMARK VINA RESULT:    -2.034      1.429      2.582
REMARK INTER + INTRA:          -2.459
REMARK INTER:                  -2.148
REMARK INTRA:                  -0.311
REMARK UNBOUND:                -0.306
REMARK SMILES C=C1CC[C@@]2(C(C)C)C[C@@H]12
REMARK SMILES IDX 5 1 4 2 3 3 2 4 1 5 10 6 9 7 6 8 7 9 8 10
REMARK H PARENT
REMARK Flexibility Score: inf
ROOT
ATOM      1  C   UNL     1     166.306 174.795 139.152  1.00  0.00    -0.020 C 
ATOM      2  C   UNL     1     167.060 176.039 138.645  1.00  0.00     0.012 C 
ATOM      3  C   UNL     1     168.553 175.775 138.842  1.00  0.00     0.031 C 
ATOM      4  C   UNL     1     168.634 174.380 139.362  1.00  0.00    -0.074 C 
ATOM      5  C   UNL     1     169.790 173.757 139.609  1.00  0.00     0.008 C 
ATOM      6  C   UNL     1     167.312 173.737 139.573  1.00  0.00     0.021 C 
ATOM      7  C   UNL     1     166.463 173.522 138.325  1.00  0.00     0.016 C 
ENDROOT
BRANCH   1   8
ATOM      8  C   UNL     1     165.026 174.916 140.014  1.00  0.00    -0.011 C 
ATOM      9  C   UNL     1     165.359 175.006 141.510  1.00  0.00     0.008 C 
ATOM     10  C   UNL     1     164.197 176.125 139.570  1.00  0.00     0.008 C 
ENDBRANCH   1   8
TORSDOF 1
ENDMDL
MODEL 7
REMARK VINA RESULT:    -2.027     16.534     18.066
REMARK INTER + INTRA:          -2.451
REMARK INTER:                  -2.152
REMARK INTRA:                  -0.299
REMARK UNBOUND:                -0.306
REMARK SMILES C=C1CC[C@@]2(C(C)C)C[C@@H]12
REMARK SMILES IDX 5 1 4 2 3 3 2 4 1 5 10 6 9 7 6 8 7 9 8 10
REMARK H PARENT
REMARK Flexibility Score: inf
ROOT
ATOM      1  C   UNL     1     165.694 157.152 139.174  1.00  0.00    -0.020 C 
ATOM      2  C   UNL     1     164.926 155.937 138.625  1.00  0.00     0.012 C 
ATOM      3  C   UNL     1     163.435 156.213 138.826  1.00  0.00     0.031 C 
ATOM      4  C   UNL     1     163.370 157.591 139.392  1.00  0.00    -0.074 C 
ATOM      5  C   UNL     1     162.221 158.219 139.658  1.00  0.00     0.008 C 
ATOM      6  C   UNL     1     164.700 158.209 139.629  1.00  0.00     0.021 C 
ATOM      7  C   UNL     1     165.556 158.455 138.390  1.00  0.00     0.016 C 
ENDROOT
BRANCH   1   8
ATOM      8  C   UNL     1     166.969 156.986 140.035  1.00  0.00    -0.011 C 
ATOM      9  C   UNL     1     166.626 156.704 141.505  1.00  0.00     0.008 C 
ATOM     10  C   UNL     1     167.857 155.877 139.464  1.00  0.00     0.008 C 
ENDBRANCH   1   8
TORSDOF 1
ENDMDL
MODEL 8
REMARK VINA RESULT:    -1.994     16.389     17.712
REMARK INTER + INTRA:          -2.417
REMARK INTER:                  -2.114
REMARK INTRA:                  -0.303
REMARK UNBOUND:                -0.306
REMARK SMILES C=C1CC[C@@]2(C(C)C)C[C@@H]12
REMARK SMILES IDX 5 1 4 2 3 3 2 4 1 5 10 6 9 7 6 8 7 9 8 10
REMARK H PARENT
REMARK Flexibility Score: inf
ROOT
ATOM      1  C   UNL     1     164.186 157.488 138.591  1.00  0.00    -0.020 C 
ATOM      2  C   UNL     1     165.563 158.162 138.459  1.00  0.00     0.012 C 
ATOM      3  C   UNL     1     166.419 157.679 139.630  1.00  0.00     0.031 C 
ATOM      4  C   UNL     1     165.568 156.688 140.348  1.00  0.00    -0.074 C 
ATOM      5  C   UNL     1     165.989 155.995 141.410  1.00  0.00     0.008 C 
ATOM      6  C   UNL     1     164.207 156.530 139.771  1.00  0.00     0.021 C 
ATOM      7  C   UNL     1     164.141 155.981 138.350  1.00  0.00     0.016 C 
ENDROOT
BRANCH   1   8
ATOM      8  C   UNL     1     162.871 158.272 138.361  1.00  0.00    -0.011 C 
ATOM      9  C   UNL     1     162.443 159.038 139.620  1.00  0.00     0.008 C 
ATOM     10  C   UNL     1     163.022 159.226 137.172  1.00  0.00     0.008 C 
ENDBRANCH   1   8
TORSDOF 1
ENDMDL
