MODEL 1
REMARK VINA RESULT:    -4.023      0.000      0.000
REMARK INTER + INTRA:          -6.026
REMARK INTER:                  -5.434
REMARK INTRA:                  -0.592
REMARK UNBOUND:                -0.592
REMARK SMILES CCCCCCC=CC(=O)[O-]
REMARK SMILES IDX 5 1 6 2 7 3 8 4 9 5 10 6 11 7 4 8 3 9 2 10 1 11
REMARK H PARENT
REMARK Flexibility Score: inf
ROOT
ATOM      1  C   UNL     1      -8.624   3.446  16.472  1.00  0.00     0.004 C 
ENDROOT
BRANCH   1   2
ATOM      2  C   UNL     1      -8.986   2.804  15.123  1.00  0.00     0.027 C 
BRANCH   2   3
ATOM      3  C   UNL     1      -7.750   2.429  14.350  1.00  0.00    -0.025 C 
ATOM      4  C   UNL     1      -7.629   1.378  13.521  1.00  0.00     0.020 C 
BRANCH   4   5
ATOM      5  C   UNL     1      -8.681   0.399  13.177  1.00  0.00     0.064 C 
ATOM      6  O   UNL     1      -9.338   0.470  12.106  1.00  0.00    -0.545 OA
ATOM      7  O   UNL     1      -8.942  -0.643  14.057  1.00  0.00    -0.545 OA
ENDBRANCH   4   5
ENDBRANCH   2   3
ENDBRANCH   1   2
BRANCH   1   8
ATOM      8  C   UNL     1      -7.600   4.582  16.327  1.00  0.00     0.000 C 
BRANCH   8   9
ATOM      9  C   UNL     1      -8.262   5.969  16.260  1.00  0.00    -0.000 C 
BRANCH   9  10
ATOM     10  C   UNL     1      -8.259   6.554  14.839  1.00  0.00    -0.003 C 
ATOM     11  C   UNL     1      -7.139   5.985  13.968  1.00  0.00     0.004 C 
ENDBRANCH   9  10
ENDBRANCH   8   9
ENDBRANCH   1   8
TORSDOF 6
ENDMDL
MODEL 2
REMARK VINA RESULT:    -3.889     14.280     15.699
REMARK INTER + INTRA:          -5.846
REMARK INTER:                  -5.323
REMARK INTRA:                  -0.522
REMARK UNBOUND:                -0.592
REMARK SMILES CCCCCCC=CC(=O)[O-]
REMARK SMILES IDX 5 1 6 2 7 3 8 4 9 5 10 6 11 7 4 8 3 9 2 10 1 11
REMARK H PARENT
REMARK Flexibility Score: inf
ROOT
ATOM      1  C   UNL     1     -10.070  -5.377  26.005  1.00  0.00     0.004 C 
ENDROOT
BRANCH   1   2
ATOM      2  C   UNL     1      -9.646  -6.732  25.417  1.00  0.00     0.027 C 
BRANCH   2   3
ATOM      3  C   UNL     1     -10.831  -7.643  25.239  1.00  0.00    -0.025 C 
ATOM      4  C   UNL     1     -10.963  -8.587  24.291  1.00  0.00     0.020 C 
BRANCH   4   5
ATOM      5  C   UNL     1      -9.971  -8.943  23.255  1.00  0.00     0.064 C 
ATOM      6  O   UNL     1      -9.314 -10.016  23.297  1.00  0.00    -0.545 OA
ATOM      7  O   UNL     1      -9.768  -8.072  22.193  1.00  0.00    -0.545 OA
ENDBRANCH   4   5
ENDBRANCH   2   3
ENDBRANCH   1   2
BRANCH   1   8
ATOM      8  C   UNL     1     -11.066  -5.525  27.165  1.00  0.00     0.000 C 
BRANCH   8   9
ATOM      9  C   UNL     1     -10.370  -5.610  28.535  1.00  0.00    -0.000 C 
BRANCH   9  10
ATOM     10  C   UNL     1     -10.382  -7.034  29.113  1.00  0.00    -0.003 C 
ATOM     11  C   UNL     1     -11.546  -7.874  28.591  1.00  0.00     0.004 C 
ENDBRANCH   9  10
ENDBRANCH   8   9
ENDBRANCH   1   8
TORSDOF 6
ENDMDL
MODEL 3
REMARK VINA RESULT:    -3.408      2.782      4.800
REMARK INTER + INTRA:          -5.196
REMARK INTER:                  -4.911
REMARK INTRA:                  -0.285
REMARK UNBOUND:                -0.592
REMARK SMILES CCCCCCC=CC(=O)[O-]
REMARK SMILES IDX 5 1 6 2 7 3 8 4 9 5 10 6 11 7 4 8 3 9 2 10 1 11
REMARK H PARENT
REMARK Flexibility Score: inf
ROOT
ATOM      1  C   UNL     1      -8.657   3.369  16.412  1.00  0.00     0.004 C 
ENDROOT
BRANCH   1   2
ATOM      2  C   UNL     1      -7.634   4.510  16.292  1.00  0.00     0.027 C 
BRANCH   2   3
ATOM      3  C   UNL     1      -8.278   5.765  15.764  1.00  0.00    -0.025 C 
ATOM      4  C   UNL     1      -7.958   6.391  14.619  1.00  0.00     0.020 C 
BRANCH   4   5
ATOM      5  C   UNL     1      -6.939   5.969  13.635  1.00  0.00     0.064 C 
ATOM      6  O   UNL     1      -7.149   6.007  12.395  1.00  0.00    -0.545 OA
ATOM      7  O   UNL     1      -5.704   5.530  14.095  1.00  0.00    -0.545 OA
ENDBRANCH   4   5
ENDBRANCH   2   3
ENDBRANCH   1   2
BRANCH   1   8
ATOM      8  C   UNL     1      -8.936   2.685  15.065  1.00  0.00     0.000 C 
BRANCH   8   9
ATOM      9  C   UNL     1      -7.653   2.428  14.256  1.00  0.00    -0.000 C 
BRANCH   9  10
ATOM     10  C   UNL     1      -7.858   1.385  13.146  1.00  0.00    -0.003 C 
ATOM     11  C   UNL     1      -8.878   0.312  13.524  1.00  0.00     0.004 C 
ENDBRANCH   9  10
ENDBRANCH   8   9
ENDBRANCH   1   8
TORSDOF 6
ENDMDL
MODEL 4
REMARK VINA RESULT:    -3.356     15.033     16.606
REMARK INTER + INTRA:          -5.125
REMARK INTER:                  -5.127
REMARK INTRA:                   0.002
REMARK UNBOUND:                -0.592
REMARK SMILES CCCCCCC=CC(=O)[O-]
REMARK SMILES IDX 5 1 6 2 7 3 8 4 9 5 10 6 11 7 4 8 3 9 2 10 1 11
REMARK H PARENT
REMARK Flexibility Score: inf
ROOT
ATOM      1  C   UNL     1     -10.059  -5.335  25.990  1.00  0.00     0.004 C 
ENDROOT
BRANCH   1   2
ATOM      2  C   UNL     1     -10.927  -5.251  27.256  1.00  0.00     0.027 C 
BRANCH   2   3
ATOM      3  C   UNL     1     -10.220  -5.854  28.441  1.00  0.00    -0.025 C 
ATOM      4  C   UNL     1     -10.535  -7.015  29.038  1.00  0.00     0.020 C 
BRANCH   4   5
ATOM      5  C   UNL     1     -11.611  -7.949  28.643  1.00  0.00     0.064 C 
ATOM      6  O   UNL     1     -12.544  -7.607  27.871  1.00  0.00    -0.545 OA
ATOM      7  O   UNL     1     -11.582  -9.250  29.127  1.00  0.00    -0.545 OA
ENDBRANCH   4   5
ENDBRANCH   2   3
ENDBRANCH   1   2
BRANCH   1   8
ATOM      8  C   UNL     1      -9.719  -6.784  25.605  1.00  0.00     0.000 C 
BRANCH   8   9
ATOM      9  C   UNL     1     -10.920  -7.532  25.001  1.00  0.00    -0.000 C 
BRANCH   9  10
ATOM     10  C   UNL     1     -10.495  -8.760  24.181  1.00  0.00    -0.003 C 
ATOM     11  C   UNL     1      -9.807  -8.385  22.869  1.00  0.00     0.004 C 
ENDBRANCH   9  10
ENDBRANCH   8   9
ENDBRANCH   1   8
TORSDOF 6
ENDMDL
MODEL 5
REMARK VINA RESULT:    -2.979     14.868     16.355
REMARK INTER + INTRA:          -4.616
REMARK INTER:                  -4.225
REMARK INTRA:                  -0.390
REMARK UNBOUND:                -0.592
REMARK SMILES CCCCCCC=CC(=O)[O-]
REMARK SMILES IDX 5 1 6 2 7 3 8 4 9 5 10 6 11 7 4 8 3 9 2 10 1 11
REMARK H PARENT
REMARK Flexibility Score: inf
ROOT
ATOM      1  C   UNL     1     -10.961  -7.081  25.059  1.00  0.00     0.004 C 
ENDROOT
BRANCH   1   2
ATOM      2  C   UNL     1      -9.813  -6.338  25.762  1.00  0.00     0.027 C 
BRANCH   2   3
ATOM      3  C   UNL     1     -10.334  -5.204  26.605  1.00  0.00    -0.025 C 
ATOM      4  C   UNL     1     -10.611  -5.263  27.918  1.00  0.00     0.020 C 
BRANCH   4   5
ATOM      5  C   UNL     1     -10.436  -6.431  28.807  1.00  0.00     0.064 C 
ATOM      6  O   UNL     1      -9.599  -6.440  29.746  1.00  0.00    -0.545 OA
ATOM      7  O   UNL     1     -11.235  -7.550  28.607  1.00  0.00    -0.545 OA
ENDBRANCH   4   5
ENDBRANCH   2   3
ENDBRANCH   1   2
BRANCH   1   8
ATOM      8  C   UNL     1     -10.904  -8.599  25.285  1.00  0.00     0.000 C 
BRANCH   8   9
ATOM      9  C   UNL     1     -10.859  -9.392  23.967  1.00  0.00    -0.000 C 
BRANCH   9  10
ATOM     10  C   UNL     1      -9.530  -9.210  23.217  1.00  0.00    -0.003 C 
ATOM     11  C   UNL     1      -9.656  -8.280  22.011  1.00  0.00     0.004 C 
ENDBRANCH   9  10
ENDBRANCH   8   9
ENDBRANCH   1   8
TORSDOF 6
ENDMDL
MODEL 6
REMARK VINA RESULT:    -2.810      0.484      1.445
REMARK INTER + INTRA:          -4.387
REMARK INTER:                  -4.700
REMARK INTRA:                   0.312
REMARK UNBOUND:                -0.592
REMARK SMILES CCCCCCC=CC(=O)[O-]
REMARK SMILES IDX 5 1 6 2 7 3 8 4 9 5 10 6 11 7 4 8 3 9 2 10 1 11
REMARK H PARENT
REMARK Flexibility Score: inf
ROOT
ATOM      1  C   UNL     1      -8.582   3.735  16.166  1.00  0.00     0.004 C 
ENDROOT
BRANCH   1   2
ATOM      2  C   UNL     1      -8.935   2.668  15.118  1.00  0.00     0.027 C 
BRANCH   2   3
ATOM      3  C   UNL     1      -7.718   2.249  14.336  1.00  0.00    -0.025 C 
ATOM      4  C   UNL     1      -7.631   1.177  13.530  1.00  0.00     0.020 C 
BRANCH   4   5
ATOM      5  C   UNL     1      -8.707   0.212  13.224  1.00  0.00     0.064 C 
ATOM      6  O   UNL     1      -8.986  -0.746  13.990  1.00  0.00    -0.545 OA
ATOM      7  O   UNL     1      -9.446   0.378  12.060  1.00  0.00    -0.545 OA
ENDBRANCH   4   5
ENDBRANCH   2   3
ENDBRANCH   1   2
BRANCH   1   8
ATOM      8  C   UNL     1      -7.202   4.365  15.922  1.00  0.00     0.000 C 
BRANCH   8   9
ATOM      9  C   UNL     1      -7.185   5.297  14.699  1.00  0.00    -0.000 C 
BRANCH   9  10
ATOM     10  C   UNL     1      -8.273   6.380  14.770  1.00  0.00    -0.003 C 
ATOM     11  C   UNL     1      -8.581   6.814  16.203  1.00  0.00     0.004 C 
ENDBRANCH   9  10
ENDBRANCH   8   9
ENDBRANCH   1   8
TORSDOF 6
ENDMDL
MODEL 7
REMARK VINA RESULT:    -2.505      2.869      5.524
REMARK INTER + INTRA:          -3.976
REMARK INTER:                  -3.609
REMARK INTRA:                  -0.367
REMARK UNBOUND:                -0.592
REMARK SMILES CCCCCCC=CC(=O)[O-]
REMARK SMILES IDX 5 1 6 2 7 3 8 4 9 5 10 6 11 7 4 8 3 9 2 10 1 11
REMARK H PARENT
REMARK Flexibility Score: inf
ROOT
ATOM      1  C   UNL     1      -7.853   1.865  14.713  1.00  0.00     0.004 C 
ENDROOT
BRANCH   1   2
ATOM      2  C   UNL     1      -8.957   2.843  15.146  1.00  0.00     0.027 C 
BRANCH   2   3
ATOM      3  C   UNL     1      -8.491   3.724  16.275  1.00  0.00    -0.025 C 
ATOM      4  C   UNL     1      -7.889   4.918  16.144  1.00  0.00     0.020 C 
BRANCH   4   5
ATOM      5  C   UNL     1      -7.588   5.622  14.880  1.00  0.00     0.064 C 
ATOM      6  O   UNL     1      -6.721   5.202  14.070  1.00  0.00    -0.545 OA
ATOM      7  O   UNL     1      -8.296   6.775  14.569  1.00  0.00    -0.545 OA
ENDBRANCH   4   5
ENDBRANCH   2   3
ENDBRANCH   1   2
BRANCH   1   8
ATOM      8  C   UNL     1      -7.903   1.550  13.210  1.00  0.00     0.000 C 
BRANCH   8   9
ATOM      9  C   UNL     1      -8.895   0.423  12.875  1.00  0.00    -0.000 C 
BRANCH   9  10
ATOM     10  C   UNL     1      -8.975  -0.639  13.983  1.00  0.00    -0.003 C 
ATOM     11  C   UNL     1      -9.329  -2.026  13.448  1.00  0.00     0.004 C 
ENDBRANCH   9  10
ENDBRANCH   8   9
ENDBRANCH   1   8
TORSDOF 6
ENDMDL
MODEL 8
REMARK VINA RESULT:    -2.447     14.473     16.149
REMARK INTER + INTRA:          -3.898
REMARK INTER:                  -3.710
REMARK INTRA:                  -0.187
REMARK UNBOUND:                -0.592
REMARK SMILES CCCCCCC=CC(=O)[O-]
REMARK SMILES IDX 5 1 6 2 7 3 8 4 9 5 10 6 11 7 4 8 3 9 2 10 1 11
REMARK H PARENT
REMARK Flexibility Score: inf
ROOT
ATOM      1  C   UNL     1     -11.253  -8.611  26.700  1.00  0.00     0.004 C 
ENDROOT
BRANCH   1   2
ATOM      2  C   UNL     1     -11.852  -7.584  27.675  1.00  0.00     0.027 C 
BRANCH   2   3
ATOM      3  C   UNL     1     -10.774  -6.894  28.469  1.00  0.00    -0.025 C 
ATOM      4  C   UNL     1     -10.200  -5.719  28.162  1.00  0.00     0.020 C 
BRANCH   4   5
ATOM      5  C   UNL     1     -10.524  -4.852  27.009  1.00  0.00     0.064 C 
ATOM      6  O   UNL     1     -11.375  -3.929  27.083  1.00  0.00    -0.545 OA
ATOM      7  O   UNL     1      -9.854  -5.054  25.809  1.00  0.00    -0.545 OA
ENDBRANCH   4   5
ENDBRANCH   2   3
ENDBRANCH   1   2
BRANCH   1   8
ATOM      8  C   UNL     1     -10.956  -8.006  25.319  1.00  0.00     0.000 C 
BRANCH   8   9
ATOM      9  C   UNL     1     -10.991  -9.056  24.195  1.00  0.00    -0.000 C 
BRANCH   9  10
ATOM     10  C   UNL     1      -9.678  -9.108  23.398  1.00  0.00    -0.003 C 
ATOM     11  C   UNL     1      -9.709  -8.224  22.151  1.00  0.00     0.004 C 
ENDBRANCH   9  10
ENDBRANCH   8   9
ENDBRANCH   1   8
TORSDOF 6
ENDMDL
MODEL 9
REMARK VINA RESULT:    -2.251     14.594     15.907
REMARK INTER + INTRA:          -3.633
REMARK INTER:                  -4.167
REMARK INTRA:                   0.534
REMARK UNBOUND:                -0.592
REMARK SMILES CCCCCCC=CC(=O)[O-]
REMARK SMILES IDX 5 1 6 2 7 3 8 4 9 5 10 6 11 7 4 8 3 9 2 10 1 11
REMARK H PARENT
REMARK Flexibility Score: inf
ROOT
ATOM      1  C   UNL     1     -11.846  -7.554  27.864  1.00  0.00     0.004 C 
ENDROOT
BRANCH   1   2
ATOM      2  C   UNL     1     -11.262  -8.194  26.594  1.00  0.00     0.027 C 
BRANCH   2   3
ATOM      3  C   UNL     1     -10.673  -7.152  25.681  1.00  0.00    -0.025 C 
ATOM      4  C   UNL     1     -10.285  -7.349  24.409  1.00  0.00     0.020 C 
BRANCH   4   5
ATOM      5  C   UNL     1     -10.381  -8.608  23.641  1.00  0.00     0.064 C 
ATOM      6  O   UNL     1     -11.023  -9.604  24.064  1.00  0.00    -0.545 OA
ATOM      7  O   UNL     1      -9.754  -8.689  22.404  1.00  0.00    -0.545 OA
ENDBRANCH   4   5
ENDBRANCH   2   3
ENDBRANCH   1   2
BRANCH   1   8
ATOM      8  C   UNL     1     -10.830  -7.500  29.015  1.00  0.00     0.000 C 
BRANCH   8   9
ATOM      9  C   UNL     1      -9.852  -6.319  28.885  1.00  0.00    -0.000 C 
BRANCH   9  10
ATOM     10  C   UNL     1     -10.573  -4.976  28.694  1.00  0.00    -0.003 C 
ATOM     11  C   UNL     1     -10.546  -4.492  27.244  1.00  0.00     0.004 C 
ENDBRANCH   9  10
ENDBRANCH   8   9
ENDBRANCH   1   8
TORSDOF 6
ENDMDL
