MODEL 1
REMARK VINA RESULT:    -4.199      0.000      0.000
REMARK INTER + INTRA:          -6.453
REMARK INTER:                  -6.040
REMARK INTRA:                  -0.413
REMARK UNBOUND:                -0.413
REMARK SMILES O=C(CO)[C@@H](O)[C@H](O)[C@@H](O)CO
REMARK SMILES IDX 7 1 9 2 11 3 12 4 10 6 5 8 2 9 1 10 3 11 4 12 6 14 8 16
REMARK H PARENT 12 5 10 7 4 13 6 15 8 17
REMARK Flexibility Score: inf
ROOT
ATOM      1  C   UNL     1       4.948  40.452  63.936  1.00  0.00     0.181 C 
ENDROOT
BRANCH   1   2
ATOM      2  C   UNL     1       6.239  41.121  64.485  1.00  0.00     0.171 C 
BRANCH   2   3
ATOM      3  C   UNL     1       7.346  41.121  63.417  1.00  0.00     0.190 C 
BRANCH   3   4
ATOM      4  O   UNL     1       7.570  39.823  62.937  1.00  0.00    -0.394 OA
ATOM      5  H   UNL     1       7.640  39.894  61.949  1.00  0.00     0.210 HD
ENDBRANCH   3   4
ENDBRANCH   2   3
BRANCH   2   6
ATOM      6  O   UNL     1       6.695  40.441  65.629  1.00  0.00    -0.388 OA
ATOM      7  H   UNL     1       7.687  40.442  65.594  1.00  0.00     0.211 HD
ENDBRANCH   2   6
ENDBRANCH   1   2
BRANCH   1   8
ATOM      8  C   UNL     1       3.634  40.834  64.685  1.00  0.00     0.214 C 
BRANCH   8   9
ATOM      9  C   UNL     1       2.435  41.027  63.773  1.00  0.00     0.189 C 
ATOM     10  O   UNL     1       1.317  41.068  64.263  1.00  0.00    -0.294 OA
BRANCH   9  11
ATOM     11  C   UNL     1       2.573  41.119  62.279  1.00  0.00     0.234 C 
BRANCH  11  12
ATOM     12  O   UNL     1       1.938  40.023  61.681  1.00  0.00    -0.388 OA
ATOM     13  H   UNL     1       0.972  40.120  61.886  1.00  0.00     0.211 HD
ENDBRANCH  11  12
ENDBRANCH   9  11
ENDBRANCH   8   9
BRANCH   8  14
ATOM     14  O   UNL     1       3.357  39.932  65.729  1.00  0.00    -0.382 OA
ATOM     15  H   UNL     1       2.825  40.404  66.419  1.00  0.00     0.211 HD
ENDBRANCH   8  14
ENDBRANCH   1   8
BRANCH   1  16
ATOM     16  O   UNL     1       5.091  39.054  63.862  1.00  0.00    -0.387 OA
ATOM     17  H   UNL     1       4.209  38.644  64.048  1.00  0.00     0.211 HD
ENDBRANCH   1  16
TORSDOF 10
ENDMDL
MODEL 2
REMARK VINA RESULT:    -3.950     16.423     18.289
REMARK INTER + INTRA:          -6.095
REMARK INTER:                  -5.557
REMARK INTRA:                  -0.539
REMARK UNBOUND:                -0.413
REMARK SMILES O=C(CO)[C@@H](O)[C@H](O)[C@@H](O)CO
REMARK SMILES IDX 7 1 9 2 11 3 12 4 10 6 5 8 2 9 1 10 3 11 4 12 6 14 8 16
REMARK H PARENT 12 5 10 7 4 13 6 15 8 17
REMARK Flexibility Score: inf
ROOT
ATOM      1  C   UNL     1      15.775  30.996  73.571  1.00  0.00     0.181 C 
ENDROOT
BRANCH   1   2
ATOM      2  C   UNL     1      15.293  29.693  72.873  1.00  0.00     0.171 C 
BRANCH   2   3
ATOM      3  C   UNL     1      13.803  29.794  72.505  1.00  0.00     0.190 C 
BRANCH   3   4
ATOM      4  O   UNL     1      13.642  29.874  71.114  1.00  0.00    -0.394 OA
ATOM      5  H   UNL     1      14.554  29.846  70.721  1.00  0.00     0.210 HD
ENDBRANCH   3   4
ENDBRANCH   2   3
BRANCH   2   6
ATOM      6  O   UNL     1      15.491  28.584  73.716  1.00  0.00    -0.388 OA
ATOM      7  H   UNL     1      15.500  28.925  74.649  1.00  0.00     0.211 HD
ENDBRANCH   2   6
ENDBRANCH   1   2
BRANCH   1   8
ATOM      8  C   UNL     1      17.245  31.411  73.255  1.00  0.00     0.214 C 
BRANCH   8   9
ATOM      9  C   UNL     1      17.737  32.606  74.054  1.00  0.00     0.189 C 
ATOM     10  O   UNL     1      18.121  32.436  75.201  1.00  0.00    -0.294 OA
BRANCH   9  11
ATOM     11  C   UNL     1      17.722  34.002  73.496  1.00  0.00     0.234 C 
BRANCH  11  12
ATOM     12  O   UNL     1      17.385  33.960  72.137  1.00  0.00    -0.388 OA
ATOM     13  H   UNL     1      16.494  33.525  72.088  1.00  0.00     0.211 HD
ENDBRANCH  11  12
ENDBRANCH   9  11
ENDBRANCH   8   9
BRANCH   8  14
ATOM     14  O   UNL     1      18.123  30.315  73.360  1.00  0.00    -0.382 OA
ATOM     15  H   UNL     1      18.808  30.528  74.043  1.00  0.00     0.211 HD
ENDBRANCH   8  14
ENDBRANCH   1   8
BRANCH   1  16
ATOM     16  O   UNL     1      15.560  30.940  74.960  1.00  0.00    -0.387 OA
ATOM     17  H   UNL     1      15.832  31.810  75.349  1.00  0.00     0.211 HD
ENDBRANCH   1  16
TORSDOF 10
ENDMDL
MODEL 3
REMARK VINA RESULT:    -3.784     16.552     17.997
REMARK INTER + INTRA:          -5.857
REMARK INTER:                  -5.583
REMARK INTRA:                  -0.273
REMARK UNBOUND:                -0.413
REMARK SMILES O=C(CO)[C@@H](O)[C@H](O)[C@@H](O)CO
REMARK SMILES IDX 7 1 9 2 11 3 12 4 10 6 5 8 2 9 1 10 3 11 4 12 6 14 8 16
REMARK H PARENT 12 5 10 7 4 13 6 15 8 17
REMARK Flexibility Score: inf
ROOT
ATOM      1  C   UNL     1      16.943  31.955  73.515  1.00  0.00     0.181 C 
ENDROOT
BRANCH   1   2
ATOM      2  C   UNL     1      16.946  33.477  73.832  1.00  0.00     0.171 C 
BRANCH   2   3
ATOM      3  C   UNL     1      17.553  34.273  72.665  1.00  0.00     0.190 C 
BRANCH   3   4
ATOM      4  O   UNL     1      16.674  34.296  71.572  1.00  0.00    -0.394 OA
ATOM      5  H   UNL     1      16.085  35.085  71.698  1.00  0.00     0.210 HD
ENDBRANCH   3   4
ENDBRANCH   2   3
BRANCH   2   6
ATOM      6  O   UNL     1      17.682  33.731  75.004  1.00  0.00    -0.388 OA
ATOM      7  H   UNL     1      17.043  34.080  75.679  1.00  0.00     0.211 HD
ENDBRANCH   2   6
ENDBRANCH   1   2
BRANCH   1   8
ATOM      8  C   UNL     1      15.592  31.224  73.787  1.00  0.00     0.214 C 
BRANCH   8   9
ATOM      9  C   UNL     1      15.348  30.020  72.893  1.00  0.00     0.189 C 
ATOM     10  O   UNL     1      14.331  29.979  72.217  1.00  0.00    -0.294 OA
BRANCH   9  11
ATOM     11  C   UNL     1      16.293  28.851  72.850  1.00  0.00     0.234 C 
BRANCH  11  12
ATOM     12  O   UNL     1      16.099  28.049  73.981  1.00  0.00    -0.388 OA
ATOM     13  H   UNL     1      15.119  27.914  74.058  1.00  0.00     0.211 HD
ENDBRANCH  11  12
ENDBRANCH   9  11
ENDBRANCH   8   9
BRANCH   8  14
ATOM     14  O   UNL     1      15.449  30.901  75.150  1.00  0.00    -0.382 OA
ATOM     15  H   UNL     1      16.045  30.136  75.355  1.00  0.00     0.211 HD
ENDBRANCH   8  14
ENDBRANCH   1   8
BRANCH   1  16
ATOM     16  O   UNL     1      18.006  31.297  74.162  1.00  0.00    -0.387 OA
ATOM     17  H   UNL     1      17.621  30.621  74.775  1.00  0.00     0.211 HD
ENDBRANCH   1  16
TORSDOF 10
ENDMDL
MODEL 4
REMARK VINA RESULT:    -3.645     16.489     18.453
REMARK INTER + INTRA:          -5.657
REMARK INTER:                  -5.231
REMARK INTRA:                  -0.426
REMARK UNBOUND:                -0.413
REMARK SMILES O=C(CO)[C@@H](O)[C@H](O)[C@@H](O)CO
REMARK SMILES IDX 7 1 9 2 11 3 12 4 10 6 5 8 2 9 1 10 3 11 4 12 6 14 8 16
REMARK H PARENT 12 5 10 7 4 13 6 15 8 17
REMARK Flexibility Score: inf
ROOT
ATOM      1  C   UNL     1      16.370  31.367  73.549  1.00  0.00     0.181 C 
ENDROOT
BRANCH   1   2
ATOM      2  C   UNL     1      16.565  30.010  72.817  1.00  0.00     0.171 C 
BRANCH   2   3
ATOM      3  C   UNL     1      15.283  29.163  72.893  1.00  0.00     0.190 C 
BRANCH   3   4
ATOM      4  O   UNL     1      15.468  28.062  73.742  1.00  0.00    -0.394 OA
ATOM      5  H   UNL     1      15.162  28.344  74.644  1.00  0.00     0.210 HD
ENDBRANCH   3   4
ENDBRANCH   2   3
BRANCH   2   6
ATOM      6  O   UNL     1      17.632  29.294  73.388  1.00  0.00    -0.388 OA
ATOM      7  H   UNL     1      18.245  29.960  73.796  1.00  0.00     0.211 HD
ENDBRANCH   2   6
ENDBRANCH   1   2
BRANCH   1   8
ATOM      8  C   UNL     1      17.688  32.119  73.912  1.00  0.00     0.214 C 
BRANCH   8   9
ATOM      9  C   UNL     1      17.624  33.621  73.697  1.00  0.00     0.189 C 
ATOM     10  O   UNL     1      18.125  34.362  74.529  1.00  0.00    -0.294 OA
BRANCH   9  11
ATOM     11  C   UNL     1      16.920  34.230  72.516  1.00  0.00     0.234 C 
BRANCH  11  12
ATOM     12  O   UNL     1      17.192  35.603  72.466  1.00  0.00    -0.388 OA
ATOM     13  H   UNL     1      17.875  35.774  73.165  1.00  0.00     0.211 HD
ENDBRANCH  11  12
ENDBRANCH   9  11
ENDBRANCH   8   9
BRANCH   8  14
ATOM     14  O   UNL     1      18.123  31.795  75.211  1.00  0.00    -0.382 OA
ATOM     15  H   UNL     1      19.113  31.777  75.215  1.00  0.00     0.211 HD
ENDBRANCH   8  14
ENDBRANCH   1   8
BRANCH   1  16
ATOM     16  O   UNL     1      15.550  31.220  74.684  1.00  0.00    -0.387 OA
ATOM     17  H   UNL     1      16.132  31.223  75.486  1.00  0.00     0.211 HD
ENDBRANCH   1  16
TORSDOF 10
ENDMDL
MODEL 5
REMARK VINA RESULT:    -3.425     15.857     17.857
REMARK INTER + INTRA:          -5.340
REMARK INTER:                  -5.196
REMARK INTRA:                  -0.143
REMARK UNBOUND:                -0.413
REMARK SMILES O=C(CO)[C@@H](O)[C@H](O)[C@@H](O)CO
REMARK SMILES IDX 7 1 9 2 11 3 12 4 10 6 5 8 2 9 1 10 3 11 4 12 6 14 8 16
REMARK H PARENT 12 5 10 7 4 13 6 15 8 17
REMARK Flexibility Score: inf
ROOT
ATOM      1  C   UNL     1      14.993  29.731  73.114  1.00  0.00     0.181 C 
ENDROOT
BRANCH   1   2
ATOM      2  C   UNL     1      13.975  30.215  72.043  1.00  0.00     0.171 C 
BRANCH   2   3
ATOM      3  C   UNL     1      12.532  29.997  72.529  1.00  0.00     0.190 C 
BRANCH   3   4
ATOM      4  O   UNL     1      11.642  29.984  71.445  1.00  0.00    -0.394 OA
ATOM      5  H   UNL     1      10.958  30.679  71.632  1.00  0.00     0.210 HD
ENDBRANCH   3   4
ENDBRANCH   2   3
BRANCH   2   6
ATOM      6  O   UNL     1      14.170  29.524  70.834  1.00  0.00    -0.388 OA
ATOM      7  H   UNL     1      14.023  28.560  71.022  1.00  0.00     0.211 HD
ENDBRANCH   2   6
ENDBRANCH   1   2
BRANCH   1   8
ATOM      8  C   UNL     1      16.370  30.464  73.098  1.00  0.00     0.214 C 
BRANCH   8   9
ATOM      9  C   UNL     1      16.456  31.641  74.054  1.00  0.00     0.189 C 
ATOM     10  O   UNL     1      15.499  31.897  74.770  1.00  0.00    -0.294 OA
BRANCH   9  11
ATOM     11  C   UNL     1      17.663  32.535  74.116  1.00  0.00     0.234 C 
BRANCH  11  12
ATOM     12  O   UNL     1      17.270  33.830  74.476  1.00  0.00    -0.388 OA
ATOM     13  H   UNL     1      16.278  33.817  74.508  1.00  0.00     0.211 HD
ENDBRANCH  11  12
ENDBRANCH   9  11
ENDBRANCH   8   9
BRANCH   8  14
ATOM     14  O   UNL     1      17.435  29.562  73.284  1.00  0.00    -0.382 OA
ATOM     15  H   UNL     1      17.476  28.960  72.498  1.00  0.00     0.211 HD
ENDBRANCH   8  14
ENDBRANCH   1   8
BRANCH   1  16
ATOM     16  O   UNL     1      15.170  28.336  73.054  1.00  0.00    -0.387 OA
ATOM     17  H   UNL     1      15.649  28.051  73.874  1.00  0.00     0.211 HD
ENDBRANCH   1  16
TORSDOF 10
ENDMDL
MODEL 6
REMARK VINA RESULT:    -3.330      1.569      4.272
REMARK INTER + INTRA:          -5.203
REMARK INTER:                  -4.805
REMARK INTRA:                  -0.398
REMARK UNBOUND:                -0.413
REMARK SMILES O=C(CO)[C@@H](O)[C@H](O)[C@@H](O)CO
REMARK SMILES IDX 7 1 9 2 11 3 12 4 10 6 5 8 2 9 1 10 3 11 4 12 6 14 8 16
REMARK H PARENT 12 5 10 7 4 13 6 15 8 17
REMARK Flexibility Score: inf
ROOT
ATOM      1  C   UNL     1       5.090  39.541  65.803  1.00  0.00     0.181 C 
ENDROOT
BRANCH   1   2
ATOM      2  C   UNL     1       3.800  40.177  66.393  1.00  0.00     0.171 C 
BRANCH   2   3
ATOM      3  C   UNL     1       3.146  41.125  65.373  1.00  0.00     0.190 C 
BRANCH   3   4
ATOM      4  O   UNL     1       2.250  40.425  64.552  1.00  0.00    -0.394 OA
ATOM      5  H   UNL     1       1.359  40.488  64.986  1.00  0.00     0.210 HD
ENDBRANCH   3   4
ENDBRANCH   2   3
BRANCH   2   6
ATOM      6  O   UNL     1       4.098  40.890  67.569  1.00  0.00    -0.388 OA
ATOM      7  H   UNL     1       3.662  40.409  68.320  1.00  0.00     0.211 HD
ENDBRANCH   2   6
ENDBRANCH   1   2
BRANCH   1   8
ATOM      8  C   UNL     1       5.544  40.120  64.428  1.00  0.00     0.214 C 
BRANCH   8   9
ATOM      9  C   UNL     1       6.904  40.797  64.458  1.00  0.00     0.189 C 
ATOM     10  O   UNL     1       7.381  41.122  65.535  1.00  0.00    -0.294 OA
BRANCH   9  11
ATOM     11  C   UNL     1       7.662  41.125  63.202  1.00  0.00     0.234 C 
BRANCH  11  12
ATOM     12  O   UNL     1       7.886  39.952  62.470  1.00  0.00    -0.388 OA
ATOM     13  H   UNL     1       8.566  39.437  62.976  1.00  0.00     0.211 HD
ENDBRANCH  11  12
ENDBRANCH   9  11
ENDBRANCH   8   9
BRANCH   8  14
ATOM     14  O   UNL     1       5.466  39.149  63.411  1.00  0.00    -0.382 OA
ATOM     15  H   UNL     1       4.563  38.742  63.435  1.00  0.00     0.211 HD
ENDBRANCH   8  14
ENDBRANCH   1   8
BRANCH   1  16
ATOM     16  O   UNL     1       4.986  38.139  65.745  1.00  0.00    -0.387 OA
ATOM     17  H   UNL     1       4.281  37.909  65.088  1.00  0.00     0.211 HD
ENDBRANCH   1  16
TORSDOF 10
ENDMDL
MODEL 7
REMARK VINA RESULT:    -3.256     15.951     17.562
REMARK INTER + INTRA:          -5.096
REMARK INTER:                  -4.965
REMARK INTRA:                  -0.132
REMARK UNBOUND:                -0.413
REMARK SMILES O=C(CO)[C@@H](O)[C@H](O)[C@@H](O)CO
REMARK SMILES IDX 7 1 9 2 11 3 12 4 10 6 5 8 2 9 1 10 3 11 4 12 6 14 8 16
REMARK H PARENT 12 5 10 7 4 13 6 15 8 17
REMARK Flexibility Score: inf
ROOT
ATOM      1  C   UNL     1      16.414  30.710  73.147  1.00  0.00     0.181 C 
ENDROOT
BRANCH   1   2
ATOM      2  C   UNL     1      16.637  31.803  74.230  1.00  0.00     0.171 C 
BRANCH   2   3
ATOM      3  C   UNL     1      16.589  33.206  73.602  1.00  0.00     0.190 C 
BRANCH   3   4
ATOM      4  O   UNL     1      17.340  34.114  74.364  1.00  0.00    -0.394 OA
ATOM      5  H   UNL     1      16.740  34.879  74.565  1.00  0.00     0.210 HD
ENDBRANCH   3   4
ENDBRANCH   2   3
BRANCH   2   6
ATOM      6  O   UNL     1      17.879  31.617  74.864  1.00  0.00    -0.388 OA
ATOM      7  H   UNL     1      17.787  30.828  75.460  1.00  0.00     0.211 HD
ENDBRANCH   2   6
ENDBRANCH   1   2
BRANCH   1   8
ATOM      8  C   UNL     1      15.174  29.792  73.379  1.00  0.00     0.214 C 
BRANCH   8   9
ATOM      9  C   UNL     1      14.114  29.898  72.297  1.00  0.00     0.189 C 
ATOM     10  O   UNL     1      14.441  29.759  71.128  1.00  0.00    -0.294 OA
BRANCH   9  11
ATOM     11  C   UNL     1      12.679  30.219  72.612  1.00  0.00     0.234 C 
BRANCH  11  12
ATOM     12  O   UNL     1      11.871  29.874  71.521  1.00  0.00    -0.388 OA
ATOM     13  H   UNL     1      12.319  29.108  71.079  1.00  0.00     0.211 HD
ENDBRANCH  11  12
ENDBRANCH   9  11
ENDBRANCH   8   9
BRANCH   8  14
ATOM     14  O   UNL     1      15.559  28.456  73.603  1.00  0.00    -0.382 OA
ATOM     15  H   UNL     1      15.128  27.886  72.917  1.00  0.00     0.211 HD
ENDBRANCH   8  14
ENDBRANCH   1   8
BRANCH   1  16
ATOM     16  O   UNL     1      17.576  29.940  72.953  1.00  0.00    -0.387 OA
ATOM     17  H   UNL     1      17.387  29.270  72.248  1.00  0.00     0.211 HD
ENDBRANCH   1  16
TORSDOF 10
ENDMDL
MODEL 8
REMARK VINA RESULT:    -2.804     16.057     17.946
REMARK INTER + INTRA:          -4.446
REMARK INTER:                  -5.105
REMARK INTRA:                   0.659
REMARK UNBOUND:                -0.413
REMARK SMILES O=C(CO)[C@@H](O)[C@H](O)[C@@H](O)CO
REMARK SMILES IDX 7 1 9 2 11 3 12 4 10 6 5 8 2 9 1 10 3 11 4 12 6 14 8 16
REMARK H PARENT 12 5 10 7 4 13 6 15 8 17
REMARK Flexibility Score: inf
ROOT
ATOM      1  C   UNL     1      17.232  32.790  74.133  1.00  0.00     0.181 C 
ENDROOT
BRANCH   1   2
ATOM      2  C   UNL     1      17.897  33.600  72.985  1.00  0.00     0.171 C 
BRANCH   2   3
ATOM      3  C   UNL     1      17.025  34.806  72.597  1.00  0.00     0.190 C 
BRANCH   3   4
ATOM      4  O   UNL     1      16.610  34.707  71.261  1.00  0.00    -0.394 OA
ATOM      5  H   UNL     1      15.666  35.013  71.233  1.00  0.00     0.210 HD
ENDBRANCH   3   4
ENDBRANCH   2   3
BRANCH   2   6
ATOM      6  O   UNL     1      18.090  32.782  71.857  1.00  0.00    -0.388 OA
ATOM      7  H   UNL     1      17.444  33.081  71.165  1.00  0.00     0.211 HD
ENDBRANCH   2   6
ENDBRANCH   1   2
BRANCH   1   8
ATOM      8  C   UNL     1      17.284  31.240  73.967  1.00  0.00     0.214 C 
BRANCH   8   9
ATOM      9  C   UNL     1      15.919  30.581  73.866  1.00  0.00     0.189 C 
ATOM     10  O   UNL     1      15.012  30.981  74.580  1.00  0.00    -0.294 OA
BRANCH   9  11
ATOM     11  C   UNL     1      15.659  29.418  72.949  1.00  0.00     0.234 C 
BRANCH  11  12
ATOM     12  O   UNL     1      15.846  28.219  73.649  1.00  0.00    -0.388 OA
ATOM     13  H   UNL     1      16.738  27.879  73.378  1.00  0.00     0.211 HD
ENDBRANCH  11  12
ENDBRANCH   9  11
ENDBRANCH   8   9
BRANCH   8  14
ATOM     14  O   UNL     1      18.125  30.866  72.902  1.00  0.00    -0.382 OA
ATOM     15  H   UNL     1      18.524  29.984  73.113  1.00  0.00     0.211 HD
ENDBRANCH   8  14
ENDBRANCH   1   8
BRANCH   1  16
ATOM     16  O   UNL     1      15.913  33.223  74.365  1.00  0.00    -0.387 OA
ATOM     17  H   UNL     1      15.853  33.539  75.303  1.00  0.00     0.211 HD
ENDBRANCH   1  16
TORSDOF 10
ENDMDL
