MODEL 1
REMARK VINA RESULT:    -3.450      0.000      0.000
REMARK INTER + INTRA:          -4.769
REMARK INTER:                  -4.659
REMARK INTRA:                  -0.110
REMARK UNBOUND:                -0.110
REMARK SMILES [NH3+]CCCC[C@H]([NH3+])C(=O)[O-]
REMARK SMILES IDX 4 1 3 2 2 3 1 4 5 8 6 9 7 10 8 14 9 15 10 16
REMARK H PARENT 1 5 1 6 1 7 7 11 7 12 7 13
REMARK Flexibility Score: inf
ROOT
ATOM      1  C   UNL     1      12.532  -8.144  24.478  1.00  0.00     0.012 C 
ENDROOT
BRANCH   1   2
ATOM      2  C   UNL     1      11.167  -8.710  24.061  1.00  0.00     0.061 C 
BRANCH   2   3
ATOM      3  C   UNL     1      11.289  -9.876  23.066  1.00  0.00     0.258 C 
BRANCH   3   4
ATOM      4  N   UNL     1      10.839  -9.504  21.723  1.00  0.00    -0.358 N 
ATOM      5  H   UNL     1      11.004 -10.290  21.054  1.00  0.00     0.344 HD
ATOM      6  H   UNL     1       9.812  -9.308  21.751  1.00  0.00     0.344 HD
ATOM      7  H   UNL     1      11.336  -8.645  21.395  1.00  0.00     0.344 HD
ENDBRANCH   3   4
ENDBRANCH   2   3
ENDBRANCH   1   2
BRANCH   1   8
ATOM      8  C   UNL     1      12.799  -6.794  23.796  1.00  0.00     0.072 C 
BRANCH   8   9
ATOM      9  C   UNL     1      14.005  -6.046  24.405  1.00  0.00     0.227 C 
BRANCH   9  10
ATOM     10  N   UNL     1      14.118  -6.280  25.851  1.00  0.00    -0.350 N 
ATOM     11  H   UNL     1      14.961  -5.798  26.241  1.00  0.00     0.345 HD
ATOM     12  H   UNL     1      13.262  -5.930  26.340  1.00  0.00     0.345 HD
ATOM     13  H   UNL     1      14.192  -7.306  26.041  1.00  0.00     0.345 HD
ENDBRANCH   9  10
BRANCH   9  14
ATOM     14  C   UNL     1      13.871  -4.572  24.131  1.00  0.00     0.099 C 
ATOM     15  O   UNL     1      12.733  -4.034  24.095  1.00  0.00    -0.544 OA
ATOM     16  O   UNL     1      15.004  -3.790  23.936  1.00  0.00    -0.544 OA
ENDBRANCH   9  14
ENDBRANCH   8   9
ENDBRANCH   1   8
TORSDOF 7
ENDMDL
MODEL 2
REMARK VINA RESULT:    -3.209      2.698      3.227
REMARK INTER + INTRA:          -4.445
REMARK INTER:                  -3.935
REMARK INTRA:                  -0.510
REMARK UNBOUND:                -0.110
REMARK SMILES [NH3+]CCCC[C@H]([NH3+])C(=O)[O-]
REMARK SMILES IDX 4 1 3 2 2 3 1 4 5 8 6 9 7 10 8 14 9 15 10 16
REMARK H PARENT 1 5 1 6 1 7 7 11 7 12 7 13
REMARK Flexibility Score: inf
ROOT
ATOM      1  C   UNL     1      10.987  -8.926  24.339  1.00  0.00     0.012 C 
ENDROOT
BRANCH   1   2
ATOM      2  C   UNL     1      10.554 -10.364  24.021  1.00  0.00     0.061 C 
BRANCH   2   3
ATOM      3  C   UNL     1      10.267 -10.578  22.525  1.00  0.00     0.258 C 
BRANCH   3   4
ATOM      4  N   UNL     1      10.821  -9.504  21.698  1.00  0.00    -0.358 N 
ATOM      5  H   UNL     1      10.153  -9.252  20.934  1.00  0.00     0.344 HD
ATOM      6  H   UNL     1      10.970  -8.658  22.295  1.00  0.00     0.344 HD
ATOM      7  H   UNL     1      11.739  -9.792  21.290  1.00  0.00     0.344 HD
ENDBRANCH   3   4
ENDBRANCH   2   3
ENDBRANCH   1   2
BRANCH   1   8
ATOM      8  C   UNL     1      12.454  -8.882  24.795  1.00  0.00     0.072 C 
BRANCH   8   9
ATOM      9  C   UNL     1      13.273  -7.796  24.065  1.00  0.00     0.227 C 
BRANCH   9  10
ATOM     10  N   UNL     1      12.405  -6.818  23.394  1.00  0.00    -0.350 N 
ATOM     11  H   UNL     1      12.286  -7.059  22.382  1.00  0.00     0.345 HD
ATOM     12  H   UNL     1      11.468  -6.790  23.857  1.00  0.00     0.345 HD
ATOM     13  H   UNL     1      12.822  -5.861  23.470  1.00  0.00     0.345 HD
ENDBRANCH   9  10
BRANCH   9  14
ATOM     14  C   UNL     1      14.186  -8.447  23.061  1.00  0.00     0.099 C 
ATOM     15  O   UNL     1      15.366  -8.031  22.914  1.00  0.00    -0.544 OA
ATOM     16  O   UNL     1      13.740  -9.525  22.304  1.00  0.00    -0.544 OA
ENDBRANCH   9  14
ENDBRANCH   8   9
ENDBRANCH   1   8
TORSDOF 7
ENDMDL
MODEL 3
REMARK VINA RESULT:    -3.168      1.881      2.393
REMARK INTER + INTRA:          -4.389
REMARK INTER:                  -3.968
REMARK INTRA:                  -0.421
REMARK UNBOUND:                -0.110
REMARK SMILES [NH3+]CCCC[C@H]([NH3+])C(=O)[O-]
REMARK SMILES IDX 4 1 3 2 2 3 1 4 5 8 6 9 7 10 8 14 9 15 10 16
REMARK H PARENT 1 5 1 6 1 7 7 11 7 12 7 13
REMARK Flexibility Score: inf
ROOT
ATOM      1  C   UNL     1      14.311  -9.385  23.400  1.00  0.00     0.012 C 
ENDROOT
BRANCH   1   2
ATOM      2  C   UNL     1      13.541  -9.919  22.184  1.00  0.00     0.061 C 
BRANCH   2   3
ATOM      3  C   UNL     1      12.121 -10.388  22.543  1.00  0.00     0.258 C 
BRANCH   3   4
ATOM      4  N   UNL     1      11.093  -9.648  21.807  1.00  0.00    -0.358 N 
ATOM      5  H   UNL     1      10.331  -9.344  22.454  1.00  0.00     0.344 HD
ATOM      6  H   UNL     1      11.526  -8.795  21.386  1.00  0.00     0.344 HD
ATOM      7  H   UNL     1      10.698 -10.237  21.040  1.00  0.00     0.344 HD
ENDBRANCH   3   4
ENDBRANCH   2   3
ENDBRANCH   1   2
BRANCH   1   8
ATOM      8  C   UNL     1      14.596  -7.882  23.253  1.00  0.00     0.072 C 
BRANCH   8   9
ATOM      9  C   UNL     1      13.955  -7.040  24.377  1.00  0.00     0.227 C 
BRANCH   9  10
ATOM     10  N   UNL     1      13.731  -7.835  25.592  1.00  0.00    -0.350 N 
ATOM     11  H   UNL     1      14.642  -8.138  26.012  1.00  0.00     0.345 HD
ATOM     12  H   UNL     1      13.196  -7.275  26.295  1.00  0.00     0.345 HD
ATOM     13  H   UNL     1      13.162  -8.682  25.365  1.00  0.00     0.345 HD
ENDBRANCH   9  10
BRANCH   9  14
ATOM     14  C   UNL     1      12.650  -6.466  23.891  1.00  0.00     0.099 C 
ATOM     15  O   UNL     1      12.559  -5.239  23.621  1.00  0.00    -0.544 OA
ATOM     16  O   UNL     1      11.544  -7.290  23.718  1.00  0.00    -0.544 OA
ENDBRANCH   9  14
ENDBRANCH   8   9
ENDBRANCH   1   8
TORSDOF 7
ENDMDL
MODEL 4
REMARK VINA RESULT:    -3.079      1.708      2.223
REMARK INTER + INTRA:          -4.269
REMARK INTER:                  -3.792
REMARK INTRA:                  -0.477
REMARK UNBOUND:                -0.110
REMARK SMILES [NH3+]CCCC[C@H]([NH3+])C(=O)[O-]
REMARK SMILES IDX 4 1 3 2 2 3 1 4 5 8 6 9 7 10 8 14 9 15 10 16
REMARK H PARENT 1 5 1 6 1 7 7 11 7 12 7 13
REMARK Flexibility Score: inf
ROOT
ATOM      1  C   UNL     1      15.145  -7.185  24.585  1.00  0.00     0.012 C 
ENDROOT
BRANCH   1   2
ATOM      2  C   UNL     1      14.447  -7.976  23.470  1.00  0.00     0.061 C 
BRANCH   2   3
ATOM      3  C   UNL     1      13.073  -8.516  23.900  1.00  0.00     0.258 C 
BRANCH   3   4
ATOM      4  N   UNL     1      11.971  -7.768  23.291  1.00  0.00    -0.358 N 
ATOM      5  H   UNL     1      11.313  -7.425  24.027  1.00  0.00     0.344 HD
ATOM      6  H   UNL     1      12.361  -6.938  22.788  1.00  0.00     0.344 HD
ATOM      7  H   UNL     1      11.458  -8.366  22.604  1.00  0.00     0.344 HD
ENDBRANCH   3   4
ENDBRANCH   2   3
ENDBRANCH   1   2
BRANCH   1   8
ATOM      8  C   UNL     1      15.346  -5.718  24.175  1.00  0.00     0.072 C 
BRANCH   8   9
ATOM      9  C   UNL     1      14.590  -4.733  25.093  1.00  0.00     0.227 C 
BRANCH   9  10
ATOM     10  N   UNL     1      14.168  -5.372  26.347  1.00  0.00    -0.350 N 
ATOM     11  H   UNL     1      13.309  -4.911  26.729  1.00  0.00     0.345 HD
ATOM     12  H   UNL     1      13.973  -6.387  26.187  1.00  0.00     0.345 HD
ATOM     13  H   UNL     1      14.934  -5.306  27.056  1.00  0.00     0.345 HD
ENDBRANCH   9  10
BRANCH   9  14
ATOM     14  C   UNL     1      13.391  -4.189  24.364  1.00  0.00     0.099 C 
ATOM     15  O   UNL     1      12.618  -4.966  23.744  1.00  0.00    -0.544 OA
ATOM     16  O   UNL     1      13.115  -2.826  24.388  1.00  0.00    -0.544 OA
ENDBRANCH   9  14
ENDBRANCH   8   9
ENDBRANCH   1   8
TORSDOF 7
ENDMDL
MODEL 5
REMARK VINA RESULT:    -3.043      9.093      9.462
REMARK INTER + INTRA:          -4.221
REMARK INTER:                  -4.057
REMARK INTRA:                  -0.164
REMARK UNBOUND:                -0.110
REMARK SMILES [NH3+]CCCC[C@H]([NH3+])C(=O)[O-]
REMARK SMILES IDX 4 1 3 2 2 3 1 4 5 8 6 9 7 10 8 14 9 15 10 16
REMARK H PARENT 1 5 1 6 1 7 7 11 7 12 7 13
REMARK Flexibility Score: inf
ROOT
ATOM      1  C   UNL     1       4.672  -4.775  20.136  1.00  0.00     0.012 C 
ENDROOT
BRANCH   1   2
ATOM      2  C   UNL     1       4.458  -5.334  21.549  1.00  0.00     0.061 C 
BRANCH   2   3
ATOM      3  C   UNL     1       4.152  -4.235  22.580  1.00  0.00     0.258 C 
BRANCH   3   4
ATOM      4  N   UNL     1       5.055  -4.292  23.732  1.00  0.00    -0.358 N 
ATOM      5  H   UNL     1       5.930  -4.805  23.483  1.00  0.00     0.344 HD
ATOM      6  H   UNL     1       5.313  -3.317  24.008  1.00  0.00     0.344 HD
ATOM      7  H   UNL     1       4.585  -4.756  24.542  1.00  0.00     0.344 HD
ENDBRANCH   3   4
ENDBRANCH   2   3
ENDBRANCH   1   2
BRANCH   1   8
ATOM      8  C   UNL     1       5.730  -3.661  20.140  1.00  0.00     0.072 C 
BRANCH   8   9
ATOM      9  C   UNL     1       6.751  -3.804  18.991  1.00  0.00     0.227 C 
BRANCH   9  10
ATOM     10  N   UNL     1       7.891  -2.893  19.158  1.00  0.00    -0.350 N 
ATOM     11  H   UNL     1       8.640  -3.101  18.457  1.00  0.00     0.345 HD
ATOM     12  H   UNL     1       7.580  -1.901  19.048  1.00  0.00     0.345 HD
ATOM     13  H   UNL     1       8.288  -2.992  20.122  1.00  0.00     0.345 HD
ENDBRANCH   9  10
BRANCH   9  14
ATOM     14  C   UNL     1       6.067  -3.534  17.677  1.00  0.00     0.099 C 
ATOM     15  O   UNL     1       6.054  -4.415  16.776  1.00  0.00    -0.544 OA
ATOM     16  O   UNL     1       5.427  -2.320  17.456  1.00  0.00    -0.544 OA
ENDBRANCH   9  14
ENDBRANCH   8   9
ENDBRANCH   1   8
TORSDOF 7
ENDMDL
MODEL 6
REMARK VINA RESULT:    -3.031      3.615      5.758
REMARK INTER + INTRA:          -4.204
REMARK INTER:                  -4.092
REMARK INTRA:                  -0.112
REMARK UNBOUND:                -0.110
REMARK SMILES [NH3+]CCCC[C@H]([NH3+])C(=O)[O-]
REMARK SMILES IDX 4 1 3 2 2 3 1 4 5 8 6 9 7 10 8 14 9 15 10 16
REMARK H PARENT 1 5 1 6 1 7 7 11 7 12 7 13
REMARK Flexibility Score: inf
ROOT
ATOM      1  C   UNL     1      12.615  -7.870  23.837  1.00  0.00     0.012 C 
ENDROOT
BRANCH   1   2
ATOM      2  C   UNL     1      12.606  -6.340  23.709  1.00  0.00     0.061 C 
BRANCH   2   3
ATOM      3  C   UNL     1      13.808  -5.681  24.406  1.00  0.00     0.258 C 
BRANCH   3   4
ATOM      4  N   UNL     1      14.085  -6.281  25.713  1.00  0.00    -0.358 N 
ATOM      5  H   UNL     1      14.307  -5.539  26.414  1.00  0.00     0.344 HD
ATOM      6  H   UNL     1      13.233  -6.794  26.038  1.00  0.00     0.344 HD
ATOM      7  H   UNL     1      14.878  -6.958  25.645  1.00  0.00     0.344 HD
ENDBRANCH   3   4
ENDBRANCH   2   3
ENDBRANCH   1   2
BRANCH   1   8
ATOM      8  C   UNL     1      11.190  -8.414  24.022  1.00  0.00     0.072 C 
BRANCH   8   9
ATOM      9  C   UNL     1      10.951  -9.734  23.259  1.00  0.00     0.227 C 
BRANCH   9  10
ATOM     10  N   UNL     1      10.927  -9.526  21.805  1.00  0.00    -0.350 N 
ATOM     11  H   UNL     1      10.946  -8.505  21.574  1.00  0.00     0.345 HD
ATOM     12  H   UNL     1      11.748  -9.997  21.359  1.00  0.00     0.345 HD
ATOM     13  H   UNL     1      10.062  -9.951  21.398  1.00  0.00     0.345 HD
ENDBRANCH   9  10
BRANCH   9  14
ATOM     14  C   UNL     1       9.653 -10.348  23.711  1.00  0.00     0.099 C 
ATOM     15  O   UNL     1       9.345 -10.352  24.932  1.00  0.00    -0.544 OA
ATOM     16  O   UNL     1       8.776 -10.896  22.782  1.00  0.00    -0.544 OA
ENDBRANCH   9  14
ENDBRANCH   8   9
ENDBRANCH   1   8
TORSDOF 7
ENDMDL
MODEL 7
REMARK VINA RESULT:    -2.977      9.063      9.641
REMARK INTER + INTRA:          -4.131
REMARK INTER:                  -3.623
REMARK INTRA:                  -0.507
REMARK UNBOUND:                -0.110
REMARK SMILES [NH3+]CCCC[C@H]([NH3+])C(=O)[O-]
REMARK SMILES IDX 4 1 3 2 2 3 1 4 5 8 6 9 7 10 8 14 9 15 10 16
REMARK H PARENT 1 5 1 6 1 7 7 11 7 12 7 13
REMARK Flexibility Score: inf
ROOT
ATOM      1  C   UNL     1       7.129  -1.948  17.616  1.00  0.00     0.012 C 
ENDROOT
BRANCH   1   2
ATOM      2  C   UNL     1       5.851  -2.381  16.883  1.00  0.00     0.061 C 
BRANCH   2   3
ATOM      3  C   UNL     1       5.772  -3.903  16.681  1.00  0.00     0.258 C 
BRANCH   3   4
ATOM      4  N   UNL     1       4.539  -4.470  17.231  1.00  0.00    -0.358 N 
ATOM      5  H   UNL     1       3.894  -4.755  16.460  1.00  0.00     0.344 HD
ATOM      6  H   UNL     1       4.778  -5.322  17.790  1.00  0.00     0.344 HD
ATOM      7  H   UNL     1       4.067  -3.780  17.857  1.00  0.00     0.344 HD
ENDBRANCH   3   4
ENDBRANCH   2   3
ENDBRANCH   1   2
BRANCH   1   8
ATOM      8  C   UNL     1       7.331  -2.770  18.898  1.00  0.00     0.072 C 
BRANCH   8   9
ATOM      9  C   UNL     1       6.409  -2.316  20.050  1.00  0.00     0.227 C 
BRANCH   9  10
ATOM     10  N   UNL     1       7.156  -1.610  21.100  1.00  0.00    -0.350 N 
ATOM     11  H   UNL     1       6.766  -1.830  22.046  1.00  0.00     0.345 HD
ATOM     12  H   UNL     1       8.165  -1.881  21.069  1.00  0.00     0.345 HD
ATOM     13  H   UNL     1       7.103  -0.577  20.941  1.00  0.00     0.345 HD
ENDBRANCH   9  10
BRANCH   9  14
ATOM     14  C   UNL     1       5.710  -3.514  20.635  1.00  0.00     0.099 C 
ATOM     15  O   UNL     1       5.740  -4.621  20.035  1.00  0.00    -0.544 OA
ATOM     16  O   UNL     1       5.044  -3.413  21.851  1.00  0.00    -0.544 OA
ENDBRANCH   9  14
ENDBRANCH   8   9
ENDBRANCH   1   8
TORSDOF 7
ENDMDL
MODEL 8
REMARK VINA RESULT:    -2.963      9.094     10.125
REMARK INTER + INTRA:          -4.113
REMARK INTER:                  -3.601
REMARK INTRA:                  -0.512
REMARK UNBOUND:                -0.110
REMARK SMILES [NH3+]CCCC[C@H]([NH3+])C(=O)[O-]
REMARK SMILES IDX 4 1 3 2 2 3 1 4 5 8 6 9 7 10 8 14 9 15 10 16
REMARK H PARENT 1 5 1 6 1 7 7 11 7 12 7 13
REMARK Flexibility Score: inf
ROOT
ATOM      1  C   UNL     1      15.133  -2.570  17.065  1.00  0.00     0.012 C 
ENDROOT
BRANCH   1   2
ATOM      2  C   UNL     1      16.646  -2.611  16.810  1.00  0.00     0.061 C 
BRANCH   2   3
ATOM      3  C   UNL     1      16.998  -3.208  15.436  1.00  0.00     0.258 C 
BRANCH   3   4
ATOM      4  N   UNL     1      17.235  -4.651  15.506  1.00  0.00    -0.358 N 
ATOM      5  H   UNL     1      17.067  -5.092  14.573  1.00  0.00     0.344 HD
ATOM      6  H   UNL     1      18.232  -4.819  15.774  1.00  0.00     0.344 HD
ATOM      7  H   UNL     1      16.616  -5.089  16.225  1.00  0.00     0.344 HD
ENDBRANCH   3   4
ENDBRANCH   2   3
ENDBRANCH   1   2
BRANCH   1   8
ATOM      8  C   UNL     1      14.353  -2.544  15.741  1.00  0.00     0.072 C 
BRANCH   8   9
ATOM      9  C   UNL     1      13.368  -3.725  15.605  1.00  0.00     0.227 C 
BRANCH   9  10
ATOM     10  N   UNL     1      13.490  -4.668  16.725  1.00  0.00    -0.350 N 
ATOM     11  H   UNL     1      14.016  -5.525  16.435  1.00  0.00     0.345 HD
ATOM     12  H   UNL     1      13.985  -4.213  17.527  1.00  0.00     0.345 HD
ATOM     13  H   UNL     1      12.539  -4.948  17.060  1.00  0.00     0.345 HD
ENDBRANCH   9  10
BRANCH   9  14
ATOM     14  C   UNL     1      13.619  -4.439  14.303  1.00  0.00     0.099 C 
ATOM     15  O   UNL     1      14.527  -5.307  14.220  1.00  0.00    -0.544 OA
ATOM     16  O   UNL     1      12.834  -4.161  13.189  1.00  0.00    -0.544 OA
ENDBRANCH   9  14
ENDBRANCH   8   9
ENDBRANCH   1   8
TORSDOF 7
ENDMDL
MODEL 9
REMARK VINA RESULT:    -2.825      4.622      5.956
REMARK INTER + INTRA:          -3.925
REMARK INTER:                  -3.364
REMARK INTRA:                  -0.562
REMARK UNBOUND:                -0.110
REMARK SMILES [NH3+]CCCC[C@H]([NH3+])C(=O)[O-]
REMARK SMILES IDX 4 1 3 2 2 3 1 4 5 8 6 9 7 10 8 14 9 15 10 16
REMARK H PARENT 1 5 1 6 1 7 7 11 7 12 7 13
REMARK Flexibility Score: inf
ROOT
ATOM      1  C   UNL     1      11.446  -9.573  24.938  1.00  0.00     0.012 C 
ENDROOT
BRANCH   1   2
ATOM      2  C   UNL     1      11.927  -8.587  23.864  1.00  0.00     0.061 C 
BRANCH   2   3
ATOM      3  C   UNL     1      13.120  -9.127  23.057  1.00  0.00     0.258 C 
BRANCH   3   4
ATOM      4  N   UNL     1      12.693  -9.975  21.941  1.00  0.00    -0.358 N 
ATOM      5  H   UNL     1      12.703  -9.433  21.048  1.00  0.00     0.344 HD
ATOM      6  H   UNL     1      13.361 -10.774  21.848  1.00  0.00     0.344 HD
ATOM      7  H   UNL     1      11.736 -10.356  22.117  1.00  0.00     0.344 HD
ENDBRANCH   3   4
ENDBRANCH   2   3
ENDBRANCH   1   2
BRANCH   1   8
ATOM      8  C   UNL     1       9.937  -9.834  24.807  1.00  0.00     0.072 C 
BRANCH   8   9
ATOM      9  C   UNL     1       9.622 -11.208  24.179  1.00  0.00     0.227 C 
BRANCH   9  10
ATOM     10  N   UNL     1      10.785 -12.105  24.218  1.00  0.00    -0.350 N 
ATOM     11  H   UNL     1      11.657 -11.574  24.446  1.00  0.00     0.345 HD
ATOM     12  H   UNL     1      10.639 -12.854  24.933  1.00  0.00     0.345 HD
ATOM     13  H   UNL     1      10.904 -12.575  23.291  1.00  0.00     0.345 HD
ENDBRANCH   9  10
BRANCH   9  14
ATOM     14  C   UNL     1       9.168 -11.017  22.756  1.00  0.00     0.099 C 
ATOM     15  O   UNL     1      10.014 -10.903  21.830  1.00  0.00    -0.544 OA
ATOM     16  O   UNL     1       7.812 -10.986  22.452  1.00  0.00    -0.544 OA
ENDBRANCH   9  14
ENDBRANCH   8   9
ENDBRANCH   1   8
TORSDOF 7
ENDMDL
