MODEL 1
REMARK VINA RESULT:    -3.488      0.000      0.000
REMARK INTER + INTRA:          -4.798
REMARK INTER:                  -4.508
REMARK INTRA:                  -0.290
REMARK UNBOUND:                -0.290
REMARK SMILES CCCCCCC(=O)[O-]
REMARK SMILES IDX 5 1 6 2 7 3 8 4 9 5 4 6 3 7 2 8 1 9
REMARK H PARENT
REMARK Flexibility Score: inf
ROOT
ATOM      1  C   UNL     1     132.768 123.152 133.576  1.00  0.00     0.006 C 
ENDROOT
BRANCH   1   2
ATOM      2  C   UNL     1     131.620 122.620 134.440  1.00  0.00     0.053 C 
BRANCH   2   3
ATOM      3  C   UNL     1     131.555 121.127 134.363  1.00  0.00     0.041 C 
ATOM      4  O   UNL     1     130.751 120.568 133.572  1.00  0.00    -0.550 OA
ATOM      5  O   UNL     1     132.420 120.354 135.128  1.00  0.00    -0.550 OA
ENDBRANCH   2   3
ENDBRANCH   1   2
BRANCH   1   6
ATOM      6  C   UNL     1     133.594 124.194 134.341  1.00  0.00     0.000 C 
BRANCH   6   7
ATOM      7  C   UNL     1     132.826 124.717 135.563  1.00  0.00    -0.000 C 
BRANCH   7   8
ATOM      8  C   UNL     1     132.551 126.226 135.487  1.00  0.00    -0.003 C 
ATOM      9  C   UNL     1     131.319 126.560 134.646  1.00  0.00     0.004 C 
ENDBRANCH   7   8
ENDBRANCH   6   7
ENDBRANCH   1   6
TORSDOF 5
ENDMDL
MODEL 2
REMARK VINA RESULT:    -3.199      2.562      4.192
REMARK INTER + INTRA:          -4.425
REMARK INTER:                  -4.086
REMARK INTRA:                  -0.338
REMARK UNBOUND:                -0.290
REMARK SMILES CCCCCCC(=O)[O-]
REMARK SMILES IDX 5 1 6 2 7 3 8 4 9 5 4 6 3 7 2 8 1 9
REMARK H PARENT
REMARK Flexibility Score: inf
ROOT
ATOM      1  C   UNL     1     131.812 122.628 133.762  1.00  0.00     0.006 C 
ENDROOT
BRANCH   1   2
ATOM      2  C   UNL     1     133.143 123.385 133.791  1.00  0.00     0.053 C 
BRANCH   2   3
ATOM      3  C   UNL     1     133.202 124.297 134.976  1.00  0.00     0.041 C 
ATOM      4  O   UNL     1     133.651 123.880 136.076  1.00  0.00    -0.550 OA
ATOM      5  O   UNL     1     132.808 125.624 134.852  1.00  0.00    -0.550 OA
ENDBRANCH   2   3
ENDBRANCH   1   2
BRANCH   1   6
ATOM      6  C   UNL     1     132.014 121.146 134.100  1.00  0.00     0.000 C 
BRANCH   6   7
ATOM      7  C   UNL     1     131.508 120.831 135.515  1.00  0.00    -0.000 C 
BRANCH   7   8
ATOM      8  C   UNL     1     130.468 121.847 136.011  1.00  0.00    -0.003 C 
ATOM      9  C   UNL     1     129.037 121.316 135.928  1.00  0.00     0.004 C 
ENDBRANCH   7   8
ENDBRANCH   6   7
ENDBRANCH   1   6
TORSDOF 5
ENDMDL
MODEL 3
REMARK VINA RESULT:    -3.198      3.211      4.682
REMARK INTER + INTRA:          -4.423
REMARK INTER:                  -4.148
REMARK INTRA:                  -0.275
REMARK UNBOUND:                -0.290
REMARK SMILES CCCCCCC(=O)[O-]
REMARK SMILES IDX 5 1 6 2 7 3 8 4 9 5 4 6 3 7 2 8 1 9
REMARK H PARENT
REMARK Flexibility Score: inf
ROOT
ATOM      1  C   UNL     1     133.147 124.764 134.853  1.00  0.00     0.006 C 
ENDROOT
BRANCH   1   2
ATOM      2  C   UNL     1     131.647 124.965 135.089  1.00  0.00     0.053 C 
BRANCH   2   3
ATOM      3  C   UNL     1     131.272 126.399 134.886  1.00  0.00     0.041 C 
ATOM      4  O   UNL     1     132.127 127.307 135.056  1.00  0.00    -0.550 OA
ATOM      5  O   UNL     1     129.992 126.728 134.459  1.00  0.00    -0.550 OA
ENDBRANCH   2   3
ENDBRANCH   1   2
BRANCH   1   6
ATOM      6  C   UNL     1     133.402 123.598 133.891  1.00  0.00     0.000 C 
BRANCH   6   7
ATOM      7  C   UNL     1     132.092 122.881 133.534  1.00  0.00    -0.000 C 
BRANCH   7   8
ATOM      8  C   UNL     1     132.058 121.429 134.035  1.00  0.00    -0.003 C 
ATOM      9  C   UNL     1     131.338 121.283 135.375  1.00  0.00     0.004 C 
ENDBRANCH   7   8
ENDBRANCH   6   7
ENDBRANCH   1   6
TORSDOF 5
ENDMDL
MODEL 4
REMARK VINA RESULT:    -3.167      1.195      1.961
REMARK INTER + INTRA:          -4.383
REMARK INTER:                  -4.066
REMARK INTRA:                  -0.317
REMARK UNBOUND:                -0.290
REMARK SMILES CCCCCCC(=O)[O-]
REMARK SMILES IDX 5 1 6 2 7 3 8 4 9 5 4 6 3 7 2 8 1 9
REMARK H PARENT
REMARK Flexibility Score: inf
ROOT
ATOM      1  C   UNL     1     133.512 124.110 134.435  1.00  0.00     0.006 C 
ENDROOT
BRANCH   1   2
ATOM      2  C   UNL     1     132.586 123.340 133.488  1.00  0.00     0.053 C 
BRANCH   2   3
ATOM      3  C   UNL     1     131.925 122.208 134.208  1.00  0.00     0.041 C 
ATOM      4  O   UNL     1     132.593 121.195 134.545  1.00  0.00    -0.550 OA
ATOM      5  O   UNL     1     130.581 122.293 134.552  1.00  0.00    -0.550 OA
ENDBRANCH   2   3
ENDBRANCH   1   2
BRANCH   1   6
ATOM      6  C   UNL     1     132.711 125.042 135.352  1.00  0.00     0.000 C 
BRANCH   6   7
ATOM      7  C   UNL     1     131.731 125.902 134.541  1.00  0.00    -0.000 C 
BRANCH   7   8
ATOM      8  C   UNL     1     130.280 125.761 135.027  1.00  0.00    -0.003 C 
ATOM      9  C   UNL     1     129.262 126.239 133.993  1.00  0.00     0.004 C 
ENDBRANCH   7   8
ENDBRANCH   6   7
ENDBRANCH   1   6
TORSDOF 5
ENDMDL
MODEL 5
REMARK VINA RESULT:    -3.061      1.894      3.071
REMARK INTER + INTRA:          -4.246
REMARK INTER:                  -3.878
REMARK INTRA:                  -0.368
REMARK UNBOUND:                -0.290
REMARK SMILES CCCCCCC(=O)[O-]
REMARK SMILES IDX 5 1 6 2 7 3 8 4 9 5 4 6 3 7 2 8 1 9
REMARK H PARENT
REMARK Flexibility Score: inf
ROOT
ATOM      1  C   UNL     1     132.576 125.805 135.526  1.00  0.00     0.006 C 
ENDROOT
BRANCH   1   2
ATOM      2  C   UNL     1     133.111 124.704 134.605  1.00  0.00     0.053 C 
BRANCH   2   3
ATOM      3  C   UNL     1     132.447 123.398 134.909  1.00  0.00     0.041 C 
ATOM      4  O   UNL     1     131.601 123.319 135.838  1.00  0.00    -0.550 OA
ATOM      5  O   UNL     1     132.726 122.280 134.133  1.00  0.00    -0.550 OA
ENDBRANCH   2   3
ENDBRANCH   1   2
BRANCH   1   6
ATOM      6  C   UNL     1     131.733 126.818 134.741  1.00  0.00     0.000 C 
BRANCH   6   7
ATOM      7  C   UNL     1     130.256 126.738 135.149  1.00  0.00    -0.000 C 
BRANCH   7   8
ATOM      8  C   UNL     1     129.363 126.181 134.029  1.00  0.00    -0.003 C 
ATOM      9  C   UNL     1     128.898 124.751 134.301  1.00  0.00     0.004 C 
ENDBRANCH   7   8
ENDBRANCH   6   7
ENDBRANCH   1   6
TORSDOF 5
ENDMDL
MODEL 6
REMARK VINA RESULT:    -3.050     15.008     16.168
REMARK INTER + INTRA:          -4.232
REMARK INTER:                  -4.096
REMARK INTRA:                  -0.136
REMARK UNBOUND:                -0.290
REMARK SMILES CCCCCCC(=O)[O-]
REMARK SMILES IDX 5 1 6 2 7 3 8 4 9 5 4 6 3 7 2 8 1 9
REMARK H PARENT
REMARK Flexibility Score: inf
ROOT
ATOM      1  C   UNL     1     129.446 121.225 119.517  1.00  0.00     0.006 C 
ENDROOT
BRANCH   1   2
ATOM      2  C   UNL     1     130.919 121.638 119.592  1.00  0.00     0.053 C 
BRANCH   2   3
ATOM      3  C   UNL     1     131.097 122.774 120.549  1.00  0.00     0.041 C 
ATOM      4  O   UNL     1     130.112 123.219 121.194  1.00  0.00    -0.550 OA
ATOM      5  O   UNL     1     132.362 123.306 120.768  1.00  0.00    -0.550 OA
ENDBRANCH   2   3
ENDBRANCH   1   2
BRANCH   1   6
ATOM      6  C   UNL     1     129.067 120.793 118.095  1.00  0.00     0.000 C 
BRANCH   6   7
ATOM      7  C   UNL     1     127.767 119.976 118.097  1.00  0.00    -0.000 C 
BRANCH   7   8
ATOM      8  C   UNL     1     126.532 120.830 117.773  1.00  0.00    -0.003 C 
ATOM      9  C   UNL     1     125.413 120.664 118.801  1.00  0.00     0.004 C 
ENDBRANCH   7   8
ENDBRANCH   6   7
ENDBRANCH   1   6
TORSDOF 5
ENDMDL
MODEL 7
REMARK VINA RESULT:    -3.045      1.295      2.123
REMARK INTER + INTRA:          -4.226
REMARK INTER:                  -3.850
REMARK INTRA:                  -0.376
REMARK UNBOUND:                -0.290
REMARK SMILES CCCCCCC(=O)[O-]
REMARK SMILES IDX 5 1 6 2 7 3 8 4 9 5 4 6 3 7 2 8 1 9
REMARK H PARENT
REMARK Flexibility Score: inf
ROOT
ATOM      1  C   UNL     1     130.188 123.250 135.379  1.00  0.00     0.006 C 
ENDROOT
BRANCH   1   2
ATOM      2  C   UNL     1     131.053 122.224 136.118  1.00  0.00     0.053 C 
BRANCH   2   3
ATOM      3  C   UNL     1     131.244 121.000 135.280  1.00  0.00     0.041 C 
ATOM      4  O   UNL     1     130.259 120.272 134.987  1.00  0.00    -0.550 OA
ATOM      5  O   UNL     1     132.502 120.690 134.779  1.00  0.00    -0.550 OA
ENDBRANCH   2   3
ENDBRANCH   1   2
BRANCH   1   6
ATOM      6  C   UNL     1     130.988 123.951 134.274  1.00  0.00     0.000 C 
BRANCH   6   7
ATOM      7  C   UNL     1     131.618 125.252 134.791  1.00  0.00    -0.000 C 
BRANCH   7   8
ATOM      8  C   UNL     1     133.150 125.177 134.867  1.00  0.00    -0.003 C 
ATOM      9  C   UNL     1     133.720 123.966 134.130  1.00  0.00     0.004 C 
ENDBRANCH   7   8
ENDBRANCH   6   7
ENDBRANCH   1   6
TORSDOF 5
ENDMDL
MODEL 8
REMARK VINA RESULT:    -3.001      1.221      2.094
REMARK INTER + INTRA:          -4.168
REMARK INTER:                  -3.972
REMARK INTRA:                  -0.197
REMARK UNBOUND:                -0.290
REMARK SMILES CCCCCCC(=O)[O-]
REMARK SMILES IDX 5 1 6 2 7 3 8 4 9 5 4 6 3 7 2 8 1 9
REMARK H PARENT
REMARK Flexibility Score: inf
ROOT
ATOM      1  C   UNL     1     131.708 122.167 134.729  1.00  0.00     0.006 C 
ENDROOT
BRANCH   1   2
ATOM      2  C   UNL     1     131.825 120.654 134.522  1.00  0.00     0.053 C 
BRANCH   2   3
ATOM      3  C   UNL     1     130.471 120.043 134.348  1.00  0.00     0.041 C 
ATOM      4  O   UNL     1     129.769 119.760 135.354  1.00  0.00    -0.550 OA
ATOM      5  O   UNL     1     129.962 119.833 133.072  1.00  0.00    -0.550 OA
ENDBRANCH   2   3
ENDBRANCH   1   2
BRANCH   1   6
ATOM      6  C   UNL     1     132.270 122.933 133.524  1.00  0.00     0.000 C 
BRANCH   6   7
ATOM      7  C   UNL     1     133.534 123.713 133.909  1.00  0.00    -0.000 C 
BRANCH   7   8
ATOM      8  C   UNL     1     133.374 124.484 135.228  1.00  0.00    -0.003 C 
ATOM      9  C   UNL     1     132.595 125.788 135.061  1.00  0.00     0.004 C 
ENDBRANCH   7   8
ENDBRANCH   6   7
ENDBRANCH   1   6
TORSDOF 5
ENDMDL
MODEL 9
REMARK VINA RESULT:    -2.997     14.315     15.536
REMARK INTER + INTRA:          -4.163
REMARK INTER:                  -3.724
REMARK INTRA:                  -0.439
REMARK UNBOUND:                -0.290
REMARK SMILES CCCCCCC(=O)[O-]
REMARK SMILES IDX 5 1 6 2 7 3 8 4 9 5 4 6 3 7 2 8 1 9
REMARK H PARENT
REMARK Flexibility Score: inf
ROOT
ATOM      1  C   UNL     1     131.150 122.062 119.868  1.00  0.00     0.006 C 
ENDROOT
BRANCH   1   2
ATOM      2  C   UNL     1     132.163 121.442 120.835  1.00  0.00     0.053 C 
BRANCH   2   3
ATOM      3  C   UNL     1     132.418 120.011 120.481  1.00  0.00     0.041 C 
ATOM      4  O   UNL     1     131.821 119.089 121.098  1.00  0.00    -0.550 OA
ATOM      5  O   UNL     1     133.275 119.696 119.434  1.00  0.00    -0.550 OA
ENDBRANCH   2   3
ENDBRANCH   1   2
BRANCH   1   6
ATOM      6  C   UNL     1     129.713 121.826 120.349  1.00  0.00     0.000 C 
BRANCH   6   7
ATOM      7  C   UNL     1     128.900 121.060 119.297  1.00  0.00    -0.000 C 
BRANCH   7   8
ATOM      8  C   UNL     1     129.707 120.769 118.022  1.00  0.00    -0.003 C 
ATOM      9  C   UNL     1     129.889 119.273 117.767  1.00  0.00     0.004 C 
ENDBRANCH   7   8
ENDBRANCH   6   7
ENDBRANCH   1   6
TORSDOF 5
ENDMDL
