MODEL 1
REMARK VINA RESULT:    -4.873      0.000      0.000
REMARK INTER + INTRA:          -7.130
REMARK INTER:                  -6.583
REMARK INTRA:                  -0.547
REMARK UNBOUND:                -0.547
REMARK SMILES CCCCCCC=CC(=O)[O-]
REMARK SMILES IDX 5 1 6 2 7 3 8 4 9 5 10 6 11 7 4 8 3 9 2 10 1 11
REMARK H PARENT
REMARK Flexibility Score: inf
ROOT
ATOM      1  C   UNL     1     -65.454   0.014  -2.779  1.00  0.00     0.004 C 
ENDROOT
BRANCH   1   2
ATOM      2  C   UNL     1     -64.578   0.867  -3.711  1.00  0.00     0.027 C 
BRANCH   2   3
ATOM      3  C   UNL     1     -64.805   2.336  -3.479  1.00  0.00    -0.025 C 
ATOM      4  C   UNL     1     -64.066   3.135  -2.692  1.00  0.00     0.020 C 
BRANCH   4   5
ATOM      5  C   UNL     1     -62.866   2.746  -1.920  1.00  0.00     0.064 C 
ATOM      6  O   UNL     1     -62.962   2.618  -0.672  1.00  0.00    -0.545 OA
ATOM      7  O   UNL     1     -61.632   2.536  -2.522  1.00  0.00    -0.545 OA
ENDBRANCH   4   5
ENDBRANCH   2   3
ENDBRANCH   1   2
BRANCH   1   8
ATOM      8  C   UNL     1     -64.663  -0.568  -1.597  1.00  0.00     0.000 C 
BRANCH   8   9
ATOM      9  C   UNL     1     -65.210  -0.104  -0.236  1.00  0.00    -0.000 C 
BRANCH   9  10
ATOM     10  C   UNL     1     -64.676  -0.949   0.931  1.00  0.00    -0.003 C 
ATOM     11  C   UNL     1     -64.829  -2.451   0.690  1.00  0.00     0.004 C 
ENDBRANCH   9  10
ENDBRANCH   8   9
ENDBRANCH   1   8
TORSDOF 6
ENDMDL
MODEL 2
REMARK VINA RESULT:    -4.869      2.482      5.079
REMARK INTER + INTRA:          -7.124
REMARK INTER:                  -6.568
REMARK INTRA:                  -0.556
REMARK UNBOUND:                -0.547
REMARK SMILES CCCCCCC=CC(=O)[O-]
REMARK SMILES IDX 5 1 6 2 7 3 8 4 9 5 10 6 11 7 4 8 3 9 2 10 1 11
REMARK H PARENT
REMARK Flexibility Score: inf
ROOT
ATOM      1  C   UNL     1     -65.428   0.025   0.071  1.00  0.00     0.004 C 
ENDROOT
BRANCH   1   2
ATOM      2  C   UNL     1     -64.615  -0.911   0.981  1.00  0.00     0.027 C 
BRANCH   2   3
ATOM      3  C   UNL     1     -64.891  -2.356   0.663  1.00  0.00    -0.025 C 
ATOM      4  C   UNL     1     -64.132  -3.155  -0.104  1.00  0.00     0.020 C 
BRANCH   4   5
ATOM      5  C   UNL     1     -62.859  -2.792  -0.765  1.00  0.00     0.064 C 
ATOM      6  O   UNL     1     -62.838  -2.671  -2.017  1.00  0.00    -0.545 OA
ATOM      7  O   UNL     1     -61.682  -2.599  -0.054  1.00  0.00    -0.545 OA
ENDBRANCH   4   5
ENDBRANCH   2   3
ENDBRANCH   1   2
BRANCH   1   8
ATOM      8  C   UNL     1     -64.602   0.561  -1.109  1.00  0.00     0.000 C 
BRANCH   8   9
ATOM      9  C   UNL     1     -65.094   0.026  -2.464  1.00  0.00    -0.000 C 
BRANCH   9  10
ATOM     10  C   UNL     1     -64.617   0.887  -3.644  1.00  0.00    -0.003 C 
ATOM     11  C   UNL     1     -64.759   2.385  -3.377  1.00  0.00     0.004 C 
ENDBRANCH   9  10
ENDBRANCH   8   9
ENDBRANCH   1   8
TORSDOF 6
ENDMDL
MODEL 3
REMARK VINA RESULT:    -4.837      2.102      3.033
REMARK INTER + INTRA:          -7.081
REMARK INTER:                  -6.420
REMARK INTRA:                  -0.661
REMARK UNBOUND:                -0.547
REMARK SMILES CCCCCCC=CC(=O)[O-]
REMARK SMILES IDX 5 1 6 2 7 3 8 4 9 5 10 6 11 7 4 8 3 9 2 10 1 11
REMARK H PARENT
REMARK Flexibility Score: inf
ROOT
ATOM      1  C   UNL     1     -62.716   2.605  -0.490  1.00  0.00     0.004 C 
ENDROOT
BRANCH   1   2
ATOM      2  C   UNL     1     -64.187   2.617  -0.934  1.00  0.00     0.027 C 
BRANCH   2   3
ATOM      3  C   UNL     1     -64.325   3.104  -2.352  1.00  0.00    -0.025 C 
ATOM      4  C   UNL     1     -64.341   2.335  -3.453  1.00  0.00     0.020 C 
BRANCH   4   5
ATOM      5  C   UNL     1     -64.260   0.859  -3.498  1.00  0.00     0.064 C 
ATOM      6  O   UNL     1     -63.143   0.319  -3.707  1.00  0.00    -0.545 OA
ATOM      7  O   UNL     1     -65.377   0.049  -3.340  1.00  0.00    -0.545 OA
ENDBRANCH   4   5
ENDBRANCH   2   3
ENDBRANCH   1   2
BRANCH   1   8
ATOM      8  C   UNL     1     -62.411   1.474   0.504  1.00  0.00     0.000 C 
BRANCH   8   9
ATOM      9  C   UNL     1     -62.755   0.084  -0.059  1.00  0.00    -0.000 C 
BRANCH   9  10
ATOM     10  C   UNL     1     -63.707  -0.702   0.857  1.00  0.00    -0.003 C 
ATOM     11  C   UNL     1     -65.148  -0.704   0.348  1.00  0.00     0.004 C 
ENDBRANCH   9  10
ENDBRANCH   8   9
ENDBRANCH   1   8
TORSDOF 6
ENDMDL
MODEL 4
REMARK VINA RESULT:    -4.809      3.191      5.022
REMARK INTER + INTRA:          -7.043
REMARK INTER:                  -6.487
REMARK INTRA:                  -0.556
REMARK UNBOUND:                -0.547
REMARK SMILES CCCCCCC=CC(=O)[O-]
REMARK SMILES IDX 5 1 6 2 7 3 8 4 9 5 10 6 11 7 4 8 3 9 2 10 1 11
REMARK H PARENT
REMARK Flexibility Score: inf
ROOT
ATOM      1  C   UNL     1     -65.190  -0.082   0.601  1.00  0.00     0.004 C 
ENDROOT
BRANCH   1   2
ATOM      2  C   UNL     1     -64.293  -1.190   1.176  1.00  0.00     0.027 C 
BRANCH   2   3
ATOM      3  C   UNL     1     -64.791  -2.555   0.782  1.00  0.00    -0.025 C 
ATOM      4  C   UNL     1     -64.551  -3.177  -0.384  1.00  0.00     0.020 C 
BRANCH   4   5
ATOM      5  C   UNL     1     -63.726  -2.667  -1.501  1.00  0.00     0.064 C 
ATOM      6  O   UNL     1     -64.303  -2.220  -2.526  1.00  0.00    -0.545 OA
ATOM      7  O   UNL     1     -62.338  -2.684  -1.467  1.00  0.00    -0.545 OA
ENDBRANCH   4   5
ENDBRANCH   2   3
ENDBRANCH   1   2
BRANCH   1   8
ATOM      8  C   UNL     1     -64.407   0.923  -0.257  1.00  0.00     0.000 C 
BRANCH   8   9
ATOM      9  C   UNL     1     -62.909   0.954   0.091  1.00  0.00    -0.000 C 
BRANCH   9  10
ATOM     10  C   UNL     1     -62.406   2.373   0.399  1.00  0.00    -0.003 C 
ATOM     11  C   UNL     1     -61.570   2.438   1.677  1.00  0.00     0.004 C 
ENDBRANCH   9  10
ENDBRANCH   8   9
ENDBRANCH   1   8
TORSDOF 6
ENDMDL
MODEL 5
REMARK VINA RESULT:    -4.809      1.556      2.729
REMARK INTER + INTRA:          -7.042
REMARK INTER:                  -6.419
REMARK INTRA:                  -0.623
REMARK UNBOUND:                -0.547
REMARK SMILES CCCCCCC=CC(=O)[O-]
REMARK SMILES IDX 5 1 6 2 7 3 8 4 9 5 10 6 11 7 4 8 3 9 2 10 1 11
REMARK H PARENT
REMARK Flexibility Score: inf
ROOT
ATOM      1  C   UNL     1     -65.391  -0.053   0.419  1.00  0.00     0.004 C 
ENDROOT
BRANCH   1   2
ATOM      2  C   UNL     1     -64.634   0.712  -0.679  1.00  0.00     0.027 C 
BRANCH   2   3
ATOM      3  C   UNL     1     -64.801   0.051  -2.020  1.00  0.00    -0.025 C 
ATOM      4  C   UNL     1     -64.612   0.632  -3.216  1.00  0.00     0.020 C 
BRANCH   4   5
ATOM      5  C   UNL     1     -64.174   2.022  -3.461  1.00  0.00     0.064 C 
ATOM      6  O   UNL     1     -65.035   2.884  -3.777  1.00  0.00    -0.545 OA
ATOM      7  O   UNL     1     -62.842   2.407  -3.374  1.00  0.00    -0.545 OA
ENDBRANCH   4   5
ENDBRANCH   2   3
ENDBRANCH   1   2
BRANCH   1   8
ATOM      8  C   UNL     1     -64.521  -1.123   1.097  1.00  0.00     0.000 C 
BRANCH   8   9
ATOM      9  C   UNL     1     -64.960  -2.553   0.742  1.00  0.00    -0.000 C 
BRANCH   9  10
ATOM     10  C   UNL     1     -64.080  -3.186  -0.347  1.00  0.00    -0.003 C 
ATOM     11  C   UNL     1     -62.644  -2.661  -0.324  1.00  0.00     0.004 C 
ENDBRANCH   9  10
ENDBRANCH   8   9
ENDBRANCH   1   8
TORSDOF 6
ENDMDL
MODEL 6
REMARK VINA RESULT:    -4.809      2.312      4.727
REMARK INTER + INTRA:          -7.042
REMARK INTER:                  -6.367
REMARK INTRA:                  -0.675
REMARK UNBOUND:                -0.547
REMARK SMILES CCCCCCC=CC(=O)[O-]
REMARK SMILES IDX 5 1 6 2 7 3 8 4 9 5 10 6 11 7 4 8 3 9 2 10 1 11
REMARK H PARENT
REMARK Flexibility Score: inf
ROOT
ATOM      1  C   UNL     1     -62.751  -2.627  -2.239  1.00  0.00     0.004 C 
ENDROOT
BRANCH   1   2
ATOM      2  C   UNL     1     -64.247  -2.627  -1.883  1.00  0.00     0.027 C 
BRANCH   2   3
ATOM      3  C   UNL     1     -64.473  -3.115  -0.477  1.00  0.00    -0.025 C 
ATOM      4  C   UNL     1     -64.533  -2.350   0.625  1.00  0.00     0.020 C 
BRANCH   4   5
ATOM      5  C   UNL     1     -64.422  -0.877   0.682  1.00  0.00     0.064 C 
ATOM      6  O   UNL     1     -63.294  -0.360   0.892  1.00  0.00    -0.545 OA
ATOM      7  O   UNL     1     -65.522  -0.043   0.531  1.00  0.00    -0.545 OA
ENDBRANCH   4   5
ENDBRANCH   2   3
ENDBRANCH   1   2
BRANCH   1   8
ATOM      8  C   UNL     1     -62.380  -1.505  -3.220  1.00  0.00     0.000 C 
BRANCH   8   9
ATOM      9  C   UNL     1     -62.738  -0.108  -2.682  1.00  0.00    -0.000 C 
BRANCH   9  10
ATOM     10  C   UNL     1     -63.663   0.669  -3.632  1.00  0.00    -0.003 C 
ATOM     11  C   UNL     1     -65.047   0.917  -3.035  1.00  0.00     0.004 C 
ENDBRANCH   9  10
ENDBRANCH   8   9
ENDBRANCH   1   8
TORSDOF 6
ENDMDL
MODEL 7
REMARK VINA RESULT:    -4.804      2.359      3.722
REMARK INTER + INTRA:          -7.036
REMARK INTER:                  -6.194
REMARK INTRA:                  -0.842
REMARK UNBOUND:                -0.547
REMARK SMILES CCCCCCC=CC(=O)[O-]
REMARK SMILES IDX 5 1 6 2 7 3 8 4 9 5 10 6 11 7 4 8 3 9 2 10 1 11
REMARK H PARENT
REMARK Flexibility Score: inf
ROOT
ATOM      1  C   UNL     1     -65.060  -2.542   0.836  1.00  0.00     0.004 C 
ENDROOT
BRANCH   1   2
ATOM      2  C   UNL     1     -64.467  -1.167   1.184  1.00  0.00     0.027 C 
BRANCH   2   3
ATOM      3  C   UNL     1     -65.102  -0.076   0.364  1.00  0.00    -0.025 C 
ATOM      4  C   UNL     1     -64.452   0.908  -0.279  1.00  0.00     0.020 C 
BRANCH   4   5
ATOM      5  C   UNL     1     -62.987   1.104  -0.341  1.00  0.00     0.064 C 
ATOM      6  O   UNL     1     -62.384   0.840  -1.413  1.00  0.00    -0.545 OA
ATOM      7  O   UNL     1     -62.251   1.549   0.749  1.00  0.00    -0.545 OA
ENDBRANCH   4   5
ENDBRANCH   2   3
ENDBRANCH   1   2
BRANCH   1   8
ATOM      8  C   UNL     1     -64.071  -3.432   0.067  1.00  0.00     0.000 C 
BRANCH   8   9
ATOM      9  C   UNL     1     -62.745  -2.715  -0.235  1.00  0.00    -0.000 C 
BRANCH   9  10
ATOM     10  C   UNL     1     -62.426  -2.676  -1.738  1.00  0.00    -0.003 C 
ATOM     11  C   UNL     1     -63.642  -2.314  -2.590  1.00  0.00     0.004 C 
ENDBRANCH   9  10
ENDBRANCH   8   9
ENDBRANCH   1   8
TORSDOF 6
ENDMDL
MODEL 8
REMARK VINA RESULT:    -4.793      2.638      4.042
REMARK INTER + INTRA:          -7.021
REMARK INTER:                  -6.237
REMARK INTRA:                  -0.783
REMARK UNBOUND:                -0.547
REMARK SMILES CCCCCCC=CC(=O)[O-]
REMARK SMILES IDX 5 1 6 2 7 3 8 4 9 5 10 6 11 7 4 8 3 9 2 10 1 11
REMARK H PARENT
REMARK Flexibility Score: inf
ROOT
ATOM      1  C   UNL     1     -63.822   2.573  -3.565  1.00  0.00     0.004 C 
ENDROOT
BRANCH   1   2
ATOM      2  C   UNL     1     -64.185   1.097  -3.795  1.00  0.00     0.027 C 
BRANCH   2   3
ATOM      3  C   UNL     1     -62.978   0.209  -3.652  1.00  0.00    -0.025 C 
ATOM      4  C   UNL     1     -62.920  -0.940  -2.960  1.00  0.00     0.020 C 
BRANCH   4   5
ATOM      5  C   UNL     1     -64.030  -1.584  -2.226  1.00  0.00     0.064 C 
ATOM      6  O   UNL     1     -64.543  -2.632  -2.697  1.00  0.00    -0.545 OA
ATOM      7  O   UNL     1     -64.542  -1.061  -1.045  1.00  0.00    -0.545 OA
ENDBRANCH   4   5
ENDBRANCH   2   3
ENDBRANCH   1   2
BRANCH   1   8
ATOM      8  C   UNL     1     -64.558   3.179  -2.360  1.00  0.00     0.000 C 
BRANCH   8   9
ATOM      9  C   UNL     1     -64.143   2.531  -1.028  1.00  0.00    -0.000 C 
BRANCH   9  10
ATOM     10  C   UNL     1     -62.625   2.586  -0.795  1.00  0.00    -0.003 C 
ATOM     11  C   UNL     1     -62.120   1.435   0.075  1.00  0.00     0.004 C 
ENDBRANCH   9  10
ENDBRANCH   8   9
ENDBRANCH   1   8
TORSDOF 6
ENDMDL
MODEL 9
REMARK VINA RESULT:    -4.785      1.977      2.659
REMARK INTER + INTRA:          -7.011
REMARK INTER:                  -6.503
REMARK INTRA:                  -0.507
REMARK UNBOUND:                -0.547
REMARK SMILES CCCCCCC=CC(=O)[O-]
REMARK SMILES IDX 5 1 6 2 7 3 8 4 9 5 10 6 11 7 4 8 3 9 2 10 1 11
REMARK H PARENT
REMARK Flexibility Score: inf
ROOT
ATOM      1  C   UNL     1     -65.182   0.034  -3.280  1.00  0.00     0.004 C 
ENDROOT
BRANCH   1   2
ATOM      2  C   UNL     1     -64.278   1.107  -3.910  1.00  0.00     0.027 C 
BRANCH   2   3
ATOM      3  C   UNL     1     -64.739   2.492  -3.545  1.00  0.00    -0.025 C 
ATOM      4  C   UNL     1     -64.461   3.142  -2.404  1.00  0.00     0.020 C 
BRANCH   4   5
ATOM      5  C   UNL     1     -63.622   2.648  -1.290  1.00  0.00     0.064 C 
ATOM      6  O   UNL     1     -64.167   1.995  -0.363  1.00  0.00    -0.545 OA
ATOM      7  O   UNL     1     -62.258   2.897  -1.221  1.00  0.00    -0.545 OA
ENDBRANCH   4   5
ENDBRANCH   2   3
ENDBRANCH   1   2
BRANCH   1   8
ATOM      8  C   UNL     1     -64.390  -0.999  -2.464  1.00  0.00     0.000 C 
BRANCH   8   9
ATOM      9  C   UNL     1     -62.946  -1.166  -2.969  1.00  0.00    -0.000 C 
BRANCH   9  10
ATOM     10  C   UNL     1     -62.496  -2.635  -2.985  1.00  0.00    -0.003 C 
ATOM     11  C   UNL     1     -61.870  -3.046  -4.317  1.00  0.00     0.004 C 
ENDBRANCH   9  10
ENDBRANCH   8   9
ENDBRANCH   1   8
TORSDOF 6
ENDMDL
