MODEL 1
REMARK VINA RESULT:    -4.255      0.000      0.000
REMARK INTER + INTRA:          -9.601
REMARK INTER:                  -7.737
REMARK INTRA:                  -1.864
REMARK UNBOUND:                -1.864
REMARK SMILES CCCCCCCCCCCCCC[C@@H](C)C(=O)[O-]
REMARK SMILES IDX 9 1 10 2 11 3 12 4 13 5 14 6 15 7 16 8 17 9 18 10 19 11 8 12
REMARK SMILES IDX 7 13 6 14 5 15 4 16 3 17 2 18 1 19
REMARK H PARENT
REMARK Flexibility Score: inf
ROOT
ATOM      1  C   UNL     1      19.026  43.783  22.052  1.00  0.00     0.000 C 
ENDROOT
BRANCH   1   2
ATOM      2  C   UNL     1      18.516  42.420  21.541  1.00  0.00     0.000 C 
BRANCH   2   3
ATOM      3  C   UNL     1      17.241  42.478  20.680  1.00  0.00     0.000 C 
BRANCH   3   4
ATOM      4  C   UNL     1      17.536  42.726  19.192  1.00  0.00     0.000 C 
BRANCH   4   5
ATOM      5  C   UNL     1      16.815  43.968  18.635  1.00  0.00     0.001 C 
BRANCH   5   6
ATOM      6  C   UNL     1      16.021  44.792  19.673  1.00  0.00     0.009 C 
BRANCH   6   7
ATOM      7  C   UNL     1      14.527  44.983  19.332  1.00  0.00     0.032 C 
ATOM      8  C   UNL     1      13.887  43.640  18.967  1.00  0.00     0.014 C 
BRANCH   7   9
ATOM      9  C   UNL     1      13.777  45.607  20.477  1.00  0.00     0.044 C 
ATOM     10  O   UNL     1      13.964  45.196  21.654  1.00  0.00    -0.550 OA
ATOM     11  O   UNL     1      12.875  46.639  20.247  1.00  0.00    -0.550 OA
ENDBRANCH   7   9
ENDBRANCH   6   7
ENDBRANCH   5   6
ENDBRANCH   4   5
ENDBRANCH   3   4
ENDBRANCH   2   3
ENDBRANCH   1   2
BRANCH   1  12
ATOM     12  C   UNL     1      20.285  44.321  21.341  1.00  0.00     0.000 C 
BRANCH  12  13
ATOM     13  C   UNL     1      20.012  45.322  20.202  1.00  0.00    -0.000 C 
BRANCH  13  14
ATOM     14  C   UNL     1      19.983  46.781  20.687  1.00  0.00    -0.000 C 
BRANCH  14  15
ATOM     15  C   UNL     1      18.719  47.527  20.227  1.00  0.00    -0.000 C 
BRANCH  15  16
ATOM     16  C   UNL     1      17.797  47.902  21.401  1.00  0.00    -0.000 C 
BRANCH  16  17
ATOM     17  C   UNL     1      18.392  48.998  22.303  1.00  0.00    -0.000 C 
BRANCH  17  18
ATOM     18  C   UNL     1      18.923  50.235  21.557  1.00  0.00    -0.003 C 
ATOM     19  C   UNL     1      20.392  50.530  21.859  1.00  0.00     0.004 C 
ENDBRANCH  17  18
ENDBRANCH  16  17
ENDBRANCH  15  16
ENDBRANCH  14  15
ENDBRANCH  13  14
ENDBRANCH  12  13
ENDBRANCH   1  12
TORSDOF 14
ENDMDL
MODEL 2
REMARK VINA RESULT:    -4.193      2.682      5.833
REMARK INTER + INTRA:          -9.488
REMARK INTER:                  -7.533
REMARK INTRA:                  -1.955
REMARK UNBOUND:                -1.864
REMARK SMILES CCCCCCCCCCCCCC[C@@H](C)C(=O)[O-]
REMARK SMILES IDX 9 1 10 2 11 3 12 4 13 5 14 6 15 7 16 8 17 9 18 10 19 11 8 12
REMARK SMILES IDX 7 13 6 14 5 15 4 16 3 17 2 18 1 19
REMARK H PARENT
REMARK Flexibility Score: inf
ROOT
ATOM      1  C   UNL     1      16.046  43.995  18.865  1.00  0.00     0.000 C 
ENDROOT
BRANCH   1   2
ATOM      2  C   UNL     1      17.250  43.031  18.855  1.00  0.00     0.000 C 
BRANCH   2   3
ATOM      3  C   UNL     1      17.855  42.725  20.237  1.00  0.00     0.000 C 
BRANCH   3   4
ATOM      4  C   UNL     1      19.389  42.837  20.255  1.00  0.00     0.000 C 
BRANCH   4   5
ATOM      5  C   UNL     1      19.884  44.292  20.350  1.00  0.00     0.001 C 
BRANCH   5   6
ATOM      6  C   UNL     1      19.047  45.217  21.260  1.00  0.00     0.009 C 
BRANCH   6   7
ATOM      7  C   UNL     1      18.486  46.472  20.557  1.00  0.00     0.032 C 
ATOM      8  C   UNL     1      17.029  46.709  20.970  1.00  0.00     0.014 C 
BRANCH   7   9
ATOM      9  C   UNL     1      19.306  47.693  20.873  1.00  0.00     0.044 C 
ATOM     10  O   UNL     1      18.866  48.559  21.676  1.00  0.00    -0.550 OA
ATOM     11  O   UNL     1      20.552  47.875  20.285  1.00  0.00    -0.550 OA
ENDBRANCH   7   9
ENDBRANCH   6   7
ENDBRANCH   5   6
ENDBRANCH   4   5
ENDBRANCH   3   4
ENDBRANCH   2   3
ENDBRANCH   1   2
BRANCH   1  12
ATOM     12  C   UNL     1      14.896  43.601  19.814  1.00  0.00     0.000 C 
BRANCH  12  13
ATOM     13  C   UNL     1      13.613  43.113  19.116  1.00  0.00    -0.000 C 
BRANCH  13  14
ATOM     14  C   UNL     1      12.383  43.965  19.470  1.00  0.00    -0.000 C 
BRANCH  14  15
ATOM     15  C   UNL     1      12.758  45.251  20.226  1.00  0.00    -0.000 C 
BRANCH  15  16
ATOM     16  C   UNL     1      12.552  46.516  19.375  1.00  0.00    -0.000 C 
BRANCH  16  17
ATOM     17  C   UNL     1      12.292  46.203  17.890  1.00  0.00    -0.000 C 
BRANCH  17  18
ATOM     18  C   UNL     1      13.225  46.924  16.902  1.00  0.00    -0.003 C 
ATOM     19  C   UNL     1      14.672  46.996  17.389  1.00  0.00     0.004 C 
ENDBRANCH  17  18
ENDBRANCH  16  17
ENDBRANCH  15  16
ENDBRANCH  14  15
ENDBRANCH  13  14
ENDBRANCH  12  13
ENDBRANCH   1  12
TORSDOF 14
ENDMDL
MODEL 3
REMARK VINA RESULT:    -4.117      3.167      6.583
REMARK INTER + INTRA:          -9.351
REMARK INTER:                  -7.708
REMARK INTRA:                  -1.643
REMARK UNBOUND:                -1.864
REMARK SMILES CCCCCCCCCCCCCC[C@@H](C)C(=O)[O-]
REMARK SMILES IDX 9 1 10 2 11 3 12 4 13 5 14 6 15 7 16 8 17 9 18 10 19 11 8 12
REMARK SMILES IDX 7 13 6 14 5 15 4 16 3 17 2 18 1 19
REMARK H PARENT
REMARK Flexibility Score: inf
ROOT
ATOM      1  C   UNL     1      16.646  44.359  18.978  1.00  0.00     0.000 C 
ENDROOT
BRANCH   1   2
ATOM      2  C   UNL     1      17.670  43.777  19.974  1.00  0.00     0.000 C 
BRANCH   2   3
ATOM      3  C   UNL     1      18.345  44.809  20.896  1.00  0.00     0.000 C 
BRANCH   3   4
ATOM      4  C   UNL     1      19.602  45.436  20.271  1.00  0.00     0.000 C 
BRANCH   4   5
ATOM      5  C   UNL     1      19.748  46.936  20.589  1.00  0.00     0.001 C 
BRANCH   5   6
ATOM      6  C   UNL     1      18.464  47.776  20.413  1.00  0.00     0.009 C 
BRANCH   6   7
ATOM      7  C   UNL     1      18.635  49.279  20.723  1.00  0.00     0.032 C 
ATOM      8  C   UNL     1      18.835  49.495  22.228  1.00  0.00     0.014 C 
BRANCH   7   9
ATOM      9  C   UNL     1      19.796  49.869  19.969  1.00  0.00     0.044 C 
ATOM     10  O   UNL     1      19.734  50.000  18.717  1.00  0.00    -0.550 OA
ATOM     11  O   UNL     1      20.940  50.274  20.645  1.00  0.00    -0.550 OA
ENDBRANCH   7   9
ENDBRANCH   6   7
ENDBRANCH   5   6
ENDBRANCH   4   5
ENDBRANCH   3   4
ENDBRANCH   2   3
ENDBRANCH   1   2
BRANCH   1  12
ATOM     12  C   UNL     1      15.755  45.487  19.536  1.00  0.00     0.000 C 
BRANCH  12  13
ATOM     13  C   UNL     1      14.644  45.026  20.497  1.00  0.00    -0.000 C 
BRANCH  13  14
ATOM     14  C   UNL     1      13.658  44.045  19.839  1.00  0.00    -0.000 C 
BRANCH  14  15
ATOM     15  C   UNL     1      12.194  44.485  20.006  1.00  0.00    -0.000 C 
BRANCH  15  16
ATOM     16  C   UNL     1      11.608  45.081  18.713  1.00  0.00    -0.000 C 
BRANCH  16  17
ATOM     17  C   UNL     1      11.966  46.566  18.523  1.00  0.00    -0.000 C 
BRANCH  17  18
ATOM     18  C   UNL     1      12.748  46.886  17.237  1.00  0.00    -0.003 C 
ATOM     19  C   UNL     1      13.192  45.634  16.480  1.00  0.00     0.004 C 
ENDBRANCH  17  18
ENDBRANCH  16  17
ENDBRANCH  15  16
ENDBRANCH  14  15
ENDBRANCH  13  14
ENDBRANCH  12  13
ENDBRANCH   1  12
TORSDOF 14
ENDMDL
MODEL 4
REMARK VINA RESULT:    -4.065      2.401      3.627
REMARK INTER + INTRA:          -9.257
REMARK INTER:                  -8.067
REMARK INTRA:                  -1.190
REMARK UNBOUND:                -1.864
REMARK SMILES CCCCCCCCCCCCCC[C@@H](C)C(=O)[O-]
REMARK SMILES IDX 9 1 10 2 11 3 12 4 13 5 14 6 15 7 16 8 17 9 18 10 19 11 8 12
REMARK SMILES IDX 7 13 6 14 5 15 4 16 3 17 2 18 1 19
REMARK H PARENT
REMARK Flexibility Score: inf
ROOT
ATOM      1  C   UNL     1      16.524  44.060  18.496  1.00  0.00     0.000 C 
ENDROOT
BRANCH   1   2
ATOM      2  C   UNL     1      15.276  44.497  19.292  1.00  0.00     0.000 C 
BRANCH   2   3
ATOM      3  C   UNL     1      14.902  45.984  19.158  1.00  0.00     0.000 C 
BRANCH   3   4
ATOM      4  C   UNL     1      14.759  46.434  17.695  1.00  0.00     0.000 C 
BRANCH   4   5
ATOM      5  C   UNL     1      13.378  47.040  17.384  1.00  0.00     0.001 C 
BRANCH   5   6
ATOM      6  C   UNL     1      12.173  46.118  17.670  1.00  0.00     0.009 C 
BRANCH   6   7
ATOM      7  C   UNL     1      11.399  46.456  18.963  1.00  0.00     0.032 C 
ATOM      8  C   UNL     1      10.302  47.487  18.675  1.00  0.00     0.014 C 
BRANCH   7   9
ATOM      9  C   UNL     1      10.789  45.226  19.578  1.00  0.00     0.044 C 
ATOM     10  O   UNL     1       9.542  45.157  19.747  1.00  0.00    -0.550 OA
ATOM     11  O   UNL     1      11.593  44.160  19.963  1.00  0.00    -0.550 OA
ENDBRANCH   7   9
ENDBRANCH   6   7
ENDBRANCH   5   6
ENDBRANCH   4   5
ENDBRANCH   3   4
ENDBRANCH   2   3
ENDBRANCH   1   2
BRANCH   1  12
ATOM     12  C   UNL     1      17.559  43.243  19.296  1.00  0.00     0.000 C 
BRANCH  12  13
ATOM     13  C   UNL     1      18.732  44.060  19.868  1.00  0.00    -0.000 C 
BRANCH  13  14
ATOM     14  C   UNL     1      18.277  45.122  20.884  1.00  0.00    -0.000 C 
BRANCH  14  15
ATOM     15  C   UNL     1      18.980  46.474  20.675  1.00  0.00    -0.000 C 
BRANCH  15  16
ATOM     16  C   UNL     1      17.993  47.603  20.329  1.00  0.00    -0.000 C 
BRANCH  16  17
ATOM     17  C   UNL     1      18.566  49.004  20.607  1.00  0.00    -0.000 C 
BRANCH  17  18
ATOM     18  C   UNL     1      19.853  49.343  19.835  1.00  0.00    -0.003 C 
ATOM     19  C   UNL     1      19.605  50.239  18.622  1.00  0.00     0.004 C 
ENDBRANCH  17  18
ENDBRANCH  16  17
ENDBRANCH  15  16
ENDBRANCH  14  15
ENDBRANCH  13  14
ENDBRANCH  12  13
ENDBRANCH   1  12
TORSDOF 14
ENDMDL
MODEL 5
REMARK VINA RESULT:    -3.987      2.029      2.874
REMARK INTER + INTRA:          -9.114
REMARK INTER:                  -7.966
REMARK INTRA:                  -1.149
REMARK UNBOUND:                -1.864
REMARK SMILES CCCCCCCCCCCCCC[C@@H](C)C(=O)[O-]
REMARK SMILES IDX 9 1 10 2 11 3 12 4 13 5 14 6 15 7 16 8 17 9 18 10 19 11 8 12
REMARK SMILES IDX 7 13 6 14 5 15 4 16 3 17 2 18 1 19
REMARK H PARENT
REMARK Flexibility Score: inf
ROOT
ATOM      1  C   UNL     1      17.855  44.310  20.559  1.00  0.00     0.000 C 
ENDROOT
BRANCH   1   2
ATOM      2  C   UNL     1      17.244  44.025  19.172  1.00  0.00     0.000 C 
BRANCH   2   3
ATOM      3  C   UNL     1      15.766  44.426  19.011  1.00  0.00     0.000 C 
BRANCH   3   4
ATOM      4  C   UNL     1      15.338  45.533  19.990  1.00  0.00     0.000 C 
BRANCH   4   5
ATOM      5  C   UNL     1      14.064  45.178  20.778  1.00  0.00     0.001 C 
BRANCH   5   6
ATOM      6  C   UNL     1      12.786  45.010  19.928  1.00  0.00     0.009 C 
BRANCH   6   7
ATOM      7  C   UNL     1      12.285  46.309  19.261  1.00  0.00     0.032 C 
ATOM      8  C   UNL     1      12.563  46.277  17.754  1.00  0.00     0.014 C 
BRANCH   7   9
ATOM      9  C   UNL     1      10.814  46.519  19.499  1.00  0.00     0.044 C 
ATOM     10  O   UNL     1      10.053  45.528  19.661  1.00  0.00    -0.550 OA
ATOM     11  O   UNL     1      10.286  47.804  19.544  1.00  0.00    -0.550 OA
ENDBRANCH   7   9
ENDBRANCH   6   7
ENDBRANCH   5   6
ENDBRANCH   4   5
ENDBRANCH   3   4
ENDBRANCH   2   3
ENDBRANCH   1   2
BRANCH   1  12
ATOM     12  C   UNL     1      19.365  44.622  20.559  1.00  0.00     0.000 C 
BRANCH  12  13
ATOM     13  C   UNL     1      19.728  46.088  20.256  1.00  0.00    -0.000 C 
BRANCH  13  14
ATOM     14  C   UNL     1      18.639  47.076  20.708  1.00  0.00    -0.000 C 
BRANCH  14  15
ATOM     15  C   UNL     1      19.227  48.370  21.294  1.00  0.00    -0.000 C 
BRANCH  15  16
ATOM     16  C   UNL     1      18.848  49.615  20.473  1.00  0.00    -0.000 C 
BRANCH  16  17
ATOM     17  C   UNL     1      19.581  49.687  19.122  1.00  0.00    -0.000 C 
BRANCH  17  18
ATOM     18  C   UNL     1      20.627  50.810  19.010  1.00  0.00    -0.003 C 
ATOM     19  C   UNL     1      22.031  50.363  19.415  1.00  0.00     0.004 C 
ENDBRANCH  17  18
ENDBRANCH  16  17
ENDBRANCH  15  16
ENDBRANCH  14  15
ENDBRANCH  13  14
ENDBRANCH  12  13
ENDBRANCH   1  12
TORSDOF 14
ENDMDL
MODEL 6
REMARK VINA RESULT:    -3.983      2.341      4.010
REMARK INTER + INTRA:          -9.107
REMARK INTER:                  -7.200
REMARK INTRA:                  -1.907
REMARK UNBOUND:                -1.864
REMARK SMILES CCCCCCCCCCCCCC[C@@H](C)C(=O)[O-]
REMARK SMILES IDX 9 1 10 2 11 3 12 4 13 5 14 6 15 7 16 8 17 9 18 10 19 11 8 12
REMARK SMILES IDX 7 13 6 14 5 15 4 16 3 17 2 18 1 19
REMARK H PARENT
REMARK Flexibility Score: inf
ROOT
ATOM      1  C   UNL     1      16.864  41.469  19.856  1.00  0.00     0.000 C 
ENDROOT
BRANCH   1   2
ATOM      2  C   UNL     1      17.469  42.669  19.098  1.00  0.00     0.000 C 
BRANCH   2   3
ATOM      3  C   UNL     1      16.566  43.913  19.013  1.00  0.00     0.000 C 
BRANCH   3   4
ATOM      4  C   UNL     1      16.809  44.906  20.162  1.00  0.00     0.000 C 
BRANCH   4   5
ATOM      5  C   UNL     1      15.556  45.727  20.521  1.00  0.00     0.001 C 
BRANCH   5   6
ATOM      6  C   UNL     1      14.301  44.899  20.871  1.00  0.00     0.009 C 
BRANCH   6   7
ATOM      7  C   UNL     1      13.075  45.183  19.975  1.00  0.00     0.032 C 
ATOM      8  C   UNL     1      13.473  46.073  18.792  1.00  0.00     0.014 C 
BRANCH   7   9
ATOM      9  C   UNL     1      12.459  43.909  19.464  1.00  0.00     0.044 C 
ATOM     10  O   UNL     1      11.254  43.644  19.719  1.00  0.00    -0.550 OA
ATOM     11  O   UNL     1      13.211  43.018  18.708  1.00  0.00    -0.550 OA
ENDBRANCH   7   9
ENDBRANCH   6   7
ENDBRANCH   5   6
ENDBRANCH   4   5
ENDBRANCH   3   4
ENDBRANCH   2   3
ENDBRANCH   1   2
BRANCH   1  12
ATOM     12  C   UNL     1      17.050  41.498  21.386  1.00  0.00     0.000 C 
BRANCH  12  13
ATOM     13  C   UNL     1      18.432  41.035  21.884  1.00  0.00    -0.000 C 
BRANCH  13  14
ATOM     14  C   UNL     1      18.854  41.724  23.193  1.00  0.00    -0.000 C 
BRANCH  14  15
ATOM     15  C   UNL     1      19.661  43.009  22.946  1.00  0.00    -0.000 C 
BRANCH  15  16
ATOM     16  C   UNL     1      20.650  42.868  21.775  1.00  0.00    -0.000 C 
BRANCH  16  17
ATOM     17  C   UNL     1      20.450  43.943  20.691  1.00  0.00    -0.000 C 
BRANCH  17  18
ATOM     18  C   UNL     1      20.492  45.394  21.201  1.00  0.00    -0.003 C 
ATOM     19  C   UNL     1      20.084  46.414  20.137  1.00  0.00     0.004 C 
ENDBRANCH  17  18
ENDBRANCH  16  17
ENDBRANCH  15  16
ENDBRANCH  14  15
ENDBRANCH  13  14
ENDBRANCH  12  13
ENDBRANCH   1  12
TORSDOF 14
ENDMDL
MODEL 7
REMARK VINA RESULT:    -3.962      2.083      4.917
REMARK INTER + INTRA:          -9.069
REMARK INTER:                  -7.097
REMARK INTRA:                  -1.972
REMARK UNBOUND:                -1.864
REMARK SMILES CCCCCCCCCCCCCC[C@@H](C)C(=O)[O-]
REMARK SMILES IDX 9 1 10 2 11 3 12 4 13 5 14 6 15 7 16 8 17 9 18 10 19 11 8 12
REMARK SMILES IDX 7 13 6 14 5 15 4 16 3 17 2 18 1 19
REMARK H PARENT
REMARK Flexibility Score: inf
ROOT
ATOM      1  C   UNL     1      17.265  46.934  21.282  1.00  0.00     0.000 C 
ENDROOT
BRANCH   1   2
ATOM      2  C   UNL     1      16.149  46.101  20.617  1.00  0.00     0.000 C 
BRANCH   2   3
ATOM      3  C   UNL     1      16.102  46.177  19.080  1.00  0.00     0.000 C 
BRANCH   3   4
ATOM      4  C   UNL     1      15.687  44.847  18.430  1.00  0.00     0.000 C 
BRANCH   4   5
ATOM      5  C   UNL     1      14.181  44.776  18.114  1.00  0.00     0.001 C 
BRANCH   5   6
ATOM      6  C   UNL     1      13.340  43.932  19.096  1.00  0.00     0.009 C 
BRANCH   6   7
ATOM      7  C   UNL     1      12.415  44.755  20.019  1.00  0.00     0.032 C 
ATOM      8  C   UNL     1      12.444  46.235  19.622  1.00  0.00     0.014 C 
BRANCH   7   9
ATOM      9  C   UNL     1      10.999  44.247  19.975  1.00  0.00     0.044 C 
ATOM     10  O   UNL     1      10.773  43.020  19.800  1.00  0.00    -0.550 OA
ATOM     11  O   UNL     1       9.933  45.125  20.128  1.00  0.00    -0.550 OA
ENDBRANCH   7   9
ENDBRANCH   6   7
ENDBRANCH   5   6
ENDBRANCH   4   5
ENDBRANCH   3   4
ENDBRANCH   2   3
ENDBRANCH   1   2
BRANCH   1  12
ATOM     12  C   UNL     1      18.554  47.086  20.450  1.00  0.00     0.000 C 
BRANCH  12  13
ATOM     13  C   UNL     1      19.695  46.125  20.835  1.00  0.00    -0.000 C 
BRANCH  13  14
ATOM     14  C   UNL     1      19.589  44.763  20.128  1.00  0.00    -0.000 C 
BRANCH  14  15
ATOM     15  C   UNL     1      18.901  43.701  21.000  1.00  0.00    -0.000 C 
BRANCH  15  16
ATOM     16  C   UNL     1      18.030  42.736  20.176  1.00  0.00    -0.000 C 
BRANCH  16  17
ATOM     17  C   UNL     1      16.739  42.323  20.906  1.00  0.00    -0.000 C 
BRANCH  17  18
ATOM     18  C   UNL     1      16.411  40.821  20.846  1.00  0.00    -0.003 C 
ATOM     19  C   UNL     1      16.947  40.141  19.587  1.00  0.00     0.004 C 
ENDBRANCH  17  18
ENDBRANCH  16  17
ENDBRANCH  15  16
ENDBRANCH  14  15
ENDBRANCH  13  14
ENDBRANCH  12  13
ENDBRANCH   1  12
TORSDOF 14
ENDMDL
MODEL 8
REMARK VINA RESULT:    -3.939      3.262      6.272
REMARK INTER + INTRA:          -9.027
REMARK INTER:                  -7.111
REMARK INTRA:                  -1.916
REMARK UNBOUND:                -1.864
REMARK SMILES CCCCCCCCCCCCCC[C@@H](C)C(=O)[O-]
REMARK SMILES IDX 9 1 10 2 11 3 12 4 13 5 14 6 15 7 16 8 17 9 18 10 19 11 8 12
REMARK SMILES IDX 7 13 6 14 5 15 4 16 3 17 2 18 1 19
REMARK H PARENT
REMARK Flexibility Score: inf
ROOT
ATOM      1  C   UNL     1      17.042  43.650  19.064  1.00  0.00     0.000 C 
ENDROOT
BRANCH   1   2
ATOM      2  C   UNL     1      17.453  44.956  19.774  1.00  0.00     0.000 C 
BRANCH   2   3
ATOM      3  C   UNL     1      18.652  44.832  20.731  1.00  0.00     0.000 C 
BRANCH   3   4
ATOM      4  C   UNL     1      19.918  45.521  20.195  1.00  0.00     0.000 C 
BRANCH   4   5
ATOM      5  C   UNL     1      20.131  46.928  20.784  1.00  0.00     0.001 C 
BRANCH   5   6
ATOM      6  C   UNL     1      19.509  48.085  19.973  1.00  0.00     0.009 C 
BRANCH   6   7
ATOM      7  C   UNL     1      19.140  49.329  20.810  1.00  0.00     0.032 C 
ATOM      8  C   UNL     1      18.391  48.914  22.081  1.00  0.00     0.014 C 
BRANCH   7   9
ATOM      9  C   UNL     1      20.361  50.126  21.180  1.00  0.00     0.044 C 
ATOM     10  O   UNL     1      21.068  50.653  20.280  1.00  0.00    -0.550 OA
ATOM     11  O   UNL     1      20.717  50.288  22.514  1.00  0.00    -0.550 OA
ENDBRANCH   7   9
ENDBRANCH   6   7
ENDBRANCH   5   6
ENDBRANCH   4   5
ENDBRANCH   3   4
ENDBRANCH   2   3
ENDBRANCH   1   2
BRANCH   1  12
ATOM     12  C   UNL     1      18.043  42.485  19.201  1.00  0.00     0.000 C 
BRANCH  12  13
ATOM     13  C   UNL     1      17.512  41.255  19.960  1.00  0.00    -0.000 C 
BRANCH  13  14
ATOM     14  C   UNL     1      18.434  40.825  21.114  1.00  0.00    -0.000 C 
BRANCH  14  15
ATOM     15  C   UNL     1      18.144  41.595  22.414  1.00  0.00    -0.000 C 
BRANCH  15  16
ATOM     16  C   UNL     1      19.429  41.997  23.159  1.00  0.00    -0.000 C 
BRANCH  16  17
ATOM     17  C   UNL     1      20.709  41.565  22.421  1.00  0.00    -0.000 C 
BRANCH  17  18
ATOM     18  C   UNL     1      21.542  42.718  21.835  1.00  0.00    -0.003 C 
ATOM     19  C   UNL     1      21.907  43.779  22.872  1.00  0.00     0.004 C 
ENDBRANCH  17  18
ENDBRANCH  16  17
ENDBRANCH  15  16
ENDBRANCH  14  15
ENDBRANCH  13  14
ENDBRANCH  12  13
ENDBRANCH   1  12
TORSDOF 14
ENDMDL
MODEL 9
REMARK VINA RESULT:    -3.925      1.501      2.184
REMARK INTER + INTRA:          -9.002
REMARK INTER:                  -7.366
REMARK INTRA:                  -1.636
REMARK UNBOUND:                -1.864
REMARK SMILES CCCCCCCCCCCCCC[C@@H](C)C(=O)[O-]
REMARK SMILES IDX 9 1 10 2 11 3 12 4 13 5 14 6 15 7 16 8 17 9 18 10 19 11 8 12
REMARK SMILES IDX 7 13 6 14 5 15 4 16 3 17 2 18 1 19
REMARK H PARENT
REMARK Flexibility Score: inf
ROOT
ATOM      1  C   UNL     1      18.476  42.936  20.833  1.00  0.00     0.000 C 
ENDROOT
BRANCH   1   2
ATOM      2  C   UNL     1      17.521  42.666  19.652  1.00  0.00     0.000 C 
BRANCH   2   3
ATOM      3  C   UNL     1      16.771  43.902  19.120  1.00  0.00     0.000 C 
BRANCH   3   4
ATOM      4  C   UNL     1      15.289  43.922  19.528  1.00  0.00     0.000 C 
BRANCH   4   5
ATOM      5  C   UNL     1      14.983  44.952  20.632  1.00  0.00     0.001 C 
BRANCH   5   6
ATOM      6  C   UNL     1      13.528  45.467  20.671  1.00  0.00     0.009 C 
BRANCH   6   7
ATOM      7  C   UNL     1      12.684  45.099  19.431  1.00  0.00     0.032 C 
ATOM      8  C   UNL     1      11.286  44.635  19.854  1.00  0.00     0.014 C 
BRANCH   7   9
ATOM      9  C   UNL     1      12.566  46.260  18.481  1.00  0.00     0.044 C 
ATOM     10  O   UNL     1      11.456  46.836  18.323  1.00  0.00    -0.550 OA
ATOM     11  O   UNL     1      13.676  46.705  17.774  1.00  0.00    -0.550 OA
ENDBRANCH   7   9
ENDBRANCH   6   7
ENDBRANCH   5   6
ENDBRANCH   4   5
ENDBRANCH   3   4
ENDBRANCH   2   3
ENDBRANCH   1   2
BRANCH   1  12
ATOM     12  C   UNL     1      18.543  44.404  21.301  1.00  0.00     0.000 C 
BRANCH  12  13
ATOM     13  C   UNL     1      19.870  45.124  20.998  1.00  0.00    -0.000 C 
BRANCH  13  14
ATOM     14  C   UNL     1      19.663  46.507  20.356  1.00  0.00    -0.000 C 
BRANCH  14  15
ATOM     15  C   UNL     1      18.223  47.021  20.521  1.00  0.00    -0.000 C 
BRANCH  15  16
ATOM     16  C   UNL     1      18.112  48.129  21.583  1.00  0.00    -0.000 C 
BRANCH  16  17
ATOM     17  C   UNL     1      19.404  48.953  21.726  1.00  0.00    -0.000 C 
BRANCH  17  18
ATOM     18  C   UNL     1      19.473  50.210  20.841  1.00  0.00    -0.003 C 
ATOM     19  C   UNL     1      20.538  50.116  19.749  1.00  0.00     0.004 C 
ENDBRANCH  17  18
ENDBRANCH  16  17
ENDBRANCH  15  16
ENDBRANCH  14  15
ENDBRANCH  13  14
ENDBRANCH  12  13
ENDBRANCH   1  12
TORSDOF 14
ENDMDL
