MODEL 1
REMARK VINA RESULT:    -4.647      0.000      0.000
REMARK INTER + INTRA:          -8.616
REMARK INTER:                  -7.092
REMARK INTRA:                  -1.524
REMARK UNBOUND:                -1.524
REMARK SMILES OC[C@@H]1O[C@](CO)(O[C@@H]2O[C@H](CO)[C@H](O)[C@H](O)[C@@H]2O)[C@@H](O)[C@H]1O
REMARK SMILES IDX 8 1 9 2 11 3 14 4 10 5 16 6 18 7 12 8 13 9 15 11 17 13 19 15
REMARK SMILES IDX 5 17 20 18 4 19 22 20 3 21 6 22 7 23 21 25 23 27 2 29 1 30
REMARK H PARENT 13 10 15 12 17 14 19 16 7 24 21 26 23 28 1 31
REMARK Flexibility Score: inf
ROOT
ATOM      1  O   UNL     1      -0.984  36.119   7.437  1.00  0.00    -0.313 OA
ENDROOT
BRANCH   1   2
ATOM      2  C   UNL     1      -1.317  36.986   6.355  1.00  0.00     0.285 C 
ATOM      3  C   UNL     1       0.691  36.864   5.013  1.00  0.00     0.178 C 
ATOM      4  C   UNL     1       1.162  38.263   5.517  1.00  0.00     0.177 C 
ATOM      5  O   UNL     1      -0.698  36.572   5.143  1.00  0.00    -0.341 OA
ATOM      6  C   UNL     1       0.469  38.729   6.821  1.00  0.00     0.179 C 
ATOM      7  C   UNL     1      -1.027  38.457   6.719  1.00  0.00     0.202 C 
BRANCH   3   8
ATOM      8  C   UNL     1       1.578  35.644   5.368  1.00  0.00     0.191 C 
BRANCH   8   9
ATOM      9  O   UNL     1       0.835  34.489   5.659  1.00  0.00    -0.394 OA
ATOM     10  H   UNL     1       0.076  34.777   6.198  1.00  0.00     0.210 HD
ENDBRANCH   8   9
ENDBRANCH   3   8
BRANCH   4  11
ATOM     11  O   UNL     1       2.569  38.329   5.621  1.00  0.00    -0.387 OA
ATOM     12  H   UNL     1       2.925  38.411   4.695  1.00  0.00     0.211 HD
ENDBRANCH   4  11
BRANCH   6  13
ATOM     13  O   UNL     1       1.022  38.180   7.997  1.00  0.00    -0.387 OA
ATOM     14  H   UNL     1       1.313  38.904   8.606  1.00  0.00     0.211 HD
ENDBRANCH   6  13
BRANCH   7  15
ATOM     15  O   UNL     1      -1.712  38.858   7.883  1.00  0.00    -0.385 OA
ATOM     16  H   UNL     1      -1.557  38.177   8.591  1.00  0.00     0.211 HD
ENDBRANCH   7  15
ENDBRANCH   1   2
BRANCH   1  17
ATOM     17  C   UNL     1      -2.102  35.412   7.988  1.00  0.00     0.224 C 
ATOM     18  C   UNL     1      -2.983  34.946   6.797  1.00  0.00     0.208 C 
ATOM     19  O   UNL     1      -2.897  36.263   8.812  1.00  0.00    -0.337 OA
ATOM     20  C   UNL     1      -4.207  35.829   6.896  1.00  0.00     0.180 C 
ATOM     21  C   UNL     1      -4.232  36.199   8.365  1.00  0.00     0.179 C 
BRANCH  17  22
ATOM     22  C   UNL     1      -1.615  34.195   8.834  1.00  0.00     0.225 C 
BRANCH  22  23
ATOM     23  O   UNL     1      -0.884  33.276   8.052  1.00  0.00    -0.391 OA
ATOM     24  H   UNL     1      -0.630  33.742   7.208  1.00  0.00     0.210 HD
ENDBRANCH  22  23
ENDBRANCH  17  22
BRANCH  18  25
ATOM     25  O   UNL     1      -3.340  33.582   6.890  1.00  0.00    -0.385 OA
ATOM     26  H   UNL     1      -3.436  33.367   7.853  1.00  0.00     0.211 HD
ENDBRANCH  18  25
BRANCH  20  27
ATOM     27  O   UNL     1      -5.384  35.145   6.521  1.00  0.00    -0.387 OA
ATOM     28  H   UNL     1      -5.330  34.981   5.546  1.00  0.00     0.211 HD
ENDBRANCH  20  27
BRANCH  21  29
ATOM     29  C   UNL     1      -4.923  37.567   8.613  1.00  0.00     0.191 C 
BRANCH  29  30
ATOM     30  O   UNL     1      -4.582  38.502   7.618  1.00  0.00    -0.394 OA
ATOM     31  H   UNL     1      -5.105  39.335   7.808  1.00  0.00     0.210 HD
ENDBRANCH  29  30
ENDBRANCH  21  29
ENDBRANCH   1  17
TORSDOF 13
ENDMDL
MODEL 2
REMARK VINA RESULT:    -4.324      1.786      5.809
REMARK INTER + INTRA:          -8.123
REMARK INTER:                  -6.131
REMARK INTRA:                  -1.993
REMARK UNBOUND:                -1.524
REMARK SMILES OC[C@@H]1O[C@](CO)(O[C@@H]2O[C@H](CO)[C@H](O)[C@H](O)[C@@H]2O)[C@@H](O)[C@H]1O
REMARK SMILES IDX 8 1 9 2 11 3 14 4 10 5 16 6 18 7 12 8 13 9 15 11 17 13 19 15
REMARK SMILES IDX 5 17 20 18 4 19 22 20 3 21 6 22 7 23 21 25 23 27 2 29 1 30
REMARK H PARENT 13 10 15 12 17 14 19 16 7 24 21 26 23 28 1 31
REMARK Flexibility Score: inf
ROOT
ATOM      1  O   UNL     1       0.033  37.185   6.317  1.00  0.00    -0.313 OA
ENDROOT
BRANCH   1   2
ATOM      2  C   UNL     1      -1.006  36.671   5.486  1.00  0.00     0.285 C 
ATOM      3  C   UNL     1      -2.919  37.910   6.299  1.00  0.00     0.178 C 
ATOM      4  C   UNL     1      -3.434  36.671   7.094  1.00  0.00     0.177 C 
ATOM      5  O   UNL     1      -2.006  37.651   5.234  1.00  0.00    -0.341 OA
ATOM      6  C   UNL     1      -2.355  35.589   7.346  1.00  0.00     0.179 C 
ATOM      7  C   UNL     1      -1.570  35.354   6.060  1.00  0.00     0.202 C 
BRANCH   3   8
ATOM      8  C   UNL     1      -2.519  39.164   7.115  1.00  0.00     0.191 C 
BRANCH   8   9
ATOM      9  O   UNL     1      -1.606  38.884   8.145  1.00  0.00    -0.394 OA
ATOM     10  H   UNL     1      -2.137  38.697   8.941  1.00  0.00     0.210 HD
ENDBRANCH   8   9
ENDBRANCH   3   8
BRANCH   4  11
ATOM     11  O   UNL     1      -4.077  37.055   8.291  1.00  0.00    -0.387 OA
ATOM     12  H   UNL     1      -4.086  36.256   8.885  1.00  0.00     0.211 HD
ENDBRANCH   4  11
BRANCH   6  13
ATOM     13  O   UNL     1      -1.503  35.867   8.436  1.00  0.00    -0.387 OA
ATOM     14  H   UNL     1      -0.753  35.222   8.452  1.00  0.00     0.211 HD
ENDBRANCH   6  13
BRANCH   7  15
ATOM     15  O   UNL     1      -0.568  34.380   6.230  1.00  0.00    -0.385 OA
ATOM     16  H   UNL     1      -1.002  33.517   6.466  1.00  0.00     0.211 HD
ENDBRANCH   7  15
ENDBRANCH   1   2
BRANCH   1  17
ATOM     17  C   UNL     1       1.166  37.686   5.597  1.00  0.00     0.224 C 
ATOM     18  C   UNL     1       2.194  38.185   6.648  1.00  0.00     0.208 C 
ATOM     19  O   UNL     1       0.807  38.796   4.776  1.00  0.00    -0.337 OA
ATOM     20  C   UNL     1       2.143  39.690   6.506  1.00  0.00     0.180 C 
ATOM     21  C   UNL     1       1.663  39.873   5.081  1.00  0.00     0.179 C 
BRANCH  17  22
ATOM     22  C   UNL     1       1.780  36.567   4.699  1.00  0.00     0.225 C 
BRANCH  22  23
ATOM     23  O   UNL     1       2.037  35.391   5.435  1.00  0.00    -0.391 OA
ATOM     24  H   UNL     1       2.426  35.669   6.310  1.00  0.00     0.210 HD
ENDBRANCH  22  23
ENDBRANCH  17  22
BRANCH  18  25
ATOM     25  O   UNL     1       3.499  37.702   6.400  1.00  0.00    -0.385 OA
ATOM     26  H   UNL     1       4.135  38.389   6.725  1.00  0.00     0.211 HD
ENDBRANCH  18  25
BRANCH  20  27
ATOM     27  O   UNL     1       3.409  40.283   6.700  1.00  0.00    -0.387 OA
ATOM     28  H   UNL     1       3.385  41.174   6.269  1.00  0.00     0.211 HD
ENDBRANCH  20  27
BRANCH  21  29
ATOM     29  C   UNL     1       0.898  41.209   4.886  1.00  0.00     0.191 C 
BRANCH  29  30
ATOM     30  O   UNL     1       1.400  42.215   5.732  1.00  0.00    -0.394 OA
ATOM     31  H   UNL     1       0.744  42.321   6.482  1.00  0.00     0.210 HD
ENDBRANCH  29  30
ENDBRANCH  21  29
ENDBRANCH   1  17
TORSDOF 13
ENDMDL
MODEL 3
REMARK VINA RESULT:    -4.264      1.717      2.901
REMARK INTER + INTRA:          -8.032
REMARK INTER:                  -6.519
REMARK INTRA:                  -1.513
REMARK UNBOUND:                -1.524
REMARK SMILES OC[C@@H]1O[C@](CO)(O[C@@H]2O[C@H](CO)[C@H](O)[C@H](O)[C@@H]2O)[C@@H](O)[C@H]1O
REMARK SMILES IDX 8 1 9 2 11 3 14 4 10 5 16 6 18 7 12 8 13 9 15 11 17 13 19 15
REMARK SMILES IDX 5 17 20 18 4 19 22 20 3 21 6 22 7 23 21 25 23 27 2 29 1 30
REMARK H PARENT 13 10 15 12 17 14 19 16 7 24 21 26 23 28 1 31
REMARK Flexibility Score: inf
ROOT
ATOM      1  O   UNL     1      -0.864  37.453   7.149  1.00  0.00    -0.313 OA
ENDROOT
BRANCH   1   2
ATOM      2  C   UNL     1      -1.670  38.498   6.610  1.00  0.00     0.285 C 
ATOM      3  C   UNL     1       0.004  39.892   5.556  1.00  0.00     0.178 C 
ATOM      4  C   UNL     1      -0.067  40.927   6.721  1.00  0.00     0.177 C 
ATOM      5  O   UNL     1      -1.114  39.020   5.408  1.00  0.00    -0.341 OA
ATOM      6  C   UNL     1      -0.697  40.371   8.021  1.00  0.00     0.179 C 
ATOM      7  C   UNL     1      -1.953  39.580   7.673  1.00  0.00     0.202 C 
BRANCH   3   8
ATOM      8  C   UNL     1       1.349  39.155   5.340  1.00  0.00     0.191 C 
BRANCH   8   9
ATOM      9  O   UNL     1       1.854  38.573   6.513  1.00  0.00    -0.394 OA
ATOM     10  H   UNL     1       2.622  38.036   6.246  1.00  0.00     0.210 HD
ENDBRANCH   8   9
ENDBRANCH   3   8
BRANCH   4  11
ATOM     11  O   UNL     1       1.191  41.520   6.963  1.00  0.00    -0.387 OA
ATOM     12  H   UNL     1       1.539  41.128   7.810  1.00  0.00     0.211 HD
ENDBRANCH   4  11
BRANCH   6  13
ATOM     13  O   UNL     1       0.192  39.618   8.817  1.00  0.00    -0.387 OA
ATOM     14  H   UNL     1       0.737  40.222   9.382  1.00  0.00     0.211 HD
ENDBRANCH   6  13
BRANCH   7  15
ATOM     15  O   UNL     1      -2.569  39.045   8.820  1.00  0.00    -0.385 OA
ATOM     16  H   UNL     1      -2.515  39.717   9.551  1.00  0.00     0.211 HD
ENDBRANCH   7  15
ENDBRANCH   1   2
BRANCH   1  17
ATOM     17  C   UNL     1      -1.216  36.143   6.686  1.00  0.00     0.224 C 
ATOM     18  C   UNL     1      -2.729  36.170   6.337  1.00  0.00     0.208 C 
ATOM     19  O   UNL     1      -1.021  35.164   7.705  1.00  0.00    -0.337 OA
ATOM     20  C   UNL     1      -3.360  35.342   7.434  1.00  0.00     0.180 C 
ATOM     21  C   UNL     1      -2.220  34.443   7.869  1.00  0.00     0.179 C 
BRANCH  17  22
ATOM     22  C   UNL     1      -0.360  35.757   5.440  1.00  0.00     0.225 C 
BRANCH  22  23
ATOM     23  O   UNL     1       0.275  34.508   5.610  1.00  0.00    -0.391 OA
ATOM     24  H   UNL     1      -0.356  33.809   5.285  1.00  0.00     0.210 HD
ENDBRANCH  22  23
ENDBRANCH  17  22
BRANCH  18  25
ATOM     25  O   UNL     1      -3.001  35.612   5.067  1.00  0.00    -0.385 OA
ATOM     26  H   UNL     1      -3.121  36.366   4.434  1.00  0.00     0.211 HD
ENDBRANCH  18  25
BRANCH  20  27
ATOM     27  O   UNL     1      -4.455  34.587   6.963  1.00  0.00    -0.387 OA
ATOM     28  H   UNL     1      -4.791  35.035   6.146  1.00  0.00     0.211 HD
ENDBRANCH  20  27
BRANCH  21  29
ATOM     29  C   UNL     1      -2.356  33.999   9.350  1.00  0.00     0.191 C 
BRANCH  29  30
ATOM     30  O   UNL     1      -1.359  34.583  10.153  1.00  0.00    -0.394 OA
ATOM     31  H   UNL     1      -0.515  34.591   9.613  1.00  0.00     0.210 HD
ENDBRANCH  29  30
ENDBRANCH  21  29
ENDBRANCH   1  17
TORSDOF 13
ENDMDL
MODEL 4
REMARK VINA RESULT:    -4.257     11.952     14.542
REMARK INTER + INTRA:          -8.022
REMARK INTER:                  -5.941
REMARK INTRA:                  -2.081
REMARK UNBOUND:                -1.524
REMARK SMILES OC[C@@H]1O[C@](CO)(O[C@@H]2O[C@H](CO)[C@H](O)[C@H](O)[C@@H]2O)[C@@H](O)[C@H]1O
REMARK SMILES IDX 8 1 9 2 11 3 14 4 10 5 16 6 18 7 12 8 13 9 15 11 17 13 19 15
REMARK SMILES IDX 5 17 20 18 4 19 22 20 3 21 6 22 7 23 21 25 23 27 2 29 1 30
REMARK H PARENT 13 10 15 12 17 14 19 16 7 24 21 26 23 28 1 31
REMARK Flexibility Score: inf
ROOT
ATOM      1  O   UNL     1       3.803  44.986  15.442  1.00  0.00    -0.313 OA
ENDROOT
BRANCH   1   2
ATOM      2  C   UNL     1       4.057  46.143  16.236  1.00  0.00     0.285 C 
ATOM      3  C   UNL     1       3.081  45.491  18.351  1.00  0.00     0.178 C 
ATOM      4  C   UNL     1       1.828  46.383  18.094  1.00  0.00     0.177 C 
ATOM      5  O   UNL     1       4.254  45.806  17.604  1.00  0.00    -0.341 OA
ATOM      6  C   UNL     1       1.627  46.776  16.610  1.00  0.00     0.179 C 
ATOM      7  C   UNL     1       2.963  47.210  16.020  1.00  0.00     0.202 C 
BRANCH   3   8
ATOM      8  C   UNL     1       2.856  43.963  18.463  1.00  0.00     0.191 C 
BRANCH   8   9
ATOM      9  O   UNL     1       2.136  43.431  17.380  1.00  0.00    -0.394 OA
ATOM     10  H   UNL     1       2.706  43.529  16.596  1.00  0.00     0.210 HD
ENDBRANCH   8   9
ENDBRANCH   3   8
BRANCH   4  11
ATOM     11  O   UNL     1       0.662  45.808  18.645  1.00  0.00    -0.387 OA
ATOM     12  H   UNL     1       0.392  46.379  19.415  1.00  0.00     0.211 HD
ENDBRANCH   4  11
BRANCH   6  13
ATOM     13  O   UNL     1       1.008  45.777  15.828  1.00  0.00    -0.387 OA
ATOM     14  H   UNL     1       1.401  45.767  14.919  1.00  0.00     0.211 HD
ENDBRANCH   6  13
BRANCH   7  15
ATOM     15  O   UNL     1       2.842  47.575  14.665  1.00  0.00    -0.385 OA
ATOM     16  H   UNL     1       3.563  47.124  14.150  1.00  0.00     0.211 HD
ENDBRANCH   7  15
ENDBRANCH   1   2
BRANCH   1  17
ATOM     17  C   UNL     1       4.900  44.596  14.606  1.00  0.00     0.224 C 
ATOM     18  C   UNL     1       5.102  43.068  14.795  1.00  0.00     0.208 C 
ATOM     19  O   UNL     1       6.107  45.248  14.998  1.00  0.00    -0.337 OA
ATOM     20  C   UNL     1       6.393  42.976  15.576  1.00  0.00     0.180 C 
ATOM     21  C   UNL     1       7.096  44.267  15.209  1.00  0.00     0.179 C 
BRANCH  17  22
ATOM     22  C   UNL     1       4.598  44.941  13.114  1.00  0.00     0.225 C 
BRANCH  22  23
ATOM     23  O   UNL     1       3.250  45.316  12.929  1.00  0.00    -0.391 OA
ATOM     24  H   UNL     1       2.706  44.796  13.583  1.00  0.00     0.210 HD
ENDBRANCH  22  23
ENDBRANCH  17  22
BRANCH  18  25
ATOM     25  O   UNL     1       5.209  42.381  13.565  1.00  0.00    -0.385 OA
ATOM     26  H   UNL     1       5.919  42.829  13.037  1.00  0.00     0.211 HD
ENDBRANCH  18  25
BRANCH  20  27
ATOM     27  O   UNL     1       7.159  41.852  15.200  1.00  0.00    -0.387 OA
ATOM     28  H   UNL     1       7.292  41.901  14.221  1.00  0.00     0.211 HD
ENDBRANCH  20  27
BRANCH  21  29
ATOM     29  C   UNL     1       8.065  44.745  16.324  1.00  0.00     0.191 C 
BRANCH  29  30
ATOM     30  O   UNL     1       7.361  45.264  17.426  1.00  0.00    -0.394 OA
ATOM     31  H   UNL     1       6.410  45.386  17.135  1.00  0.00     0.210 HD
ENDBRANCH  29  30
ENDBRANCH  21  29
ENDBRANCH   1  17
TORSDOF 13
ENDMDL
MODEL 5
REMARK VINA RESULT:    -4.116      1.555      5.493
REMARK INTER + INTRA:          -7.806
REMARK INTER:                  -5.626
REMARK INTRA:                  -2.180
REMARK UNBOUND:                -1.524
REMARK SMILES OC[C@@H]1O[C@](CO)(O[C@@H]2O[C@H](CO)[C@H](O)[C@H](O)[C@@H]2O)[C@@H](O)[C@H]1O
REMARK SMILES IDX 8 1 9 2 11 3 14 4 10 5 16 6 18 7 12 8 13 9 15 11 17 13 19 15
REMARK SMILES IDX 5 17 20 18 4 19 22 20 3 21 6 22 7 23 21 25 23 27 2 29 1 30
REMARK H PARENT 13 10 15 12 17 14 19 16 7 24 21 26 23 28 1 31
REMARK Flexibility Score: inf
ROOT
ATOM      1  O   UNL     1      -2.604  36.544   6.637  1.00  0.00    -0.313 OA
ENDROOT
BRANCH   1   2
ATOM      2  C   UNL     1      -3.268  37.114   7.763  1.00  0.00     0.285 C 
ATOM      3  C   UNL     1      -3.865  35.132   9.016  1.00  0.00     0.178 C 
ATOM      4  C   UNL     1      -5.348  35.232   8.545  1.00  0.00     0.177 C 
ATOM      5  O   UNL     1      -3.087  36.324   8.932  1.00  0.00    -0.341 OA
ATOM      6  C   UNL     1      -5.553  36.113   7.289  1.00  0.00     0.179 C 
ATOM      7  C   UNL     1      -4.751  37.400   7.442  1.00  0.00     0.202 C 
BRANCH   3   8
ATOM      8  C   UNL     1      -3.061  33.882   8.580  1.00  0.00     0.191 C 
BRANCH   8   9
ATOM      9  O   UNL     1      -3.222  33.569   7.221  1.00  0.00    -0.394 OA
ATOM     10  H   UNL     1      -2.347  33.682   6.806  1.00  0.00     0.210 HD
ENDBRANCH   8   9
ENDBRANCH   3   8
BRANCH   4  11
ATOM     11  O   UNL     1      -5.927  33.953   8.385  1.00  0.00    -0.387 OA
ATOM     12  H   UNL     1      -5.193  33.333   8.122  1.00  0.00     0.211 HD
ENDBRANCH   4  11
BRANCH   6  13
ATOM     13  O   UNL     1      -5.267  35.459   6.072  1.00  0.00    -0.387 OA
ATOM     14  H   UNL     1      -5.245  36.115   5.331  1.00  0.00     0.211 HD
ENDBRANCH   6  13
BRANCH   7  15
ATOM     15  O   UNL     1      -4.895  38.242   6.323  1.00  0.00    -0.385 OA
ATOM     16  H   UNL     1      -4.001  38.373   5.907  1.00  0.00     0.211 HD
ENDBRANCH   7  15
ENDBRANCH   1   2
BRANCH   1  17
ATOM     17  C   UNL     1      -1.762  37.460   5.927  1.00  0.00     0.224 C 
ATOM     18  C   UNL     1      -0.293  37.024   6.179  1.00  0.00     0.208 C 
ATOM     19  O   UNL     1      -1.913  38.790   6.419  1.00  0.00    -0.337 OA
ATOM     20  C   UNL     1       0.245  38.105   7.089  1.00  0.00     0.180 C 
ATOM     21  C   UNL     1      -0.640  39.289   6.757  1.00  0.00     0.179 C 
BRANCH  17  22
ATOM     22  C   UNL     1      -2.098  37.441   4.403  1.00  0.00     0.225 C 
BRANCH  22  23
ATOM     23  O   UNL     1      -3.372  36.885   4.157  1.00  0.00    -0.391 OA
ATOM     24  H   UNL     1      -3.506  36.150   4.818  1.00  0.00     0.210 HD
ENDBRANCH  22  23
ENDBRANCH  17  22
BRANCH  18  25
ATOM     25  O   UNL     1       0.461  36.949   4.987  1.00  0.00    -0.385 OA
ATOM     26  H   UNL     1       1.230  36.348   5.162  1.00  0.00     0.211 HD
ENDBRANCH  18  25
BRANCH  20  27
ATOM     27  O   UNL     1       1.602  38.391   6.825  1.00  0.00    -0.387 OA
ATOM     28  H   UNL     1       1.653  39.338   6.542  1.00  0.00     0.211 HD
ENDBRANCH  20  27
BRANCH  21  29
ATOM     29  C   UNL     1      -0.773  40.274   7.949  1.00  0.00     0.191 C 
BRANCH  29  30
ATOM     30  O   UNL     1       0.086  39.920   9.005  1.00  0.00    -0.394 OA
ATOM     31  H   UNL     1      -0.294  39.093   9.426  1.00  0.00     0.210 HD
ENDBRANCH  29  30
ENDBRANCH  21  29
ENDBRANCH   1  17
TORSDOF 13
ENDMDL
MODEL 6
REMARK VINA RESULT:    -4.112     12.157     13.768
REMARK INTER + INTRA:          -7.800
REMARK INTER:                  -5.904
REMARK INTRA:                  -1.895
REMARK UNBOUND:                -1.524
REMARK SMILES OC[C@@H]1O[C@](CO)(O[C@@H]2O[C@H](CO)[C@H](O)[C@H](O)[C@@H]2O)[C@@H](O)[C@H]1O
REMARK SMILES IDX 8 1 9 2 11 3 14 4 10 5 16 6 18 7 12 8 13 9 15 11 17 13 19 15
REMARK SMILES IDX 5 17 20 18 4 19 22 20 3 21 6 22 7 23 21 25 23 27 2 29 1 30
REMARK H PARENT 13 10 15 12 17 14 19 16 7 24 21 26 23 28 1 31
REMARK Flexibility Score: inf
ROOT
ATOM      1  O   UNL     1       4.452  44.615  15.795  1.00  0.00    -0.313 OA
ENDROOT
BRANCH   1   2
ATOM      2  C   UNL     1       5.859  44.845  15.762  1.00  0.00     0.285 C 
ATOM      3  C   UNL     1       6.231  45.177  13.394  1.00  0.00     0.178 C 
ATOM      4  C   UNL     1       6.825  43.743  13.245  1.00  0.00     0.177 C 
ATOM      5  O   UNL     1       6.220  45.730  14.708  1.00  0.00    -0.341 OA
ATOM      6  C   UNL     1       6.458  42.784  14.404  1.00  0.00     0.179 C 
ATOM      7  C   UNL     1       6.635  43.511  15.732  1.00  0.00     0.202 C 
BRANCH   3   8
ATOM      8  C   UNL     1       4.926  45.491  12.620  1.00  0.00     0.191 C 
BRANCH   8   9
ATOM      9  O   UNL     1       3.896  44.573  12.880  1.00  0.00    -0.394 OA
ATOM     10  H   UNL     1       4.208  43.709  12.555  1.00  0.00     0.210 HD
ENDBRANCH   8   9
ENDBRANCH   3   8
BRANCH   4  11
ATOM     11  O   UNL     1       6.514  43.182  11.986  1.00  0.00    -0.387 OA
ATOM     12  H   UNL     1       5.583  42.834  12.046  1.00  0.00     0.211 HD
ENDBRANCH   4  11
BRANCH   6  13
ATOM     13  O   UNL     1       5.176  42.206  14.291  1.00  0.00    -0.387 OA
ATOM     14  H   UNL     1       5.246  41.300  13.897  1.00  0.00     0.211 HD
ENDBRANCH   6  13
BRANCH   7  15
ATOM     15  O   UNL     1       6.310  42.687  16.827  1.00  0.00    -0.385 OA
ATOM     16  H   UNL     1       5.320  42.654  16.915  1.00  0.00     0.211 HD
ENDBRANCH   7  15
ENDBRANCH   1   2
BRANCH   1  17
ATOM     17  C   UNL     1       3.748  45.427  16.742  1.00  0.00     0.224 C 
ATOM     18  C   UNL     1       2.235  45.112  16.581  1.00  0.00     0.208 C 
ATOM     19  O   UNL     1       3.935  46.815  16.474  1.00  0.00    -0.337 OA
ATOM     20  C   UNL     1       1.680  46.363  15.939  1.00  0.00     0.180 C 
ATOM     21  C   UNL     1       2.669  47.426  16.371  1.00  0.00     0.179 C 
BRANCH  17  22
ATOM     22  C   UNL     1       4.233  45.118  18.192  1.00  0.00     0.225 C 
BRANCH  22  23
ATOM     23  O   UNL     1       4.065  43.756  18.519  1.00  0.00    -0.391 OA
ATOM     24  H   UNL     1       4.627  43.229  17.886  1.00  0.00     0.210 HD
ENDBRANCH  22  23
ENDBRANCH  17  22
BRANCH  18  25
ATOM     25  O   UNL     1       1.601  44.859  17.818  1.00  0.00    -0.385 OA
ATOM     26  H   UNL     1       0.690  44.521  17.620  1.00  0.00     0.211 HD
ENDBRANCH  18  25
BRANCH  20  27
ATOM     27  O   UNL     1       0.378  46.659  16.396  1.00  0.00    -0.387 OA
ATOM     28  H   UNL     1       0.262  46.204  17.267  1.00  0.00     0.211 HD
ENDBRANCH  20  27
BRANCH  21  29
ATOM     29  C   UNL     1       2.746  48.601  15.361  1.00  0.00     0.191 C 
BRANCH  29  30
ATOM     30  O   UNL     1       3.190  48.165  14.099  1.00  0.00    -0.394 OA
ATOM     31  H   UNL     1       2.438  47.644  13.689  1.00  0.00     0.210 HD
ENDBRANCH  29  30
ENDBRANCH  21  29
ENDBRANCH   1  17
TORSDOF 13
ENDMDL
MODEL 7
REMARK VINA RESULT:    -4.096     12.122     13.882
REMARK INTER + INTRA:          -7.776
REMARK INTER:                  -6.224
REMARK INTRA:                  -1.552
REMARK UNBOUND:                -1.524
REMARK SMILES OC[C@@H]1O[C@](CO)(O[C@@H]2O[C@H](CO)[C@H](O)[C@H](O)[C@@H]2O)[C@@H](O)[C@H]1O
REMARK SMILES IDX 8 1 9 2 11 3 14 4 10 5 16 6 18 7 12 8 13 9 15 11 17 13 19 15
REMARK SMILES IDX 5 17 20 18 4 19 22 20 3 21 6 22 7 23 21 25 23 27 2 29 1 30
REMARK H PARENT 13 10 15 12 17 14 19 16 7 24 21 26 23 28 1 31
REMARK Flexibility Score: inf
ROOT
ATOM      1  O   UNL     1       3.890  44.827  15.438  1.00  0.00    -0.313 OA
ENDROOT
BRANCH   1   2
ATOM      2  C   UNL     1       5.257  45.232  15.473  1.00  0.00     0.285 C 
ATOM      3  C   UNL     1       5.611  45.909  13.178  1.00  0.00     0.178 C 
ATOM      4  C   UNL     1       6.385  44.591  12.867  1.00  0.00     0.177 C 
ATOM      5  O   UNL     1       5.515  46.284  14.550  1.00  0.00    -0.341 OA
ATOM      6  C   UNL     1       6.128  43.453  13.885  1.00  0.00     0.179 C 
ATOM      7  C   UNL     1       6.196  44.020  15.298  1.00  0.00     0.202 C 
BRANCH   3   8
ATOM      8  C   UNL     1       4.287  46.155  12.413  1.00  0.00     0.191 C 
BRANCH   8   9
ATOM      9  O   UNL     1       3.398  45.070  12.486  1.00  0.00    -0.394 OA
ATOM     10  H   UNL     1       3.530  44.664  13.362  1.00  0.00     0.210 HD
ENDBRANCH   8   9
ENDBRANCH   3   8
BRANCH   4  11
ATOM     11  O   UNL     1       6.163  44.162  11.539  1.00  0.00    -0.387 OA
ATOM     12  H   UNL     1       5.259  43.744  11.516  1.00  0.00     0.211 HD
ENDBRANCH   4  11
BRANCH   6  13
ATOM     13  O   UNL     1       4.932  42.739  13.664  1.00  0.00    -0.387 OA
ATOM     14  H   UNL     1       5.132  41.857  13.262  1.00  0.00     0.211 HD
ENDBRANCH   6  13
BRANCH   7  15
ATOM     15  O   UNL     1       5.965  43.029  16.271  1.00  0.00    -0.385 OA
ATOM     16  H   UNL     1       6.757  42.427  16.304  1.00  0.00     0.211 HD
ENDBRANCH   7  15
ENDBRANCH   1   2
BRANCH   1  17
ATOM     17  C   UNL     1       3.063  45.466  16.418  1.00  0.00     0.224 C 
ATOM     18  C   UNL     1       3.990  45.908  17.583  1.00  0.00     0.208 C 
ATOM     19  O   UNL     1       2.097  44.561  16.949  1.00  0.00    -0.337 OA
ATOM     20  C   UNL     1       3.624  44.963  18.705  1.00  0.00     0.180 C 
ATOM     21  C   UNL     1       2.205  44.565  18.354  1.00  0.00     0.179 C 
BRANCH  17  22
ATOM     22  C   UNL     1       2.324  46.690  15.794  1.00  0.00     0.225 C 
BRANCH  22  23
ATOM     23  O   UNL     1       0.926  46.502  15.777  1.00  0.00    -0.391 OA
ATOM     24  H   UNL     1       0.545  47.057  16.512  1.00  0.00     0.210 HD
ENDBRANCH  22  23
ENDBRANCH  17  22
BRANCH  18  25
ATOM     25  O   UNL     1       3.772  47.251  17.967  1.00  0.00    -0.385 OA
ATOM     26  H   UNL     1       3.014  47.256  18.605  1.00  0.00     0.211 HD
ENDBRANCH  18  25
BRANCH  20  27
ATOM     27  O   UNL     1       3.681  45.593  19.967  1.00  0.00    -0.387 OA
ATOM     28  H   UNL     1       4.350  45.104  20.509  1.00  0.00     0.211 HD
ENDBRANCH  20  27
BRANCH  21  29
ATOM     29  C   UNL     1       1.837  43.160  18.902  1.00  0.00     0.191 C 
BRANCH  29  30
ATOM     30  O   UNL     1       1.475  42.283  17.862  1.00  0.00    -0.394 OA
ATOM     31  H   UNL     1       1.775  41.367  18.135  1.00  0.00     0.210 HD
ENDBRANCH  29  30
ENDBRANCH  21  29
ENDBRANCH   1  17
TORSDOF 13
ENDMDL
MODEL 8
REMARK VINA RESULT:    -4.091      1.868      3.099
REMARK INTER + INTRA:          -7.768
REMARK INTER:                  -5.774
REMARK INTRA:                  -1.994
REMARK UNBOUND:                -1.524
REMARK SMILES OC[C@@H]1O[C@](CO)(O[C@@H]2O[C@H](CO)[C@H](O)[C@H](O)[C@@H]2O)[C@@H](O)[C@H]1O
REMARK SMILES IDX 8 1 9 2 11 3 14 4 10 5 16 6 18 7 12 8 13 9 15 11 17 13 19 15
REMARK SMILES IDX 5 17 20 18 4 19 22 20 3 21 6 22 7 23 21 25 23 27 2 29 1 30
REMARK H PARENT 13 10 15 12 17 14 19 16 7 24 21 26 23 28 1 31
REMARK Flexibility Score: inf
ROOT
ATOM      1  O   UNL     1      -2.670  38.069   8.392  1.00  0.00    -0.313 OA
ENDROOT
BRANCH   1   2
ATOM      2  C   UNL     1      -3.039  39.006   7.383  1.00  0.00     0.285 C 
ATOM      3  C   UNL     1      -1.081  38.967   5.962  1.00  0.00     0.178 C 
ATOM      4  C   UNL     1      -0.586  40.329   6.539  1.00  0.00     0.177 C 
ATOM      5  O   UNL     1      -2.467  38.671   6.124  1.00  0.00    -0.341 OA
ATOM      6  C   UNL     1      -1.228  40.710   7.895  1.00  0.00     0.179 C 
ATOM      7  C   UNL     1      -2.728  40.450   7.832  1.00  0.00     0.202 C 
BRANCH   3   8
ATOM      8  C   UNL     1      -0.189  37.725   6.203  1.00  0.00     0.191 C 
BRANCH   8   9
ATOM      9  O   UNL     1       0.229  37.596   7.538  1.00  0.00    -0.394 OA
ATOM     10  H   UNL     1       0.672  38.433   7.770  1.00  0.00     0.210 HD
ENDBRANCH   8   9
ENDBRANCH   3   8
BRANCH   4  11
ATOM     11  O   UNL     1       0.824  40.384   6.595  1.00  0.00    -0.387 OA
ATOM     12  H   UNL     1       1.164  39.528   6.216  1.00  0.00     0.211 HD
ENDBRANCH   4  11
BRANCH   6  13
ATOM     13  O   UNL     1      -0.634  40.083   9.011  1.00  0.00    -0.387 OA
ATOM     14  H   UNL     1      -1.283  39.473   9.443  1.00  0.00     0.211 HD
ENDBRANCH   6  13
BRANCH   7  15
ATOM     15  O   UNL     1      -3.367  40.775   9.043  1.00  0.00    -0.385 OA
ATOM     16  H   UNL     1      -2.723  41.268   9.618  1.00  0.00     0.211 HD
ENDBRANCH   7  15
ENDBRANCH   1   2
BRANCH   1  17
ATOM     17  C   UNL     1      -3.592  36.983   8.549  1.00  0.00     0.224 C 
ATOM     18  C   UNL     1      -2.797  35.669   8.316  1.00  0.00     0.208 C 
ATOM     19  O   UNL     1      -4.632  37.042   7.575  1.00  0.00    -0.337 OA
ATOM     20  C   UNL     1      -3.311  35.177   6.981  1.00  0.00     0.180 C 
ATOM     21  C   UNL     1      -4.688  35.805   6.904  1.00  0.00     0.179 C 
BRANCH  17  22
ATOM     22  C   UNL     1      -4.227  37.008   9.974  1.00  0.00     0.225 C 
BRANCH  22  23
ATOM     23  O   UNL     1      -4.265  38.315  10.505  1.00  0.00    -0.391 OA
ATOM     24  H   UNL     1      -3.437  38.780  10.203  1.00  0.00     0.210 HD
ENDBRANCH  22  23
ENDBRANCH  17  22
BRANCH  18  25
ATOM     25  O   UNL     1      -3.030  34.710   9.327  1.00  0.00    -0.385 OA
ATOM     26  H   UNL     1      -2.377  33.976   9.193  1.00  0.00     0.211 HD
ENDBRANCH  18  25
BRANCH  20  27
ATOM     27  O   UNL     1      -3.388  33.769   6.930  1.00  0.00    -0.387 OA
ATOM     28  H   UNL     1      -4.264  33.536   6.533  1.00  0.00     0.211 HD
ENDBRANCH  20  27
BRANCH  21  29
ATOM     29  C   UNL     1      -5.146  36.034   5.439  1.00  0.00     0.191 C 
BRANCH  29  30
ATOM     30  O   UNL     1      -4.113  35.749   4.528  1.00  0.00    -0.394 OA
ATOM     31  H   UNL     1      -3.393  36.430   4.678  1.00  0.00     0.210 HD
ENDBRANCH  29  30
ENDBRANCH  21  29
ENDBRANCH   1  17
TORSDOF 13
ENDMDL
MODEL 9
REMARK VINA RESULT:    -4.059     11.897     14.306
REMARK INTER + INTRA:          -7.718
REMARK INTER:                  -6.073
REMARK INTRA:                  -1.646
REMARK UNBOUND:                -1.524
REMARK SMILES OC[C@@H]1O[C@](CO)(O[C@@H]2O[C@H](CO)[C@H](O)[C@H](O)[C@@H]2O)[C@@H](O)[C@H]1O
REMARK SMILES IDX 8 1 9 2 11 3 14 4 10 5 16 6 18 7 12 8 13 9 15 11 17 13 19 15
REMARK SMILES IDX 5 17 20 18 4 19 22 20 3 21 6 22 7 23 21 25 23 27 2 29 1 30
REMARK H PARENT 13 10 15 12 17 14 19 16 7 24 21 26 23 28 1 31
REMARK Flexibility Score: inf
ROOT
ATOM      1  O   UNL     1       3.739  44.887  15.456  1.00  0.00    -0.313 OA
ENDROOT
BRANCH   1   2
ATOM      2  C   UNL     1       4.037  46.041  16.239  1.00  0.00     0.285 C 
ATOM      3  C   UNL     1       3.060  45.436  18.368  1.00  0.00     0.178 C 
ATOM      4  C   UNL     1       1.834  46.366  18.116  1.00  0.00     0.177 C 
ATOM      5  O   UNL     1       4.235  45.708  17.608  1.00  0.00    -0.341 OA
ATOM      6  C   UNL     1       1.631  46.754  16.631  1.00  0.00     0.179 C 
ATOM      7  C   UNL     1       2.975  47.141  16.025  1.00  0.00     0.202 C 
BRANCH   3   8
ATOM      8  C   UNL     1       2.787  43.916  18.493  1.00  0.00     0.191 C 
BRANCH   8   9
ATOM      9  O   UNL     1       2.059  43.396  17.411  1.00  0.00    -0.394 OA
ATOM     10  H   UNL     1       2.517  42.580  17.137  1.00  0.00     0.210 HD
ENDBRANCH   8   9
ENDBRANCH   3   8
BRANCH   4  11
ATOM     11  O   UNL     1       0.655  45.832  18.682  1.00  0.00    -0.387 OA
ATOM     12  H   UNL     1       0.818  44.861  18.829  1.00  0.00     0.211 HD
ENDBRANCH   4  11
BRANCH   6  13
ATOM     13  O   UNL     1       0.974  45.770  15.862  1.00  0.00    -0.387 OA
ATOM     14  H   UNL     1       0.711  45.009  16.438  1.00  0.00     0.211 HD
ENDBRANCH   6  13
BRANCH   7  15
ATOM     15  O   UNL     1       2.853  47.500  14.669  1.00  0.00    -0.385 OA
ATOM     16  H   UNL     1       3.342  46.831  14.119  1.00  0.00     0.211 HD
ENDBRANCH   7  15
ENDBRANCH   1   2
BRANCH   1  17
ATOM     17  C   UNL     1       4.778  44.513  14.544  1.00  0.00     0.224 C 
ATOM     18  C   UNL     1       5.959  45.498  14.764  1.00  0.00     0.208 C 
ATOM     19  O   UNL     1       4.349  44.641  13.190  1.00  0.00    -0.337 OA
ATOM     20  C   UNL     1       5.941  46.354  13.517  1.00  0.00     0.180 C 
ATOM     21  C   UNL     1       5.277  45.448  12.501  1.00  0.00     0.179 C 
BRANCH  17  22
ATOM     22  C   UNL     1       5.224  43.040  14.800  1.00  0.00     0.225 C 
BRANCH  22  23
ATOM     23  O   UNL     1       4.852  42.191  13.735  1.00  0.00    -0.391 OA
ATOM     24  H   UNL     1       4.993  42.699  12.889  1.00  0.00     0.210 HD
ENDBRANCH  22  23
ENDBRANCH  17  22
BRANCH  18  25
ATOM     25  O   UNL     1       7.199  44.835  14.900  1.00  0.00    -0.385 OA
ATOM     26  H   UNL     1       7.855  45.500  15.232  1.00  0.00     0.211 HD
ENDBRANCH  18  25
BRANCH  20  27
ATOM     27  O   UNL     1       7.242  46.716  13.106  1.00  0.00    -0.387 OA
ATOM     28  H   UNL     1       7.512  47.502  13.644  1.00  0.00     0.211 HD
ENDBRANCH  20  27
BRANCH  21  29
ATOM     29  C   UNL     1       4.539  46.248  11.394  1.00  0.00     0.191 C 
BRANCH  29  30
ATOM     30  O   UNL     1       3.603  47.142  11.946  1.00  0.00    -0.394 OA
ATOM     31  H   UNL     1       4.084  48.004  12.113  1.00  0.00     0.210 HD
ENDBRANCH  29  30
ENDBRANCH  21  29
ENDBRANCH   1  17
TORSDOF 13
ENDMDL
