MODEL 1
REMARK VINA RESULT:    -4.333      0.000      0.000
REMARK INTER + INTRA:         -11.389
REMARK INTER:                  -8.386
REMARK INTRA:                  -3.004
REMARK UNBOUND:                -3.004
REMARK SMILES CCCCCCCCCCCCCCCCCC(=O)[O-]
REMARK SMILES IDX 10 1 11 2 12 3 13 4 14 5 15 6 16 7 17 8 18 9 19 10 20 11
REMARK SMILES IDX 9 12 8 13 7 14 6 15 5 16 4 17 3 18 2 19 1 20
REMARK H PARENT
REMARK Flexibility Score: inf
ROOT
ATOM      1  C   UNL     1      19.939  -4.652  23.811  1.00  0.00     0.000 C 
ENDROOT
BRANCH   1   2
ATOM      2  C   UNL     1      21.169  -3.798  24.160  1.00  0.00     0.000 C 
BRANCH   2   3
ATOM      3  C   UNL     1      20.969  -2.343  23.723  1.00  0.00     0.000 C 
BRANCH   3   4
ATOM      4  C   UNL     1      22.205  -1.815  22.985  1.00  0.00     0.000 C 
BRANCH   4   5
ATOM      5  C   UNL     1      22.288  -2.394  21.565  1.00  0.00     0.000 C 
BRANCH   5   6
ATOM      6  C   UNL     1      21.012  -2.139  20.745  1.00  0.00     0.000 C 
BRANCH   6   7
ATOM      7  C   UNL     1      21.035  -2.846  19.382  1.00  0.00     0.006 C 
BRANCH   7   8
ATOM      8  C   UNL     1      22.436  -2.804  18.764  1.00  0.00     0.053 C 
BRANCH   8   9
ATOM      9  C   UNL     1      22.858  -4.172  18.329  1.00  0.00     0.041 C 
ATOM     10  O   UNL     1      22.941  -4.451  17.104  1.00  0.00    -0.550 OA
ATOM     11  O   UNL     1      23.122  -5.152  19.278  1.00  0.00    -0.550 OA
ENDBRANCH   8   9
ENDBRANCH   7   8
ENDBRANCH   6   7
ENDBRANCH   5   6
ENDBRANCH   4   5
ENDBRANCH   3   4
ENDBRANCH   2   3
ENDBRANCH   1   2
BRANCH   1  12
ATOM     12  C   UNL     1      20.065  -5.330  22.438  1.00  0.00     0.000 C 
BRANCH  12  13
ATOM     13  C   UNL     1      18.868  -5.032  21.519  1.00  0.00    -0.000 C 
BRANCH  13  14
ATOM     14  C   UNL     1      17.789  -4.180  22.221  1.00  0.00    -0.000 C 
BRANCH  14  15
ATOM     15  C   UNL     1      17.543  -2.816  21.549  1.00  0.00    -0.000 C 
BRANCH  15  16
ATOM     16  C   UNL     1      17.691  -1.595  22.476  1.00  0.00    -0.000 C 
BRANCH  16  17
ATOM     17  C   UNL     1      16.763  -1.596  23.707  1.00  0.00    -0.000 C 
BRANCH  17  18
ATOM     18  C   UNL     1      17.534  -1.680  25.034  1.00  0.00    -0.000 C 
BRANCH  18  19
ATOM     19  C   UNL     1      17.357  -3.038  25.732  1.00  0.00    -0.003 C 
ATOM     20  C   UNL     1      16.033  -3.717  25.381  1.00  0.00     0.004 C 
ENDBRANCH  18  19
ENDBRANCH  17  18
ENDBRANCH  16  17
ENDBRANCH  15  16
ENDBRANCH  14  15
ENDBRANCH  13  14
ENDBRANCH  12  13
ENDBRANCH   1  12
TORSDOF 16
ENDMDL
MODEL 2
REMARK VINA RESULT:    -4.313     14.562     16.689
REMARK INTER + INTRA:         -11.350
REMARK INTER:                  -8.283
REMARK INTRA:                  -3.067
REMARK UNBOUND:                -3.004
REMARK SMILES CCCCCCCCCCCCCCCCCC(=O)[O-]
REMARK SMILES IDX 10 1 11 2 12 3 13 4 14 5 15 6 16 7 17 8 18 9 19 10 20 11
REMARK SMILES IDX 9 12 8 13 7 14 6 15 5 16 4 17 3 18 2 19 1 20
REMARK H PARENT
REMARK Flexibility Score: inf
ROOT
ATOM      1  C   UNL     1      13.844   4.780   6.001  1.00  0.00     0.000 C 
ENDROOT
BRANCH   1   2
ATOM      2  C   UNL     1      13.745   3.249   6.094  1.00  0.00     0.000 C 
BRANCH   2   3
ATOM      3  C   UNL     1      14.614   2.711   7.237  1.00  0.00     0.000 C 
BRANCH   3   4
ATOM      4  C   UNL     1      14.144   1.320   7.678  1.00  0.00     0.000 C 
BRANCH   4   5
ATOM      5  C   UNL     1      14.702   0.965   9.064  1.00  0.00     0.000 C 
BRANCH   5   6
ATOM      6  C   UNL     1      15.807   1.930   9.525  1.00  0.00     0.000 C 
BRANCH   6   7
ATOM      7  C   UNL     1      16.130   1.789  11.020  1.00  0.00     0.006 C 
BRANCH   7   8
ATOM      8  C   UNL     1      15.343   0.632  11.645  1.00  0.00     0.053 C 
BRANCH   8   9
ATOM      9  C   UNL     1      14.643   1.086  12.887  1.00  0.00     0.041 C 
ATOM     10  O   UNL     1      14.342   0.256  13.785  1.00  0.00    -0.550 OA
ATOM     11  O   UNL     1      14.288   2.420  13.036  1.00  0.00    -0.550 OA
ENDBRANCH   8   9
ENDBRANCH   7   8
ENDBRANCH   6   7
ENDBRANCH   5   6
ENDBRANCH   4   5
ENDBRANCH   3   4
ENDBRANCH   2   3
ENDBRANCH   1   2
BRANCH   1  12
ATOM     12  C   UNL     1      12.468   5.452   5.875  1.00  0.00     0.000 C 
BRANCH  12  13
ATOM     13  C   UNL     1      12.305   6.650   6.825  1.00  0.00    -0.000 C 
BRANCH  13  14
ATOM     14  C   UNL     1      13.359   6.651   7.953  1.00  0.00    -0.000 C 
BRANCH  14  15
ATOM     15  C   UNL     1      12.809   6.184   9.314  1.00  0.00    -0.000 C 
BRANCH  15  16
ATOM     16  C   UNL     1      13.417   4.874   9.850  1.00  0.00    -0.000 C 
BRANCH  16  17
ATOM     17  C   UNL     1      12.418   3.712  10.014  1.00  0.00    -0.000 C 
BRANCH  17  18
ATOM     18  C   UNL     1      11.062   3.993   9.346  1.00  0.00    -0.000 C 
BRANCH  18  19
ATOM     19  C   UNL     1      10.795   3.071   8.146  1.00  0.00    -0.003 C 
ATOM     20  C   UNL     1       9.554   3.477   7.351  1.00  0.00     0.004 C 
ENDBRANCH  18  19
ENDBRANCH  17  18
ENDBRANCH  16  17
ENDBRANCH  15  16
ENDBRANCH  14  15
ENDBRANCH  13  14
ENDBRANCH  12  13
ENDBRANCH   1  12
TORSDOF 16
ENDMDL
MODEL 3
REMARK VINA RESULT:    -4.281      3.263      5.827
REMARK INTER + INTRA:         -11.289
REMARK INTER:                  -8.109
REMARK INTRA:                  -3.179
REMARK UNBOUND:                -3.004
REMARK SMILES CCCCCCCCCCCCCCCCCC(=O)[O-]
REMARK SMILES IDX 10 1 11 2 12 3 13 4 14 5 15 6 16 7 17 8 18 9 19 10 20 11
REMARK SMILES IDX 9 12 8 13 7 14 6 15 5 16 4 17 3 18 2 19 1 20
REMARK H PARENT
REMARK Flexibility Score: inf
ROOT
ATOM      1  C   UNL     1      22.081  -2.436  21.823  1.00  0.00     0.000 C 
ENDROOT
BRANCH   1   2
ATOM      2  C   UNL     1      22.437  -1.520  23.005  1.00  0.00     0.000 C 
BRANCH   2   3
ATOM      3  C   UNL     1      21.369  -0.439  23.204  1.00  0.00     0.000 C 
BRANCH   3   4
ATOM      4  C   UNL     1      20.258  -0.563  22.154  1.00  0.00     0.000 C 
BRANCH   4   5
ATOM      5  C   UNL     1      18.871  -0.475  22.807  1.00  0.00     0.000 C 
BRANCH   5   6
ATOM      6  C   UNL     1      18.766  -1.314  24.091  1.00  0.00     0.000 C 
BRANCH   6   7
ATOM      7  C   UNL     1      17.470  -1.043  24.870  1.00  0.00     0.006 C 
BRANCH   7   8
ATOM      8  C   UNL     1      17.086  -2.248  25.735  1.00  0.00     0.053 C 
BRANCH   8   9
ATOM      9  C   UNL     1      16.327  -3.252  24.926  1.00  0.00     0.041 C 
ATOM     10  O   UNL     1      16.360  -4.473  25.236  1.00  0.00    -0.550 OA
ATOM     11  O   UNL     1      15.614  -2.846  23.805  1.00  0.00    -0.550 OA
ENDBRANCH   8   9
ENDBRANCH   7   8
ENDBRANCH   6   7
ENDBRANCH   5   6
ENDBRANCH   4   5
ENDBRANCH   3   4
ENDBRANCH   2   3
ENDBRANCH   1   2
BRANCH   1  12
ATOM     12  C   UNL     1      21.993  -3.915  22.230  1.00  0.00     0.000 C 
BRANCH  12  13
ATOM     13  C   UNL     1      21.513  -4.102  23.679  1.00  0.00    -0.000 C 
BRANCH  13  14
ATOM     14  C   UNL     1      20.111  -4.745  23.753  1.00  0.00    -0.000 C 
BRANCH  14  15
ATOM     15  C   UNL     1      19.556  -5.178  22.382  1.00  0.00    -0.000 C 
BRANCH  15  16
ATOM     16  C   UNL     1      18.140  -4.664  22.059  1.00  0.00    -0.000 C 
BRANCH  16  17
ATOM     17  C   UNL     1      18.086  -3.489  21.062  1.00  0.00    -0.000 C 
BRANCH  17  18
ATOM     18  C   UNL     1      19.108  -3.628  19.922  1.00  0.00    -0.000 C 
BRANCH  18  19
ATOM     19  C   UNL     1      19.238  -2.342  19.090  1.00  0.00    -0.003 C 
ATOM     20  C   UNL     1      20.594  -2.220  18.393  1.00  0.00     0.004 C 
ENDBRANCH  18  19
ENDBRANCH  17  18
ENDBRANCH  16  17
ENDBRANCH  15  16
ENDBRANCH  14  15
ENDBRANCH  13  14
ENDBRANCH  12  13
ENDBRANCH   1  12
TORSDOF 16
ENDMDL
MODEL 4
REMARK VINA RESULT:    -4.256     13.600     16.185
REMARK INTER + INTRA:         -11.240
REMARK INTER:                  -9.579
REMARK INTRA:                  -1.662
REMARK UNBOUND:                -3.004
REMARK SMILES CCCCCCCCCCCCCCCCCC(=O)[O-]
REMARK SMILES IDX 10 1 11 2 12 3 13 4 14 5 15 6 16 7 17 8 18 9 19 10 20 11
REMARK SMILES IDX 9 12 8 13 7 14 6 15 5 16 4 17 3 18 2 19 1 20
REMARK H PARENT
REMARK Flexibility Score: inf
ROOT
ATOM      1  C   UNL     1       4.378   1.702  16.703  1.00  0.00     0.000 C 
ENDROOT
BRANCH   1   2
ATOM      2  C   UNL     1       5.439   1.057  17.609  1.00  0.00     0.000 C 
BRANCH   2   3
ATOM      3  C   UNL     1       6.743   1.862  17.585  1.00  0.00     0.000 C 
BRANCH   3   4
ATOM      4  C   UNL     1       6.484   3.342  17.892  1.00  0.00     0.000 C 
BRANCH   4   5
ATOM      5  C   UNL     1       7.701   3.984  18.573  1.00  0.00     0.000 C 
BRANCH   5   6
ATOM      6  C   UNL     1       7.947   3.438  19.989  1.00  0.00     0.000 C 
BRANCH   6   7
ATOM      7  C   UNL     1       8.704   4.431  20.883  1.00  0.00     0.006 C 
BRANCH   7   8
ATOM      8  C   UNL     1       8.187   4.378  22.324  1.00  0.00     0.053 C 
BRANCH   8   9
ATOM      9  C   UNL     1       7.085   5.370  22.522  1.00  0.00     0.041 C 
ATOM     10  O   UNL     1       6.307   5.267  23.507  1.00  0.00    -0.550 OA
ATOM     11  O   UNL     1       6.892   6.389  21.597  1.00  0.00    -0.550 OA
ENDBRANCH   8   9
ENDBRANCH   7   8
ENDBRANCH   6   7
ENDBRANCH   5   6
ENDBRANCH   4   5
ENDBRANCH   3   4
ENDBRANCH   2   3
ENDBRANCH   1   2
BRANCH   1  12
ATOM     12  C   UNL     1       3.187   0.768  16.436  1.00  0.00     0.000 C 
BRANCH  12  13
ATOM     13  C   UNL     1       3.434  -0.184  15.253  1.00  0.00    -0.000 C 
BRANCH  13  14
ATOM     14  C   UNL     1       4.227   0.492  14.114  1.00  0.00    -0.000 C 
BRANCH  14  15
ATOM     15  C   UNL     1       5.511  -0.264  13.721  1.00  0.00    -0.000 C 
BRANCH  15  16
ATOM     16  C   UNL     1       5.986  -1.319  14.737  1.00  0.00    -0.000 C 
BRANCH  16  17
ATOM     17  C   UNL     1       7.352  -1.029  15.387  1.00  0.00    -0.000 C 
BRANCH  17  18
ATOM     18  C   UNL     1       7.881  -2.212  16.215  1.00  0.00    -0.000 C 
BRANCH  18  19
ATOM     19  C   UNL     1       9.159  -1.860  16.994  1.00  0.00    -0.003 C 
ATOM     20  C   UNL     1       8.883  -1.007  18.233  1.00  0.00     0.004 C 
ENDBRANCH  18  19
ENDBRANCH  17  18
ENDBRANCH  16  17
ENDBRANCH  15  16
ENDBRANCH  14  15
ENDBRANCH  13  14
ENDBRANCH  12  13
ENDBRANCH   1  12
TORSDOF 16
ENDMDL
MODEL 5
REMARK VINA RESULT:    -4.249     14.973     17.061
REMARK INTER + INTRA:         -11.226
REMARK INTER:                  -8.651
REMARK INTRA:                  -2.576
REMARK UNBOUND:                -3.004
REMARK SMILES CCCCCCCCCCCCCCCCCC(=O)[O-]
REMARK SMILES IDX 10 1 11 2 12 3 13 4 14 5 15 6 16 7 17 8 18 9 19 10 20 11
REMARK SMILES IDX 9 12 8 13 7 14 6 15 5 16 4 17 3 18 2 19 1 20
REMARK H PARENT
REMARK Flexibility Score: inf
ROOT
ATOM      1  C   UNL     1      16.258   1.531  11.269  1.00  0.00     0.000 C 
ENDROOT
BRANCH   1   2
ATOM      2  C   UNL     1      15.423   2.380  12.241  1.00  0.00     0.000 C 
BRANCH   2   3
ATOM      3  C   UNL     1      15.074   3.738  11.623  1.00  0.00     0.000 C 
BRANCH   3   4
ATOM      4  C   UNL     1      13.556   3.951  11.583  1.00  0.00     0.000 C 
BRANCH   4   5
ATOM      5  C   UNL     1      13.112   4.495  10.217  1.00  0.00     0.000 C 
BRANCH   5   6
ATOM      6  C   UNL     1      11.747   3.944   9.772  1.00  0.00     0.000 C 
BRANCH   6   7
ATOM      7  C   UNL     1      10.570   4.744  10.348  1.00  0.00     0.006 C 
BRANCH   7   8
ATOM      8  C   UNL     1      10.944   6.219  10.529  1.00  0.00     0.053 C 
BRANCH   8   9
ATOM      9  C   UNL     1      10.475   6.718  11.858  1.00  0.00     0.041 C 
ATOM     10  O   UNL     1      10.793   7.873  12.251  1.00  0.00    -0.550 OA
ATOM     11  O   UNL     1       9.719   5.895  12.683  1.00  0.00    -0.550 OA
ENDBRANCH   8   9
ENDBRANCH   7   8
ENDBRANCH   6   7
ENDBRANCH   5   6
ENDBRANCH   4   5
ENDBRANCH   3   4
ENDBRANCH   2   3
ENDBRANCH   1   2
BRANCH   1  12
ATOM     12  C   UNL     1      15.974   1.872   9.798  1.00  0.00     0.000 C 
BRANCH  12  13
ATOM     13  C   UNL     1      14.906   0.958   9.174  1.00  0.00    -0.000 C 
BRANCH  13  14
ATOM     14  C   UNL     1      14.207   1.615   7.965  1.00  0.00    -0.000 C 
BRANCH  14  15
ATOM     15  C   UNL     1      14.869   2.928   7.505  1.00  0.00    -0.000 C 
BRANCH  15  16
ATOM     16  C   UNL     1      14.394   3.457   6.139  1.00  0.00    -0.000 C 
BRANCH  16  17
ATOM     17  C   UNL     1      13.087   4.273   6.175  1.00  0.00    -0.000 C 
BRANCH  17  18
ATOM     18  C   UNL     1      13.306   5.727   6.626  1.00  0.00    -0.000 C 
BRANCH  18  19
ATOM     19  C   UNL     1      11.987   6.448   6.949  1.00  0.00    -0.003 C 
ATOM     20  C   UNL     1      10.755   5.602   6.627  1.00  0.00     0.004 C 
ENDBRANCH  18  19
ENDBRANCH  17  18
ENDBRANCH  16  17
ENDBRANCH  15  16
ENDBRANCH  14  15
ENDBRANCH  13  14
ENDBRANCH  12  13
ENDBRANCH   1  12
TORSDOF 16
ENDMDL
MODEL 6
REMARK VINA RESULT:    -4.204      3.212      5.713
REMARK INTER + INTRA:         -11.139
REMARK INTER:                  -7.867
REMARK INTRA:                  -3.272
REMARK UNBOUND:                -3.004
REMARK SMILES CCCCCCCCCCCCCCCCCC(=O)[O-]
REMARK SMILES IDX 10 1 11 2 12 3 13 4 14 5 15 6 16 7 17 8 18 9 19 10 20 11
REMARK SMILES IDX 9 12 8 13 7 14 6 15 5 16 4 17 3 18 2 19 1 20
REMARK H PARENT
REMARK Flexibility Score: inf
ROOT
ATOM      1  C   UNL     1      20.142  -5.607  21.022  1.00  0.00     0.000 C 
ENDROOT
BRANCH   1   2
ATOM      2  C   UNL     1      19.364  -5.612  22.347  1.00  0.00     0.000 C 
BRANCH   2   3
ATOM      3  C   UNL     1      20.153  -4.897  23.450  1.00  0.00     0.000 C 
BRANCH   3   4
ATOM      4  C   UNL     1      19.223  -4.072  24.347  1.00  0.00     0.000 C 
BRANCH   4   5
ATOM      5  C   UNL     1      17.775  -4.130  23.838  1.00  0.00     0.000 C 
BRANCH   5   6
ATOM      6  C   UNL     1      16.742  -3.924  24.959  1.00  0.00     0.000 C 
BRANCH   6   7
ATOM      7  C   UNL     1      16.672  -2.467  25.437  1.00  0.00     0.006 C 
BRANCH   7   8
ATOM      8  C   UNL     1      16.483  -1.509  24.257  1.00  0.00     0.053 C 
BRANCH   8   9
ATOM      9  C   UNL     1      17.481  -0.397  24.320  1.00  0.00     0.041 C 
ATOM     10  O   UNL     1      18.307  -0.338  25.269  1.00  0.00    -0.550 OA
ATOM     11  O   UNL     1      17.475   0.599  23.351  1.00  0.00    -0.550 OA
ENDBRANCH   8   9
ENDBRANCH   7   8
ENDBRANCH   6   7
ENDBRANCH   5   6
ENDBRANCH   4   5
ENDBRANCH   3   4
ENDBRANCH   2   3
ENDBRANCH   1   2
BRANCH   1  12
ATOM     12  C   UNL     1      21.532  -4.965  21.158  1.00  0.00     0.000 C 
BRANCH  12  13
ATOM     13  C   UNL     1      21.928  -4.145  19.919  1.00  0.00    -0.000 C 
BRANCH  13  14
ATOM     14  C   UNL     1      21.569  -2.650  20.066  1.00  0.00    -0.000 C 
BRANCH  14  15
ATOM     15  C   UNL     1      21.489  -2.174  21.530  1.00  0.00    -0.000 C 
BRANCH  15  16
ATOM     16  C   UNL     1      20.199  -1.420  21.903  1.00  0.00    -0.000 C 
BRANCH  16  17
ATOM     17  C   UNL     1      19.196  -1.235  20.747  1.00  0.00    -0.000 C 
BRANCH  17  18
ATOM     18  C   UNL     1      17.903  -2.042  20.946  1.00  0.00    -0.000 C 
BRANCH  18  19
ATOM     19  C   UNL     1      17.665  -3.060  19.819  1.00  0.00    -0.003 C 
ATOM     20  C   UNL     1      16.705  -4.179  20.222  1.00  0.00     0.004 C 
ENDBRANCH  18  19
ENDBRANCH  17  18
ENDBRANCH  16  17
ENDBRANCH  15  16
ENDBRANCH  14  15
ENDBRANCH  13  14
ENDBRANCH  12  13
ENDBRANCH   1  12
TORSDOF 16
ENDMDL
MODEL 7
REMARK VINA RESULT:    -4.179      2.639      3.667
REMARK INTER + INTRA:         -11.091
REMARK INTER:                  -8.084
REMARK INTRA:                  -3.007
REMARK UNBOUND:                -3.004
REMARK SMILES CCCCCCCCCCCCCCCCCC(=O)[O-]
REMARK SMILES IDX 10 1 11 2 12 3 13 4 14 5 15 6 16 7 17 8 18 9 19 10 20 11
REMARK SMILES IDX 9 12 8 13 7 14 6 15 5 16 4 17 3 18 2 19 1 20
REMARK H PARENT
REMARK Flexibility Score: inf
ROOT
ATOM      1  C   UNL     1      22.139  -2.566  22.578  1.00  0.00     0.000 C 
ENDROOT
BRANCH   1   2
ATOM      2  C   UNL     1      22.608  -1.118  22.795  1.00  0.00     0.000 C 
BRANCH   2   3
ATOM      3  C   UNL     1      21.651  -0.365  23.725  1.00  0.00     0.000 C 
BRANCH   3   4
ATOM      4  C   UNL     1      20.312  -1.101  23.851  1.00  0.00     0.000 C 
BRANCH   4   5
ATOM      5  C   UNL     1      19.171  -0.277  23.237  1.00  0.00     0.000 C 
BRANCH   5   6
ATOM      6  C   UNL     1      18.649  -0.875  21.920  1.00  0.00     0.000 C 
BRANCH   6   7
ATOM      7  C   UNL     1      19.338  -0.277  20.685  1.00  0.00     0.006 C 
BRANCH   7   8
ATOM      8  C   UNL     1      19.187  -1.200  19.471  1.00  0.00     0.053 C 
BRANCH   8   9
ATOM      9  C   UNL     1      17.742  -1.452  19.181  1.00  0.00     0.041 C 
ATOM     10  O   UNL     1      16.981  -0.499  18.866  1.00  0.00    -0.550 OA
ATOM     11  O   UNL     1      17.223  -2.736  19.299  1.00  0.00    -0.550 OA
ENDBRANCH   8   9
ENDBRANCH   7   8
ENDBRANCH   6   7
ENDBRANCH   5   6
ENDBRANCH   4   5
ENDBRANCH   3   4
ENDBRANCH   2   3
ENDBRANCH   1   2
BRANCH   1  12
ATOM     12  C   UNL     1      22.135  -2.966  21.094  1.00  0.00     0.000 C 
BRANCH  12  13
ATOM     13  C   UNL     1      21.039  -3.992  20.761  1.00  0.00    -0.000 C 
BRANCH  13  14
ATOM     14  C   UNL     1      20.472  -4.675  22.024  1.00  0.00    -0.000 C 
BRANCH  14  15
ATOM     15  C   UNL     1      18.943  -4.548  22.164  1.00  0.00    -0.000 C 
BRANCH  15  16
ATOM     16  C   UNL     1      18.441  -4.222  23.583  1.00  0.00    -0.000 C 
BRANCH  16  17
ATOM     17  C   UNL     1      16.908  -4.177  23.737  1.00  0.00    -0.000 C 
BRANCH  17  18
ATOM     18  C   UNL     1      16.464  -3.768  25.152  1.00  0.00    -0.000 C 
BRANCH  18  19
ATOM     19  C   UNL     1      17.351  -2.666  25.752  1.00  0.00    -0.003 C 
ATOM     20  C   UNL     1      16.686  -1.289  25.726  1.00  0.00     0.004 C 
ENDBRANCH  18  19
ENDBRANCH  17  18
ENDBRANCH  16  17
ENDBRANCH  15  16
ENDBRANCH  14  15
ENDBRANCH  13  14
ENDBRANCH  12  13
ENDBRANCH   1  12
TORSDOF 16
ENDMDL
MODEL 8
REMARK VINA RESULT:    -4.177     13.221     15.791
REMARK INTER + INTRA:         -11.087
REMARK INTER:                  -9.091
REMARK INTRA:                  -1.996
REMARK UNBOUND:                -3.004
REMARK SMILES CCCCCCCCCCCCCCCCCC(=O)[O-]
REMARK SMILES IDX 10 1 11 2 12 3 13 4 14 5 15 6 16 7 17 8 18 9 19 10 20 11
REMARK SMILES IDX 9 12 8 13 7 14 6 15 5 16 4 17 3 18 2 19 1 20
REMARK H PARENT
REMARK Flexibility Score: inf
ROOT
ATOM      1  C   UNL     1       2.908  -0.175  15.508  1.00  0.00     0.000 C 
ENDROOT
BRANCH   1   2
ATOM      2  C   UNL     1       3.745   0.595  16.541  1.00  0.00     0.000 C 
BRANCH   2   3
ATOM      3  C   UNL     1       4.549   1.715  15.872  1.00  0.00     0.000 C 
BRANCH   3   4
ATOM      4  C   UNL     1       5.619   2.268  16.821  1.00  0.00     0.000 C 
BRANCH   4   5
ATOM      5  C   UNL     1       5.955   1.252  17.922  1.00  0.00     0.000 C 
BRANCH   5   6
ATOM      6  C   UNL     1       7.457   1.201  18.246  1.00  0.00     0.000 C 
BRANCH   6   7
ATOM      7  C   UNL     1       8.048   2.590  18.533  1.00  0.00     0.006 C 
BRANCH   7   8
ATOM      8  C   UNL     1       7.574   3.118  19.891  1.00  0.00     0.053 C 
BRANCH   8   9
ATOM      9  C   UNL     1       8.222   4.430  20.198  1.00  0.00     0.041 C 
ATOM     10  O   UNL     1       9.088   4.513  21.109  1.00  0.00    -0.550 OA
ATOM     11  O   UNL     1       7.843   5.572  19.504  1.00  0.00    -0.550 OA
ENDBRANCH   8   9
ENDBRANCH   7   8
ENDBRANCH   6   7
ENDBRANCH   5   6
ENDBRANCH   4   5
ENDBRANCH   3   4
ENDBRANCH   2   3
ENDBRANCH   1   2
BRANCH   1  12
ATOM     12  C   UNL     1       3.622  -0.308  14.154  1.00  0.00     0.000 C 
BRANCH  12  13
ATOM     13  C   UNL     1       4.565  -1.521  14.098  1.00  0.00    -0.000 C 
BRANCH  13  14
ATOM     14  C   UNL     1       6.049  -1.106  14.001  1.00  0.00    -0.000 C 
BRANCH  14  15
ATOM     15  C   UNL     1       6.857  -1.389  15.282  1.00  0.00    -0.000 C 
BRANCH  15  16
ATOM     16  C   UNL     1       8.313  -0.888  15.262  1.00  0.00    -0.000 C 
BRANCH  16  17
ATOM     17  C   UNL     1       9.243  -1.546  16.299  1.00  0.00    -0.000 C 
BRANCH  17  18
ATOM     18  C   UNL     1       8.509  -2.546  17.208  1.00  0.00    -0.000 C 
BRANCH  18  19
ATOM     19  C   UNL     1       8.884  -4.005  16.901  1.00  0.00    -0.003 C 
ATOM     20  C   UNL     1      10.238  -4.135  16.203  1.00  0.00     0.004 C 
ENDBRANCH  18  19
ENDBRANCH  17  18
ENDBRANCH  16  17
ENDBRANCH  15  16
ENDBRANCH  14  15
ENDBRANCH  13  14
ENDBRANCH  12  13
ENDBRANCH   1  12
TORSDOF 16
ENDMDL
MODEL 9
REMARK VINA RESULT:    -4.141      2.403      3.981
REMARK INTER + INTRA:         -11.018
REMARK INTER:                  -7.897
REMARK INTRA:                  -3.121
REMARK UNBOUND:                -3.004
REMARK SMILES CCCCCCCCCCCCCCCCCC(=O)[O-]
REMARK SMILES IDX 10 1 11 2 12 3 13 4 14 5 15 6 16 7 17 8 18 9 19 10 20 11
REMARK SMILES IDX 9 12 8 13 7 14 6 15 5 16 4 17 3 18 2 19 1 20
REMARK H PARENT
REMARK Flexibility Score: inf
ROOT
ATOM      1  C   UNL     1      22.764  -1.798  22.380  1.00  0.00     0.000 C 
ENDROOT
BRANCH   1   2
ATOM      2  C   UNL     1      21.712  -1.536  23.469  1.00  0.00     0.000 C 
BRANCH   2   3
ATOM      3  C   UNL     1      20.726  -0.448  23.029  1.00  0.00     0.000 C 
BRANCH   3   4
ATOM      4  C   UNL     1      19.293  -0.993  22.977  1.00  0.00     0.000 C 
BRANCH   4   5
ATOM      5  C   UNL     1      18.888  -1.336  21.536  1.00  0.00     0.000 C 
BRANCH   5   6
ATOM      6  C   UNL     1      17.409  -1.739  21.415  1.00  0.00     0.000 C 
BRANCH   6   7
ATOM      7  C   UNL     1      17.127  -2.586  20.165  1.00  0.00     0.006 C 
BRANCH   7   8
ATOM      8  C   UNL     1      16.657  -3.993  20.549  1.00  0.00     0.053 C 
BRANCH   8   9
ATOM      9  C   UNL     1      16.950  -4.961  19.447  1.00  0.00     0.041 C 
ATOM     10  O   UNL     1      17.758  -4.655  18.531  1.00  0.00    -0.550 OA
ATOM     11  O   UNL     1      16.299  -6.188  19.409  1.00  0.00    -0.550 OA
ENDBRANCH   8   9
ENDBRANCH   7   8
ENDBRANCH   6   7
ENDBRANCH   5   6
ENDBRANCH   4   5
ENDBRANCH   3   4
ENDBRANCH   2   3
ENDBRANCH   1   2
BRANCH   1  12
ATOM     12  C   UNL     1      22.231  -2.694  21.251  1.00  0.00     0.000 C 
BRANCH  12  13
ATOM     13  C   UNL     1      21.973  -4.138  21.714  1.00  0.00    -0.000 C 
BRANCH  13  14
ATOM     14  C   UNL     1      20.621  -4.684  21.205  1.00  0.00    -0.000 C 
BRANCH  14  15
ATOM     15  C   UNL     1      19.663  -5.113  22.333  1.00  0.00    -0.000 C 
BRANCH  15  16
ATOM     16  C   UNL     1      20.199  -4.901  23.762  1.00  0.00    -0.000 C 
BRANCH  16  17
ATOM     17  C   UNL     1      19.243  -4.155  24.712  1.00  0.00    -0.000 C 
BRANCH  17  18
ATOM     18  C   UNL     1      17.792  -4.134  24.203  1.00  0.00    -0.000 C 
BRANCH  18  19
ATOM     19  C   UNL     1      16.804  -3.619  25.261  1.00  0.00    -0.003 C 
ATOM     20  C   UNL     1      16.347  -2.184  24.998  1.00  0.00     0.004 C 
ENDBRANCH  18  19
ENDBRANCH  17  18
ENDBRANCH  16  17
ENDBRANCH  15  16
ENDBRANCH  14  15
ENDBRANCH  13  14
ENDBRANCH  12  13
ENDBRANCH   1  12
TORSDOF 16
ENDMDL
