MODEL 1
REMARK VINA RESULT:    -3.671      0.000      0.000
REMARK INTER + INTRA:          -7.130
REMARK INTER:                  -6.247
REMARK INTRA:                  -0.883
REMARK UNBOUND:                -0.883
REMARK SMILES CCCCCCCCCCCCCC(=O)[O-]
REMARK SMILES IDX 8 1 9 2 10 3 11 4 12 5 13 6 14 7 15 8 16 9 7 10 6 11 5 12
REMARK SMILES IDX 4 13 3 14 2 15 1 16
REMARK H PARENT
REMARK Flexibility Score: inf
ROOT
ATOM      1  C   UNL     1       5.995  -2.441  -5.227  1.00  0.00     0.000 C 
ENDROOT
BRANCH   1   2
ATOM      2  C   UNL     1       6.113  -3.591  -4.214  1.00  0.00     0.000 C 
BRANCH   2   3
ATOM      3  C   UNL     1       4.746  -4.182  -3.824  1.00  0.00     0.000 C 
BRANCH   3   4
ATOM      4  C   UNL     1       4.667  -5.698  -4.067  1.00  0.00     0.000 C 
BRANCH   4   5
ATOM      5  C   UNL     1       3.905  -6.436  -2.953  1.00  0.00     0.006 C 
BRANCH   5   6
ATOM      6  C   UNL     1       3.979  -5.694  -1.612  1.00  0.00     0.053 C 
BRANCH   6   7
ATOM      7  C   UNL     1       4.341  -6.612  -0.485  1.00  0.00     0.041 C 
ATOM      8  O   UNL     1       5.046  -7.633  -0.701  1.00  0.00    -0.550 OA
ATOM      9  O   UNL     1       3.873  -6.358   0.798  1.00  0.00    -0.550 OA
ENDBRANCH   6   7
ENDBRANCH   5   6
ENDBRANCH   4   5
ENDBRANCH   3   4
ENDBRANCH   2   3
ENDBRANCH   1   2
BRANCH   1  10
ATOM     10  C   UNL     1       6.887  -1.242  -4.865  1.00  0.00     0.000 C 
BRANCH  10  11
ATOM     11  C   UNL     1       7.475  -0.538  -6.101  1.00  0.00    -0.000 C 
BRANCH  11  12
ATOM     12  C   UNL     1       6.628   0.621  -6.657  1.00  0.00    -0.000 C 
BRANCH  12  13
ATOM     13  C   UNL     1       5.815   0.227  -7.902  1.00  0.00    -0.000 C 
BRANCH  13  14
ATOM     14  C   UNL     1       6.626  -0.653  -8.876  1.00  0.00    -0.000 C 
BRANCH  14  15
ATOM     15  C   UNL     1       5.936  -1.982  -9.223  1.00  0.00    -0.003 C 
ATOM     16  C   UNL     1       4.480  -2.038  -8.766  1.00  0.00     0.004 C 
ENDBRANCH  14  15
ENDBRANCH  13  14
ENDBRANCH  12  13
ENDBRANCH  11  12
ENDBRANCH  10  11
ENDBRANCH   1  10
TORSDOF 12
ENDMDL
MODEL 2
REMARK VINA RESULT:    -3.609     14.924     17.273
REMARK INTER + INTRA:          -7.024
REMARK INTER:                  -5.468
REMARK INTRA:                  -1.557
REMARK UNBOUND:                -0.883
REMARK SMILES CCCCCCCCCCCCCC(=O)[O-]
REMARK SMILES IDX 8 1 9 2 10 3 11 4 12 5 13 6 14 7 15 8 16 9 7 10 6 11 5 12
REMARK SMILES IDX 4 13 3 14 2 15 1 16
REMARK H PARENT
REMARK Flexibility Score: inf
ROOT
ATOM      1  C   UNL     1      -6.011  -3.364   7.428  1.00  0.00     0.000 C 
ENDROOT
BRANCH   1   2
ATOM      2  C   UNL     1      -5.189  -4.650   7.249  1.00  0.00     0.000 C 
BRANCH   2   3
ATOM      3  C   UNL     1      -4.499  -5.099   8.549  1.00  0.00     0.000 C 
BRANCH   3   4
ATOM      4  C   UNL     1      -4.543  -6.623   8.746  1.00  0.00     0.000 C 
BRANCH   4   5
ATOM      5  C   UNL     1      -5.005  -7.369   7.483  1.00  0.00     0.006 C 
BRANCH   5   6
ATOM      6  C   UNL     1      -3.937  -8.340   6.960  1.00  0.00     0.053 C 
BRANCH   6   7
ATOM      7  C   UNL     1      -2.765  -7.615   6.371  1.00  0.00     0.041 C 
ATOM      8  O   UNL     1      -2.938  -6.773   5.451  1.00  0.00    -0.550 OA
ATOM      9  O   UNL     1      -1.479  -7.894   6.816  1.00  0.00    -0.550 OA
ENDBRANCH   6   7
ENDBRANCH   5   6
ENDBRANCH   4   5
ENDBRANCH   3   4
ENDBRANCH   2   3
ENDBRANCH   1   2
BRANCH   1  10
ATOM     10  C   UNL     1      -6.360  -3.086   8.899  1.00  0.00     0.000 C 
BRANCH  10  11
ATOM     11  C   UNL     1      -7.857  -3.276   9.206  1.00  0.00    -0.000 C 
BRANCH  11  12
ATOM     12  C   UNL     1      -8.699  -3.816   8.036  1.00  0.00    -0.000 C 
BRANCH  12  13
ATOM     13  C   UNL     1      -8.808  -5.351   8.033  1.00  0.00    -0.000 C 
BRANCH  13  14
ATOM     14  C   UNL     1      -8.731  -5.939   6.609  1.00  0.00    -0.000 C 
BRANCH  14  15
ATOM     15  C   UNL     1      -8.625  -4.871   5.508  1.00  0.00    -0.003 C 
ATOM     16  C   UNL     1      -9.133  -5.356   4.152  1.00  0.00     0.004 C 
ENDBRANCH  14  15
ENDBRANCH  13  14
ENDBRANCH  12  13
ENDBRANCH  11  12
ENDBRANCH  10  11
ENDBRANCH   1  10
TORSDOF 12
ENDMDL
MODEL 3
REMARK VINA RESULT:    -3.609     14.820     17.626
REMARK INTER + INTRA:          -7.023
REMARK INTER:                  -5.237
REMARK INTRA:                  -1.787
REMARK UNBOUND:                -0.883
REMARK SMILES CCCCCCCCCCCCCC(=O)[O-]
REMARK SMILES IDX 8 1 9 2 10 3 11 4 12 5 13 6 14 7 15 8 16 9 7 10 6 11 5 12
REMARK SMILES IDX 4 13 3 14 2 15 1 16
REMARK H PARENT
REMARK Flexibility Score: inf
ROOT
ATOM      1  C   UNL     1      -5.968  -3.747   7.010  1.00  0.00     0.000 C 
ENDROOT
BRANCH   1   2
ATOM      2  C   UNL     1      -4.943  -4.865   7.259  1.00  0.00     0.000 C 
BRANCH   2   3
ATOM      3  C   UNL     1      -4.574  -5.012   8.746  1.00  0.00     0.000 C 
BRANCH   3   4
ATOM      4  C   UNL     1      -4.511  -6.480   9.198  1.00  0.00     0.000 C 
BRANCH   4   5
ATOM      5  C   UNL     1      -3.235  -7.192   8.718  1.00  0.00     0.006 C 
BRANCH   5   6
ATOM      6  C   UNL     1      -3.480  -8.032   7.457  1.00  0.00     0.053 C 
BRANCH   6   7
ATOM      7  C   UNL     1      -2.438  -7.784   6.409  1.00  0.00     0.041 C 
ATOM      8  O   UNL     1      -1.274  -8.242   6.553  1.00  0.00    -0.550 OA
ATOM      9  O   UNL     1      -2.745  -7.020   5.290  1.00  0.00    -0.550 OA
ENDBRANCH   6   7
ENDBRANCH   5   6
ENDBRANCH   4   5
ENDBRANCH   3   4
ENDBRANCH   2   3
ENDBRANCH   1   2
BRANCH   1  10
ATOM     10  C   UNL     1      -6.302  -2.958   8.287  1.00  0.00     0.000 C 
BRANCH  10  11
ATOM     11  C   UNL     1      -7.757  -3.155   8.750  1.00  0.00    -0.000 C 
BRANCH  11  12
ATOM     12  C   UNL     1      -8.656  -3.923   7.764  1.00  0.00    -0.000 C 
BRANCH  12  13
ATOM     13  C   UNL     1      -9.272  -5.193   8.377  1.00  0.00    -0.000 C 
BRANCH  13  14
ATOM     14  C   UNL     1      -8.223  -6.055   9.110  1.00  0.00    -0.000 C 
BRANCH  14  15
ATOM     15  C   UNL     1      -8.057  -7.462   8.512  1.00  0.00    -0.003 C 
ATOM     16  C   UNL     1      -7.463  -7.448   7.106  1.00  0.00     0.004 C 
ENDBRANCH  14  15
ENDBRANCH  13  14
ENDBRANCH  12  13
ENDBRANCH  11  12
ENDBRANCH  10  11
ENDBRANCH   1  10
TORSDOF 12
ENDMDL
MODEL 4
REMARK VINA RESULT:    -3.556      5.369      8.149
REMARK INTER + INTRA:          -6.933
REMARK INTER:                  -5.017
REMARK INTRA:                  -1.916
REMARK UNBOUND:                -0.883
REMARK SMILES CCCCCCCCCCCCCC(=O)[O-]
REMARK SMILES IDX 8 1 9 2 10 3 11 4 12 5 13 6 14 7 15 8 16 9 7 10 6 11 5 12
REMARK SMILES IDX 4 13 3 14 2 15 1 16
REMARK H PARENT
REMARK Flexibility Score: inf
ROOT
ATOM      1  C   UNL     1       9.445  -0.370  -8.499  1.00  0.00     0.000 C 
ENDROOT
BRANCH   1   2
ATOM      2  C   UNL     1       9.284   0.674  -7.381  1.00  0.00     0.000 C 
BRANCH   2   3
ATOM      3  C   UNL     1       9.346   2.120  -7.906  1.00  0.00     0.000 C 
BRANCH   3   4
ATOM      4  C   UNL     1       8.448   3.077  -7.107  1.00  0.00     0.000 C 
BRANCH   4   5
ATOM      5  C   UNL     1       7.065   3.267  -7.753  1.00  0.00     0.006 C 
BRANCH   5   6
ATOM      6  C   UNL     1       6.132   4.121  -6.883  1.00  0.00     0.053 C 
BRANCH   6   7
ATOM      7  C   UNL     1       4.701   3.697  -7.018  1.00  0.00     0.041 C 
ATOM      8  O   UNL     1       4.058   3.306  -6.007  1.00  0.00    -0.550 OA
ATOM      9  O   UNL     1       4.086   3.703  -8.264  1.00  0.00    -0.550 OA
ENDBRANCH   6   7
ENDBRANCH   5   6
ENDBRANCH   4   5
ENDBRANCH   3   4
ENDBRANCH   2   3
ENDBRANCH   1   2
BRANCH   1  10
ATOM     10  C   UNL     1       8.130  -1.101  -8.817  1.00  0.00     0.000 C 
BRANCH  10  11
ATOM     11  C   UNL     1       7.125  -0.220  -9.580  1.00  0.00    -0.000 C 
BRANCH  11  12
ATOM     12  C   UNL     1       5.782   0.010  -8.863  1.00  0.00    -0.000 C 
BRANCH  12  13
ATOM     13  C   UNL     1       5.674  -0.753  -7.531  1.00  0.00    -0.000 C 
BRANCH  13  14
ATOM     14  C   UNL     1       5.812   0.181  -6.310  1.00  0.00    -0.000 C 
BRANCH  14  15
ATOM     15  C   UNL     1       6.773  -0.352  -5.235  1.00  0.00    -0.003 C 
ATOM     16  C   UNL     1       6.856  -1.876  -5.207  1.00  0.00     0.004 C 
ENDBRANCH  14  15
ENDBRANCH  13  14
ENDBRANCH  12  13
ENDBRANCH  11  12
ENDBRANCH  10  11
ENDBRANCH   1  10
TORSDOF 12
ENDMDL
MODEL 5
REMARK VINA RESULT:    -3.553      5.627      7.799
REMARK INTER + INTRA:          -6.928
REMARK INTER:                  -5.021
REMARK INTRA:                  -1.908
REMARK UNBOUND:                -0.883
REMARK SMILES CCCCCCCCCCCCCC(=O)[O-]
REMARK SMILES IDX 8 1 9 2 10 3 11 4 12 5 13 6 14 7 15 8 16 9 7 10 6 11 5 12
REMARK SMILES IDX 4 13 3 14 2 15 1 16
REMARK H PARENT
REMARK Flexibility Score: inf
ROOT
ATOM      1  C   UNL     1       9.104   1.069  -7.852  1.00  0.00     0.000 C 
ENDROOT
BRANCH   1   2
ATOM      2  C   UNL     1       8.203   2.218  -8.335  1.00  0.00     0.000 C 
BRANCH   2   3
ATOM      3  C   UNL     1       7.324   1.819  -9.533  1.00  0.00     0.000 C 
BRANCH   3   4
ATOM      4  C   UNL     1       5.830   2.081  -9.284  1.00  0.00     0.000 C 
BRANCH   4   5
ATOM      5  C   UNL     1       5.568   3.470  -8.677  1.00  0.00     0.006 C 
BRANCH   5   6
ATOM      6  C   UNL     1       4.322   3.485  -7.781  1.00  0.00     0.053 C 
BRANCH   6   7
ATOM      7  C   UNL     1       4.679   3.621  -6.332  1.00  0.00     0.041 C 
ATOM      8  O   UNL     1       4.233   2.798  -5.490  1.00  0.00    -0.550 OA
ATOM      9  O   UNL     1       5.479   4.675  -5.907  1.00  0.00    -0.550 OA
ENDBRANCH   6   7
ENDBRANCH   5   6
ENDBRANCH   4   5
ENDBRANCH   3   4
ENDBRANCH   2   3
ENDBRANCH   1   2
BRANCH   1  10
ATOM     10  C   UNL     1       9.025   0.858  -6.330  1.00  0.00     0.000 C 
BRANCH  10  11
ATOM     11  C   UNL     1       8.159  -0.353  -5.938  1.00  0.00    -0.000 C 
BRANCH  11  12
ATOM     12  C   UNL     1       6.705  -0.019  -5.557  1.00  0.00    -0.000 C 
BRANCH  12  13
ATOM     13  C   UNL     1       5.725  -0.177  -6.733  1.00  0.00    -0.000 C 
BRANCH  13  14
ATOM     14  C   UNL     1       5.765  -1.595  -7.340  1.00  0.00    -0.000 C 
BRANCH  14  15
ATOM     15  C   UNL     1       6.028  -1.606  -8.856  1.00  0.00    -0.003 C 
ATOM     16  C   UNL     1       7.459  -2.000  -9.212  1.00  0.00     0.004 C 
ENDBRANCH  14  15
ENDBRANCH  13  14
ENDBRANCH  12  13
ENDBRANCH  11  12
ENDBRANCH  10  11
ENDBRANCH   1  10
TORSDOF 12
ENDMDL
MODEL 6
REMARK VINA RESULT:    -3.444      4.548      6.841
REMARK INTER + INTRA:          -6.743
REMARK INTER:                  -4.931
REMARK INTRA:                  -1.812
REMARK UNBOUND:                -0.883
REMARK SMILES CCCCCCCCCCCCCC(=O)[O-]
REMARK SMILES IDX 8 1 9 2 10 3 11 4 12 5 13 6 14 7 15 8 16 9 7 10 6 11 5 12
REMARK SMILES IDX 4 13 3 14 2 15 1 16
REMARK H PARENT
REMARK Flexibility Score: inf
ROOT
ATOM      1  C   UNL     1       8.242   4.037  -7.013  1.00  0.00     0.000 C 
ENDROOT
BRANCH   1   2
ATOM      2  C   UNL     1       8.991   2.960  -7.814  1.00  0.00     0.000 C 
BRANCH   2   3
ATOM      3  C   UNL     1       9.205   1.664  -7.011  1.00  0.00     0.000 C 
BRANCH   3   4
ATOM      4  C   UNL     1       9.370   0.430  -7.913  1.00  0.00     0.000 C 
BRANCH   4   5
ATOM      5  C   UNL     1       8.324  -0.660  -7.619  1.00  0.00     0.006 C 
BRANCH   5   6
ATOM      6  C   UNL     1       7.828  -0.611  -6.168  1.00  0.00     0.053 C 
BRANCH   6   7
ATOM      7  C   UNL     1       6.675  -1.540  -5.941  1.00  0.00     0.041 C 
ATOM      8  O   UNL     1       5.721  -1.578  -6.763  1.00  0.00    -0.550 OA
ATOM      9  O   UNL     1       6.637  -2.340  -4.806  1.00  0.00    -0.550 OA
ENDBRANCH   6   7
ENDBRANCH   5   6
ENDBRANCH   4   5
ENDBRANCH   3   4
ENDBRANCH   2   3
ENDBRANCH   1   2
BRANCH   1  10
ATOM     10  C   UNL     1       7.555   5.074  -7.918  1.00  0.00     0.000 C 
BRANCH  10  11
ATOM     11  C   UNL     1       6.127   5.417  -7.458  1.00  0.00    -0.000 C 
BRANCH  11  12
ATOM     12  C   UNL     1       5.633   4.638  -6.226  1.00  0.00    -0.000 C 
BRANCH  12  13
ATOM     13  C   UNL     1       4.612   3.541  -6.577  1.00  0.00    -0.000 C 
BRANCH  13  14
ATOM     14  C   UNL     1       5.257   2.141  -6.637  1.00  0.00    -0.000 C 
BRANCH  14  15
ATOM     15  C   UNL     1       5.511   1.642  -8.070  1.00  0.00    -0.003 C 
ATOM     16  C   UNL     1       4.725   2.420  -9.122  1.00  0.00     0.004 C 
ENDBRANCH  14  15
ENDBRANCH  13  14
ENDBRANCH  12  13
ENDBRANCH  11  12
ENDBRANCH  10  11
ENDBRANCH   1  10
TORSDOF 12
ENDMDL
MODEL 7
REMARK VINA RESULT:    -3.408      6.066      8.271
REMARK INTER + INTRA:          -6.682
REMARK INTER:                  -4.749
REMARK INTRA:                  -1.933
REMARK UNBOUND:                -0.883
REMARK SMILES CCCCCCCCCCCCCC(=O)[O-]
REMARK SMILES IDX 8 1 9 2 10 3 11 4 12 5 13 6 14 7 15 8 16 9 7 10 6 11 5 12
REMARK SMILES IDX 4 13 3 14 2 15 1 16
REMARK H PARENT
REMARK Flexibility Score: inf
ROOT
ATOM      1  C   UNL     1       8.963  -0.015  -6.280  1.00  0.00     0.000 C 
ENDROOT
BRANCH   1   2
ATOM      2  C   UNL     1       9.484   1.308  -6.865  1.00  0.00     0.000 C 
BRANCH   2   3
ATOM      3  C   UNL     1       8.692   1.762  -8.104  1.00  0.00     0.000 C 
BRANCH   3   4
ATOM      4  C   UNL     1       7.977   3.106  -7.889  1.00  0.00     0.000 C 
BRANCH   4   5
ATOM      5  C   UNL     1       6.459   3.011  -8.117  1.00  0.00     0.006 C 
BRANCH   5   6
ATOM      6  C   UNL     1       5.659   3.512  -6.907  1.00  0.00     0.053 C 
BRANCH   6   7
ATOM      7  C   UNL     1       5.828   4.986  -6.697  1.00  0.00     0.041 C 
ATOM      8  O   UNL     1       6.030   5.442  -5.540  1.00  0.00    -0.550 OA
ATOM      9  O   UNL     1       5.731   5.858  -7.774  1.00  0.00    -0.550 OA
ENDBRANCH   6   7
ENDBRANCH   5   6
ENDBRANCH   4   5
ENDBRANCH   3   4
ENDBRANCH   2   3
ENDBRANCH   1   2
BRANCH   1  10
ATOM     10  C   UNL     1       7.492   0.074  -5.839  1.00  0.00     0.000 C 
BRANCH  10  11
ATOM     11  C   UNL     1       6.818  -1.305  -5.721  1.00  0.00    -0.000 C 
BRANCH  11  12
ATOM     12  C   UNL     1       5.839  -1.652  -6.858  1.00  0.00    -0.000 C 
BRANCH  12  13
ATOM     13  C   UNL     1       5.609  -0.483  -7.831  1.00  0.00    -0.000 C 
BRANCH  13  14
ATOM     14  C   UNL     1       6.195  -0.765  -9.231  1.00  0.00    -0.000 C 
BRANCH  14  15
ATOM     15  C   UNL     1       7.043  -2.047  -9.295  1.00  0.00    -0.003 C 
ATOM     16  C   UNL     1       8.538  -1.768  -9.425  1.00  0.00     0.004 C 
ENDBRANCH  14  15
ENDBRANCH  13  14
ENDBRANCH  12  13
ENDBRANCH  11  12
ENDBRANCH  10  11
ENDBRANCH   1  10
TORSDOF 12
ENDMDL
MODEL 8
REMARK VINA RESULT:    -3.392      5.235      8.205
REMARK INTER + INTRA:          -6.655
REMARK INTER:                  -5.446
REMARK INTRA:                  -1.209
REMARK UNBOUND:                -0.883
REMARK SMILES CCCCCCCCCCCCCC(=O)[O-]
REMARK SMILES IDX 8 1 9 2 10 3 11 4 12 5 13 6 14 7 15 8 16 9 7 10 6 11 5 12
REMARK SMILES IDX 4 13 3 14 2 15 1 16
REMARK H PARENT
REMARK Flexibility Score: inf
ROOT
ATOM      1  C   UNL     1       4.185   3.388  -7.162  1.00  0.00     0.000 C 
ENDROOT
BRANCH   1   2
ATOM      2  C   UNL     1       5.022   3.110  -8.421  1.00  0.00     0.000 C 
BRANCH   2   3
ATOM      3  C   UNL     1       5.371   1.620  -8.585  1.00  0.00     0.000 C 
BRANCH   3   4
ATOM      4  C   UNL     1       6.867   1.336  -8.374  1.00  0.00     0.000 C 
BRANCH   4   5
ATOM      5  C   UNL     1       7.230   1.155  -6.890  1.00  0.00     0.006 C 
BRANCH   5   6
ATOM      6  C   UNL     1       6.114   0.457  -6.101  1.00  0.00     0.053 C 
BRANCH   6   7
ATOM      7  C   UNL     1       6.224  -1.035  -6.181  1.00  0.00     0.041 C 
ATOM      8  O   UNL     1       7.084  -1.645  -5.494  1.00  0.00    -0.550 OA
ATOM      9  O   UNL     1       5.396  -1.749  -7.039  1.00  0.00    -0.550 OA
ENDBRANCH   6   7
ENDBRANCH   5   6
ENDBRANCH   4   5
ENDBRANCH   3   4
ENDBRANCH   2   3
ENDBRANCH   1   2
BRANCH   1  10
ATOM     10  C   UNL     1       4.997   4.083  -6.056  1.00  0.00     0.000 C 
BRANCH  10  11
ATOM     11  C   UNL     1       6.272   4.763  -6.588  1.00  0.00    -0.000 C 
BRANCH  11  12
ATOM     12  C   UNL     1       6.549   6.167  -6.018  1.00  0.00    -0.000 C 
BRANCH  12  13
ATOM     13  C   UNL     1       7.952   6.298  -5.401  1.00  0.00    -0.000 C 
BRANCH  13  14
ATOM     14  C   UNL     1       7.936   7.092  -4.078  1.00  0.00    -0.000 C 
BRANCH  14  15
ATOM     15  C   UNL     1       6.743   6.748  -3.170  1.00  0.00    -0.003 C 
ATOM     16  C   UNL     1       6.049   7.982  -2.600  1.00  0.00     0.004 C 
ENDBRANCH  14  15
ENDBRANCH  13  14
ENDBRANCH  12  13
ENDBRANCH  11  12
ENDBRANCH  10  11
ENDBRANCH   1  10
TORSDOF 12
ENDMDL
MODEL 9
REMARK VINA RESULT:    -3.362      6.631      9.835
REMARK INTER + INTRA:          -6.603
REMARK INTER:                  -5.576
REMARK INTRA:                  -1.027
REMARK UNBOUND:                -0.883
REMARK SMILES CCCCCCCCCCCCCC(=O)[O-]
REMARK SMILES IDX 8 1 9 2 10 3 11 4 12 5 13 6 14 7 15 8 16 9 7 10 6 11 5 12
REMARK SMILES IDX 4 13 3 14 2 15 1 16
REMARK H PARENT
REMARK Flexibility Score: inf
ROOT
ATOM      1  C   UNL     1       5.206   4.206  -6.293  1.00  0.00     0.000 C 
ENDROOT
BRANCH   1   2
ATOM      2  C   UNL     1       5.921   4.892  -7.468  1.00  0.00     0.000 C 
BRANCH   2   3
ATOM      3  C   UNL     1       7.025   5.861  -7.008  1.00  0.00     0.000 C 
BRANCH   3   4
ATOM      4  C   UNL     1       6.460   7.170  -6.433  1.00  0.00     0.000 C 
BRANCH   4   5
ATOM      5  C   UNL     1       7.216   7.640  -5.179  1.00  0.00     0.006 C 
BRANCH   5   6
ATOM      6  C   UNL     1       6.999   6.700  -3.986  1.00  0.00     0.053 C 
BRANCH   6   7
ATOM      7  C   UNL     1       6.257   7.373  -2.872  1.00  0.00     0.041 C 
ATOM      8  O   UNL     1       6.469   7.039  -1.677  1.00  0.00    -0.550 OA
ATOM      9  O   UNL     1       5.308   8.348  -3.156  1.00  0.00    -0.550 OA
ENDBRANCH   6   7
ENDBRANCH   5   6
ENDBRANCH   4   5
ENDBRANCH   3   4
ENDBRANCH   2   3
ENDBRANCH   1   2
BRANCH   1  10
ATOM     10  C   UNL     1       5.092   2.684  -6.479  1.00  0.00     0.000 C 
BRANCH  10  11
ATOM     11  C   UNL     1       5.641   2.203  -7.834  1.00  0.00    -0.000 C 
BRANCH  11  12
ATOM     12  C   UNL     1       6.474   0.909  -7.778  1.00  0.00    -0.000 C 
BRANCH  12  13
ATOM     13  C   UNL     1       7.869   1.118  -7.164  1.00  0.00    -0.000 C 
BRANCH  13  14
ATOM     14  C   UNL     1       8.148   0.141  -6.003  1.00  0.00    -0.000 C 
BRANCH  14  15
ATOM     15  C   UNL     1       6.873  -0.395  -5.331  1.00  0.00    -0.003 C 
ATOM     16  C   UNL     1       6.800  -1.920  -5.317  1.00  0.00     0.004 C 
ENDBRANCH  14  15
ENDBRANCH  13  14
ENDBRANCH  12  13
ENDBRANCH  11  12
ENDBRANCH  10  11
ENDBRANCH   1  10
TORSDOF 12
ENDMDL
