MODEL 1
REMARK VINA RESULT:    -3.696      0.000      0.000
REMARK INTER + INTRA:          -3.804
REMARK INTER:                  -3.804
REMARK INTRA:                   0.000
REMARK UNBOUND:                 0.000
REMARK SMILES Nc1ncnc2nc[nH]c12
REMARK SMILES IDX 8 1 7 2 6 3 5 4 4 5 3 6 2 7 10 8 9 9 1 11
REMARK H PARENT 9 10 1 12 1 13
REMARK Flexibility Score: inf
ROOT
ATOM      1  C   UNL     1       1.203  -5.440  34.578  1.00  0.00     0.199 A 
ATOM      2  N   UNL     1       2.059  -5.736  35.593  1.00  0.00    -0.217 NA
ATOM      3  C   UNL     1       3.052  -4.853  35.395  1.00  0.00     0.182 A 
ATOM      4  N   UNL     1       4.175  -4.718  36.140  1.00  0.00    -0.215 NA
ATOM      5  C   UNL     1       5.077  -3.756  35.780  1.00  0.00     0.226 A 
ATOM      6  N   UNL     1       4.842  -2.953  34.693  1.00  0.00    -0.217 NA
ATOM      7  C   UNL     1       3.710  -3.087  33.939  1.00  0.00     0.152 A 
ATOM      8  C   UNL     1       2.802  -4.072  34.318  1.00  0.00     0.127 A 
ATOM      9  N   UNL     1       1.629  -4.428  33.781  1.00  0.00    -0.340 N 
ATOM     10  H   UNL     1       1.144  -4.029  32.947  1.00  0.00     0.168 HD
ENDROOT
BRANCH   7  11
ATOM     11  N   UNL     1       3.487  -2.241  32.811  1.00  0.00    -0.382 N 
ATOM     12  H   UNL     1       3.661  -2.575  31.837  1.00  0.00     0.158 HD
ATOM     13  H   UNL     1       3.143  -1.265  32.950  1.00  0.00     0.158 HD
ENDBRANCH   7  11
TORSDOF 1
ENDMDL
MODEL 2
REMARK VINA RESULT:    -3.524     14.643     15.529
REMARK INTER + INTRA:          -3.628
REMARK INTER:                  -3.628
REMARK INTRA:                   0.000
REMARK UNBOUND:                 0.000
REMARK SMILES Nc1ncnc2nc[nH]c12
REMARK SMILES IDX 8 1 7 2 6 3 5 4 4 5 3 6 2 7 10 8 9 9 1 11
REMARK H PARENT 9 10 1 12 1 13
REMARK Flexibility Score: inf
ROOT
ATOM      1  C   UNL     1      -9.000   2.541  44.631  1.00  0.00     0.199 A 
ATOM      2  N   UNL     1      -8.674   1.534  45.486  1.00  0.00    -0.217 NA
ATOM      3  C   UNL     1      -8.398   0.524  44.643  1.00  0.00     0.182 A 
ATOM      4  N   UNL     1      -8.014  -0.730  44.982  1.00  0.00    -0.215 NA
ATOM      5  C   UNL     1      -7.777  -1.626  43.977  1.00  0.00     0.226 A 
ATOM      6  N   UNL     1      -7.927  -1.257  42.665  1.00  0.00    -0.217 NA
ATOM      7  C   UNL     1      -8.315   0.007  42.320  1.00  0.00     0.152 A 
ATOM      8  C   UNL     1      -8.552   0.908  43.355  1.00  0.00     0.127 A 
ATOM      9  N   UNL     1      -8.935   2.190  43.322  1.00  0.00    -0.340 N 
ATOM     10  H   UNL     1      -9.139   2.791  42.492  1.00  0.00     0.168 HD
ENDROOT
BRANCH   7  11
ATOM     11  N   UNL     1      -8.464   0.370  40.947  1.00  0.00    -0.382 N 
ATOM     12  H   UNL     1      -9.352   0.784  40.587  1.00  0.00     0.158 HD
ATOM     13  H   UNL     1      -7.676   0.222  40.279  1.00  0.00     0.158 HD
ENDBRANCH   7  11
TORSDOF 1
ENDMDL
MODEL 3
REMARK VINA RESULT:    -3.493      2.423      3.522
REMARK INTER + INTRA:          -3.596
REMARK INTER:                  -3.596
REMARK INTRA:                   0.000
REMARK UNBOUND:                 0.000
REMARK SMILES Nc1ncnc2nc[nH]c12
REMARK SMILES IDX 8 1 7 2 6 3 5 4 4 5 3 6 2 7 10 8 9 9 1 11
REMARK H PARENT 9 10 1 12 1 13
REMARK Flexibility Score: inf
ROOT
ATOM      1  C   UNL     1      -1.155  -7.416  33.735  1.00  0.00     0.199 A 
ATOM      2  N   UNL     1      -0.807  -7.988  34.920  1.00  0.00    -0.217 NA
ATOM      3  C   UNL     1       0.203  -7.202  35.330  1.00  0.00     0.182 A 
ATOM      4  N   UNL     1       0.917  -7.333  36.473  1.00  0.00    -0.215 NA
ATOM      5  C   UNL     1       1.913  -6.430  36.719  1.00  0.00     0.226 A 
ATOM      6  N   UNL     1       2.175  -5.421  35.827  1.00  0.00    -0.217 NA
ATOM      7  C   UNL     1       1.456  -5.287  34.673  1.00  0.00     0.152 A 
ATOM      8  C   UNL     1       0.445  -6.214  34.437  1.00  0.00     0.127 A 
ATOM      9  N   UNL     1      -0.408  -6.331  33.411  1.00  0.00    -0.340 N 
ATOM     10  H   UNL     1      -0.490  -5.734  32.558  1.00  0.00     0.168 HD
ENDROOT
BRANCH   7  11
ATOM     11  N   UNL     1       1.746  -4.229  33.758  1.00  0.00    -0.382 N 
ATOM     12  H   UNL     1       0.994  -3.779  33.191  1.00  0.00     0.158 HD
ATOM     13  H   UNL     1       2.727  -3.890  33.645  1.00  0.00     0.158 HD
ENDBRANCH   7  11
TORSDOF 1
ENDMDL
MODEL 4
REMARK VINA RESULT:    -3.491     13.907     14.841
REMARK INTER + INTRA:          -3.593
REMARK INTER:                  -3.593
REMARK INTRA:                   0.000
REMARK UNBOUND:                 0.000
REMARK SMILES Nc1ncnc2nc[nH]c12
REMARK SMILES IDX 8 1 7 2 6 3 5 4 4 5 3 6 2 7 10 8 9 9 1 11
REMARK H PARENT 9 10 1 12 1 13
REMARK Flexibility Score: inf
ROOT
ATOM      1  C   UNL     1      -7.421  -2.828  43.574  1.00  0.00     0.199 A 
ATOM      2  N   UNL     1      -7.663  -2.137  44.721  1.00  0.00    -0.217 NA
ATOM      3  C   UNL     1      -8.060  -0.941  44.255  1.00  0.00     0.182 A 
ATOM      4  N   UNL     1      -8.427   0.133  44.993  1.00  0.00    -0.215 NA
ATOM      5  C   UNL     1      -8.803   1.271  44.335  1.00  0.00     0.226 A 
ATOM      6  N   UNL     1      -8.805   1.314  42.963  1.00  0.00    -0.217 NA
ATOM      7  C   UNL     1      -8.435   0.231  42.217  1.00  0.00     0.152 A 
ATOM      8  C   UNL     1      -8.055  -0.919  42.902  1.00  0.00     0.127 A 
ATOM      9  N   UNL     1      -7.651  -2.112  42.445  1.00  0.00    -0.340 N 
ATOM     10  H   UNL     1      -7.537  -2.428  41.457  1.00  0.00     0.168 HD
ENDROOT
BRANCH   7  11
ATOM     11  N   UNL     1      -8.446   0.298  40.790  1.00  0.00    -0.382 N 
ATOM     12  H   UNL     1      -7.559   0.328  40.241  1.00  0.00     0.158 HD
ATOM     13  H   UNL     1      -9.353   0.319  40.275  1.00  0.00     0.158 HD
ENDBRANCH   7  11
TORSDOF 1
ENDMDL
MODEL 5
REMARK VINA RESULT:    -3.482      1.083      3.107
REMARK INTER + INTRA:          -3.584
REMARK INTER:                  -3.584
REMARK INTRA:                   0.000
REMARK UNBOUND:                 0.000
REMARK SMILES Nc1ncnc2nc[nH]c12
REMARK SMILES IDX 8 1 7 2 6 3 5 4 4 5 3 6 2 7 10 8 9 9 1 11
REMARK H PARENT 9 10 1 12 1 13
REMARK Flexibility Score: inf
ROOT
ATOM      1  C   UNL     1       4.494  -1.888  32.706  1.00  0.00     0.199 A 
ATOM      2  N   UNL     1       5.499  -2.216  33.564  1.00  0.00    -0.217 NA
ATOM      3  C   UNL     1       4.909  -3.126  34.357  1.00  0.00     0.182 A 
ATOM      4  N   UNL     1       5.479  -3.783  35.396  1.00  0.00    -0.215 NA
ATOM      5  C   UNL     1       4.715  -4.679  36.090  1.00  0.00     0.226 A 
ATOM      6  N   UNL     1       3.408  -4.901  35.736  1.00  0.00    -0.217 NA
ATOM      7  C   UNL     1       2.832  -4.240  34.688  1.00  0.00     0.152 A 
ATOM      8  C   UNL     1       3.622  -3.331  33.992  1.00  0.00     0.127 A 
ATOM      9  N   UNL     1       3.335  -2.552  32.942  1.00  0.00    -0.340 N 
ATOM     10  H   UNL     1       2.436  -2.467  32.418  1.00  0.00     0.168 HD
ENDROOT
BRANCH   7  11
ATOM     11  N   UNL     1       1.469  -4.488  34.338  1.00  0.00    -0.382 N 
ATOM     12  H   UNL     1       1.135  -5.447  34.099  1.00  0.00     0.158 HD
ATOM     13  H   UNL     1       0.784  -3.701  34.317  1.00  0.00     0.158 HD
ENDBRANCH   7  11
TORSDOF 1
ENDMDL
MODEL 6
REMARK VINA RESULT:    -3.393      1.569      3.650
REMARK INTER + INTRA:          -3.493
REMARK INTER:                  -3.493
REMARK INTRA:                   0.000
REMARK UNBOUND:                 0.000
REMARK SMILES Nc1ncnc2nc[nH]c12
REMARK SMILES IDX 8 1 7 2 6 3 5 4 4 5 3 6 2 7 10 8 9 9 1 11
REMARK H PARENT 9 10 1 12 1 13
REMARK Flexibility Score: inf
ROOT
ATOM      1  C   UNL     1       2.913  -3.751  34.098  1.00  0.00     0.199 A 
ATOM      2  N   UNL     1       3.398  -4.262  35.263  1.00  0.00    -0.217 NA
ATOM      3  C   UNL     1       2.517  -5.241  35.533  1.00  0.00     0.182 A 
ATOM      4  N   UNL     1       2.538  -6.076  36.599  1.00  0.00    -0.215 NA
ATOM      5  C   UNL     1       1.550  -7.015  36.703  1.00  0.00     0.226 A 
ATOM      6  N   UNL     1       0.569  -7.102  35.749  1.00  0.00    -0.217 NA
ATOM      7  C   UNL     1       0.545  -6.261  34.672  1.00  0.00     0.152 A 
ATOM      8  C   UNL     1       1.558  -5.310  34.581  1.00  0.00     0.127 A 
ATOM      9  N   UNL     1       1.789  -4.370  33.656  1.00  0.00    -0.340 N 
ATOM     10  H   UNL     1       1.243  -4.154  32.792  1.00  0.00     0.168 HD
ENDROOT
BRANCH   7  11
ATOM     11  N   UNL     1      -0.486  -6.370  33.690  1.00  0.00    -0.382 N 
ATOM     12  H   UNL     1      -0.942  -5.523  33.284  1.00  0.00     0.158 HD
ATOM     13  H   UNL     1      -0.800  -7.310  33.365  1.00  0.00     0.158 HD
ENDBRANCH   7  11
TORSDOF 1
ENDMDL
MODEL 7
REMARK VINA RESULT:    -3.385      7.825      8.228
REMARK INTER + INTRA:          -3.484
REMARK INTER:                  -3.484
REMARK INTRA:                   0.000
REMARK UNBOUND:                 0.000
REMARK SMILES Nc1ncnc2nc[nH]c12
REMARK SMILES IDX 8 1 7 2 6 3 5 4 4 5 3 6 2 7 10 8 9 9 1 11
REMARK H PARENT 9 10 1 12 1 13
REMARK Flexibility Score: inf
ROOT
ATOM      1  C   UNL     1      -4.608  -6.868  32.495  1.00  0.00     0.199 A 
ATOM      2  N   UNL     1      -3.769  -7.904  32.764  1.00  0.00    -0.217 NA
ATOM      3  C   UNL     1      -3.645  -7.830  34.100  1.00  0.00     0.182 A 
ATOM      4  N   UNL     1      -2.907  -8.646  34.890  1.00  0.00    -0.215 NA
ATOM      5  C   UNL     1      -2.905  -8.412  36.237  1.00  0.00     0.226 A 
ATOM      6  N   UNL     1      -3.636  -7.377  36.765  1.00  0.00    -0.217 NA
ATOM      7  C   UNL     1      -4.382  -6.554  35.970  1.00  0.00     0.152 A 
ATOM      8  C   UNL     1      -4.372  -6.805  34.601  1.00  0.00     0.127 A 
ATOM      9  N   UNL     1      -4.995  -6.176  33.596  1.00  0.00    -0.340 N 
ATOM     10  H   UNL     1      -5.631  -5.349  33.637  1.00  0.00     0.168 HD
ENDROOT
BRANCH   7  11
ATOM     11  N   UNL     1      -5.134  -5.483  36.542  1.00  0.00    -0.382 N 
ATOM     12  H   UNL     1      -6.076  -5.644  36.963  1.00  0.00     0.158 HD
ATOM     13  H   UNL     1      -4.746  -4.514  36.544  1.00  0.00     0.158 HD
ENDBRANCH   7  11
TORSDOF 1
ENDMDL
MODEL 8
REMARK VINA RESULT:    -3.374      7.505      8.079
REMARK INTER + INTRA:          -3.473
REMARK INTER:                  -3.473
REMARK INTRA:                   0.000
REMARK UNBOUND:                 0.000
REMARK SMILES Nc1ncnc2nc[nH]c12
REMARK SMILES IDX 8 1 7 2 6 3 5 4 4 5 3 6 2 7 10 8 9 9 1 11
REMARK H PARENT 9 10 1 12 1 13
REMARK Flexibility Score: inf
ROOT
ATOM      1  C   UNL     1      -4.975  -6.210  37.929  1.00  0.00     0.199 A 
ATOM      2  N   UNL     1      -4.112  -7.249  38.096  1.00  0.00    -0.217 NA
ATOM      3  C   UNL     1      -3.717  -7.497  36.836  1.00  0.00     0.182 A 
ATOM      4  N   UNL     1      -2.844  -8.452  36.436  1.00  0.00    -0.215 NA
ATOM      5  C   UNL     1      -2.564  -8.553  35.102  1.00  0.00     0.226 A 
ATOM      6  N   UNL     1      -3.155  -7.704  34.200  1.00  0.00    -0.217 NA
ATOM      7  C   UNL     1      -4.037  -6.740  34.602  1.00  0.00     0.152 A 
ATOM      8  C   UNL     1      -4.311  -6.651  35.963  1.00  0.00     0.127 A 
ATOM      9  N   UNL     1      -5.118  -5.821  36.637  1.00  0.00    -0.340 N 
ATOM     10  H   UNL     1      -5.720  -5.052  36.267  1.00  0.00     0.168 HD
ENDROOT
BRANCH   7  11
ATOM     11  N   UNL     1      -4.641  -5.868  33.645  1.00  0.00    -0.382 N 
ATOM     12  H   UNL     1      -4.889  -6.201  32.687  1.00  0.00     0.158 HD
ATOM     13  H   UNL     1      -4.843  -4.876  33.897  1.00  0.00     0.158 HD
ENDBRANCH   7  11
TORSDOF 1
ENDMDL
MODEL 9
REMARK VINA RESULT:    -3.207      5.997      6.846
REMARK INTER + INTRA:          -3.301
REMARK INTER:                  -3.301
REMARK INTRA:                   0.000
REMARK UNBOUND:                 0.000
REMARK SMILES Nc1ncnc2nc[nH]c12
REMARK SMILES IDX 8 1 7 2 6 3 5 4 4 5 3 6 2 7 10 8 9 9 1 11
REMARK H PARENT 9 10 1 12 1 13
REMARK Flexibility Score: inf
ROOT
ATOM      1  C   UNL     1       5.714  -0.187  30.754  1.00  0.00     0.199 A 
ATOM      2  N   UNL     1       6.371  -1.215  31.359  1.00  0.00    -0.217 NA
ATOM      3  C   UNL     1       7.278  -0.570  32.112  1.00  0.00     0.182 A 
ATOM      4  N   UNL     1       8.201  -1.135  32.927  1.00  0.00    -0.215 NA
ATOM      5  C   UNL     1       9.044  -0.309  33.617  1.00  0.00     0.226 A 
ATOM      6  N   UNL     1       8.949   1.053  33.483  1.00  0.00    -0.217 NA
ATOM      7  C   UNL     1       8.019   1.625  32.661  1.00  0.00     0.152 A 
ATOM      8  C   UNL     1       7.169   0.771  31.965  1.00  0.00     0.127 A 
ATOM      9  N   UNL     1       6.179   1.039  31.104  1.00  0.00    -0.340 N 
ATOM     10  H   UNL     1       5.835   1.967  30.772  1.00  0.00     0.168 HD
ENDROOT
BRANCH   7  11
ATOM     11  N   UNL     1       7.940   3.046  32.536  1.00  0.00    -0.382 N 
ATOM     12  H   UNL     1       8.779   3.618  32.298  1.00  0.00     0.158 HD
ATOM     13  H   UNL     1       7.029   3.532  32.684  1.00  0.00     0.158 HD
ENDBRANCH   7  11
TORSDOF 1
ENDMDL
