MODEL 1
REMARK VINA RESULT:    -4.021      0.000      0.000
REMARK INTER + INTRA:          -4.577
REMARK INTER:                  -4.491
REMARK INTRA:                  -0.086
REMARK UNBOUND:                -0.086
REMARK SMILES CCc1ccc(O)cc1O
REMARK SMILES IDX 3 1 9 2 8 3 6 4 5 5 4 6 2 7 1 8 10 9 7 11
REMARK H PARENT 10 10 7 12
REMARK Flexibility Score: inf
ROOT
ATOM      1  C   UNL     1     175.327 179.469 178.720  1.00  0.00    -0.006 A 
ATOM      2  C   UNL     1     176.717 179.651 178.876  1.00  0.00     0.122 A 
ATOM      3  C   UNL     1     177.288 179.605 180.156  1.00  0.00     0.092 A 
ATOM      4  C   UNL     1     176.490 179.370 181.279  1.00  0.00     0.119 A 
ATOM      5  C   UNL     1     175.112 179.174 181.126  1.00  0.00     0.047 A 
ATOM      6  C   UNL     1     174.535 179.219 179.854  1.00  0.00     0.011 A 
ENDROOT
BRANCH   1   7
ATOM      7  C   UNL     1     174.691 179.483 177.353  1.00  0.00     0.036 C 
ATOM      8  C   UNL     1     173.220 179.088 177.438  1.00  0.00     0.009 C 
ENDBRANCH   1   7
BRANCH   2   9
ATOM      9  O   UNL     1     177.524 179.873 177.760  1.00  0.00    -0.508 OA
ATOM     10  H   UNL     1     177.850 180.801 177.518  1.00  0.00     0.293 HD
ENDBRANCH   2   9
BRANCH   4  11
ATOM     11  O   UNL     1     177.076 179.328 182.543  1.00  0.00    -0.508 OA
ATOM     12  H   UNL     1     178.079 179.403 182.663  1.00  0.00     0.293 HD
ENDBRANCH   4  11
TORSDOF 3
ENDMDL
MODEL 2
REMARK VINA RESULT:    -3.968     13.588     13.909
REMARK INTER + INTRA:          -4.518
REMARK INTER:                  -4.432
REMARK INTRA:                  -0.086
REMARK UNBOUND:                -0.086
REMARK SMILES CCc1ccc(O)cc1O
REMARK SMILES IDX 3 1 9 2 8 3 6 4 5 5 4 6 2 7 1 8 10 9 7 11
REMARK H PARENT 10 10 7 12
REMARK Flexibility Score: inf
ROOT
ATOM      1  C   UNL     1     161.828 177.974 178.674  1.00  0.00    -0.006 A 
ATOM      2  C   UNL     1     162.135 179.347 178.766  1.00  0.00     0.122 A 
ATOM      3  C   UNL     1     162.357 179.930 180.022  1.00  0.00     0.092 A 
ATOM      4  C   UNL     1     162.289 179.156 181.184  1.00  0.00     0.119 A 
ATOM      5  C   UNL     1     161.999 177.789 181.094  1.00  0.00     0.047 A 
ATOM      6  C   UNL     1     161.774 177.201 179.846  1.00  0.00     0.011 A 
ENDROOT
BRANCH   1   7
ATOM      7  C   UNL     1     161.614 177.314 177.335  1.00  0.00     0.036 C 
ATOM      8  C   UNL     1     161.435 175.808 177.498  1.00  0.00     0.009 C 
ENDBRANCH   1   7
BRANCH   2   9
ATOM      9  O   UNL     1     162.220 180.125 177.612  1.00  0.00    -0.508 OA
ATOM     10  H   UNL     1     162.969 180.793 177.476  1.00  0.00     0.293 HD
ENDBRANCH   2   9
BRANCH   4  11
ATOM     11  O   UNL     1     162.513 179.754 182.423  1.00  0.00    -0.508 OA
ATOM     12  H   UNL     1     161.812 180.337 182.864  1.00  0.00     0.293 HD
ENDBRANCH   4  11
TORSDOF 3
ENDMDL
MODEL 3
REMARK VINA RESULT:    -3.964      2.057      2.417
REMARK INTER + INTRA:          -4.513
REMARK INTER:                  -4.426
REMARK INTRA:                  -0.087
REMARK UNBOUND:                -0.086
REMARK SMILES CCc1ccc(O)cc1O
REMARK SMILES IDX 3 1 9 2 8 3 6 4 5 5 4 6 2 7 1 8 10 9 7 11
REMARK H PARENT 10 10 7 12
REMARK Flexibility Score: inf
ROOT
ATOM      1  C   UNL     1     176.998 178.614 177.705  1.00  0.00    -0.006 A 
ATOM      2  C   UNL     1     177.249 177.447 178.455  1.00  0.00     0.122 A 
ATOM      3  C   UNL     1     177.319 177.519 179.854  1.00  0.00     0.092 A 
ATOM      4  C   UNL     1     177.128 178.737 180.511  1.00  0.00     0.119 A 
ATOM      5  C   UNL     1     176.863 179.895 179.769  1.00  0.00     0.047 A 
ATOM      6  C   UNL     1     176.794 179.833 178.374  1.00  0.00     0.011 A 
ENDROOT
BRANCH   1   7
ATOM      7  C   UNL     1     176.889 178.562 176.202  1.00  0.00     0.036 C 
ATOM      8  C   UNL     1     175.465 178.216 175.775  1.00  0.00     0.009 C 
ENDBRANCH   1   7
BRANCH   2   9
ATOM      9  O   UNL     1     177.427 176.224 177.810  1.00  0.00    -0.508 OA
ATOM     10  H   UNL     1     178.171 175.588 178.073  1.00  0.00     0.293 HD
ENDBRANCH   2   9
BRANCH   4  11
ATOM     11  O   UNL     1     177.200 178.787 181.902  1.00  0.00    -0.508 OA
ATOM     12  H   UNL     1     176.406 178.543 182.482  1.00  0.00     0.293 HD
ENDBRANCH   4  11
TORSDOF 3
ENDMDL
MODEL 4
REMARK VINA RESULT:    -3.962     10.356     11.849
REMARK INTER + INTRA:          -4.511
REMARK INTER:                  -4.424
REMARK INTRA:                  -0.087
REMARK UNBOUND:                -0.086
REMARK SMILES CCc1ccc(O)cc1O
REMARK SMILES IDX 3 1 9 2 8 3 6 4 5 5 4 6 2 7 1 8 10 9 7 11
REMARK H PARENT 10 10 7 12
REMARK Flexibility Score: inf
ROOT
ATOM      1  C   UNL     1     165.224 178.882 179.670  1.00  0.00    -0.006 A 
ATOM      2  C   UNL     1     164.274 179.449 178.795  1.00  0.00     0.122 A 
ATOM      3  C   UNL     1     163.013 179.823 179.282  1.00  0.00     0.092 A 
ATOM      4  C   UNL     1     162.695 179.648 180.632  1.00  0.00     0.119 A 
ATOM      5  C   UNL     1     163.641 179.099 181.505  1.00  0.00     0.047 A 
ATOM      6  C   UNL     1     164.900 178.722 181.028  1.00  0.00     0.011 A 
ENDROOT
BRANCH   1   7
ATOM      7  C   UNL     1     166.598 178.499 179.180  1.00  0.00     0.036 C 
ATOM      8  C   UNL     1     167.625 178.627 180.301  1.00  0.00     0.009 C 
ENDBRANCH   1   7
BRANCH   2   9
ATOM      9  O   UNL     1     164.587 179.641 177.450  1.00  0.00    -0.508 OA
ATOM     10  H   UNL     1     164.419 178.920 176.758  1.00  0.00     0.293 HD
ENDBRANCH   2   9
BRANCH   4  11
ATOM     11  O   UNL     1     161.436 180.026 181.096  1.00  0.00    -0.508 OA
ATOM     12  H   UNL     1     161.185 181.001 181.208  1.00  0.00     0.293 HD
ENDBRANCH   4  11
TORSDOF 3
ENDMDL
MODEL 5
REMARK VINA RESULT:    -3.943     11.361     12.487
REMARK INTER + INTRA:          -4.490
REMARK INTER:                  -4.385
REMARK INTRA:                  -0.105
REMARK UNBOUND:                -0.086
REMARK SMILES CCc1ccc(O)cc1O
REMARK SMILES IDX 3 1 9 2 8 3 6 4 5 5 4 6 2 7 1 8 10 9 7 11
REMARK H PARENT 10 10 7 12
REMARK Flexibility Score: inf
ROOT
ATOM      1  C   UNL     1     163.212 179.443 177.677  1.00  0.00    -0.006 A 
ATOM      2  C   UNL     1     164.403 179.274 178.413  1.00  0.00     0.122 A 
ATOM      3  C   UNL     1     164.374 179.348 179.813  1.00  0.00     0.092 A 
ATOM      4  C   UNL     1     163.171 179.577 180.486  1.00  0.00     0.119 A 
ATOM      5  C   UNL     1     161.985 179.730 179.758  1.00  0.00     0.047 A 
ATOM      6  C   UNL     1     162.004 179.659 178.362  1.00  0.00     0.011 A 
ENDROOT
BRANCH   1   7
ATOM      7  C   UNL     1     163.208 179.338 176.173  1.00  0.00     0.036 C 
ATOM      8  C   UNL     1     162.919 177.907 175.731  1.00  0.00     0.009 C 
ENDBRANCH   1   7
BRANCH   2   9
ATOM      9  O   UNL     1     165.607 179.031 177.752  1.00  0.00    -0.508 OA
ATOM     10  H   UNL     1     166.133 179.779 177.316  1.00  0.00     0.293 HD
ENDBRANCH   2   9
BRANCH   4  11
ATOM     11  O   UNL     1     163.163 179.647 181.878  1.00  0.00    -0.508 OA
ATOM     12  H   UNL     1     164.012 179.818 182.403  1.00  0.00     0.293 HD
ENDBRANCH   4  11
TORSDOF 3
ENDMDL
MODEL 6
REMARK VINA RESULT:    -3.931      1.872      3.218
REMARK INTER + INTRA:          -4.477
REMARK INTER:                  -4.420
REMARK INTRA:                  -0.057
REMARK UNBOUND:                -0.086
REMARK SMILES CCc1ccc(O)cc1O
REMARK SMILES IDX 3 1 9 2 8 3 6 4 5 5 4 6 2 7 1 8 10 9 7 11
REMARK H PARENT 10 10 7 12
REMARK Flexibility Score: inf
ROOT
ATOM      1  C   UNL     1     174.334 179.226 180.352  1.00  0.00    -0.006 A 
ATOM      2  C   UNL     1     174.293 179.426 178.957  1.00  0.00     0.122 A 
ATOM      3  C   UNL     1     175.472 179.729 178.261  1.00  0.00     0.092 A 
ATOM      4  C   UNL     1     176.691 179.823 178.939  1.00  0.00     0.119 A 
ATOM      5  C   UNL     1     176.736 179.610 180.322  1.00  0.00     0.047 A 
ATOM      6  C   UNL     1     175.566 179.309 181.024  1.00  0.00     0.011 A 
ENDROOT
BRANCH   1   7
ATOM      7  C   UNL     1     173.087 178.869 181.122  1.00  0.00     0.036 C 
ATOM      8  C   UNL     1     172.281 180.121 181.455  1.00  0.00     0.009 C 
ENDBRANCH   1   7
BRANCH   2   9
ATOM      9  O   UNL     1     173.085 179.321 178.269  1.00  0.00    -0.508 OA
ATOM     10  H   UNL     1     172.956 178.648 177.522  1.00  0.00     0.293 HD
ENDBRANCH   2   9
BRANCH   4  11
ATOM     11  O   UNL     1     177.851 180.125 178.229  1.00  0.00    -0.508 OA
ATOM     12  H   UNL     1     178.483 180.856 178.533  1.00  0.00     0.293 HD
ENDBRANCH   4  11
TORSDOF 3
ENDMDL
MODEL 7
REMARK VINA RESULT:    -3.876      2.680      3.760
REMARK INTER + INTRA:          -4.415
REMARK INTER:                  -4.312
REMARK INTRA:                  -0.103
REMARK UNBOUND:                -0.086
REMARK SMILES CCc1ccc(O)cc1O
REMARK SMILES IDX 3 1 9 2 8 3 6 4 5 5 4 6 2 7 1 8 10 9 7 11
REMARK H PARENT 10 10 7 12
REMARK Flexibility Score: inf
ROOT
ATOM      1  C   UNL     1     177.061 177.240 180.224  1.00  0.00    -0.006 A 
ATOM      2  C   UNL     1     176.817 177.700 178.914  1.00  0.00     0.122 A 
ATOM      3  C   UNL     1     175.713 178.527 178.660  1.00  0.00     0.092 A 
ATOM      4  C   UNL     1     174.859 178.907 179.699  1.00  0.00     0.119 A 
ATOM      5  C   UNL     1     175.108 178.463 181.003  1.00  0.00     0.047 A 
ATOM      6  C   UNL     1     176.205 177.638 181.265  1.00  0.00     0.011 A 
ENDROOT
BRANCH   1   7
ATOM      7  C   UNL     1     178.258 176.374 180.532  1.00  0.00     0.036 C 
ATOM      8  C   UNL     1     177.886 174.896 180.465  1.00  0.00     0.009 C 
ENDBRANCH   1   7
BRANCH   2   9
ATOM      9  O   UNL     1     177.671 177.338 177.873  1.00  0.00    -0.508 OA
ATOM     10  H   UNL     1     177.784 176.371 177.591  1.00  0.00     0.293 HD
ENDBRANCH   2   9
BRANCH   4  11
ATOM     11  O   UNL     1     173.768 179.730 179.425  1.00  0.00    -0.508 OA
ATOM     12  H   UNL     1     172.844 179.347 179.264  1.00  0.00     0.293 HD
ENDBRANCH   4  11
TORSDOF 3
ENDMDL
MODEL 8
REMARK VINA RESULT:    -3.874      1.579      3.407
REMARK INTER + INTRA:          -4.413
REMARK INTER:                  -4.328
REMARK INTRA:                  -0.085
REMARK UNBOUND:                -0.086
REMARK SMILES CCc1ccc(O)cc1O
REMARK SMILES IDX 3 1 9 2 8 3 6 4 5 5 4 6 2 7 1 8 10 9 7 11
REMARK H PARENT 10 10 7 12
REMARK Flexibility Score: inf
ROOT
ATOM      1  C   UNL     1     175.379 178.862 180.147  1.00  0.00    -0.006 A 
ATOM      2  C   UNL     1     176.666 178.355 180.420  1.00  0.00     0.122 A 
ATOM      3  C   UNL     1     177.463 177.871 179.371  1.00  0.00     0.092 A 
ATOM      4  C   UNL     1     176.994 177.898 178.055  1.00  0.00     0.119 A 
ATOM      5  C   UNL     1     175.722 178.415 177.780  1.00  0.00     0.047 A 
ATOM      6  C   UNL     1     174.921 178.897 178.819  1.00  0.00     0.011 A 
ENDROOT
BRANCH   1   7
ATOM      7  C   UNL     1     174.513 179.415 181.250  1.00  0.00     0.036 C 
ATOM      8  C   UNL     1     173.048 179.437 180.826  1.00  0.00     0.009 C 
ENDBRANCH   1   7
BRANCH   2   9
ATOM      9  O   UNL     1     177.149 178.336 181.728  1.00  0.00    -0.508 OA
ATOM     10  H   UNL     1     178.097 178.048 181.940  1.00  0.00     0.293 HD
ENDBRANCH   2   9
BRANCH   4  11
ATOM     11  O   UNL     1     177.801 177.414 177.028  1.00  0.00    -0.508 OA
ATOM     12  H   UNL     1     177.403 177.051 176.169  1.00  0.00     0.293 HD
ENDBRANCH   4  11
TORSDOF 3
ENDMDL
MODEL 9
REMARK VINA RESULT:    -3.819      1.625      2.307
REMARK INTER + INTRA:          -4.351
REMARK INTER:                  -4.263
REMARK INTRA:                  -0.088
REMARK UNBOUND:                -0.086
REMARK SMILES CCc1ccc(O)cc1O
REMARK SMILES IDX 3 1 9 2 8 3 6 4 5 5 4 6 2 7 1 8 10 9 7 11
REMARK H PARENT 10 10 7 12
REMARK Flexibility Score: inf
ROOT
ATOM      1  C   UNL     1     175.255 179.423 178.683  1.00  0.00    -0.006 A 
ATOM      2  C   UNL     1     174.458 179.383 179.844  1.00  0.00     0.122 A 
ATOM      3  C   UNL     1     175.066 179.299 181.106  1.00  0.00     0.092 A 
ATOM      4  C   UNL     1     176.458 179.266 181.220  1.00  0.00     0.119 A 
ATOM      5  C   UNL     1     177.252 179.321 180.068  1.00  0.00     0.047 A 
ATOM      6  C   UNL     1     176.655 179.403 178.807  1.00  0.00     0.011 A 
ENDROOT
BRANCH   1   7
ATOM      7  C   UNL     1     174.630 179.543 177.315  1.00  0.00     0.036 C 
ATOM      8  C   UNL     1     175.296 178.586 176.331  1.00  0.00     0.009 C 
ENDBRANCH   1   7
BRANCH   2   9
ATOM      9  O   UNL     1     173.068 179.429 179.742  1.00  0.00    -0.508 OA
ATOM     10  H   UNL     1     172.489 178.645 180.019  1.00  0.00     0.293 HD
ENDBRANCH   2   9
BRANCH   4  11
ATOM     11  O   UNL     1     177.043 179.184 182.482  1.00  0.00    -0.508 OA
ATOM     12  H   UNL     1     176.645 178.605 183.212  1.00  0.00     0.293 HD
ENDBRANCH   4  11
TORSDOF 3
ENDMDL
