MODEL 1
REMARK VINA RESULT:    -6.537      0.000      0.000
REMARK INTER + INTRA:          -9.234
REMARK INTER:                  -8.256
REMARK INTRA:                  -0.978
REMARK UNBOUND:                -0.978
REMARK SMILES CC(C)[C@H](C)C=C[C@H](C)[C@@H]1CC[C@H]2C3=CC=C4C[C@H](O)CC[C@]4(C)[C@@H]3CC[C@]21C
REMARK SMILES IDX 8 1 9 2 7 3 6 4 4 5 5 6 2 7 1 8 3 9 10 10 11 11 28 12 12 13
REMARK SMILES IDX 13 14 27 15 29 16 14 17 26 18 25 19 15 20 23 21 16 22 17 23
REMARK SMILES IDX 22 24 24 25 18 26 21 27 19 28 20 29
REMARK H PARENT 20 30
REMARK Flexibility Score: inf
ROOT
ATOM      1  C   UNL     1      42.980  11.273 114.717  1.00  0.00     0.012 C 
ATOM      2  C   UNL     1      42.915  11.464 116.249  1.00  0.00     0.012 C 
ENDROOT
BRANCH   1   3
ATOM      3  C   UNL     1      43.362   9.819 114.491  1.00  0.00    -0.028 C 
ATOM      4  C   UNL     1      43.465   8.950 115.515  1.00  0.00    -0.028 C 
BRANCH   4   5
ATOM      5  C   UNL     1      43.669   7.455 115.362  1.00  0.00     0.011 C 
ATOM      6  C   UNL     1      42.698   6.878 114.324  1.00  0.00     0.012 C 
BRANCH   5   7
ATOM      7  C   UNL     1      45.148   6.976 115.162  1.00  0.00    -0.011 C 
ATOM      8  C   UNL     1      46.115   7.606 116.172  1.00  0.00     0.008 C 
ATOM      9  C   UNL     1      45.694   7.135 113.722  1.00  0.00     0.008 C 
ENDBRANCH   5   7
ENDBRANCH   4   5
ENDBRANCH   1   3
BRANCH   1  10
ATOM     10  C   UNL     1      41.624  11.602 113.984  1.00  0.00     0.002 C 
ATOM     11  C   UNL     1      41.368  10.612 112.817  1.00  0.00     0.005 C 
ATOM     12  C   UNL     1      41.462  13.013 113.304  1.00  0.00    -0.023 C 
ATOM     13  C   UNL     1      41.590  11.350 111.495  1.00  0.00     0.009 C 
ATOM     14  C   UNL     1      41.967  12.783 111.860  1.00  0.00     0.021 C 
ATOM     15  C   UNL     1      39.935  13.393 113.324  1.00  0.00     0.008 C 
ATOM     16  C   UNL     1      42.251  14.169 113.960  1.00  0.00     0.012 C 
ATOM     17  C   UNL     1      41.417  13.834 110.910  1.00  0.00    -0.063 C 
ATOM     18  C   UNL     1      39.498  14.455 112.286  1.00  0.00     0.009 C 
ATOM     19  C   UNL     1      39.909  14.023 110.862  1.00  0.00     0.025 C 
ATOM     20  C   UNL     1      42.225  14.841 110.526  1.00  0.00    -0.000 C 
ATOM     21  C   UNL     1      39.484  14.981 109.680  1.00  0.00    -0.005 C 
ATOM     22  C   UNL     1      41.681  16.090 109.971  1.00  0.00    -0.000 C 
ATOM     23  C   UNL     1      40.381  16.223 109.670  1.00  0.00    -0.061 C 
ATOM     24  C   UNL     1      37.968  15.355 109.759  1.00  0.00     0.014 C 
ATOM     25  C   UNL     1      39.719  14.232 108.344  1.00  0.00     0.017 C 
ATOM     26  C   UNL     1      39.916  17.501 109.007  1.00  0.00     0.063 C 
ATOM     27  C   UNL     1      37.598  16.560 108.885  1.00  0.00     0.033 C 
ATOM     28  C   UNL     1      38.438  17.775 109.288  1.00  0.00     0.118 C 
BRANCH  28  29
ATOM     29  O   UNL     1      38.251  18.044 110.655  1.00  0.00    -0.393 OA
ATOM     30  H   UNL     1      37.359  17.706 110.915  1.00  0.00     0.210 HD
ENDBRANCH  28  29
ENDBRANCH   1  10
TORSDOF 5
ENDMDL
MODEL 2
REMARK VINA RESULT:    -6.296      2.424      4.152
REMARK INTER + INTRA:          -8.930
REMARK INTER:                  -7.903
REMARK INTRA:                  -1.028
REMARK UNBOUND:                -0.978
REMARK SMILES CC(C)[C@H](C)C=C[C@H](C)[C@@H]1CC[C@H]2C3=CC=C4C[C@H](O)CC[C@]4(C)[C@@H]3CC[C@]21C
REMARK SMILES IDX 8 1 9 2 7 3 6 4 4 5 5 6 2 7 1 8 3 9 10 10 11 11 28 12 12 13
REMARK SMILES IDX 13 14 27 15 29 16 14 17 26 18 25 19 15 20 23 21 16 22 17 23
REMARK SMILES IDX 22 24 24 25 18 26 21 27 19 28 20 29
REMARK H PARENT 20 30
REMARK Flexibility Score: inf
ROOT
ATOM      1  C   UNL     1      41.644  14.716 113.386  1.00  0.00     0.012 C 
ATOM      2  C   UNL     1      41.510  15.379 114.776  1.00  0.00     0.012 C 
ENDROOT
BRANCH   1   3
ATOM      3  C   UNL     1      41.306  13.248 113.587  1.00  0.00    -0.028 C 
ATOM      4  C   UNL     1      42.072  12.271 113.064  1.00  0.00    -0.028 C 
BRANCH   4   5
ATOM      5  C   UNL     1      41.906  10.793 113.359  1.00  0.00     0.011 C 
ATOM      6  C   UNL     1      41.385  10.047 112.123  1.00  0.00     0.012 C 
BRANCH   5   7
ATOM      7  C   UNL     1      43.125  10.084 114.043  1.00  0.00    -0.011 C 
ATOM      8  C   UNL     1      43.045   8.555 113.955  1.00  0.00     0.008 C 
ATOM      9  C   UNL     1      43.402  10.527 115.501  1.00  0.00     0.008 C 
ENDBRANCH   5   7
ENDBRANCH   4   5
ENDBRANCH   1   3
BRANCH   1  10
ATOM     10  C   UNL     1      40.700  15.350 112.294  1.00  0.00     0.002 C 
ATOM     11  C   UNL     1      39.366  14.565 112.188  1.00  0.00     0.005 C 
ATOM     12  C   UNL     1      41.208  15.404 110.805  1.00  0.00    -0.023 C 
ATOM     13  C   UNL     1      39.374  13.765 110.883  1.00  0.00     0.009 C 
ATOM     14  C   UNL     1      40.702  14.075 110.197  1.00  0.00     0.021 C 
ATOM     15  C   UNL     1      40.540  16.646 110.105  1.00  0.00     0.008 C 
ATOM     16  C   UNL     1      42.738  15.519 110.620  1.00  0.00     0.012 C 
ATOM     17  C   UNL     1      40.617  14.158 108.682  1.00  0.00    -0.063 C 
ATOM     18  C   UNL     1      40.490  16.593 108.558  1.00  0.00     0.009 C 
ATOM     19  C   UNL     1      39.805  15.294 108.082  1.00  0.00     0.025 C 
ATOM     20  C   UNL     1      41.585  13.575 107.950  1.00  0.00    -0.000 C 
ATOM     21  C   UNL     1      39.628  15.118 106.522  1.00  0.00    -0.005 C 
ATOM     22  C   UNL     1      41.813  13.949 106.545  1.00  0.00    -0.000 C 
ATOM     23  C   UNL     1      40.974  14.760 105.884  1.00  0.00    -0.061 C 
ATOM     24  C   UNL     1      38.990  16.385 105.868  1.00  0.00     0.014 C 
ATOM     25  C   UNL     1      38.671  13.923 106.277  1.00  0.00     0.017 C 
ATOM     26  C   UNL     1      41.220  15.015 104.413  1.00  0.00     0.063 C 
ATOM     27  C   UNL     1      39.149  16.421 104.342  1.00  0.00     0.033 C 
ATOM     28  C   UNL     1      40.632  16.356 103.969  1.00  0.00     0.118 C 
BRANCH  28  29
ATOM     29  O   UNL     1      41.320  17.412 104.591  1.00  0.00    -0.393 OA
ATOM     30  H   UNL     1      41.306  17.255 105.567  1.00  0.00     0.210 HD
ENDBRANCH  28  29
ENDBRANCH   1  10
TORSDOF 5
ENDMDL
MODEL 3
REMARK VINA RESULT:    -6.289      7.406     10.313
REMARK INTER + INTRA:          -8.921
REMARK INTER:                  -7.894
REMARK INTRA:                  -1.027
REMARK UNBOUND:                -0.978
REMARK SMILES CC(C)[C@H](C)C=C[C@H](C)[C@@H]1CC[C@H]2C3=CC=C4C[C@H](O)CC[C@]4(C)[C@@H]3CC[C@]21C
REMARK SMILES IDX 8 1 9 2 7 3 6 4 4 5 5 6 2 7 1 8 3 9 10 10 11 11 28 12 12 13
REMARK SMILES IDX 13 14 27 15 29 16 14 17 26 18 25 19 15 20 23 21 16 22 17 23
REMARK SMILES IDX 22 24 24 25 18 26 21 27 19 28 20 29
REMARK H PARENT 20 30
REMARK Flexibility Score: inf
ROOT
ATOM      1  C   UNL     1      44.163   7.734 115.509  1.00  0.00     0.012 C 
ATOM      2  C   UNL     1      43.318   7.743 114.216  1.00  0.00     0.012 C 
ENDROOT
BRANCH   1   3
ATOM      3  C   UNL     1      45.563   7.310 115.093  1.00  0.00    -0.028 C 
ATOM      4  C   UNL     1      45.903   7.180 113.796  1.00  0.00    -0.028 C 
BRANCH   4   5
ATOM      5  C   UNL     1      47.313   6.933 113.294  1.00  0.00     0.011 C 
ATOM      6  C   UNL     1      47.573   7.714 111.999  1.00  0.00     0.012 C 
BRANCH   5   7
ATOM      7  C   UNL     1      48.459   7.086 114.351  1.00  0.00    -0.011 C 
ATOM      8  C   UNL     1      48.927   8.538 114.510  1.00  0.00     0.008 C 
ATOM      9  C   UNL     1      49.673   6.149 114.135  1.00  0.00     0.008 C 
ENDBRANCH   5   7
ENDBRANCH   4   5
ENDBRANCH   1   3
BRANCH   1  10
ATOM     10  C   UNL     1      44.210   9.130 116.239  1.00  0.00     0.002 C 
ATOM     11  C   UNL     1      45.539   9.871 115.940  1.00  0.00     0.005 C 
ATOM     12  C   UNL     1      44.126   9.156 117.812  1.00  0.00    -0.023 C 
ATOM     13  C   UNL     1      46.410   9.836 117.198  1.00  0.00     0.009 C 
ATOM     14  C   UNL     1      45.606   9.088 118.257  1.00  0.00     0.021 C 
ATOM     15  C   UNL     1      43.459  10.515 118.244  1.00  0.00     0.008 C 
ATOM     16  C   UNL     1      43.327   8.004 118.462  1.00  0.00     0.012 C 
ATOM     17  C   UNL     1      45.782   9.624 119.668  1.00  0.00    -0.063 C 
ATOM     18  C   UNL     1      43.742  10.964 119.698  1.00  0.00     0.009 C 
ATOM     19  C   UNL     1      45.261  11.022 119.963  1.00  0.00     0.025 C 
ATOM     20  C   UNL     1      45.931   8.745 120.678  1.00  0.00    -0.000 C 
ATOM     21  C   UNL     1      45.713  11.518 121.394  1.00  0.00    -0.005 C 
ATOM     22  C   UNL     1      45.691   9.136 122.076  1.00  0.00    -0.000 C 
ATOM     23  C   UNL     1      45.474  10.412 122.426  1.00  0.00    -0.061 C 
ATOM     24  C   UNL     1      45.003  12.852 121.790  1.00  0.00     0.014 C 
ATOM     25  C   UNL     1      47.239  11.786 121.351  1.00  0.00     0.017 C 
ATOM     26  C   UNL     1      45.337  10.748 123.895  1.00  0.00     0.063 C 
ATOM     27  C   UNL     1      45.106  13.167 123.289  1.00  0.00     0.033 C 
ATOM     28  C   UNL     1      44.511  12.018 124.106  1.00  0.00     0.118 C 
BRANCH  28  29
ATOM     29  O   UNL     1      43.181  11.797 123.709  1.00  0.00    -0.393 OA
ATOM     30  H   UNL     1      42.977  10.839 123.836  1.00  0.00     0.210 HD
ENDBRANCH  28  29
ENDBRANCH   1  10
TORSDOF 5
ENDMDL
MODEL 4
REMARK VINA RESULT:    -6.160      2.974      8.848
REMARK INTER + INTRA:          -8.759
REMARK INTER:                  -7.435
REMARK INTRA:                  -1.324
REMARK UNBOUND:                -0.978
REMARK SMILES CC(C)[C@H](C)C=C[C@H](C)[C@@H]1CC[C@H]2C3=CC=C4C[C@H](O)CC[C@]4(C)[C@@H]3CC[C@]21C
REMARK SMILES IDX 8 1 9 2 7 3 6 4 4 5 5 6 2 7 1 8 3 9 10 10 11 11 28 12 12 13
REMARK SMILES IDX 13 14 27 15 29 16 14 17 26 18 25 19 15 20 23 21 16 22 17 23
REMARK SMILES IDX 22 24 24 25 18 26 21 27 19 28 20 29
REMARK H PARENT 20 30
REMARK Flexibility Score: inf
ROOT
ATOM      1  C   UNL     1      38.083  16.757 106.545  1.00  0.00     0.012 C 
ATOM      2  C   UNL     1      37.085  17.874 106.165  1.00  0.00     0.012 C 
ENDROOT
BRANCH   1   3
ATOM      3  C   UNL     1      39.383  17.094 105.832  1.00  0.00    -0.028 C 
ATOM      4  C   UNL     1      39.998  16.203 105.030  1.00  0.00    -0.028 C 
BRANCH   4   5
ATOM      5  C   UNL     1      41.194  16.514 104.151  1.00  0.00     0.011 C 
ATOM      6  C   UNL     1      41.531  18.010 104.201  1.00  0.00     0.012 C 
BRANCH   5   7
ATOM      7  C   UNL     1      42.447  15.590 104.337  1.00  0.00    -0.011 C 
ATOM      8  C   UNL     1      42.312  14.647 105.538  1.00  0.00     0.008 C 
ATOM      9  C   UNL     1      43.803  16.335 104.385  1.00  0.00     0.008 C 
ENDBRANCH   5   7
ENDBRANCH   4   5
ENDBRANCH   1   3
BRANCH   1  10
ATOM     10  C   UNL     1      38.328  16.634 108.097  1.00  0.00     0.002 C 
ATOM     11  C   UNL     1      39.326  17.714 108.590  1.00  0.00     0.005 C 
ATOM     12  C   UNL     1      38.939  15.294 108.656  1.00  0.00    -0.023 C 
ATOM     13  C   UNL     1      40.659  17.035 108.913  1.00  0.00     0.009 C 
ATOM     14  C   UNL     1      40.464  15.548 108.629  1.00  0.00     0.021 C 
ATOM     15  C   UNL     1      38.417  15.096 110.128  1.00  0.00     0.008 C 
ATOM     16  C   UNL     1      38.602  14.016 107.855  1.00  0.00     0.012 C 
ATOM     17  C   UNL     1      41.194  14.627 109.592  1.00  0.00    -0.063 C 
ATOM     18  C   UNL     1      39.268  14.156 111.017  1.00  0.00     0.009 C 
ATOM     19  C   UNL     1      40.740  14.620 111.043  1.00  0.00     0.025 C 
ATOM     20  C   UNL     1      41.842  13.557 109.094  1.00  0.00    -0.000 C 
ATOM     21  C   UNL     1      41.728  13.790 111.954  1.00  0.00    -0.005 C 
ATOM     22  C   UNL     1      42.205  12.415 109.949  1.00  0.00    -0.000 C 
ATOM     23  C   UNL     1      42.057  12.454 111.281  1.00  0.00    -0.061 C 
ATOM     24  C   UNL     1      41.155  13.594 113.395  1.00  0.00     0.014 C 
ATOM     25  C   UNL     1      43.054  14.584 112.075  1.00  0.00     0.017 C 
ATOM     26  C   UNL     1      42.549  11.282 112.101  1.00  0.00     0.063 C 
ATOM     27  C   UNL     1      41.876  12.494 114.186  1.00  0.00     0.033 C 
ATOM     28  C   UNL     1      41.796  11.167 113.427  1.00  0.00     0.118 C 
BRANCH  28  29
ATOM     29  O   UNL     1      40.449  10.842 113.189  1.00  0.00    -0.393 OA
ATOM     30  H   UNL     1      39.942  11.685 113.096  1.00  0.00     0.210 HD
ENDBRANCH  28  29
ENDBRANCH   1  10
TORSDOF 5
ENDMDL
MODEL 5
REMARK VINA RESULT:    -6.092      4.127      7.559
REMARK INTER + INTRA:          -8.672
REMARK INTER:                  -7.652
REMARK INTRA:                  -1.020
REMARK UNBOUND:                -0.978
REMARK SMILES CC(C)[C@H](C)C=C[C@H](C)[C@@H]1CC[C@H]2C3=CC=C4C[C@H](O)CC[C@]4(C)[C@@H]3CC[C@]21C
REMARK SMILES IDX 8 1 9 2 7 3 6 4 4 5 5 6 2 7 1 8 3 9 10 10 11 11 28 12 12 13
REMARK SMILES IDX 13 14 27 15 29 16 14 17 26 18 25 19 15 20 23 21 16 22 17 23
REMARK SMILES IDX 22 24 24 25 18 26 21 27 19 28 20 29
REMARK H PARENT 20 30
REMARK Flexibility Score: inf
ROOT
ATOM      1  C   UNL     1      35.843  10.907 107.783  1.00  0.00     0.012 C 
ATOM      2  C   UNL     1      34.380  10.739 107.314  1.00  0.00     0.012 C 
ENDROOT
BRANCH   1   3
ATOM      3  C   UNL     1      36.673  11.068 106.520  1.00  0.00    -0.028 C 
ATOM      4  C   UNL     1      37.798  10.354 106.321  1.00  0.00    -0.028 C 
BRANCH   4   5
ATOM      5  C   UNL     1      38.585  10.326 105.025  1.00  0.00     0.011 C 
ATOM      6  C   UNL     1      39.654  11.427 105.013  1.00  0.00     0.012 C 
BRANCH   5   7
ATOM      7  C   UNL     1      39.132   8.926 104.579  1.00  0.00    -0.011 C 
ATOM      8  C   UNL     1      39.133   7.901 105.719  1.00  0.00     0.008 C 
ATOM      9  C   UNL     1      40.514   8.960 103.882  1.00  0.00     0.008 C 
ENDBRANCH   5   7
ENDBRANCH   4   5
ENDBRANCH   1   3
BRANCH   1  10
ATOM     10  C   UNL     1      36.059  12.141 108.739  1.00  0.00     0.002 C 
ATOM     11  C   UNL     1      36.222  13.452 107.927  1.00  0.00     0.005 C 
ATOM     12  C   UNL     1      37.315  12.143 109.688  1.00  0.00    -0.023 C 
ATOM     13  C   UNL     1      37.689  13.885 107.990  1.00  0.00     0.009 C 
ATOM     14  C   UNL     1      38.407  12.846 108.847  1.00  0.00     0.021 C 
ATOM     15  C   UNL     1      36.956  12.978 110.974  1.00  0.00     0.008 C 
ATOM     16  C   UNL     1      37.815  10.754 110.145  1.00  0.00     0.012 C 
ATOM     17  C   UNL     1      39.503  13.417 109.732  1.00  0.00    -0.063 C 
ATOM     18  C   UNL     1      38.164  13.528 111.770  1.00  0.00     0.009 C 
ATOM     19  C   UNL     1      39.087  14.357 110.852  1.00  0.00     0.025 C 
ATOM     20  C   UNL     1      40.670  12.751 109.822  1.00  0.00    -0.000 C 
ATOM     21  C   UNL     1      40.342  15.034 111.534  1.00  0.00    -0.005 C 
ATOM     22  C   UNL     1      41.600  12.984 110.938  1.00  0.00    -0.000 C 
ATOM     23  C   UNL     1      41.411  13.975 111.821  1.00  0.00    -0.061 C 
ATOM     24  C   UNL     1      39.940  15.825 112.821  1.00  0.00     0.014 C 
ATOM     25  C   UNL     1      40.951  16.043 110.527  1.00  0.00     0.017 C 
ATOM     26  C   UNL     1      42.465  14.216 112.880  1.00  0.00     0.063 C 
ATOM     27  C   UNL     1      41.139  16.169 113.715  1.00  0.00     0.033 C 
ATOM     28  C   UNL     1      41.874  14.889 114.119  1.00  0.00     0.118 C 
BRANCH  28  29
ATOM     29  O   UNL     1      40.978  14.015 114.760  1.00  0.00    -0.393 OA
ATOM     30  H   UNL     1      41.354  13.102 114.714  1.00  0.00     0.210 HD
ENDBRANCH  28  29
ENDBRANCH   1  10
TORSDOF 5
ENDMDL
MODEL 6
REMARK VINA RESULT:    -5.982      1.599      3.102
REMARK INTER + INTRA:          -8.534
REMARK INTER:                  -7.906
REMARK INTRA:                  -0.627
REMARK UNBOUND:                -0.978
REMARK SMILES CC(C)[C@H](C)C=C[C@H](C)[C@@H]1CC[C@H]2C3=CC=C4C[C@H](O)CC[C@]4(C)[C@@H]3CC[C@]21C
REMARK SMILES IDX 8 1 9 2 7 3 6 4 4 5 5 6 2 7 1 8 3 9 10 10 11 11 28 12 12 13
REMARK SMILES IDX 13 14 27 15 29 16 14 17 26 18 25 19 15 20 23 21 16 22 17 23
REMARK SMILES IDX 22 24 24 25 18 26 21 27 19 28 20 29
REMARK H PARENT 20 30
REMARK Flexibility Score: inf
ROOT
ATOM      1  C   UNL     1      41.763  11.016 113.501  1.00  0.00     0.012 C 
ATOM      2  C   UNL     1      42.157   9.709 112.776  1.00  0.00     0.012 C 
ENDROOT
BRANCH   1   3
ATOM      3  C   UNL     1      42.626  11.081 114.750  1.00  0.00    -0.028 C 
ATOM      4  C   UNL     1      43.408  10.049 115.120  1.00  0.00    -0.028 C 
BRANCH   4   5
ATOM      5  C   UNL     1      44.424  10.095 116.246  1.00  0.00     0.011 C 
ATOM      6  C   UNL     1      43.745   9.856 117.601  1.00  0.00     0.012 C 
BRANCH   5   7
ATOM      7  C   UNL     1      45.721   9.239 116.042  1.00  0.00    -0.011 C 
ATOM      8  C   UNL     1      45.547   7.785 116.499  1.00  0.00     0.008 C 
ATOM      9  C   UNL     1      47.005   9.847 116.656  1.00  0.00     0.008 C 
ENDBRANCH   5   7
ENDBRANCH   4   5
ENDBRANCH   1   3
BRANCH   1  10
ATOM     10  C   UNL     1      41.973  12.308 112.623  1.00  0.00     0.002 C 
ATOM     11  C   UNL     1      42.269  13.543 113.514  1.00  0.00     0.005 C 
ATOM     12  C   UNL     1      40.786  12.796 111.710  1.00  0.00    -0.023 C 
ATOM     13  C   UNL     1      41.036  14.450 113.515  1.00  0.00     0.009 C 
ATOM     14  C   UNL     1      40.003  13.771 112.619  1.00  0.00     0.021 C 
ATOM     15  C   UNL     1      41.399  13.539 110.465  1.00  0.00     0.008 C 
ATOM     16  C   UNL     1      39.841  11.689 111.188  1.00  0.00     0.012 C 
ATOM     17  C   UNL     1      39.160  14.735 111.799  1.00  0.00    -0.063 C 
ATOM     18  C   UNL     1      40.445  14.515 109.735  1.00  0.00     0.009 C 
ATOM     19  C   UNL     1      39.863  15.547 110.724  1.00  0.00     0.025 C 
ATOM     20  C   UNL     1      37.836  14.510 111.702  1.00  0.00    -0.000 C 
ATOM     21  C   UNL     1      38.909  16.651 110.117  1.00  0.00    -0.005 C 
ATOM     22  C   UNL     1      37.033  15.114 110.627  1.00  0.00    -0.000 C 
ATOM     23  C   UNL     1      37.542  16.037 109.798  1.00  0.00    -0.061 C 
ATOM     24  C   UNL     1      39.547  17.339 108.867  1.00  0.00     0.014 C 
ATOM     25  C   UNL     1      38.684  17.740 111.196  1.00  0.00     0.017 C 
ATOM     26  C   UNL     1      36.626  16.687 108.784  1.00  0.00     0.063 C 
ATOM     27  C   UNL     1      38.531  18.125 108.027  1.00  0.00     0.033 C 
ATOM     28  C   UNL     1      37.403  17.197 107.570  1.00  0.00     0.118 C 
BRANCH  28  29
ATOM     29  O   UNL     1      37.945  16.114 106.856  1.00  0.00    -0.393 OA
ATOM     30  H   UNL     1      37.248  15.417 106.779  1.00  0.00     0.210 HD
ENDBRANCH  28  29
ENDBRANCH   1  10
TORSDOF 5
ENDMDL
MODEL 7
REMARK VINA RESULT:    -5.977      3.756      7.444
REMARK INTER + INTRA:          -8.527
REMARK INTER:                  -7.323
REMARK INTRA:                  -1.204
REMARK UNBOUND:                -0.978
REMARK SMILES CC(C)[C@H](C)C=C[C@H](C)[C@@H]1CC[C@H]2C3=CC=C4C[C@H](O)CC[C@]4(C)[C@@H]3CC[C@]21C
REMARK SMILES IDX 8 1 9 2 7 3 6 4 4 5 5 6 2 7 1 8 3 9 10 10 11 11 28 12 12 13
REMARK SMILES IDX 13 14 27 15 29 16 14 17 26 18 25 19 15 20 23 21 16 22 17 23
REMARK SMILES IDX 22 24 24 25 18 26 21 27 19 28 20 29
REMARK H PARENT 20 30
REMARK Flexibility Score: inf
ROOT
ATOM      1  C   UNL     1      39.392  13.430 105.253  1.00  0.00     0.012 C 
ATOM      2  C   UNL     1      39.614  14.122 103.890  1.00  0.00     0.012 C 
ENDROOT
BRANCH   1   3
ATOM      3  C   UNL     1      39.593  11.943 105.008  1.00  0.00    -0.028 C 
ATOM      4  C   UNL     1      38.698  11.031 105.436  1.00  0.00    -0.028 C 
BRANCH   4   5
ATOM      5  C   UNL     1      38.733   9.556 105.085  1.00  0.00     0.011 C 
ATOM      6  C   UNL     1      40.017   9.210 104.319  1.00  0.00     0.012 C 
BRANCH   5   7
ATOM      7  C   UNL     1      38.421   8.560 106.254  1.00  0.00    -0.011 C 
ATOM      8  C   UNL     1      38.438   9.239 107.629  1.00  0.00     0.008 C 
ATOM      9  C   UNL     1      39.296   7.283 106.272  1.00  0.00     0.008 C 
ENDBRANCH   5   7
ENDBRANCH   4   5
ENDBRANCH   1   3
BRANCH   1  10
ATOM     10  C   UNL     1      40.370  13.934 106.381  1.00  0.00     0.002 C 
ATOM     11  C   UNL     1      41.354  12.813 106.807  1.00  0.00     0.005 C 
ATOM     12  C   UNL     1      39.754  14.413 107.749  1.00  0.00    -0.023 C 
ATOM     13  C   UNL     1      40.948  12.308 108.193  1.00  0.00     0.009 C 
ATOM     14  C   UNL     1      39.730  13.129 108.609  1.00  0.00     0.021 C 
ATOM     15  C   UNL     1      40.714  15.498 108.365  1.00  0.00     0.008 C 
ATOM     16  C   UNL     1      38.335  15.022 107.670  1.00  0.00     0.012 C 
ATOM     17  C   UNL     1      39.678  13.458 110.092  1.00  0.00    -0.063 C 
ATOM     18  C   UNL     1      40.581  15.717 109.892  1.00  0.00     0.009 C 
ATOM     19  C   UNL     1      40.749  14.382 110.648  1.00  0.00     0.025 C 
ATOM     20  C   UNL     1      38.501  13.343 110.736  1.00  0.00    -0.000 C 
ATOM     21  C   UNL     1      40.692  14.450 112.226  1.00  0.00    -0.005 C 
ATOM     22  C   UNL     1      38.261  14.020 112.020  1.00  0.00    -0.000 C 
ATOM     23  C   UNL     1      39.244  14.644 112.685  1.00  0.00    -0.061 C 
ATOM     24  C   UNL     1      41.638  15.560 112.788  1.00  0.00     0.014 C 
ATOM     25  C   UNL     1      41.175  13.087 112.784  1.00  0.00     0.017 C 
ATOM     26  C   UNL     1      38.943  15.227 114.048  1.00  0.00     0.063 C 
ATOM     27  C   UNL     1      41.340  15.922 114.250  1.00  0.00     0.033 C 
ATOM     28  C   UNL     1      39.886  16.382 114.387  1.00  0.00     0.118 C 
BRANCH  28  29
ATOM     29  O   UNL     1      39.652  17.465 113.522  1.00  0.00    -0.393 OA
ATOM     30  H   UNL     1      38.829  17.275 113.009  1.00  0.00     0.210 HD
ENDBRANCH  28  29
ENDBRANCH   1  10
TORSDOF 5
ENDMDL
MODEL 8
REMARK VINA RESULT:    -5.945      2.183      3.764
REMARK INTER + INTRA:          -8.488
REMARK INTER:                  -7.812
REMARK INTRA:                  -0.676
REMARK UNBOUND:                -0.978
REMARK SMILES CC(C)[C@H](C)C=C[C@H](C)[C@@H]1CC[C@H]2C3=CC=C4C[C@H](O)CC[C@]4(C)[C@@H]3CC[C@]21C
REMARK SMILES IDX 8 1 9 2 7 3 6 4 4 5 5 6 2 7 1 8 3 9 10 10 11 11 28 12 12 13
REMARK SMILES IDX 13 14 27 15 29 16 14 17 26 18 25 19 15 20 23 21 16 22 17 23
REMARK SMILES IDX 22 24 24 25 18 26 21 27 19 28 20 29
REMARK H PARENT 20 30
REMARK Flexibility Score: inf
ROOT
ATOM      1  C   UNL     1      40.764  11.267 112.042  1.00  0.00     0.012 C 
ATOM      2  C   UNL     1      40.120   9.908 111.685  1.00  0.00     0.012 C 
ENDROOT
BRANCH   1   3
ATOM      3  C   UNL     1      41.741  10.985 113.172  1.00  0.00    -0.028 C 
ATOM      4  C   UNL     1      42.438   9.833 113.229  1.00  0.00    -0.028 C 
BRANCH   4   5
ATOM      5  C   UNL     1      43.552   9.547 114.218  1.00  0.00     0.011 C 
ATOM      6  C   UNL     1      43.389  10.400 115.483  1.00  0.00     0.012 C 
BRANCH   5   7
ATOM      7  C   UNL     1      43.836   8.035 114.521  1.00  0.00    -0.011 C 
ATOM      8  C   UNL     1      43.545   7.660 115.979  1.00  0.00     0.008 C 
ATOM      9  C   UNL     1      45.244   7.542 114.107  1.00  0.00     0.008 C 
ENDBRANCH   5   7
ENDBRANCH   4   5
ENDBRANCH   1   3
BRANCH   1  10
ATOM     10  C   UNL     1      41.511  11.945 110.831  1.00  0.00     0.002 C 
ATOM     11  C   UNL     1      42.716  12.790 111.323  1.00  0.00     0.005 C 
ATOM     12  C   UNL     1      40.709  12.953 109.925  1.00  0.00    -0.023 C 
ATOM     13  C   UNL     1      42.362  14.272 111.183  1.00  0.00     0.009 C 
ATOM     14  C   UNL     1      40.954  14.324 110.597  1.00  0.00     0.021 C 
ATOM     15  C   UNL     1      41.326  12.906 108.477  1.00  0.00     0.008 C 
ATOM     16  C   UNL     1      39.191  12.687 109.806  1.00  0.00     0.012 C 
ATOM     17  C   UNL     1      40.726  15.466 109.620  1.00  0.00    -0.063 C 
ATOM     18  C   UNL     1      41.045  14.144 107.592  1.00  0.00     0.009 C 
ATOM     19  C   UNL     1      41.494  15.436 108.308  1.00  0.00     0.025 C 
ATOM     20  C   UNL     1      39.577  16.163 109.701  1.00  0.00    -0.000 C 
ATOM     21  C   UNL     1      41.322  16.787 107.507  1.00  0.00    -0.005 C 
ATOM     22  C   UNL     1      39.094  16.977 108.574  1.00  0.00    -0.000 C 
ATOM     23  C   UNL     1      39.846  17.193 107.485  1.00  0.00    -0.061 C 
ATOM     24  C   UNL     1      41.922  16.682 106.067  1.00  0.00     0.014 C 
ATOM     25  C   UNL     1      42.094  17.897 108.264  1.00  0.00     0.017 C 
ATOM     26  C   UNL     1      39.321  18.125 106.414  1.00  0.00     0.063 C 
ATOM     27  C   UNL     1      41.450  17.806 105.135  1.00  0.00     0.033 C 
ATOM     28  C   UNL     1      39.922  17.803 105.045  1.00  0.00     0.118 C 
BRANCH  28  29
ATOM     29  O   UNL     1      39.478  16.542 104.610  1.00  0.00    -0.393 OA
ATOM     30  H   UNL     1      38.520  16.459 104.837  1.00  0.00     0.210 HD
ENDBRANCH  28  29
ENDBRANCH   1  10
TORSDOF 5
ENDMDL
MODEL 9
REMARK VINA RESULT:    -5.857      4.193      7.409
REMARK INTER + INTRA:          -8.376
REMARK INTER:                  -7.319
REMARK INTRA:                  -1.056
REMARK UNBOUND:                -0.978
REMARK SMILES CC(C)[C@H](C)C=C[C@H](C)[C@@H]1CC[C@H]2C3=CC=C4C[C@H](O)CC[C@]4(C)[C@@H]3CC[C@]21C
REMARK SMILES IDX 8 1 9 2 7 3 6 4 4 5 5 6 2 7 1 8 3 9 10 10 11 11 28 12 12 13
REMARK SMILES IDX 13 14 27 15 29 16 14 17 26 18 25 19 15 20 23 21 16 22 17 23
REMARK SMILES IDX 22 24 24 25 18 26 21 27 19 28 20 29
REMARK H PARENT 20 30
REMARK Flexibility Score: inf
ROOT
ATOM      1  C   UNL     1      36.243  10.948 107.011  1.00  0.00     0.012 C 
ATOM      2  C   UNL     1      35.171  11.348 105.973  1.00  0.00     0.012 C 
ENDROOT
BRANCH   1   3
ATOM      3  C   UNL     1      37.100   9.886 106.342  1.00  0.00    -0.028 C 
ATOM      4  C   UNL     1      37.444   8.752 106.983  1.00  0.00    -0.028 C 
BRANCH   4   5
ATOM      5  C   UNL     1      38.144   7.573 106.336  1.00  0.00     0.011 C 
ATOM      6  C   UNL     1      39.296   8.050 105.441  1.00  0.00     0.012 C 
BRANCH   5   7
ATOM      7  C   UNL     1      38.548   6.398 107.292  1.00  0.00    -0.011 C 
ATOM      8  C   UNL     1      38.644   5.051 106.566  1.00  0.00     0.008 C 
ATOM      9  C   UNL     1      37.672   6.265 108.563  1.00  0.00     0.008 C 
ENDBRANCH   5   7
ENDBRANCH   4   5
ENDBRANCH   1   3
BRANCH   1  10
ATOM     10  C   UNL     1      37.139  12.155 107.486  1.00  0.00     0.002 C 
ATOM     11  C   UNL     1      38.439  12.247 106.643  1.00  0.00     0.005 C 
ATOM     12  C   UNL     1      37.668  12.158 108.969  1.00  0.00    -0.023 C 
ATOM     13  C   UNL     1      39.614  11.789 107.509  1.00  0.00     0.009 C 
ATOM     14  C   UNL     1      39.030  11.432 108.873  1.00  0.00     0.021 C 
ATOM     15  C   UNL     1      37.848  13.656 109.421  1.00  0.00     0.008 C 
ATOM     16  C   UNL     1      36.765  11.452 110.006  1.00  0.00     0.012 C 
ATOM     17  C   UNL     1      39.927  11.785 110.048  1.00  0.00    -0.063 C 
ATOM     18  C   UNL     1      38.812  13.882 110.610  1.00  0.00     0.009 C 
ATOM     19  C   UNL     1      40.192  13.257 110.316  1.00  0.00     0.025 C 
ATOM     20  C   UNL     1      40.058  10.893 111.049  1.00  0.00    -0.000 C 
ATOM     21  C   UNL     1      41.308  13.453 111.418  1.00  0.00    -0.005 C 
ATOM     22  C   UNL     1      40.545  11.299 112.377  1.00  0.00    -0.000 C 
ATOM     23  C   UNL     1      41.031  12.527 112.607  1.00  0.00    -0.061 C 
ATOM     24  C   UNL     1      41.428  14.948 111.856  1.00  0.00     0.014 C 
ATOM     25  C   UNL     1      42.667  13.025 110.809  1.00  0.00     0.017 C 
ATOM     26  C   UNL     1      41.607  12.836 113.972  1.00  0.00     0.063 C 
ATOM     27  C   UNL     1      42.205  15.131 113.167  1.00  0.00     0.033 C 
ATOM     28  C   UNL     1      41.535  14.331 114.287  1.00  0.00     0.118 C 
BRANCH  28  29
ATOM     29  O   UNL     1      40.193  14.731 114.414  1.00  0.00    -0.393 OA
ATOM     30  H   UNL     1      39.802  14.784 113.508  1.00  0.00     0.210 HD
ENDBRANCH  28  29
ENDBRANCH   1  10
TORSDOF 5
ENDMDL
