MODEL 1
REMARK VINA RESULT:    -4.220      0.000      0.000
REMARK INTER + INTRA:         -14.309
REMARK INTER:                 -10.634
REMARK INTRA:                  -3.675
REMARK UNBOUND:                -3.675
REMARK SMILES CCCCCCCCCCCCCCCCCCCCCCCCCCCC(=O)[O-]
REMARK SMILES IDX 15 1 16 2 17 3 18 4 19 5 20 6 21 7 22 8 23 9 24 10 25 11
REMARK SMILES IDX 26 12 27 13 28 14 29 15 30 16 14 17 13 18 12 19 11 20 10 21
REMARK SMILES IDX 9 22 8 23 7 24 6 25 5 26 4 27 3 28 2 29 1 30
REMARK H PARENT
REMARK Flexibility Score: inf
ROOT
ATOM      1  C   UNL     1     185.296 186.921 168.147  1.00  0.00     0.000 C 
ENDROOT
BRANCH   1   2
ATOM      2  C   UNL     1     186.000 185.703 168.773  1.00  0.00     0.000 C 
BRANCH   2   3
ATOM      3  C   UNL     1     186.958 185.010 167.780  1.00  0.00     0.000 C 
BRANCH   3   4
ATOM      4  C   UNL     1     188.427 185.443 167.932  1.00  0.00     0.000 C 
BRANCH   4   5
ATOM      5  C   UNL     1     188.810 186.590 166.984  1.00  0.00     0.000 C 
BRANCH   5   6
ATOM      6  C   UNL     1     189.378 187.815 167.722  1.00  0.00     0.000 C 
BRANCH   6   7
ATOM      7  C   UNL     1     188.518 188.331 168.890  1.00  0.00     0.000 C 
BRANCH   7   8
ATOM      8  C   UNL     1     189.148 188.055 170.265  1.00  0.00     0.000 C 
BRANCH   8   9
ATOM      9  C   UNL     1     188.202 187.302 171.218  1.00  0.00     0.000 C 
BRANCH   9  10
ATOM     10  C   UNL     1     188.649 185.874 171.601  1.00  0.00     0.000 C 
BRANCH  10  11
ATOM     11  C   UNL     1     188.511 185.524 173.093  1.00  0.00     0.000 C 
BRANCH  11  12
ATOM     12  C   UNL     1     189.856 185.548 173.838  1.00  0.00     0.006 C 
BRANCH  12  13
ATOM     13  C   UNL     1     190.535 184.171 173.852  1.00  0.00     0.053 C 
BRANCH  13  14
ATOM     14  C   UNL     1     191.895 184.219 173.227  1.00  0.00     0.041 C 
ATOM     15  O   UNL     1     192.114 184.975 172.243  1.00  0.00    -0.550 OA
ATOM     16  O   UNL     1     192.907 183.392 173.698  1.00  0.00    -0.550 OA
ENDBRANCH  13  14
ENDBRANCH  12  13
ENDBRANCH  11  12
ENDBRANCH  10  11
ENDBRANCH   9  10
ENDBRANCH   8   9
ENDBRANCH   7   8
ENDBRANCH   6   7
ENDBRANCH   5   6
ENDBRANCH   4   5
ENDBRANCH   3   4
ENDBRANCH   2   3
ENDBRANCH   1   2
BRANCH   1  17
ATOM     17  C   UNL     1     184.688 187.858 169.203  1.00  0.00     0.000 C 
BRANCH  17  18
ATOM     18  C   UNL     1     184.352 187.126 170.512  1.00  0.00     0.000 C 
BRANCH  18  19
ATOM     19  C   UNL     1     182.864 187.231 170.894  1.00  0.00     0.000 C 
BRANCH  19  20
ATOM     20  C   UNL     1     182.075 188.333 170.163  1.00  0.00     0.000 C 
BRANCH  20  21
ATOM     21  C   UNL     1     180.840 187.849 169.380  1.00  0.00     0.000 C 
BRANCH  21  22
ATOM     22  C   UNL     1     181.050 187.789 167.852  1.00  0.00    -0.000 C 
BRANCH  22  23
ATOM     23  C   UNL     1     181.769 189.030 167.304  1.00  0.00    -0.000 C 
BRANCH  23  24
ATOM     24  C   UNL     1     181.564 189.165 165.790  1.00  0.00    -0.000 C 
BRANCH  24  25
ATOM     25  C   UNL     1     180.859 190.483 165.446  1.00  0.00    -0.000 C 
BRANCH  25  26
ATOM     26  C   UNL     1     180.898 191.456 166.630  1.00  0.00    -0.000 C 
BRANCH  26  27
ATOM     27  C   UNL     1     179.506 192.030 166.918  1.00  0.00    -0.000 C 
BRANCH  27  28
ATOM     28  C   UNL     1     179.354 192.384 168.407  1.00  0.00    -0.000 C 
BRANCH  28  29
ATOM     29  C   UNL     1     180.317 191.590 169.303  1.00  0.00    -0.003 C 
ATOM     30  C   UNL     1     181.278 192.491 170.080  1.00  0.00     0.004 C 
ENDBRANCH  28  29
ENDBRANCH  27  28
ENDBRANCH  26  27
ENDBRANCH  25  26
ENDBRANCH  24  25
ENDBRANCH  23  24
ENDBRANCH  22  23
ENDBRANCH  21  22
ENDBRANCH  20  21
ENDBRANCH  19  20
ENDBRANCH  18  19
ENDBRANCH  17  18
ENDBRANCH   1  17
TORSDOF 26
ENDMDL
MODEL 2
REMARK VINA RESULT:    -4.137      6.727     10.954
REMARK INTER + INTRA:         -14.100
REMARK INTER:                 -10.575
REMARK INTRA:                  -3.524
REMARK UNBOUND:                -3.675
REMARK SMILES CCCCCCCCCCCCCCCCCCCCCCCCCCCC(=O)[O-]
REMARK SMILES IDX 15 1 16 2 17 3 18 4 19 5 20 6 21 7 22 8 23 9 24 10 25 11
REMARK SMILES IDX 26 12 27 13 28 14 29 15 30 16 14 17 13 18 12 19 11 20 10 21
REMARK SMILES IDX 9 22 8 23 7 24 6 25 5 26 4 27 3 28 2 29 1 30
REMARK H PARENT
REMARK Flexibility Score: inf
ROOT
ATOM      1  C   UNL     1     182.193 193.997 174.654  1.00  0.00     0.000 C 
ENDROOT
BRANCH   1   2
ATOM      2  C   UNL     1     180.824 193.300 174.544  1.00  0.00     0.000 C 
BRANCH   2   3
ATOM      3  C   UNL     1     179.819 194.119 173.706  1.00  0.00     0.000 C 
BRANCH   3   4
ATOM      4  C   UNL     1     179.416 193.440 172.385  1.00  0.00     0.000 C 
BRANCH   4   5
ATOM      5  C   UNL     1     179.971 194.166 171.149  1.00  0.00     0.000 C 
BRANCH   5   6
ATOM      6  C   UNL     1     180.715 193.227 170.184  1.00  0.00     0.000 C 
BRANCH   6   7
ATOM      7  C   UNL     1     181.239 191.924 170.815  1.00  0.00     0.000 C 
BRANCH   7   8
ATOM      8  C   UNL     1     180.732 190.664 170.094  1.00  0.00     0.000 C 
BRANCH   8   9
ATOM      9  C   UNL     1     181.615 190.260 168.899  1.00  0.00     0.000 C 
BRANCH   9  10
ATOM     10  C   UNL     1     182.318 188.893 169.030  1.00  0.00     0.000 C 
BRANCH  10  11
ATOM     11  C   UNL     1     182.343 188.304 170.452  1.00  0.00     0.000 C 
BRANCH  11  12
ATOM     12  C   UNL     1     183.451 187.254 170.643  1.00  0.00     0.006 C 
BRANCH  12  13
ATOM     13  C   UNL     1     184.572 187.398 169.605  1.00  0.00     0.053 C 
BRANCH  13  14
ATOM     14  C   UNL     1     185.919 187.482 170.254  1.00  0.00     0.041 C 
ATOM     15  O   UNL     1     186.375 186.499 170.897  1.00  0.00    -0.550 OA
ATOM     16  O   UNL     1     186.649 188.662 170.191  1.00  0.00    -0.550 OA
ENDBRANCH  13  14
ENDBRANCH  12  13
ENDBRANCH  11  12
ENDBRANCH  10  11
ENDBRANCH   9  10
ENDBRANCH   8   9
ENDBRANCH   7   8
ENDBRANCH   6   7
ENDBRANCH   5   6
ENDBRANCH   4   5
ENDBRANCH   3   4
ENDBRANCH   2   3
ENDBRANCH   1   2
BRANCH   1  17
ATOM     17  C   UNL     1     182.190 195.404 174.036  1.00  0.00     0.000 C 
BRANCH  17  18
ATOM     18  C   UNL     1     182.552 196.493 175.058  1.00  0.00     0.000 C 
BRANCH  18  19
ATOM     19  C   UNL     1     181.626 197.722 174.981  1.00  0.00     0.000 C 
BRANCH  19  20
ATOM     20  C   UNL     1     180.122 197.419 175.120  1.00  0.00     0.000 C 
BRANCH  20  21
ATOM     21  C   UNL     1     179.621 197.231 176.565  1.00  0.00     0.000 C 
BRANCH  21  22
ATOM     22  C   UNL     1     179.705 195.776 177.072  1.00  0.00    -0.000 C 
BRANCH  22  23
ATOM     23  C   UNL     1     180.554 195.640 178.344  1.00  0.00    -0.000 C 
BRANCH  23  24
ATOM     24  C   UNL     1     181.491 194.429 178.257  1.00  0.00    -0.000 C 
BRANCH  24  25
ATOM     25  C   UNL     1     182.950 194.844 178.485  1.00  0.00    -0.000 C 
BRANCH  25  26
ATOM     26  C   UNL     1     183.553 194.109 179.687  1.00  0.00    -0.000 C 
BRANCH  26  27
ATOM     27  C   UNL     1     183.424 194.944 180.966  1.00  0.00    -0.000 C 
BRANCH  27  28
ATOM     28  C   UNL     1     182.518 194.244 181.991  1.00  0.00    -0.000 C 
BRANCH  28  29
ATOM     29  C   UNL     1     181.037 194.610 181.818  1.00  0.00    -0.003 C 
ATOM     30  C   UNL     1     180.137 193.380 181.688  1.00  0.00     0.004 C 
ENDBRANCH  28  29
ENDBRANCH  27  28
ENDBRANCH  26  27
ENDBRANCH  25  26
ENDBRANCH  24  25
ENDBRANCH  23  24
ENDBRANCH  22  23
ENDBRANCH  21  22
ENDBRANCH  20  21
ENDBRANCH  19  20
ENDBRANCH  18  19
ENDBRANCH  17  18
ENDBRANCH   1  17
TORSDOF 26
ENDMDL
MODEL 3
REMARK VINA RESULT:    -4.128      4.184      7.701
REMARK INTER + INTRA:         -14.076
REMARK INTER:                  -8.624
REMARK INTRA:                  -5.452
REMARK UNBOUND:                -3.675
REMARK SMILES CCCCCCCCCCCCCCCCCCCCCCCCCCCC(=O)[O-]
REMARK SMILES IDX 15 1 16 2 17 3 18 4 19 5 20 6 21 7 22 8 23 9 24 10 25 11
REMARK SMILES IDX 26 12 27 13 28 14 29 15 30 16 14 17 13 18 12 19 11 20 10 21
REMARK SMILES IDX 9 22 8 23 7 24 6 25 5 26 4 27 3 28 2 29 1 30
REMARK H PARENT
REMARK Flexibility Score: inf
ROOT
ATOM      1  C   UNL     1     185.600 186.582 168.809  1.00  0.00     0.000 C 
ENDROOT
BRANCH   1   2
ATOM      2  C   UNL     1     185.876 187.978 169.397  1.00  0.00     0.000 C 
BRANCH   2   3
ATOM      3  C   UNL     1     186.942 187.941 170.513  1.00  0.00     0.000 C 
BRANCH   3   4
ATOM      4  C   UNL     1     186.999 186.603 171.271  1.00  0.00     0.000 C 
BRANCH   4   5
ATOM      5  C   UNL     1     188.372 186.337 171.908  1.00  0.00     0.000 C 
BRANCH   5   6
ATOM      6  C   UNL     1     188.281 185.537 173.219  1.00  0.00     0.000 C 
BRANCH   6   7
ATOM      7  C   UNL     1     189.064 184.212 173.232  1.00  0.00     0.000 C 
BRANCH   7   8
ATOM      8  C   UNL     1     190.256 184.212 172.260  1.00  0.00     0.000 C 
BRANCH   8   9
ATOM      9  C   UNL     1     191.617 184.202 172.979  1.00  0.00     0.000 C 
BRANCH   9  10
ATOM     10  C   UNL     1     191.549 184.215 174.522  1.00  0.00     0.000 C 
BRANCH  10  11
ATOM     11  C   UNL     1     192.043 185.512 175.187  1.00  0.00     0.000 C 
BRANCH  11  12
ATOM     12  C   UNL     1     191.492 186.778 174.507  1.00  0.00     0.006 C 
BRANCH  12  13
ATOM     13  C   UNL     1     192.287 188.034 174.891  1.00  0.00     0.053 C 
BRANCH  13  14
ATOM     14  C   UNL     1     192.247 188.284 176.367  1.00  0.00     0.041 C 
ATOM     15  O   UNL     1     191.143 188.346 176.970  1.00  0.00    -0.550 OA
ATOM     16  O   UNL     1     193.427 188.497 177.069  1.00  0.00    -0.550 OA
ENDBRANCH  13  14
ENDBRANCH  12  13
ENDBRANCH  11  12
ENDBRANCH  10  11
ENDBRANCH   9  10
ENDBRANCH   8   9
ENDBRANCH   7   8
ENDBRANCH   6   7
ENDBRANCH   5   6
ENDBRANCH   4   5
ENDBRANCH   3   4
ENDBRANCH   2   3
ENDBRANCH   1   2
BRANCH   1  17
ATOM     17  C   UNL     1     186.081 186.448 167.355  1.00  0.00     0.000 C 
BRANCH  17  18
ATOM     18  C   UNL     1     186.893 185.164 167.122  1.00  0.00     0.000 C 
BRANCH  18  19
ATOM     19  C   UNL     1     187.597 184.658 168.395  1.00  0.00     0.000 C 
BRANCH  19  20
ATOM     20  C   UNL     1     189.058 185.117 168.563  1.00  0.00     0.000 C 
BRANCH  20  21
ATOM     21  C   UNL     1     189.860 185.250 167.254  1.00  0.00     0.000 C 
BRANCH  21  22
ATOM     22  C   UNL     1     190.504 186.638 167.053  1.00  0.00    -0.000 C 
BRANCH  22  23
ATOM     23  C   UNL     1     189.469 187.737 166.772  1.00  0.00    -0.000 C 
BRANCH  23  24
ATOM     24  C   UNL     1     189.423 188.760 167.913  1.00  0.00    -0.000 C 
BRANCH  24  25
ATOM     25  C   UNL     1     190.737 188.758 168.706  1.00  0.00    -0.000 C 
BRANCH  25  26
ATOM     26  C   UNL     1     190.471 188.828 170.214  1.00  0.00    -0.000 C 
BRANCH  26  27
ATOM     27  C   UNL     1     191.605 188.166 171.005  1.00  0.00    -0.000 C 
BRANCH  27  28
ATOM     28  C   UNL     1     191.967 186.797 170.407  1.00  0.00    -0.000 C 
BRANCH  28  29
ATOM     29  C   UNL     1     193.465 186.666 170.095  1.00  0.00    -0.003 C 
ATOM     30  C   UNL     1     194.252 186.027 171.241  1.00  0.00     0.004 C 
ENDBRANCH  28  29
ENDBRANCH  27  28
ENDBRANCH  26  27
ENDBRANCH  25  26
ENDBRANCH  24  25
ENDBRANCH  23  24
ENDBRANCH  22  23
ENDBRANCH  21  22
ENDBRANCH  20  21
ENDBRANCH  19  20
ENDBRANCH  18  19
ENDBRANCH  17  18
ENDBRANCH   1  17
TORSDOF 26
ENDMDL
MODEL 4
REMARK VINA RESULT:    -4.103      3.993      6.435
REMARK INTER + INTRA:         -14.015
REMARK INTER:                  -8.709
REMARK INTRA:                  -5.306
REMARK UNBOUND:                -3.675
REMARK SMILES CCCCCCCCCCCCCCCCCCCCCCCCCCCC(=O)[O-]
REMARK SMILES IDX 15 1 16 2 17 3 18 4 19 5 20 6 21 7 22 8 23 9 24 10 25 11
REMARK SMILES IDX 26 12 27 13 28 14 29 15 30 16 14 17 13 18 12 19 11 20 10 21
REMARK SMILES IDX 9 22 8 23 7 24 6 25 5 26 4 27 3 28 2 29 1 30
REMARK H PARENT
REMARK Flexibility Score: inf
ROOT
ATOM      1  C   UNL     1     189.677 185.042 166.683  1.00  0.00     0.000 C 
ENDROOT
BRANCH   1   2
ATOM      2  C   UNL     1     191.176 185.023 166.331  1.00  0.00     0.000 C 
BRANCH   2   3
ATOM      3  C   UNL     1     191.981 184.090 167.260  1.00  0.00     0.000 C 
BRANCH   3   4
ATOM      4  C   UNL     1     192.909 184.836 168.235  1.00  0.00     0.000 C 
BRANCH   4   5
ATOM      5  C   UNL     1     192.332 184.922 169.657  1.00  0.00     0.000 C 
BRANCH   5   6
ATOM      6  C   UNL     1     191.186 183.925 169.903  1.00  0.00     0.000 C 
BRANCH   6   7
ATOM      7  C   UNL     1     189.870 184.551 170.395  1.00  0.00     0.000 C 
BRANCH   7   8
ATOM      8  C   UNL     1     189.666 184.399 171.912  1.00  0.00     0.000 C 
BRANCH   8   9
ATOM      9  C   UNL     1     189.248 185.714 172.596  1.00  0.00     0.000 C 
BRANCH   9  10
ATOM     10  C   UNL     1     190.239 186.887 172.434  1.00  0.00     0.000 C 
BRANCH  10  11
ATOM     11  C   UNL     1     191.578 186.717 173.172  1.00  0.00     0.000 C 
BRANCH  11  12
ATOM     12  C   UNL     1     191.407 186.181 174.604  1.00  0.00     0.006 C 
BRANCH  12  13
ATOM     13  C   UNL     1     192.571 185.274 175.026  1.00  0.00     0.053 C 
BRANCH  13  14
ATOM     14  C   UNL     1     192.087 183.939 175.501  1.00  0.00     0.041 C 
ATOM     15  O   UNL     1     192.532 183.449 176.574  1.00  0.00    -0.550 OA
ATOM     16  O   UNL     1     191.184 183.212 174.735  1.00  0.00    -0.550 OA
ENDBRANCH  13  14
ENDBRANCH  12  13
ENDBRANCH  11  12
ENDBRANCH  10  11
ENDBRANCH   9  10
ENDBRANCH   8   9
ENDBRANCH   7   8
ENDBRANCH   6   7
ENDBRANCH   5   6
ENDBRANCH   4   5
ENDBRANCH   3   4
ENDBRANCH   2   3
ENDBRANCH   1   2
BRANCH   1  17
ATOM     17  C   UNL     1     188.941 186.242 166.066  1.00  0.00     0.000 C 
BRANCH  17  18
ATOM     18  C   UNL     1     187.452 186.275 166.446  1.00  0.00     0.000 C 
BRANCH  18  19
ATOM     19  C   UNL     1     187.014 185.048 167.269  1.00  0.00     0.000 C 
BRANCH  19  20
ATOM     20  C   UNL     1     186.445 185.364 168.665  1.00  0.00     0.000 C 
BRANCH  20  21
ATOM     21  C   UNL     1     185.460 186.548 168.720  1.00  0.00     0.000 C 
BRANCH  21  22
ATOM     22  C   UNL     1     185.474 187.312 170.061  1.00  0.00    -0.000 C 
BRANCH  22  23
ATOM     23  C   UNL     1     186.895 187.559 170.587  1.00  0.00    -0.000 C 
BRANCH  23  24
ATOM     24  C   UNL     1     187.366 188.982 170.262  1.00  0.00    -0.000 C 
BRANCH  24  25
ATOM     25  C   UNL     1     188.279 188.991 169.029  1.00  0.00    -0.000 C 
BRANCH  25  26
ATOM     26  C   UNL     1     189.418 187.976 169.179  1.00  0.00    -0.000 C 
BRANCH  26  27
ATOM     27  C   UNL     1     190.781 188.678 169.212  1.00  0.00    -0.000 C 
BRANCH  27  28
ATOM     28  C   UNL     1     191.659 188.230 168.031  1.00  0.00    -0.000 C 
BRANCH  28  29
ATOM     29  C   UNL     1     191.903 189.357 167.016  1.00  0.00    -0.003 C 
ATOM     30  C   UNL     1     190.715 189.572 166.077  1.00  0.00     0.004 C 
ENDBRANCH  28  29
ENDBRANCH  27  28
ENDBRANCH  26  27
ENDBRANCH  25  26
ENDBRANCH  24  25
ENDBRANCH  23  24
ENDBRANCH  22  23
ENDBRANCH  21  22
ENDBRANCH  20  21
ENDBRANCH  19  20
ENDBRANCH  18  19
ENDBRANCH  17  18
ENDBRANCH   1  17
TORSDOF 26
ENDMDL
MODEL 5
REMARK VINA RESULT:    -4.095      1.327      2.043
REMARK INTER + INTRA:         -13.994
REMARK INTER:                 -10.004
REMARK INTRA:                  -3.990
REMARK UNBOUND:                -3.675
REMARK SMILES CCCCCCCCCCCCCCCCCCCCCCCCCCCC(=O)[O-]
REMARK SMILES IDX 15 1 16 2 17 3 18 4 19 5 20 6 21 7 22 8 23 9 24 10 25 11
REMARK SMILES IDX 26 12 27 13 28 14 29 15 30 16 14 17 13 18 12 19 11 20 10 21
REMARK SMILES IDX 9 22 8 23 7 24 6 25 5 26 4 27 3 28 2 29 1 30
REMARK H PARENT
REMARK Flexibility Score: inf
ROOT
ATOM      1  C   UNL     1     186.618 184.942 168.045  1.00  0.00     0.000 C 
ENDROOT
BRANCH   1   2
ATOM      2  C   UNL     1     188.118 185.008 167.708  1.00  0.00     0.000 C 
BRANCH   2   3
ATOM      3  C   UNL     1     188.455 186.194 166.778  1.00  0.00     0.000 C 
BRANCH   3   4
ATOM      4  C   UNL     1     189.823 186.837 167.064  1.00  0.00     0.000 C 
BRANCH   4   5
ATOM      5  C   UNL     1     189.740 188.362 167.233  1.00  0.00     0.000 C 
BRANCH   5   6
ATOM      6  C   UNL     1     189.625 188.799 168.704  1.00  0.00     0.000 C 
BRANCH   6   7
ATOM      7  C   UNL     1     188.188 189.016 169.210  1.00  0.00     0.000 C 
BRANCH   7   8
ATOM      8  C   UNL     1     187.939 188.390 170.592  1.00  0.00     0.000 C 
BRANCH   8   9
ATOM      9  C   UNL     1     188.532 186.976 170.727  1.00  0.00     0.000 C 
BRANCH   9  10
ATOM     10  C   UNL     1     189.482 186.769 171.926  1.00  0.00     0.000 C 
BRANCH  10  11
ATOM     11  C   UNL     1     189.032 185.703 172.940  1.00  0.00     0.000 C 
BRANCH  11  12
ATOM     12  C   UNL     1     189.842 184.399 172.834  1.00  0.00     0.006 C 
BRANCH  12  13
ATOM     13  C   UNL     1     191.252 184.637 172.278  1.00  0.00     0.053 C 
BRANCH  13  14
ATOM     14  C   UNL     1     191.443 183.974 170.949  1.00  0.00     0.041 C 
ATOM     15  O   UNL     1     192.603 183.742 170.517  1.00  0.00    -0.550 OA
ATOM     16  O   UNL     1     190.340 183.658 170.164  1.00  0.00    -0.550 OA
ENDBRANCH  13  14
ENDBRANCH  12  13
ENDBRANCH  11  12
ENDBRANCH  10  11
ENDBRANCH   9  10
ENDBRANCH   8   9
ENDBRANCH   7   8
ENDBRANCH   6   7
ENDBRANCH   5   6
ENDBRANCH   4   5
ENDBRANCH   3   4
ENDBRANCH   2   3
ENDBRANCH   1   2
BRANCH   1  17
ATOM     17  C   UNL     1     185.949 186.326 168.035  1.00  0.00     0.000 C 
BRANCH  17  18
ATOM     18  C   UNL     1     185.115 186.583 169.300  1.00  0.00     0.000 C 
BRANCH  18  19
ATOM     19  C   UNL     1     184.523 188.005 169.351  1.00  0.00     0.000 C 
BRANCH  19  20
ATOM     20  C   UNL     1     183.054 188.119 168.901  1.00  0.00     0.000 C 
BRANCH  20  21
ATOM     21  C   UNL     1     182.026 188.266 170.039  1.00  0.00     0.000 C 
BRANCH  21  22
ATOM     22  C   UNL     1     180.626 187.718 169.693  1.00  0.00    -0.000 C 
BRANCH  22  23
ATOM     23  C   UNL     1     180.374 187.651 168.179  1.00  0.00    -0.000 C 
BRANCH  23  24
ATOM     24  C   UNL     1     179.017 188.267 167.816  1.00  0.00    -0.000 C 
BRANCH  24  25
ATOM     25  C   UNL     1     179.169 189.318 166.709  1.00  0.00    -0.000 C 
BRANCH  25  26
ATOM     26  C   UNL     1     180.635 189.730 166.536  1.00  0.00    -0.000 C 
BRANCH  26  27
ATOM     27  C   UNL     1     180.822 191.227 166.807  1.00  0.00    -0.000 C 
BRANCH  27  28
ATOM     28  C   UNL     1     181.193 191.478 168.278  1.00  0.00    -0.000 C 
BRANCH  28  29
ATOM     29  C   UNL     1     180.060 192.152 169.066  1.00  0.00    -0.003 C 
ATOM     30  C   UNL     1     179.428 191.222 170.103  1.00  0.00     0.004 C 
ENDBRANCH  28  29
ENDBRANCH  27  28
ENDBRANCH  26  27
ENDBRANCH  25  26
ENDBRANCH  24  25
ENDBRANCH  23  24
ENDBRANCH  22  23
ENDBRANCH  21  22
ENDBRANCH  20  21
ENDBRANCH  19  20
ENDBRANCH  18  19
ENDBRANCH  17  18
ENDBRANCH   1  17
TORSDOF 26
ENDMDL
MODEL 6
REMARK VINA RESULT:    -4.082      3.986      7.747
REMARK INTER + INTRA:         -13.961
REMARK INTER:                  -8.434
REMARK INTRA:                  -5.526
REMARK UNBOUND:                -3.675
REMARK SMILES CCCCCCCCCCCCCCCCCCCCCCCCCCCC(=O)[O-]
REMARK SMILES IDX 15 1 16 2 17 3 18 4 19 5 20 6 21 7 22 8 23 9 24 10 25 11
REMARK SMILES IDX 26 12 27 13 28 14 29 15 30 16 14 17 13 18 12 19 11 20 10 21
REMARK SMILES IDX 9 22 8 23 7 24 6 25 5 26 4 27 3 28 2 29 1 30
REMARK H PARENT
REMARK Flexibility Score: inf
ROOT
ATOM      1  C   UNL     1     185.663 187.879 169.799  1.00  0.00     0.000 C 
ENDROOT
BRANCH   1   2
ATOM      2  C   UNL     1     187.038 188.378 169.316  1.00  0.00     0.000 C 
BRANCH   2   3
ATOM      3  C   UNL     1     188.021 188.597 170.486  1.00  0.00     0.000 C 
BRANCH   3   4
ATOM      4  C   UNL     1     189.207 187.617 170.491  1.00  0.00     0.000 C 
BRANCH   4   5
ATOM      5  C   UNL     1     188.803 186.195 170.910  1.00  0.00     0.000 C 
BRANCH   5   6
ATOM      6  C   UNL     1     187.834 186.174 172.104  1.00  0.00     0.000 C 
BRANCH   6   7
ATOM      7  C   UNL     1     188.340 185.413 173.343  1.00  0.00     0.000 C 
BRANCH   7   8
ATOM      8  C   UNL     1     189.750 184.830 173.153  1.00  0.00     0.000 C 
BRANCH   8   9
ATOM      9  C   UNL     1     190.785 185.437 174.118  1.00  0.00     0.000 C 
BRANCH   9  10
ATOM     10  C   UNL     1     191.645 186.578 173.533  1.00  0.00     0.000 C 
BRANCH  10  11
ATOM     11  C   UNL     1     191.991 187.707 174.520  1.00  0.00     0.000 C 
BRANCH  11  12
ATOM     12  C   UNL     1     191.615 187.366 175.972  1.00  0.00     0.006 C 
BRANCH  12  13
ATOM     13  C   UNL     1     192.838 187.355 176.900  1.00  0.00     0.053 C 
BRANCH  13  14
ATOM     14  C   UNL     1     193.485 186.006 176.948  1.00  0.00     0.041 C 
ATOM     15  O   UNL     1     194.722 185.889 176.744  1.00  0.00    -0.550 OA
ATOM     16  O   UNL     1     192.713 184.872 177.168  1.00  0.00    -0.550 OA
ENDBRANCH  13  14
ENDBRANCH  12  13
ENDBRANCH  11  12
ENDBRANCH  10  11
ENDBRANCH   9  10
ENDBRANCH   8   9
ENDBRANCH   7   8
ENDBRANCH   6   7
ENDBRANCH   5   6
ENDBRANCH   4   5
ENDBRANCH   3   4
ENDBRANCH   2   3
ENDBRANCH   1   2
BRANCH   1  17
ATOM     17  C   UNL     1     185.229 186.579 169.103  1.00  0.00     0.000 C 
BRANCH  17  18
ATOM     18  C   UNL     1     186.082 186.265 167.864  1.00  0.00     0.000 C 
BRANCH  18  19
ATOM     19  C   UNL     1     186.935 184.992 168.027  1.00  0.00     0.000 C 
BRANCH  19  20
ATOM     20  C   UNL     1     188.364 185.084 167.461  1.00  0.00     0.000 C 
BRANCH  20  21
ATOM     21  C   UNL     1     188.673 186.363 166.660  1.00  0.00     0.000 C 
BRANCH  21  22
ATOM     22  C   UNL     1     190.069 186.957 166.942  1.00  0.00    -0.000 C 
BRANCH  22  23
ATOM     23  C   UNL     1     190.104 188.485 166.792  1.00  0.00    -0.000 C 
BRANCH  23  24
ATOM     24  C   UNL     1     191.081 189.117 167.791  1.00  0.00    -0.000 C 
BRANCH  24  25
ATOM     25  C   UNL     1     192.195 188.132 168.169  1.00  0.00    -0.000 C 
BRANCH  25  26
ATOM     26  C   UNL     1     192.695 188.384 169.596  1.00  0.00    -0.000 C 
BRANCH  26  27
ATOM     27  C   UNL     1     193.030 187.066 170.304  1.00  0.00    -0.000 C 
BRANCH  27  28
ATOM     28  C   UNL     1     192.532 185.861 169.489  1.00  0.00    -0.000 C 
BRANCH  28  29
ATOM     29  C   UNL     1     192.226 184.640 170.368  1.00  0.00    -0.003 C 
ATOM     30  C   UNL     1     191.169 183.721 169.752  1.00  0.00     0.004 C 
ENDBRANCH  28  29
ENDBRANCH  27  28
ENDBRANCH  26  27
ENDBRANCH  25  26
ENDBRANCH  24  25
ENDBRANCH  23  24
ENDBRANCH  22  23
ENDBRANCH  21  22
ENDBRANCH  20  21
ENDBRANCH  19  20
ENDBRANCH  18  19
ENDBRANCH  17  18
ENDBRANCH   1  17
TORSDOF 26
ENDMDL
MODEL 7
REMARK VINA RESULT:    -4.049      4.165      9.144
REMARK INTER + INTRA:         -13.878
REMARK INTER:                  -7.995
REMARK INTRA:                  -5.883
REMARK UNBOUND:                -3.675
REMARK SMILES CCCCCCCCCCCCCCCCCCCCCCCCCCCC(=O)[O-]
REMARK SMILES IDX 15 1 16 2 17 3 18 4 19 5 20 6 21 7 22 8 23 9 24 10 25 11
REMARK SMILES IDX 26 12 27 13 28 14 29 15 30 16 14 17 13 18 12 19 11 20 10 21
REMARK SMILES IDX 9 22 8 23 7 24 6 25 5 26 4 27 3 28 2 29 1 30
REMARK H PARENT
REMARK Flexibility Score: inf
ROOT
ATOM      1  C   UNL     1     187.131 186.885 171.281  1.00  0.00     0.000 C 
ENDROOT
BRANCH   1   2
ATOM      2  C   UNL     1     187.653 188.087 170.474  1.00  0.00     0.000 C 
BRANCH   2   3
ATOM      3  C   UNL     1     186.764 188.399 169.251  1.00  0.00     0.000 C 
BRANCH   3   4
ATOM      4  C   UNL     1     185.644 187.369 169.021  1.00  0.00     0.000 C 
BRANCH   4   5
ATOM      5  C   UNL     1     185.905 186.467 167.804  1.00  0.00     0.000 C 
BRANCH   5   6
ATOM      6  C   UNL     1     186.312 185.035 168.195  1.00  0.00     0.000 C 
BRANCH   6   7
ATOM      7  C   UNL     1     187.822 184.821 168.406  1.00  0.00     0.000 C 
BRANCH   7   8
ATOM      8  C   UNL     1     188.669 185.329 167.228  1.00  0.00     0.000 C 
BRANCH   8   9
ATOM      9  C   UNL     1     189.531 186.551 167.592  1.00  0.00     0.000 C 
BRANCH   9  10
ATOM     10  C   UNL     1     189.355 187.781 166.676  1.00  0.00     0.000 C 
BRANCH  10  11
ATOM     11  C   UNL     1     190.030 189.071 167.176  1.00  0.00     0.000 C 
BRANCH  11  12
ATOM     12  C   UNL     1     190.790 188.872 168.498  1.00  0.00     0.006 C 
BRANCH  12  13
ATOM     13  C   UNL     1     192.080 189.702 168.555  1.00  0.00     0.053 C 
BRANCH  13  14
ATOM     14  C   UNL     1     192.521 189.944 169.965  1.00  0.00     0.041 C 
ATOM     15  O   UNL     1     191.949 189.350 170.918  1.00  0.00    -0.550 OA
ATOM     16  O   UNL     1     193.529 190.862 170.232  1.00  0.00    -0.550 OA
ENDBRANCH  13  14
ENDBRANCH  12  13
ENDBRANCH  11  12
ENDBRANCH  10  11
ENDBRANCH   9  10
ENDBRANCH   8   9
ENDBRANCH   7   8
ENDBRANCH   6   7
ENDBRANCH   5   6
ENDBRANCH   4   5
ENDBRANCH   3   4
ENDBRANCH   2   3
ENDBRANCH   1   2
BRANCH   1  17
ATOM     17  C   UNL     1     188.257 186.113 171.986  1.00  0.00     0.000 C 
BRANCH  17  18
ATOM     18  C   UNL     1     189.650 186.661 171.637  1.00  0.00     0.000 C 
BRANCH  18  19
ATOM     19  C   UNL     1     190.588 186.742 172.857  1.00  0.00     0.000 C 
BRANCH  19  20
ATOM     20  C   UNL     1     190.455 185.584 173.864  1.00  0.00     0.000 C 
BRANCH  20  21
ATOM     21  C   UNL     1     191.146 184.270 173.450  1.00  0.00     0.000 C 
BRANCH  21  22
ATOM     22  C   UNL     1     192.525 184.470 172.788  1.00  0.00    -0.000 C 
BRANCH  22  23
ATOM     23  C   UNL     1     192.741 183.549 171.579  1.00  0.00    -0.000 C 
BRANCH  23  24
ATOM     24  C   UNL     1     191.458 183.414 170.750  1.00  0.00    -0.000 C 
BRANCH  24  25
ATOM     25  C   UNL     1     191.485 184.353 169.537  1.00  0.00    -0.000 C 
BRANCH  25  26
ATOM     26  C   UNL     1     192.924 184.653 169.104  1.00  0.00    -0.000 C 
BRANCH  26  27
ATOM     27  C   UNL     1     193.116 186.149 168.828  1.00  0.00    -0.000 C 
BRANCH  27  28
ATOM     28  C   UNL     1     194.160 186.374 167.722  1.00  0.00    -0.000 C 
BRANCH  28  29
ATOM     29  C   UNL     1     193.557 187.012 166.461  1.00  0.00    -0.003 C 
ATOM     30  C   UNL     1     192.646 186.053 165.694  1.00  0.00     0.004 C 
ENDBRANCH  28  29
ENDBRANCH  27  28
ENDBRANCH  26  27
ENDBRANCH  25  26
ENDBRANCH  24  25
ENDBRANCH  23  24
ENDBRANCH  22  23
ENDBRANCH  21  22
ENDBRANCH  20  21
ENDBRANCH  19  20
ENDBRANCH  18  19
ENDBRANCH  17  18
ENDBRANCH   1  17
TORSDOF 26
ENDMDL
MODEL 8
REMARK VINA RESULT:    -4.048      5.897     10.500
REMARK INTER + INTRA:         -13.876
REMARK INTER:                 -10.258
REMARK INTRA:                  -3.617
REMARK UNBOUND:                -3.675
REMARK SMILES CCCCCCCCCCCCCCCCCCCCCCCCCCCC(=O)[O-]
REMARK SMILES IDX 15 1 16 2 17 3 18 4 19 5 20 6 21 7 22 8 23 9 24 10 25 11
REMARK SMILES IDX 26 12 27 13 28 14 29 15 30 16 14 17 13 18 12 19 11 20 10 21
REMARK SMILES IDX 9 22 8 23 7 24 6 25 5 26 4 27 3 28 2 29 1 30
REMARK H PARENT
REMARK Flexibility Score: inf
ROOT
ATOM      1  C   UNL     1     180.627 191.816 170.589  1.00  0.00     0.000 C 
ENDROOT
BRANCH   1   2
ATOM      2  C   UNL     1     180.136 193.022 171.412  1.00  0.00     0.000 C 
BRANCH   2   3
ATOM      3  C   UNL     1     179.809 194.240 170.521  1.00  0.00     0.000 C 
BRANCH   3   4
ATOM      4  C   UNL     1     179.440 195.506 171.315  1.00  0.00     0.000 C 
BRANCH   4   5
ATOM      5  C   UNL     1     179.172 195.221 172.801  1.00  0.00     0.000 C 
BRANCH   5   6
ATOM      6  C   UNL     1     180.014 196.100 173.742  1.00  0.00     0.000 C 
BRANCH   6   7
ATOM      7  C   UNL     1     181.466 195.634 173.946  1.00  0.00     0.000 C 
BRANCH   7   8
ATOM      8  C   UNL     1     182.332 196.675 174.675  1.00  0.00     0.000 C 
BRANCH   8   9
ATOM      9  C   UNL     1     181.500 197.778 175.355  1.00  0.00     0.000 C 
BRANCH   9  10
ATOM     10  C   UNL     1     181.368 197.655 176.888  1.00  0.00     0.000 C 
BRANCH  10  11
ATOM     11  C   UNL     1     180.055 197.022 177.383  1.00  0.00     0.000 C 
BRANCH  11  12
ATOM     12  C   UNL     1     180.122 195.487 177.450  1.00  0.00     0.006 C 
BRANCH  12  13
ATOM     13  C   UNL     1     180.535 194.985 178.840  1.00  0.00     0.053 C 
BRANCH  13  14
ATOM     14  C   UNL     1     181.980 194.594 178.881  1.00  0.00     0.041 C 
ATOM     15  O   UNL     1     182.569 194.461 179.986  1.00  0.00    -0.550 OA
ATOM     16  O   UNL     1     182.689 194.426 177.698  1.00  0.00    -0.550 OA
ENDBRANCH  13  14
ENDBRANCH  12  13
ENDBRANCH  11  12
ENDBRANCH  10  11
ENDBRANCH   9  10
ENDBRANCH   8   9
ENDBRANCH   7   8
ENDBRANCH   6   7
ENDBRANCH   5   6
ENDBRANCH   4   5
ENDBRANCH   3   4
ENDBRANCH   2   3
ENDBRANCH   1   2
BRANCH   1  17
ATOM     17  C   UNL     1     181.500 192.233 169.395  1.00  0.00     0.000 C 
BRANCH  17  18
ATOM     18  C   UNL     1     181.016 191.616 168.073  1.00  0.00     0.000 C 
BRANCH  18  19
ATOM     19  C   UNL     1     179.481 191.529 167.975  1.00  0.00     0.000 C 
BRANCH  19  20
ATOM     20  C   UNL     1     178.946 190.465 166.998  1.00  0.00     0.000 C 
BRANCH  20  21
ATOM     21  C   UNL     1     179.994 189.463 166.479  1.00  0.00     0.000 C 
BRANCH  21  22
ATOM     22  C   UNL     1     179.634 187.986 166.745  1.00  0.00    -0.000 C 
BRANCH  22  23
ATOM     23  C   UNL     1     179.181 187.738 168.191  1.00  0.00    -0.000 C 
BRANCH  23  24
ATOM     24  C   UNL     1     180.338 187.215 169.051  1.00  0.00    -0.000 C 
BRANCH  24  25
ATOM     25  C   UNL     1     180.719 188.229 170.137  1.00  0.00    -0.000 C 
BRANCH  25  26
ATOM     26  C   UNL     1     182.230 188.480 170.153  1.00  0.00    -0.000 C 
BRANCH  26  27
ATOM     27  C   UNL     1     182.815 188.416 168.738  1.00  0.00    -0.000 C 
BRANCH  27  28
ATOM     28  C   UNL     1     184.107 187.583 168.714  1.00  0.00    -0.000 C 
BRANCH  28  29
ATOM     29  C   UNL     1     184.508 187.074 170.107  1.00  0.00    -0.003 C 
ATOM     30  C   UNL     1     185.914 187.517 170.513  1.00  0.00     0.004 C 
ENDBRANCH  28  29
ENDBRANCH  27  28
ENDBRANCH  26  27
ENDBRANCH  25  26
ENDBRANCH  24  25
ENDBRANCH  23  24
ENDBRANCH  22  23
ENDBRANCH  21  22
ENDBRANCH  20  21
ENDBRANCH  19  20
ENDBRANCH  18  19
ENDBRANCH  17  18
ENDBRANCH   1  17
TORSDOF 26
ENDMDL
MODEL 9
REMARK VINA RESULT:    -4.042      4.198      9.769
REMARK INTER + INTRA:         -13.860
REMARK INTER:                  -8.223
REMARK INTRA:                  -5.636
REMARK UNBOUND:                -3.675
REMARK SMILES CCCCCCCCCCCCCCCCCCCCCCCCCCCC(=O)[O-]
REMARK SMILES IDX 15 1 16 2 17 3 18 4 19 5 20 6 21 7 22 8 23 9 24 10 25 11
REMARK SMILES IDX 26 12 27 13 28 14 29 15 30 16 14 17 13 18 12 19 11 20 10 21
REMARK SMILES IDX 9 22 8 23 7 24 6 25 5 26 4 27 3 28 2 29 1 30
REMARK H PARENT
REMARK Flexibility Score: inf
ROOT
ATOM      1  C   UNL     1     188.948 186.433 171.617  1.00  0.00     0.000 C 
ENDROOT
BRANCH   1   2
ATOM      2  C   UNL     1     187.416 186.494 171.477  1.00  0.00     0.000 C 
BRANCH   2   3
ATOM      3  C   UNL     1     186.963 187.609 170.511  1.00  0.00     0.000 C 
BRANCH   3   4
ATOM      4  C   UNL     1     185.604 187.335 169.842  1.00  0.00     0.000 C 
BRANCH   4   5
ATOM      5  C   UNL     1     185.744 186.741 168.431  1.00  0.00     0.000 C 
BRANCH   5   6
ATOM      6  C   UNL     1     185.983 185.221 168.441  1.00  0.00     0.000 C 
BRANCH   6   7
ATOM      7  C   UNL     1     187.435 184.786 168.174  1.00  0.00     0.000 C 
BRANCH   7   8
ATOM      8  C   UNL     1     188.134 185.652 167.114  1.00  0.00     0.000 C 
BRANCH   8   9
ATOM      9  C   UNL     1     189.351 186.414 167.669  1.00  0.00     0.000 C 
BRANCH   9  10
ATOM     10  C   UNL     1     189.277 187.952 167.554  1.00  0.00     0.000 C 
BRANCH  10  11
ATOM     11  C   UNL     1     189.937 188.726 168.709  1.00  0.00     0.000 C 
BRANCH  11  12
ATOM     12  C   UNL     1     191.218 188.049 169.225  1.00  0.00     0.006 C 
BRANCH  12  13
ATOM     13  C   UNL     1     191.623 188.560 170.615  1.00  0.00     0.053 C 
BRANCH  13  14
ATOM     14  C   UNL     1     192.839 189.432 170.551  1.00  0.00     0.041 C 
ATOM     15  O   UNL     1     192.724 190.664 170.311  1.00  0.00    -0.550 OA
ATOM     16  O   UNL     1     194.103 188.876 170.706  1.00  0.00    -0.550 OA
ENDBRANCH  13  14
ENDBRANCH  12  13
ENDBRANCH  11  12
ENDBRANCH  10  11
ENDBRANCH   9  10
ENDBRANCH   8   9
ENDBRANCH   7   8
ENDBRANCH   6   7
ENDBRANCH   5   6
ENDBRANCH   4   5
ENDBRANCH   3   4
ENDBRANCH   2   3
ENDBRANCH   1   2
BRANCH   1  17
ATOM     17  C   UNL     1     189.466 185.000 171.821  1.00  0.00     0.000 C 
BRANCH  17  18
ATOM     18  C   UNL     1     190.140 184.436 170.560  1.00  0.00     0.000 C 
BRANCH  18  19
ATOM     19  C   UNL     1     191.568 183.920 170.822  1.00  0.00     0.000 C 
BRANCH  19  20
ATOM     20  C   UNL     1     192.604 185.005 171.171  1.00  0.00     0.000 C 
BRANCH  20  21
ATOM     21  C   UNL     1     193.923 184.485 171.774  1.00  0.00     0.000 C 
BRANCH  21  22
ATOM     22  C   UNL     1     193.807 183.092 172.426  1.00  0.00    -0.000 C 
BRANCH  22  23
ATOM     23  C   UNL     1     193.814 183.154 173.961  1.00  0.00    -0.000 C 
BRANCH  23  24
ATOM     24  C   UNL     1     192.510 182.594 174.543  1.00  0.00    -0.000 C 
BRANCH  24  25
ATOM     25  C   UNL     1     191.419 183.671 174.585  1.00  0.00    -0.000 C 
BRANCH  25  26
ATOM     26  C   UNL     1     191.956 184.978 175.179  1.00  0.00    -0.000 C 
BRANCH  26  27
ATOM     27  C   UNL     1     191.091 186.172 174.760  1.00  0.00    -0.000 C 
BRANCH  27  28
ATOM     28  C   UNL     1     191.925 187.215 173.998  1.00  0.00    -0.000 C 
BRANCH  28  29
ATOM     29  C   UNL     1     193.209 187.604 174.745  1.00  0.00    -0.003 C 
ATOM     30  C   UNL     1     194.468 187.393 173.902  1.00  0.00     0.004 C 
ENDBRANCH  28  29
ENDBRANCH  27  28
ENDBRANCH  26  27
ENDBRANCH  25  26
ENDBRANCH  24  25
ENDBRANCH  23  24
ENDBRANCH  22  23
ENDBRANCH  21  22
ENDBRANCH  20  21
ENDBRANCH  19  20
ENDBRANCH  18  19
ENDBRANCH  17  18
ENDBRANCH   1  17
TORSDOF 26
ENDMDL
