MODEL 1
REMARK VINA RESULT:    -3.534      0.000      0.000
REMARK INTER + INTRA:          -3.998
REMARK INTER:                  -3.947
REMARK INTRA:                  -0.051
REMARK UNBOUND:                -0.051
REMARK SMILES CCCC(=O)[O-]
REMARK SMILES IDX 3 1 4 2 5 3 6 4 2 5 1 6
REMARK H PARENT
REMARK Flexibility Score: inf
ROOT
ATOM      1  C   UNL     1      -6.248  -3.933 -13.674  1.00  0.00     0.052 C 
ENDROOT
BRANCH   1   2
ATOM      2  C   UNL     1      -6.597  -3.397 -12.319  1.00  0.00     0.041 C 
ATOM      3  O   UNL     1      -7.002  -2.212 -12.189  1.00  0.00    -0.550 OA
ATOM      4  O   UNL     1      -6.506  -4.220 -11.203  1.00  0.00    -0.550 OA
ENDBRANCH   1   2
BRANCH   1   5
ATOM      5  C   UNL     1      -6.681  -5.396 -13.835  1.00  0.00     0.003 C 
ATOM      6  C   UNL     1      -8.149  -5.528 -14.242  1.00  0.00     0.004 C 
ENDBRANCH   1   5
TORSDOF 2
ENDMDL
MODEL 2
REMARK VINA RESULT:    -3.367      2.625      2.977
REMARK INTER + INTRA:          -3.812
REMARK INTER:                  -3.795
REMARK INTRA:                  -0.017
REMARK UNBOUND:                -0.051
REMARK SMILES CCCC(=O)[O-]
REMARK SMILES IDX 3 1 4 2 5 3 6 4 2 5 1 6
REMARK H PARENT
REMARK Flexibility Score: inf
ROOT
ATOM      1  C   UNL     1      -7.754  -5.448 -12.485  1.00  0.00     0.052 C 
ENDROOT
BRANCH   1   2
ATOM      2  C   UNL     1      -6.688  -4.817 -13.329  1.00  0.00     0.041 C 
ATOM      3  O   UNL     1      -5.760  -4.157 -12.791  1.00  0.00    -0.550 OA
ATOM      4  O   UNL     1      -6.703  -4.987 -14.708  1.00  0.00    -0.550 OA
ENDBRANCH   1   2
BRANCH   1   5
ATOM      5  C   UNL     1      -7.361  -5.478 -11.003  1.00  0.00     0.003 C 
ATOM      6  C   UNL     1      -7.650  -6.830 -10.351  1.00  0.00     0.004 C 
ENDBRANCH   1   5
TORSDOF 2
ENDMDL
MODEL 3
REMARK VINA RESULT:    -3.332      1.593      2.015
REMARK INTER + INTRA:          -3.773
REMARK INTER:                  -3.780
REMARK INTRA:                   0.007
REMARK UNBOUND:                -0.051
REMARK SMILES CCCC(=O)[O-]
REMARK SMILES IDX 3 1 4 2 5 3 6 4 2 5 1 6
REMARK H PARENT
REMARK Flexibility Score: inf
ROOT
ATOM      1  C   UNL     1      -6.735  -3.360 -12.050  1.00  0.00     0.052 C 
ENDROOT
BRANCH   1   2
ATOM      2  C   UNL     1      -6.881  -4.298 -10.890  1.00  0.00     0.041 C 
ATOM      3  O   UNL     1      -6.282  -4.066  -9.807  1.00  0.00    -0.550 OA
ATOM      4  O   UNL     1      -7.705  -5.411 -10.997  1.00  0.00    -0.550 OA
ENDBRANCH   1   2
BRANCH   1   5
ATOM      5  C   UNL     1      -5.887  -3.972 -13.172  1.00  0.00     0.003 C 
ATOM      6  C   UNL     1      -6.726  -4.774 -14.166  1.00  0.00     0.004 C 
ENDBRANCH   1   5
TORSDOF 2
ENDMDL
MODEL 4
REMARK VINA RESULT:    -3.316      2.117      2.899
REMARK INTER + INTRA:          -3.755
REMARK INTER:                  -3.687
REMARK INTRA:                  -0.068
REMARK UNBOUND:                -0.051
REMARK SMILES CCCC(=O)[O-]
REMARK SMILES IDX 3 1 4 2 5 3 6 4 2 5 1 6
REMARK H PARENT
REMARK Flexibility Score: inf
ROOT
ATOM      1  C   UNL     1      -6.497  -5.256 -13.497  1.00  0.00     0.052 C 
ENDROOT
BRANCH   1   2
ATOM      2  C   UNL     1      -7.969  -5.526 -13.420  1.00  0.00     0.041 C 
ATOM      3  O   UNL     1      -8.717  -5.253 -14.395  1.00  0.00    -0.550 OA
ATOM      4  O   UNL     1      -8.510  -6.109 -12.280  1.00  0.00    -0.550 OA
ENDBRANCH   1   2
BRANCH   1   5
ATOM      5  C   UNL     1      -6.195  -3.753 -13.499  1.00  0.00     0.003 C 
ATOM      6  C   UNL     1      -6.735  -3.048 -12.255  1.00  0.00     0.004 C 
ENDBRANCH   1   5
TORSDOF 2
ENDMDL
MODEL 5
REMARK VINA RESULT:    -3.265     11.694     12.367
REMARK INTER + INTRA:          -3.698
REMARK INTER:                  -3.677
REMARK INTRA:                  -0.021
REMARK UNBOUND:                -0.051
REMARK SMILES CCCC(=O)[O-]
REMARK SMILES IDX 3 1 4 2 5 3 6 4 2 5 1 6
REMARK H PARENT
REMARK Flexibility Score: inf
ROOT
ATOM      1  C   UNL     1       4.988  -2.778 -14.402  1.00  0.00     0.052 C 
ENDROOT
BRANCH   1   2
ATOM      2  C   UNL     1       5.573  -3.603 -13.296  1.00  0.00     0.041 C 
ATOM      3  O   UNL     1       4.956  -4.611 -12.861  1.00  0.00    -0.550 OA
ATOM      4  O   UNL     1       6.816  -3.276 -12.769  1.00  0.00    -0.550 OA
ENDBRANCH   1   2
BRANCH   1   5
ATOM      5  C   UNL     1       4.936  -1.290 -14.032  1.00  0.00     0.003 C 
ATOM      6  C   UNL     1       3.520  -0.822 -13.697  1.00  0.00     0.004 C 
ENDBRANCH   1   5
TORSDOF 2
ENDMDL
MODEL 6
REMARK VINA RESULT:    -3.264      9.793     10.987
REMARK INTER + INTRA:          -3.697
REMARK INTER:                  -3.688
REMARK INTRA:                  -0.009
REMARK UNBOUND:                -0.051
REMARK SMILES CCCC(=O)[O-]
REMARK SMILES IDX 3 1 4 2 5 3 6 4 2 5 1 6
REMARK H PARENT
REMARK Flexibility Score: inf
ROOT
ATOM      1  C   UNL     1      -7.427   6.372 -12.607  1.00  0.00     0.052 C 
ENDROOT
BRANCH   1   2
ATOM      2  C   UNL     1      -6.205   5.698 -13.153  1.00  0.00     0.041 C 
ATOM      3  O   UNL     1      -5.057   6.117 -12.846  1.00  0.00    -0.550 OA
ATOM      4  O   UNL     1      -6.334   4.587 -13.977  1.00  0.00    -0.550 OA
ENDBRANCH   1   2
BRANCH   1   5
ATOM      5  C   UNL     1      -7.870   7.545 -13.489  1.00  0.00     0.003 C 
ATOM      6  C   UNL     1      -8.518   8.670 -12.681  1.00  0.00     0.004 C 
ENDBRANCH   1   5
TORSDOF 2
ENDMDL
MODEL 7
REMARK VINA RESULT:    -3.177      2.776      3.089
REMARK INTER + INTRA:          -3.599
REMARK INTER:                  -3.561
REMARK INTRA:                  -0.039
REMARK UNBOUND:                -0.051
REMARK SMILES CCCC(=O)[O-]
REMARK SMILES IDX 3 1 4 2 5 3 6 4 2 5 1 6
REMARK H PARENT
REMARK Flexibility Score: inf
ROOT
ATOM      1  C   UNL     1      -7.123  -5.037 -10.703  1.00  0.00     0.052 C 
ENDROOT
BRANCH   1   2
ATOM      2  C   UNL     1      -6.940  -4.706 -12.153  1.00  0.00     0.041 C 
ATOM      3  O   UNL     1      -7.853  -4.960 -12.982  1.00  0.00    -0.550 OA
ATOM      4  O   UNL     1      -5.773  -4.085 -12.582  1.00  0.00    -0.550 OA
ENDBRANCH   1   2
BRANCH   1   5
ATOM      5  C   UNL     1      -8.304  -5.990 -10.483  1.00  0.00     0.003 C 
ATOM      6  C   UNL     1      -7.858  -7.445 -10.338  1.00  0.00     0.004 C 
ENDBRANCH   1   5
TORSDOF 2
ENDMDL
MODEL 8
REMARK VINA RESULT:    -3.176     11.747     12.300
REMARK INTER + INTRA:          -3.598
REMARK INTER:                  -3.543
REMARK INTRA:                  -0.055
REMARK UNBOUND:                -0.051
REMARK SMILES CCCC(=O)[O-]
REMARK SMILES IDX 3 1 4 2 5 3 6 4 2 5 1 6
REMARK H PARENT
REMARK Flexibility Score: inf
ROOT
ATOM      1  C   UNL     1       4.966  -2.878 -14.427  1.00  0.00     0.052 C 
ENDROOT
BRANCH   1   2
ATOM      2  C   UNL     1       4.752  -1.454 -14.013  1.00  0.00     0.041 C 
ATOM      3  O   UNL     1       3.618  -1.068 -13.626  1.00  0.00    -0.550 OA
ATOM      4  O   UNL     1       5.817  -0.560 -14.024  1.00  0.00    -0.550 OA
ENDBRANCH   1   2
BRANCH   1   5
ATOM      5  C   UNL     1       5.000  -3.821 -13.218  1.00  0.00     0.003 C 
ATOM      6  C   UNL     1       6.342  -3.781 -12.486  1.00  0.00     0.004 C 
ENDBRANCH   1   5
TORSDOF 2
ENDMDL
MODEL 9
REMARK VINA RESULT:    -2.954      2.847      3.687
REMARK INTER + INTRA:          -3.350
REMARK INTER:                  -3.343
REMARK INTRA:                  -0.008
REMARK UNBOUND:                -0.051
REMARK SMILES CCCC(=O)[O-]
REMARK SMILES IDX 3 1 4 2 5 3 6 4 2 5 1 6
REMARK H PARENT
REMARK Flexibility Score: inf
ROOT
ATOM      1  C   UNL     1      -6.452  -5.715 -13.145  1.00  0.00     0.052 C 
ENDROOT
BRANCH   1   2
ATOM      2  C   UNL     1      -6.907  -7.109 -12.837  1.00  0.00     0.041 C 
ATOM      3  O   UNL     1      -6.107  -8.075 -12.938  1.00  0.00    -0.550 OA
ATOM      4  O   UNL     1      -8.209  -7.334 -12.406  1.00  0.00    -0.550 OA
ENDBRANCH   1   2
BRANCH   1   5
ATOM      5  C   UNL     1      -6.877  -4.724 -12.054  1.00  0.00     0.003 C 
ATOM      6  C   UNL     1      -6.648  -3.270 -12.465  1.00  0.00     0.004 C 
ENDBRANCH   1   5
TORSDOF 2
ENDMDL
