MODEL 1
REMARK VINA RESULT:    -2.967      0.000      0.000
REMARK INTER + INTRA:          -7.983
REMARK INTER:                  -5.222
REMARK INTRA:                  -2.762
REMARK UNBOUND:                -2.762
REMARK SMILES CCCCCCC=CCCCCCCCC(=O)[O-]
REMARK SMILES IDX 10 1 11 2 12 3 13 4 14 5 15 6 16 7 17 8 18 9 9 10 8 11 7 12
REMARK SMILES IDX 6 13 5 14 4 15 3 16 2 17 1 18
REMARK H PARENT
REMARK Flexibility Score: inf
ROOT
ATOM      1  C   UNL     1      -9.131   2.506  36.639  1.00  0.00     0.004 C 
ENDROOT
BRANCH   1   2
ATOM      2  C   UNL     1      -9.220   3.425  35.413  1.00  0.00     0.000 C 
BRANCH   2   3
ATOM      3  C   UNL     1      -9.702   4.846  35.761  1.00  0.00     0.000 C 
BRANCH   3   4
ATOM      4  C   UNL     1     -10.477   5.563  34.641  1.00  0.00     0.000 C 
BRANCH   4   5
ATOM      5  C   UNL     1     -10.726   4.669  33.417  1.00  0.00     0.006 C 
BRANCH   5   6
ATOM      6  C   UNL     1     -12.109   4.936  32.816  1.00  0.00     0.053 C 
BRANCH   6   7
ATOM      7  C   UNL     1     -12.006   5.146  31.338  1.00  0.00     0.041 C 
ATOM      8  O   UNL     1     -11.471   4.269  30.610  1.00  0.00    -0.550 OA
ATOM      9  O   UNL     1     -12.545   6.288  30.759  1.00  0.00    -0.550 OA
ENDBRANCH   6   7
ENDBRANCH   5   6
ENDBRANCH   4   5
ENDBRANCH   3   4
ENDBRANCH   2   3
ENDBRANCH   1   2
BRANCH   1  10
ATOM     10  C   UNL     1      -9.763   3.169  37.869  1.00  0.00     0.027 C 
BRANCH  10  11
ATOM     11  C   UNL     1     -10.757   2.244  38.522  1.00  0.00    -0.031 C 
ATOM     12  C   UNL     1     -12.094   2.388  38.459  1.00  0.00    -0.031 C 
BRANCH  12  13
ATOM     13  C   UNL     1     -12.803   3.552  37.811  1.00  0.00     0.027 C 
BRANCH  13  14
ATOM     14  C   UNL     1     -13.049   3.321  36.310  1.00  0.00     0.004 C 
BRANCH  14  15
ATOM     15  C   UNL     1     -13.162   1.838  35.910  1.00  0.00     0.000 C 
BRANCH  15  16
ATOM     16  C   UNL     1     -12.570   1.548  34.520  1.00  0.00    -0.000 C 
BRANCH  16  17
ATOM     17  C   UNL     1     -11.438   0.510  34.567  1.00  0.00    -0.003 C 
ATOM     18  C   UNL     1     -11.436  -0.300  35.864  1.00  0.00     0.004 C 
ENDBRANCH  16  17
ENDBRANCH  15  16
ENDBRANCH  14  15
ENDBRANCH  13  14
ENDBRANCH  12  13
ENDBRANCH  10  11
ENDBRANCH   1  10
TORSDOF 13
ENDMDL
MODEL 2
REMARK VINA RESULT:    -2.963      4.980      7.322
REMARK INTER + INTRA:          -7.976
REMARK INTER:                  -5.264
REMARK INTRA:                  -2.712
REMARK UNBOUND:                -2.762
REMARK SMILES CCCCCCC=CCCCCCCCC(=O)[O-]
REMARK SMILES IDX 10 1 11 2 12 3 13 4 14 5 15 6 16 7 17 8 18 9 9 10 8 11 7 12
REMARK SMILES IDX 6 13 5 14 4 15 3 16 2 17 1 18
REMARK H PARENT
REMARK Flexibility Score: inf
ROOT
ATOM      1  C   UNL     1      -4.905  -0.037  38.260  1.00  0.00     0.004 C 
ENDROOT
BRANCH   1   2
ATOM      2  C   UNL     1      -5.756   1.212  38.530  1.00  0.00     0.000 C 
BRANCH   2   3
ATOM      3  C   UNL     1      -4.928   2.402  39.050  1.00  0.00     0.000 C 
BRANCH   3   4
ATOM      4  C   UNL     1      -5.748   3.652  39.421  1.00  0.00     0.000 C 
BRANCH   4   5
ATOM      5  C   UNL     1      -7.207   3.575  38.948  1.00  0.00     0.006 C 
BRANCH   5   6
ATOM      6  C   UNL     1      -7.621   4.866  38.236  1.00  0.00     0.053 C 
BRANCH   6   7
ATOM      7  C   UNL     1      -8.896   4.661  37.480  1.00  0.00     0.041 C 
ATOM      8  O   UNL     1      -9.511   3.565  37.561  1.00  0.00    -0.550 OA
ATOM      9  O   UNL     1      -9.432   5.697  36.725  1.00  0.00    -0.550 OA
ENDBRANCH   6   7
ENDBRANCH   5   6
ENDBRANCH   4   5
ENDBRANCH   3   4
ENDBRANCH   2   3
ENDBRANCH   1   2
BRANCH   1  10
ATOM     10  C   UNL     1      -3.466   0.349  37.895  1.00  0.00     0.027 C 
BRANCH  10  11
ATOM     11  C   UNL     1      -3.273   0.332  36.401  1.00  0.00    -0.031 C 
ATOM     12  C   UNL     1      -2.882   1.390  35.667  1.00  0.00    -0.031 C 
BRANCH  12  13
ATOM     13  C   UNL     1      -2.672   2.782  36.211  1.00  0.00     0.027 C 
BRANCH  13  14
ATOM     14  C   UNL     1      -3.398   3.850  35.375  1.00  0.00     0.004 C 
BRANCH  14  15
ATOM     15  C   UNL     1      -4.847   4.121  35.820  1.00  0.00     0.000 C 
BRANCH  15  16
ATOM     16  C   UNL     1      -5.887   3.612  34.806  1.00  0.00    -0.000 C 
BRANCH  16  17
ATOM     17  C   UNL     1      -6.753   2.475  35.370  1.00  0.00    -0.003 C 
ATOM     18  C   UNL     1      -6.469   1.131  34.700  1.00  0.00     0.004 C 
ENDBRANCH  16  17
ENDBRANCH  15  16
ENDBRANCH  14  15
ENDBRANCH  13  14
ENDBRANCH  12  13
ENDBRANCH  10  11
ENDBRANCH   1  10
TORSDOF 13
ENDMDL
MODEL 3
REMARK VINA RESULT:    -2.949      4.827      6.943
REMARK INTER + INTRA:          -7.952
REMARK INTER:                  -5.654
REMARK INTRA:                  -2.298
REMARK UNBOUND:                -2.762
REMARK SMILES CCCCCCC=CCCCCCCCC(=O)[O-]
REMARK SMILES IDX 10 1 11 2 12 3 13 4 14 5 15 6 16 7 17 8 18 9 9 10 8 11 7 12
REMARK SMILES IDX 6 13 5 14 4 15 3 16 2 17 1 18
REMARK H PARENT
REMARK Flexibility Score: inf
ROOT
ATOM      1  C   UNL     1      -6.147  -0.652  36.594  1.00  0.00     0.004 C 
ENDROOT
BRANCH   1   2
ATOM      2  C   UNL     1      -6.691   0.672  36.037  1.00  0.00     0.000 C 
BRANCH   2   3
ATOM      3  C   UNL     1      -7.385   1.533  37.109  1.00  0.00     0.000 C 
BRANCH   3   4
ATOM      4  C   UNL     1      -7.572   3.014  36.732  1.00  0.00     0.000 C 
BRANCH   4   5
ATOM      5  C   UNL     1      -8.530   3.757  37.675  1.00  0.00     0.006 C 
BRANCH   5   6
ATOM      6  C   UNL     1      -8.923   5.119  37.095  1.00  0.00     0.053 C 
BRANCH   6   7
ATOM      7  C   UNL     1     -10.149   4.991  36.247  1.00  0.00     0.041 C 
ATOM      8  O   UNL     1     -11.118   4.286  36.635  1.00  0.00    -0.550 OA
ATOM      9  O   UNL     1     -10.243   5.690  35.050  1.00  0.00    -0.550 OA
ENDBRANCH   6   7
ENDBRANCH   5   6
ENDBRANCH   4   5
ENDBRANCH   3   4
ENDBRANCH   2   3
ENDBRANCH   1   2
BRANCH   1  10
ATOM     10  C   UNL     1      -5.675  -0.484  38.044  1.00  0.00     0.027 C 
BRANCH  10  11
ATOM     11  C   UNL     1      -4.172  -0.392  38.108  1.00  0.00    -0.031 C 
ATOM     12  C   UNL     1      -3.483   0.741  38.335  1.00  0.00    -0.031 C 
BRANCH  12  13
ATOM     13  C   UNL     1      -4.102   2.112  38.461  1.00  0.00     0.027 C 
BRANCH  13  14
ATOM     14  C   UNL     1      -3.419   3.146  37.550  1.00  0.00     0.004 C 
BRANCH  14  15
ATOM     15  C   UNL     1      -3.900   3.111  36.087  1.00  0.00     0.000 C 
BRANCH  15  16
ATOM     16  C   UNL     1      -2.866   2.483  35.135  1.00  0.00    -0.000 C 
BRANCH  16  17
ATOM     17  C   UNL     1      -3.410   1.241  34.412  1.00  0.00    -0.003 C 
ATOM     18  C   UNL     1      -2.629  -0.028  34.754  1.00  0.00     0.004 C 
ENDBRANCH  16  17
ENDBRANCH  15  16
ENDBRANCH  14  15
ENDBRANCH  13  14
ENDBRANCH  12  13
ENDBRANCH  10  11
ENDBRANCH   1  10
TORSDOF 13
ENDMDL
MODEL 4
REMARK VINA RESULT:    -2.933      1.458      3.752
REMARK INTER + INTRA:          -7.923
REMARK INTER:                  -6.168
REMARK INTRA:                  -1.755
REMARK UNBOUND:                -2.762
REMARK SMILES CCCCCCC=CCCCCCCCC(=O)[O-]
REMARK SMILES IDX 10 1 11 2 12 3 13 4 14 5 15 6 16 7 17 8 18 9 9 10 8 11 7 12
REMARK SMILES IDX 6 13 5 14 4 15 3 16 2 17 1 18
REMARK H PARENT
REMARK Flexibility Score: inf
ROOT
ATOM      1  C   UNL     1     -12.246   2.316  34.612  1.00  0.00     0.004 C 
ENDROOT
BRANCH   1   2
ATOM      2  C   UNL     1     -13.125   2.637  33.395  1.00  0.00     0.000 C 
BRANCH   2   3
ATOM      3  C   UNL     1     -13.241   4.148  33.120  1.00  0.00     0.000 C 
BRANCH   3   4
ATOM      4  C   UNL     1     -12.087   4.750  32.297  1.00  0.00     0.000 C 
BRANCH   4   5
ATOM      5  C   UNL     1     -12.545   5.871  31.352  1.00  0.00     0.006 C 
BRANCH   5   6
ATOM      6  C   UNL     1     -13.033   5.298  30.018  1.00  0.00     0.053 C 
BRANCH   6   7
ATOM      7  C   UNL     1     -12.642   6.197  28.888  1.00  0.00     0.041 C 
ATOM      8  O   UNL     1     -12.923   5.881  27.701  1.00  0.00    -0.550 OA
ATOM      9  O   UNL     1     -12.010   7.406  29.147  1.00  0.00    -0.550 OA
ENDBRANCH   6   7
ENDBRANCH   5   6
ENDBRANCH   4   5
ENDBRANCH   3   4
ENDBRANCH   2   3
ENDBRANCH   1   2
BRANCH   1  10
ATOM     10  C   UNL     1     -13.106   1.970  35.834  1.00  0.00     0.027 C 
BRANCH  10  11
ATOM     11  C   UNL     1     -13.257   3.167  36.736  1.00  0.00    -0.031 C 
ATOM     12  C   UNL     1     -12.550   3.371  37.864  1.00  0.00    -0.031 C 
BRANCH  12  13
ATOM     13  C   UNL     1     -11.570   2.386  38.452  1.00  0.00     0.027 C 
BRANCH  13  14
ATOM     14  C   UNL     1     -10.117   2.884  38.360  1.00  0.00     0.004 C 
BRANCH  14  15
ATOM     15  C   UNL     1      -9.423   2.559  37.024  1.00  0.00     0.000 C 
BRANCH  15  16
ATOM     16  C   UNL     1      -8.668   3.764  36.436  1.00  0.00    -0.000 C 
BRANCH  16  17
ATOM     17  C   UNL     1      -9.418   5.088  36.646  1.00  0.00    -0.003 C 
ATOM     18  C   UNL     1     -10.325   5.445  35.469  1.00  0.00     0.004 C 
ENDBRANCH  16  17
ENDBRANCH  15  16
ENDBRANCH  14  15
ENDBRANCH  13  14
ENDBRANCH  12  13
ENDBRANCH  10  11
ENDBRANCH   1  10
TORSDOF 13
ENDMDL
MODEL 5
REMARK VINA RESULT:    -2.903      5.686      7.899
REMARK INTER + INTRA:          -7.871
REMARK INTER:                  -5.568
REMARK INTRA:                  -2.303
REMARK UNBOUND:                -2.762
REMARK SMILES CCCCCCC=CCCCCCCCC(=O)[O-]
REMARK SMILES IDX 10 1 11 2 12 3 13 4 14 5 15 6 16 7 17 8 18 9 9 10 8 11 7 12
REMARK SMILES IDX 6 13 5 14 4 15 3 16 2 17 1 18
REMARK H PARENT
REMARK Flexibility Score: inf
ROOT
ATOM      1  C   UNL     1      -4.900  -0.227  37.552  1.00  0.00     0.004 C 
ENDROOT
BRANCH   1   2
ATOM      2  C   UNL     1      -5.722  -0.841  38.694  1.00  0.00     0.000 C 
BRANCH   2   3
ATOM      3  C   UNL     1      -7.022  -0.067  38.981  1.00  0.00     0.000 C 
BRANCH   3   4
ATOM      4  C   UNL     1      -7.269   1.151  38.071  1.00  0.00     0.000 C 
BRANCH   4   5
ATOM      5  C   UNL     1      -7.291   2.480  38.841  1.00  0.00     0.006 C 
BRANCH   5   6
ATOM      6  C   UNL     1      -7.096   3.666  37.891  1.00  0.00     0.053 C 
BRANCH   6   7
ATOM      7  C   UNL     1      -7.695   4.907  38.474  1.00  0.00     0.041 C 
ATOM      8  O   UNL     1      -8.368   5.686  37.748  1.00  0.00    -0.550 OA
ATOM      9  O   UNL     1      -7.552   5.179  39.828  1.00  0.00    -0.550 OA
ENDBRANCH   6   7
ENDBRANCH   5   6
ENDBRANCH   4   5
ENDBRANCH   3   4
ENDBRANCH   2   3
ENDBRANCH   1   2
BRANCH   1  10
ATOM     10  C   UNL     1      -3.546   0.284  38.063  1.00  0.00     0.027 C 
BRANCH  10  11
ATOM     11  C   UNL     1      -3.687   1.659  38.662  1.00  0.00    -0.031 C 
ATOM     12  C   UNL     1      -3.379   2.806  38.028  1.00  0.00    -0.031 C 
BRANCH  12  13
ATOM     13  C   UNL     1      -2.753   2.888  36.657  1.00  0.00     0.027 C 
BRANCH  13  14
ATOM     14  C   UNL     1      -3.749   3.370  35.589  1.00  0.00     0.004 C 
BRANCH  14  15
ATOM     15  C   UNL     1      -4.768   2.301  35.150  1.00  0.00     0.000 C 
BRANCH  15  16
ATOM     16  C   UNL     1      -4.420   1.667  33.792  1.00  0.00    -0.000 C 
BRANCH  16  17
ATOM     17  C   UNL     1      -4.116   0.166  33.904  1.00  0.00    -0.003 C 
ATOM     18  C   UNL     1      -2.735  -0.114  34.496  1.00  0.00     0.004 C 
ENDBRANCH  16  17
ENDBRANCH  15  16
ENDBRANCH  14  15
ENDBRANCH  13  14
ENDBRANCH  12  13
ENDBRANCH  10  11
ENDBRANCH   1  10
TORSDOF 13
ENDMDL
MODEL 6
REMARK VINA RESULT:    -2.892      3.772      6.044
REMARK INTER + INTRA:          -7.852
REMARK INTER:                  -5.870
REMARK INTRA:                  -1.981
REMARK UNBOUND:                -2.762
REMARK SMILES CCCCCCC=CCCCCCCCC(=O)[O-]
REMARK SMILES IDX 10 1 11 2 12 3 13 4 14 5 15 6 16 7 17 8 18 9 9 10 8 11 7 12
REMARK SMILES IDX 6 13 5 14 4 15 3 16 2 17 1 18
REMARK H PARENT
REMARK Flexibility Score: inf
ROOT
ATOM      1  C   UNL     1      -6.816   2.358  39.522  1.00  0.00     0.004 C 
ENDROOT
BRANCH   1   2
ATOM      2  C   UNL     1      -7.681   3.622  39.421  1.00  0.00     0.000 C 
BRANCH   2   3
ATOM      3  C   UNL     1      -8.749   3.532  38.316  1.00  0.00     0.000 C 
BRANCH   3   4
ATOM      4  C   UNL     1      -8.845   4.767  37.401  1.00  0.00     0.000 C 
BRANCH   4   5
ATOM      5  C   UNL     1      -9.191   4.411  35.948  1.00  0.00     0.006 C 
BRANCH   5   6
ATOM      6  C   UNL     1     -10.224   5.387  35.376  1.00  0.00     0.053 C 
BRANCH   6   7
ATOM      7  C   UNL     1     -10.488   5.085  33.935  1.00  0.00     0.041 C 
ATOM      8  O   UNL     1     -11.602   5.372  33.422  1.00  0.00    -0.550 OA
ATOM      9  O   UNL     1      -9.489   4.532  33.145  1.00  0.00    -0.550 OA
ENDBRANCH   6   7
ENDBRANCH   5   6
ENDBRANCH   4   5
ENDBRANCH   3   4
ENDBRANCH   2   3
ENDBRANCH   1   2
BRANCH   1  10
ATOM     10  C   UNL     1      -7.313   1.275  38.557  1.00  0.00     0.027 C 
BRANCH  10  11
ATOM     11  C   UNL     1      -6.874  -0.091  39.017  1.00  0.00    -0.031 C 
ATOM     12  C   UNL     1      -5.743  -0.706  38.623  1.00  0.00    -0.031 C 
BRANCH  12  13
ATOM     13  C   UNL     1      -4.789  -0.167  37.585  1.00  0.00     0.027 C 
BRANCH  13  14
ATOM     14  C   UNL     1      -3.676   0.693  38.208  1.00  0.00     0.004 C 
BRANCH  14  15
ATOM     15  C   UNL     1      -3.572   2.113  37.620  1.00  0.00     0.000 C 
BRANCH  15  16
ATOM     16  C   UNL     1      -4.548   2.348  36.453  1.00  0.00    -0.000 C 
BRANCH  16  17
ATOM     17  C   UNL     1      -5.044   3.800  36.384  1.00  0.00    -0.003 C 
ATOM     18  C   UNL     1      -4.608   4.630  37.591  1.00  0.00     0.004 C 
ENDBRANCH  16  17
ENDBRANCH  15  16
ENDBRANCH  14  15
ENDBRANCH  13  14
ENDBRANCH  12  13
ENDBRANCH  10  11
ENDBRANCH   1  10
TORSDOF 13
ENDMDL
MODEL 7
REMARK VINA RESULT:    -2.890      4.227      6.134
REMARK INTER + INTRA:          -7.848
REMARK INTER:                  -6.027
REMARK INTRA:                  -1.821
REMARK UNBOUND:                -2.762
REMARK SMILES CCCCCCC=CCCCCCCCC(=O)[O-]
REMARK SMILES IDX 10 1 11 2 12 3 13 4 14 5 15 6 16 7 17 8 18 9 9 10 8 11 7 12
REMARK SMILES IDX 6 13 5 14 4 15 3 16 2 17 1 18
REMARK H PARENT
REMARK Flexibility Score: inf
ROOT
ATOM      1  C   UNL     1      -6.282   4.366  38.752  1.00  0.00     0.004 C 
ENDROOT
BRANCH   1   2
ATOM      2  C   UNL     1      -7.632   5.057  38.989  1.00  0.00     0.000 C 
BRANCH   2   3
ATOM      3  C   UNL     1      -8.344   5.447  37.680  1.00  0.00     0.000 C 
BRANCH   3   4
ATOM      4  C   UNL     1      -8.788   4.263  36.803  1.00  0.00     0.000 C 
BRANCH   4   5
ATOM      5  C   UNL     1     -10.090   3.610  37.290  1.00  0.00     0.006 C 
BRANCH   5   6
ATOM      6  C   UNL     1     -11.259   3.962  36.365  1.00  0.00     0.053 C 
BRANCH   6   7
ATOM      7  C   UNL     1     -12.493   3.222  36.775  1.00  0.00     0.041 C 
ATOM      8  O   UNL     1     -13.177   3.626  37.753  1.00  0.00    -0.550 OA
ATOM      9  O   UNL     1     -12.915   2.116  36.050  1.00  0.00    -0.550 OA
ENDBRANCH   6   7
ENDBRANCH   5   6
ENDBRANCH   4   5
ENDBRANCH   3   4
ENDBRANCH   2   3
ENDBRANCH   1   2
BRANCH   1  10
ATOM     10  C   UNL     1      -6.126   3.140  39.660  1.00  0.00     0.027 C 
BRANCH  10  11
ATOM     11  C   UNL     1      -7.471   2.542  39.982  1.00  0.00    -0.031 C 
ATOM     12  C   UNL     1      -7.977   1.436  39.404  1.00  0.00    -0.031 C 
BRANCH  12  13
ATOM     13  C   UNL     1      -7.320   0.681  38.275  1.00  0.00     0.027 C 
BRANCH  13  14
ATOM     14  C   UNL     1      -6.341  -0.392  38.783  1.00  0.00     0.004 C 
BRANCH  14  15
ATOM     15  C   UNL     1      -5.068  -0.539  37.927  1.00  0.00     0.000 C 
BRANCH  15  16
ATOM     16  C   UNL     1      -3.994   0.508  38.270  1.00  0.00    -0.000 C 
BRANCH  16  17
ATOM     17  C   UNL     1      -3.515   1.286  37.035  1.00  0.00    -0.003 C 
ATOM     18  C   UNL     1      -3.217   2.753  37.342  1.00  0.00     0.004 C 
ENDBRANCH  16  17
ENDBRANCH  15  16
ENDBRANCH  14  15
ENDBRANCH  13  14
ENDBRANCH  12  13
ENDBRANCH  10  11
ENDBRANCH   1  10
TORSDOF 13
ENDMDL
MODEL 8
REMARK VINA RESULT:    -2.890      5.476      7.513
REMARK INTER + INTRA:          -7.848
REMARK INTER:                  -5.567
REMARK INTRA:                  -2.280
REMARK UNBOUND:                -2.762
REMARK SMILES CCCCCCC=CCCCCCCCC(=O)[O-]
REMARK SMILES IDX 10 1 11 2 12 3 13 4 14 5 15 6 16 7 17 8 18 9 9 10 8 11 7 12
REMARK SMILES IDX 6 13 5 14 4 15 3 16 2 17 1 18
REMARK H PARENT
REMARK Flexibility Score: inf
ROOT
ATOM      1  C   UNL     1      -7.150   0.471  39.061  1.00  0.00     0.004 C 
ENDROOT
BRANCH   1   2
ATOM      2  C   UNL     1      -6.117   0.539  37.928  1.00  0.00     0.000 C 
BRANCH   2   3
ATOM      3  C   UNL     1      -4.857  -0.300  38.212  1.00  0.00     0.000 C 
BRANCH   3   4
ATOM      4  C   UNL     1      -3.527   0.470  38.122  1.00  0.00     0.000 C 
BRANCH   4   5
ATOM      5  C   UNL     1      -3.527   1.539  37.019  1.00  0.00     0.006 C 
BRANCH   5   6
ATOM      6  C   UNL     1      -3.154   2.912  37.587  1.00  0.00     0.053 C 
BRANCH   6   7
ATOM      7  C   UNL     1      -2.255   3.643  36.641  1.00  0.00     0.041 C 
ATOM      8  O   UNL     1      -2.516   3.663  35.408  1.00  0.00    -0.550 OA
ATOM      9  O   UNL     1      -1.158   4.344  37.123  1.00  0.00    -0.550 OA
ENDBRANCH   6   7
ENDBRANCH   5   6
ENDBRANCH   4   5
ENDBRANCH   3   4
ENDBRANCH   2   3
ENDBRANCH   1   2
BRANCH   1  10
ATOM     10  C   UNL     1      -7.473   1.872  39.595  1.00  0.00     0.027 C 
BRANCH  10  11
ATOM     11  C   UNL     1      -6.279   2.782  39.460  1.00  0.00    -0.031 C 
ATOM     12  C   UNL     1      -6.341   4.126  39.413  1.00  0.00    -0.031 C 
BRANCH  12  13
ATOM     13  C   UNL     1      -7.620   4.926  39.387  1.00  0.00     0.027 C 
BRANCH  13  14
ATOM     14  C   UNL     1      -7.966   5.427  37.975  1.00  0.00     0.004 C 
BRANCH  14  15
ATOM     15  C   UNL     1      -9.064   4.611  37.267  1.00  0.00     0.000 C 
BRANCH  15  16
ATOM     16  C   UNL     1      -8.633   4.112  35.877  1.00  0.00    -0.000 C 
BRANCH  16  17
ATOM     17  C   UNL     1      -7.472   3.107  35.946  1.00  0.00    -0.003 C 
ATOM     18  C   UNL     1      -6.160   3.686  35.417  1.00  0.00     0.004 C 
ENDBRANCH  16  17
ENDBRANCH  15  16
ENDBRANCH  14  15
ENDBRANCH  13  14
ENDBRANCH  12  13
ENDBRANCH  10  11
ENDBRANCH   1  10
TORSDOF 13
ENDMDL
