MODEL 1
REMARK VINA RESULT:    53.823      0.000      0.000
REMARK INTER + INTRA:         101.259
REMARK INTER:                 102.594
REMARK INTRA:                  -1.336
REMARK UNBOUND:                -1.336
REMARK SMILES C[C@@H]1O[C@@H](O[C@@H]2[C@@H](O)[C@H](OCCc3ccc(O)c(O)c3)O[C@H](CO)[C@H]2OC(=O)C=Cc2ccc(O)c(O)c2)[C@H](O)[C@H](O)[C@@H]1O
REMARK SMILES IDX 6 1 7 2 9 3 21 4 22 5 25 6 5 7 4 8 1 9 2 10 43 11 3 12 41 13
REMARK SMILES IDX 39 14 44 15 42 17 40 19 8 21 26 23 27 24 28 25 29 26 30 27
REMARK SMILES IDX 31 28 38 29 32 30 36 31 33 32 34 33 37 34 35 36 10 38 11 39
REMARK SMILES IDX 12 40 13 41 20 42 14 43 18 44 15 45 16 46 19 47 17 49 23 51
REMARK SMILES IDX 24 52
REMARK H PARENT 44 16 42 18 40 20 8 22 37 35 35 37 19 48 17 50 24 53
REMARK Flexibility Score: inf
ROOT
ATOM      1  C   UNL     1      19.470  22.429  11.749  1.00  0.00     0.199 C 
ATOM      2  C   UNL     1      19.934  23.566  12.726  1.00  0.00     0.203 C 
ATOM      3  C   UNL     1      19.162  23.580  14.083  1.00  0.00     0.282 C 
ATOM      4  O   UNL     1      18.197  22.537  14.153  1.00  0.00    -0.340 OA
ATOM      5  C   UNL     1      17.287  22.640  13.072  1.00  0.00     0.190 C 
ATOM      6  C   UNL     1      17.950  22.118  11.785  1.00  0.00     0.240 C 
ENDROOT
BRANCH   1   7
ATOM      7  O   UNL     1      20.263  21.241  11.726  1.00  0.00    -0.340 OA
BRANCH   7   8
ATOM      8  C   UNL     1      21.188  21.084  10.654  1.00  0.00     0.282 C 
ATOM      9  C   UNL     1      23.169  18.240  10.401  1.00  0.00     0.041 C 
ATOM     10  C   UNL     1      22.020  18.882  11.194  1.00  0.00     0.150 C 
ATOM     11  C   UNL     1      22.514  19.572  12.498  1.00  0.00     0.174 C 
ATOM     12  O   UNL     1      21.253  19.707  10.309  1.00  0.00    -0.344 OA
ATOM     13  C   UNL     1      23.231  20.907  12.198  1.00  0.00     0.179 C 
ATOM     14  C   UNL     1      22.591  21.644  10.985  1.00  0.00     0.202 C 
BRANCH  11  15
ATOM     15  O   UNL     1      23.349  18.705  13.231  1.00  0.00    -0.388 OA
ATOM     16  H   UNL     1      23.059  18.751  14.176  1.00  0.00     0.211 HD
ENDBRANCH  11  15
BRANCH  13  17
ATOM     17  O   UNL     1      24.600  20.677  11.986  1.00  0.00    -0.387 OA
ATOM     18  H   UNL     1      25.041  21.566  11.979  1.00  0.00     0.211 HD
ENDBRANCH  13  17
BRANCH  14  19
ATOM     19  O   UNL     1      23.401  21.521   9.841  1.00  0.00    -0.385 OA
ATOM     20  H   UNL     1      23.012  22.105   9.138  1.00  0.00     0.211 HD
ENDBRANCH  14  19
ENDBRANCH   7   8
ENDBRANCH   1   7
BRANCH   2  21
ATOM     21  O   UNL     1      19.827  24.826  12.106  1.00  0.00    -0.385 OA
ATOM     22  H   UNL     1      18.971  24.840  11.599  1.00  0.00     0.211 HD
ENDBRANCH   2  21
BRANCH   6  23
ATOM     23  O   UNL     1      17.310  22.728  10.658  1.00  0.00    -0.453 OA
BRANCH  23  24
ATOM     24  C   UNL     1      17.187  22.059   9.441  1.00  0.00     0.331 C 
ATOM     25  O   UNL     1      16.109  22.145   8.789  1.00  0.00    -0.247 OA
BRANCH  24  26
ATOM     26  C   UNL     1      18.345  21.299   8.926  1.00  0.00     0.094 C 
ATOM     27  C   UNL     1      19.049  21.596   7.826  1.00  0.00     0.016 C 
BRANCH  27  28
ATOM     28  C   UNL     1      18.732  22.680   6.868  1.00  0.00    -0.021 A 
ATOM     29  C   UNL     1      18.063  23.822   7.325  1.00  0.00     0.058 A 
ATOM     30  C   UNL     1      19.157  22.623   5.528  1.00  0.00     0.012 A 
ATOM     31  C   UNL     1      17.747  24.864   6.443  1.00  0.00     0.157 A 
ATOM     32  C   UNL     1      18.853  23.668   4.646  1.00  0.00     0.051 A 
ATOM     33  C   UNL     1      18.139  24.784   5.095  1.00  0.00     0.157 A 
BRANCH  31  34
ATOM     34  O   UNL     1      17.047  25.977   6.901  1.00  0.00    -0.504 OA
ATOM     35  H   UNL     1      16.098  25.895   7.260  1.00  0.00     0.293 HD
ENDBRANCH  31  34
BRANCH  33  36
ATOM     36  O   UNL     1      17.827  25.803   4.188  1.00  0.00    -0.504 OA
ATOM     37  H   UNL     1      17.181  25.657   3.420  1.00  0.00     0.293 HD
ENDBRANCH  33  36
ENDBRANCH  27  28
ENDBRANCH  24  26
ENDBRANCH  23  24
ENDBRANCH   6  23
BRANCH   3  38
ATOM     38  O   UNL     1      20.114  23.524  15.137  1.00  0.00    -0.350 OA
BRANCH  38  39
ATOM     39  C   UNL     1      21.467  23.537  14.718  1.00  0.00     0.168 C 
BRANCH  39  40
ATOM     40  C   UNL     1      22.474  23.751  15.865  1.00  0.00     0.064 C 
BRANCH  40  41
ATOM     41  C   UNL     1      22.802  22.500  16.648  1.00  0.00    -0.042 A 
ATOM     42  C   UNL     1      22.869  21.272  15.973  1.00  0.00     0.054 A 
ATOM     43  C   UNL     1      23.144  22.553  18.010  1.00  0.00     0.008 A 
ATOM     44  C   UNL     1      23.250  20.107  16.646  1.00  0.00     0.157 A 
ATOM     45  C   UNL     1      23.507  21.387  18.691  1.00  0.00     0.050 A 
ATOM     46  C   UNL     1      23.566  20.162  18.013  1.00  0.00     0.157 A 
BRANCH  44  47
ATOM     47  O   UNL     1      23.322  18.909  15.933  1.00  0.00    -0.504 OA
ATOM     48  H   UNL     1      22.972  18.030  16.298  1.00  0.00     0.293 HD
ENDBRANCH  44  47
BRANCH  46  49
ATOM     49  O   UNL     1      23.950  19.004  18.692  1.00  0.00    -0.504 OA
ATOM     50  H   UNL     1      24.316  19.045  19.640  1.00  0.00     0.293 HD
ENDBRANCH  46  49
ENDBRANCH  40  41
ENDBRANCH  39  40
ENDBRANCH  38  39
ENDBRANCH   3  38
BRANCH   5  51
ATOM     51  C   UNL     1      15.990  21.878  13.405  1.00  0.00     0.192 C 
BRANCH  51  52
ATOM     52  O   UNL     1      14.883  22.490  12.798  1.00  0.00    -0.394 OA
ATOM     53  H   UNL     1      14.149  21.826  12.782  1.00  0.00     0.210 HD
ENDBRANCH  51  52
ENDBRANCH   5  51
TORSDOF 20
ENDMDL
