MODEL 1
REMARK VINA RESULT:    -5.650      0.000      0.000
REMARK INTER + INTRA:          -6.958
REMARK INTER:                  -6.641
REMARK INTRA:                  -0.317
REMARK UNBOUND:                -0.317
REMARK SMILES O=c1c(O)c(-c2ccc(O)c(O)c2)oc2cc(O)ccc12
REMARK SMILES IDX 5 1 3 2 2 3 1 4 21 5 15 6 14 7 16 8 17 9 19 10 20 11 6 12
REMARK SMILES IDX 7 13 8 14 9 15 13 16 11 17 10 18 12 20 4 22 18 24
REMARK H PARENT 10 19 12 21 4 23 18 25
REMARK Flexibility Score: inf
ROOT
ATOM      1  C   UNL     1      33.802  24.622  37.079  1.00  0.00     0.180 A 
ATOM      2  C   UNL     1      33.772  23.538  36.176  1.00  0.00     0.208 A 
ATOM      3  C   UNL     1      33.271  22.303  36.618  1.00  0.00     0.235 A 
ATOM      4  O   UNL     1      33.224  21.322  35.825  1.00  0.00    -0.285 OA
ATOM      5  C   UNL     1      32.834  22.170  37.945  1.00  0.00     0.069 A 
ATOM      6  C   UNL     1      32.919  23.295  38.793  1.00  0.00     0.142 A 
ATOM      7  O   UNL     1      33.391  24.448  38.333  1.00  0.00    -0.452 OA
ATOM      8  C   UNL     1      32.502  23.200  40.125  1.00  0.00     0.094 A 
ATOM      9  C   UNL     1      31.998  21.994  40.623  1.00  0.00     0.119 A 
ATOM     10  C   UNL     1      31.911  20.875  39.783  1.00  0.00     0.047 A 
ATOM     11  C   UNL     1      32.326  20.959  38.451  1.00  0.00     0.020 A 
ENDROOT
BRANCH   1  12
ATOM     12  C   UNL     1      34.298  25.959  36.685  1.00  0.00     0.025 A 
ATOM     13  C   UNL     1      35.660  26.293  36.786  1.00  0.00     0.016 A 
ATOM     14  C   UNL     1      36.110  27.554  36.385  1.00  0.00     0.051 A 
ATOM     15  C   UNL     1      35.210  28.493  35.864  1.00  0.00     0.157 A 
ATOM     16  C   UNL     1      33.404  26.896  36.142  1.00  0.00     0.062 A 
ATOM     17  C   UNL     1      33.851  28.160  35.739  1.00  0.00     0.158 A 
BRANCH  15  18
ATOM     18  O   UNL     1      35.662  29.750  35.467  1.00  0.00    -0.504 OA
ATOM     19  H   UNL     1      36.212  29.876  34.625  1.00  0.00     0.293 HD
ENDBRANCH  15  18
BRANCH  17  20
ATOM     20  O   UNL     1      32.931  29.070  35.218  1.00  0.00    -0.504 OA
ATOM     21  H   UNL     1      32.834  30.007  35.588  1.00  0.00     0.293 HD
ENDBRANCH  17  20
ENDBRANCH   1  12
BRANCH   2  22
ATOM     22  O   UNL     1      34.259  23.686  34.875  1.00  0.00    -0.502 OA
ATOM     23  H   UNL     1      34.834  22.983  34.428  1.00  0.00     0.293 HD
ENDBRANCH   2  22
BRANCH   9  24
ATOM     24  O   UNL     1      31.588  21.917  41.951  1.00  0.00    -0.508 OA
ATOM     25  H   UNL     1      31.576  22.735  42.550  1.00  0.00     0.293 HD
ENDBRANCH   9  24
TORSDOF 5
ENDMDL
MODEL 2
REMARK VINA RESULT:    -5.516     18.447     21.973
REMARK INTER + INTRA:          -6.801
REMARK INTER:                  -6.668
REMARK INTRA:                  -0.133
REMARK UNBOUND:                -0.317
REMARK SMILES O=c1c(O)c(-c2ccc(O)c(O)c2)oc2cc(O)ccc12
REMARK SMILES IDX 5 1 3 2 2 3 1 4 21 5 15 6 14 7 16 8 17 9 19 10 20 11 6 12
REMARK SMILES IDX 7 13 8 14 9 15 13 16 11 17 10 18 12 20 4 22 18 24
REMARK H PARENT 10 19 12 21 4 23 18 25
REMARK Flexibility Score: inf
ROOT
ATOM      1  C   UNL     1      18.736  25.123  53.492  1.00  0.00     0.180 A 
ATOM      2  C   UNL     1      17.968  24.106  54.094  1.00  0.00     0.208 A 
ATOM      3  C   UNL     1      18.100  22.790  53.625  1.00  0.00     0.235 A 
ATOM      4  O   UNL     1      17.431  21.860  54.155  1.00  0.00    -0.285 OA
ATOM      5  C   UNL     1      18.973  22.521  52.559  1.00  0.00     0.069 A 
ATOM      6  C   UNL     1      19.689  23.599  51.993  1.00  0.00     0.142 A 
ATOM      7  O   UNL     1      19.542  24.828  52.474  1.00  0.00    -0.452 OA
ATOM      8  C   UNL     1      20.562  23.373  50.923  1.00  0.00     0.094 A 
ATOM      9  C   UNL     1      20.731  22.084  50.410  1.00  0.00     0.119 A 
ATOM     10  C   UNL     1      20.024  21.012  50.970  1.00  0.00     0.047 A 
ATOM     11  C   UNL     1      19.148  21.226  52.038  1.00  0.00     0.020 A 
ENDROOT
BRANCH   1  12
ATOM     12  C   UNL     1      18.667  26.531  53.942  1.00  0.00     0.025 A 
ATOM     13  C   UNL     1      19.797  27.193  54.452  1.00  0.00     0.016 A 
ATOM     14  C   UNL     1      19.713  28.531  54.848  1.00  0.00     0.051 A 
ATOM     15  C   UNL     1      18.505  29.230  54.726  1.00  0.00     0.157 A 
ATOM     16  C   UNL     1      17.463  27.243  53.802  1.00  0.00     0.062 A 
ATOM     17  C   UNL     1      17.376  28.583  54.197  1.00  0.00     0.158 A 
BRANCH  15  18
ATOM     18  O   UNL     1      18.424  30.564  55.124  1.00  0.00    -0.504 OA
ATOM     19  H   UNL     1      17.547  31.071  55.109  1.00  0.00     0.293 HD
ENDBRANCH  15  18
BRANCH  17  20
ATOM     20  O   UNL     1      16.161  29.253  54.057  1.00  0.00    -0.504 OA
ATOM     21  H   UNL     1      15.295  28.878  54.426  1.00  0.00     0.293 HD
ENDBRANCH  17  20
ENDBRANCH   1  12
BRANCH   2  22
ATOM     22  O   UNL     1      17.071  24.410  55.121  1.00  0.00    -0.502 OA
ATOM     23  H   UNL     1      16.160  23.973  55.192  1.00  0.00     0.293 HD
ENDBRANCH   2  22
BRANCH   9  24
ATOM     24  O   UNL     1      21.604  21.878  49.344  1.00  0.00    -0.508 OA
ATOM     25  H   UNL     1      22.587  22.119  49.410  1.00  0.00     0.293 HD
ENDBRANCH   9  24
TORSDOF 5
ENDMDL
MODEL 3
REMARK VINA RESULT:    -5.352     18.623     22.185
REMARK INTER + INTRA:          -6.608
REMARK INTER:                  -6.550
REMARK INTRA:                  -0.058
REMARK UNBOUND:                -0.317
REMARK SMILES O=c1c(O)c(-c2ccc(O)c(O)c2)oc2cc(O)ccc12
REMARK SMILES IDX 5 1 3 2 2 3 1 4 21 5 15 6 14 7 16 8 17 9 19 10 20 11 6 12
REMARK SMILES IDX 7 13 8 14 9 15 13 16 11 17 10 18 12 20 4 22 18 24
REMARK H PARENT 10 19 12 21 4 23 18 25
REMARK Flexibility Score: inf
ROOT
ATOM      1  C   UNL     1      18.247  25.075  53.416  1.00  0.00     0.180 A 
ATOM      2  C   UNL     1      17.666  24.003  54.125  1.00  0.00     0.208 A 
ATOM      3  C   UNL     1      18.033  22.691  53.788  1.00  0.00     0.235 A 
ATOM      4  O   UNL     1      17.536  21.716  54.416  1.00  0.00    -0.285 OA
ATOM      5  C   UNL     1      18.948  22.475  52.746  1.00  0.00     0.069 A 
ATOM      6  C   UNL     1      19.466  23.601  52.068  1.00  0.00     0.142 A 
ATOM      7  O   UNL     1      19.100  24.826  52.424  1.00  0.00    -0.452 OA
ATOM      8  C   UNL     1      20.373  23.427  51.017  1.00  0.00     0.094 A 
ATOM      9  C   UNL     1      20.773  22.143  50.634  1.00  0.00     0.119 A 
ATOM     10  C   UNL     1      20.262  21.024  51.306  1.00  0.00     0.047 A 
ATOM     11  C   UNL     1      19.354  21.186  52.356  1.00  0.00     0.020 A 
ENDROOT
BRANCH   1  12
ATOM     12  C   UNL     1      17.925  26.486  53.722  1.00  0.00     0.025 A 
ATOM     13  C   UNL     1      16.599  26.954  53.711  1.00  0.00     0.016 A 
ATOM     14  C   UNL     1      16.317  28.285  54.028  1.00  0.00     0.051 A 
ATOM     15  C   UNL     1      17.351  29.164  54.375  1.00  0.00     0.157 A 
ATOM     16  C   UNL     1      18.956  27.366  54.092  1.00  0.00     0.062 A 
ATOM     17  C   UNL     1      18.676  28.700  54.410  1.00  0.00     0.158 A 
BRANCH  15  18
ATOM     18  O   UNL     1      17.066  30.492  54.689  1.00  0.00    -0.504 OA
ATOM     19  H   UNL     1      17.553  31.261  54.243  1.00  0.00     0.293 HD
ENDBRANCH  15  18
BRANCH  17  20
ATOM     20  O   UNL     1      19.728  29.548  54.758  1.00  0.00    -0.504 OA
ATOM     21  H   UNL     1      19.615  30.554  54.802  1.00  0.00     0.293 HD
ENDBRANCH  17  20
ENDBRANCH   1  12
BRANCH   2  22
ATOM     22  O   UNL     1      16.721  24.245  55.125  1.00  0.00    -0.502 OA
ATOM     23  H   UNL     1      15.877  23.693  55.219  1.00  0.00     0.293 HD
ENDBRANCH   2  22
BRANCH   9  24
ATOM     24  O   UNL     1      21.677  21.989  49.586  1.00  0.00    -0.508 OA
ATOM     25  H   UNL     1      21.675  21.161  49.002  1.00  0.00     0.293 HD
ENDBRANCH   9  24
TORSDOF 5
ENDMDL
MODEL 4
REMARK VINA RESULT:    -4.247     18.337     21.896
REMARK INTER + INTRA:          -5.309
REMARK INTER:                  -5.708
REMARK INTRA:                   0.398
REMARK UNBOUND:                -0.317
REMARK SMILES O=c1c(O)c(-c2ccc(O)c(O)c2)oc2cc(O)ccc12
REMARK SMILES IDX 5 1 3 2 2 3 1 4 21 5 15 6 14 7 16 8 17 9 19 10 20 11 6 12
REMARK SMILES IDX 7 13 8 14 9 15 13 16 11 17 10 18 12 20 4 22 18 24
REMARK H PARENT 10 19 12 21 4 23 18 25
REMARK Flexibility Score: inf
ROOT
ATOM      1  C   UNL     1      18.442  24.834  53.318  1.00  0.00     0.180 A 
ATOM      2  C   UNL     1      17.988  23.754  54.104  1.00  0.00     0.208 A 
ATOM      3  C   UNL     1      18.466  22.464  53.823  1.00  0.00     0.235 A 
ATOM      4  O   UNL     1      18.084  21.484  54.520  1.00  0.00    -0.285 OA
ATOM      5  C   UNL     1      19.364  22.277  52.760  1.00  0.00     0.069 A 
ATOM      6  C   UNL     1      19.750  23.405  52.004  1.00  0.00     0.142 A 
ATOM      7  O   UNL     1      19.281  24.610  52.309  1.00  0.00    -0.452 OA
ATOM      8  C   UNL     1      20.635  23.258  50.931  1.00  0.00     0.094 A 
ATOM      9  C   UNL     1      21.141  21.997  50.600  1.00  0.00     0.119 A 
ATOM     10  C   UNL     1      20.761  20.875  51.349  1.00  0.00     0.047 A 
ATOM     11  C   UNL     1      19.876  21.011  52.423  1.00  0.00     0.020 A 
ENDROOT
BRANCH   1  12
ATOM     12  C   UNL     1      17.998  26.224  53.562  1.00  0.00     0.025 A 
ATOM     13  C   UNL     1      17.379  26.593  54.770  1.00  0.00     0.016 A 
ATOM     14  C   UNL     1      16.991  27.918  54.988  1.00  0.00     0.051 A 
ATOM     15  C   UNL     1      17.227  28.894  54.011  1.00  0.00     0.157 A 
ATOM     16  C   UNL     1      18.252  27.211  52.596  1.00  0.00     0.062 A 
ATOM     17  C   UNL     1      17.865  28.538  52.811  1.00  0.00     0.158 A 
BRANCH  15  18
ATOM     18  O   UNL     1      16.837  30.215  54.232  1.00  0.00    -0.504 OA
ATOM     19  H   UNL     1      17.102  30.714  55.073  1.00  0.00     0.293 HD
ENDBRANCH  15  18
BRANCH  17  20
ATOM     20  O   UNL     1      18.121  29.488  51.822  1.00  0.00    -0.504 OA
ATOM     21  H   UNL     1      18.953  30.065  51.833  1.00  0.00     0.293 HD
ENDBRANCH  17  20
ENDBRANCH   1  12
BRANCH   2  22
ATOM     22  O   UNL     1      17.058  23.963  55.125  1.00  0.00    -0.502 OA
ATOM     23  H   UNL     1      16.140  24.354  54.951  1.00  0.00     0.293 HD
ENDBRANCH   2  22
BRANCH   9  24
ATOM     24  O   UNL     1      22.021  21.870  49.529  1.00  0.00    -0.508 OA
ATOM     25  H   UNL     1      21.686  21.768  48.578  1.00  0.00     0.293 HD
ENDBRANCH   9  24
TORSDOF 5
ENDMDL
MODEL 5
REMARK VINA RESULT:    -4.244     18.627     22.158
REMARK INTER + INTRA:          -5.305
REMARK INTER:                  -5.013
REMARK INTRA:                  -0.293
REMARK UNBOUND:                -0.317
REMARK SMILES O=c1c(O)c(-c2ccc(O)c(O)c2)oc2cc(O)ccc12
REMARK SMILES IDX 5 1 3 2 2 3 1 4 21 5 15 6 14 7 16 8 17 9 19 10 20 11 6 12
REMARK SMILES IDX 7 13 8 14 9 15 13 16 11 17 10 18 12 20 4 22 18 24
REMARK H PARENT 10 19 12 21 4 23 18 25
REMARK Flexibility Score: inf
ROOT
ATOM      1  C   UNL     1      19.148  25.370  53.302  1.00  0.00     0.180 A 
ATOM      2  C   UNL     1      17.758  25.337  53.536  1.00  0.00     0.208 A 
ATOM      3  C   UNL     1      17.129  26.487  54.040  1.00  0.00     0.235 A 
ATOM      4  O   UNL     1      15.884  26.486  54.247  1.00  0.00    -0.285 OA
ATOM      5  C   UNL     1      17.897  27.629  54.315  1.00  0.00     0.069 A 
ATOM      6  C   UNL     1      19.288  27.574  54.077  1.00  0.00     0.142 A 
ATOM      7  O   UNL     1      19.842  26.469  53.591  1.00  0.00    -0.452 OA
ATOM      8  C   UNL     1      20.088  28.688  54.348  1.00  0.00     0.094 A 
ATOM      9  C   UNL     1      19.519  29.861  54.855  1.00  0.00     0.119 A 
ATOM     10  C   UNL     1      18.139  29.920  55.092  1.00  0.00     0.047 A 
ATOM     11  C   UNL     1      17.330  28.811  54.825  1.00  0.00     0.020 A 
ENDROOT
BRANCH   1  12
ATOM     12  C   UNL     1      19.880  24.205  52.756  1.00  0.00     0.025 A 
ATOM     13  C   UNL     1      20.267  23.133  53.580  1.00  0.00     0.016 A 
ATOM     14  C   UNL     1      20.936  22.032  53.038  1.00  0.00     0.051 A 
ATOM     15  C   UNL     1      21.216  21.980  51.666  1.00  0.00     0.157 A 
ATOM     16  C   UNL     1      20.144  24.138  51.378  1.00  0.00     0.062 A 
ATOM     17  C   UNL     1      20.814  23.037  50.833  1.00  0.00     0.158 A 
BRANCH  15  18
ATOM     18  O   UNL     1      21.885  20.881  51.129  1.00  0.00    -0.504 OA
ATOM     19  H   UNL     1      22.878  20.741  51.273  1.00  0.00     0.293 HD
ENDBRANCH  15  18
BRANCH  17  20
ATOM     20  O   UNL     1      21.071  23.011  49.462  1.00  0.00    -0.504 OA
ATOM     21  H   UNL     1      21.600  23.741  49.001  1.00  0.00     0.293 HD
ENDBRANCH  17  20
ENDBRANCH   1  12
BRANCH   2  22
ATOM     22  O   UNL     1      17.026  24.171  53.298  1.00  0.00    -0.502 OA
ATOM     23  H   UNL     1      16.366  24.091  52.536  1.00  0.00     0.293 HD
ENDBRANCH   2  22
BRANCH   9  24
ATOM     24  O   UNL     1      20.332  30.960  55.119  1.00  0.00    -0.508 OA
ATOM     25  H   UNL     1      20.084  31.645  55.824  1.00  0.00     0.293 HD
ENDBRANCH   9  24
TORSDOF 5
ENDMDL
MODEL 6
REMARK VINA RESULT:    -4.181     19.216     21.318
REMARK INTER + INTRA:          -5.231
REMARK INTER:                  -5.614
REMARK INTRA:                   0.383
REMARK UNBOUND:                -0.317
REMARK SMILES O=c1c(O)c(-c2ccc(O)c(O)c2)oc2cc(O)ccc12
REMARK SMILES IDX 5 1 3 2 2 3 1 4 21 5 15 6 14 7 16 8 17 9 19 10 20 11 6 12
REMARK SMILES IDX 7 13 8 14 9 15 13 16 11 17 10 18 12 20 4 22 18 24
REMARK H PARENT 10 19 12 21 4 23 18 25
REMARK Flexibility Score: inf
ROOT
ATOM      1  C   UNL     1      19.719  25.497  52.834  1.00  0.00     0.180 A 
ATOM      2  C   UNL     1      20.632  24.988  51.887  1.00  0.00     0.208 A 
ATOM      3  C   UNL     1      20.399  23.717  51.337  1.00  0.00     0.235 A 
ATOM      4  O   UNL     1      21.195  23.245  50.479  1.00  0.00    -0.285 OA
ATOM      5  C   UNL     1      19.281  22.978  51.755  1.00  0.00     0.069 A 
ATOM      6  C   UNL     1      18.428  23.548  52.726  1.00  0.00     0.142 A 
ATOM      7  O   UNL     1      18.679  24.757  53.214  1.00  0.00    -0.452 OA
ATOM      8  C   UNL     1      17.309  22.838  53.175  1.00  0.00     0.094 A 
ATOM      9  C   UNL     1      17.027  21.566  52.667  1.00  0.00     0.119 A 
ATOM     10  C   UNL     1      17.871  20.999  51.702  1.00  0.00     0.047 A 
ATOM     11  C   UNL     1      18.993  21.698  51.247  1.00  0.00     0.020 A 
ENDROOT
BRANCH   1  12
ATOM     12  C   UNL     1      19.885  26.834  53.446  1.00  0.00     0.025 A 
ATOM     13  C   UNL     1      21.132  27.484  53.454  1.00  0.00     0.016 A 
ATOM     14  C   UNL     1      21.260  28.758  54.016  1.00  0.00     0.051 A 
ATOM     15  C   UNL     1      20.144  29.404  54.564  1.00  0.00     0.157 A 
ATOM     16  C   UNL     1      18.766  27.495  53.977  1.00  0.00     0.062 A 
ATOM     17  C   UNL     1      18.891  28.770  54.540  1.00  0.00     0.158 A 
BRANCH  15  18
ATOM     18  O   UNL     1      20.276  30.674  55.125  1.00  0.00    -0.504 OA
ATOM     19  H   UNL     1      20.523  31.480  54.563  1.00  0.00     0.293 HD
ENDBRANCH  15  18
BRANCH  17  20
ATOM     20  O   UNL     1      17.759  29.390  55.071  1.00  0.00    -0.504 OA
ATOM     21  H   UNL     1      17.822  30.080  55.810  1.00  0.00     0.293 HD
ENDBRANCH  17  20
ENDBRANCH   1  12
BRANCH   2  22
ATOM     22  O   UNL     1      21.762  25.725  51.525  1.00  0.00    -0.502 OA
ATOM     23  H   UNL     1      22.625  25.688  52.053  1.00  0.00     0.293 HD
ENDBRANCH   2  22
BRANCH   9  24
ATOM     24  O   UNL     1      15.909  20.875  53.125  1.00  0.00    -0.508 OA
ATOM     25  H   UNL     1      15.171  21.343  53.639  1.00  0.00     0.293 HD
ENDBRANCH   9  24
TORSDOF 5
ENDMDL
MODEL 7
REMARK VINA RESULT:    -3.203     18.431     21.675
REMARK INTER + INTRA:          -4.082
REMARK INTER:                  -4.261
REMARK INTRA:                   0.179
REMARK UNBOUND:                -0.317
REMARK SMILES O=c1c(O)c(-c2ccc(O)c(O)c2)oc2cc(O)ccc12
REMARK SMILES IDX 5 1 3 2 2 3 1 4 21 5 15 6 14 7 16 8 17 9 19 10 20 11 6 12
REMARK SMILES IDX 7 13 8 14 9 15 13 16 11 17 10 18 12 20 4 22 18 24
REMARK H PARENT 10 19 12 21 4 23 18 25
REMARK Flexibility Score: inf
ROOT
ATOM      1  C   UNL     1      20.069  25.971  52.662  1.00  0.00     0.180 A 
ATOM      2  C   UNL     1      21.209  26.765  52.904  1.00  0.00     0.208 A 
ATOM      3  C   UNL     1      21.055  27.981  53.588  1.00  0.00     0.235 A 
ATOM      4  O   UNL     1      22.062  28.704  53.827  1.00  0.00    -0.285 OA
ATOM      5  C   UNL     1      19.774  28.386  53.995  1.00  0.00     0.069 A 
ATOM      6  C   UNL     1      18.679  27.547  53.693  1.00  0.00     0.142 A 
ATOM      7  O   UNL     1      18.871  26.399  53.052  1.00  0.00    -0.452 OA
ATOM      8  C   UNL     1      17.386  27.920  54.074  1.00  0.00     0.094 A 
ATOM      9  C   UNL     1      17.169  29.122  54.754  1.00  0.00     0.119 A 
ATOM     10  C   UNL     1      18.253  29.958  55.057  1.00  0.00     0.047 A 
ATOM     11  C   UNL     1      19.550  29.595  54.680  1.00  0.00     0.020 A 
ENDROOT
BRANCH   1  12
ATOM     12  C   UNL     1      20.152  24.669  51.963  1.00  0.00     0.025 A 
ATOM     13  C   UNL     1      21.036  24.471  50.887  1.00  0.00     0.016 A 
ATOM     14  C   UNL     1      21.115  23.226  50.259  1.00  0.00     0.051 A 
ATOM     15  C   UNL     1      20.325  22.158  50.703  1.00  0.00     0.157 A 
ATOM     16  C   UNL     1      19.378  23.589  52.419  1.00  0.00     0.062 A 
ATOM     17  C   UNL     1      19.455  22.341  51.792  1.00  0.00     0.158 A 
BRANCH  15  18
ATOM     18  O   UNL     1      20.405  20.917  50.073  1.00  0.00    -0.504 OA
ATOM     19  H   UNL     1      19.932  20.735  49.195  1.00  0.00     0.293 HD
ENDBRANCH  15  18
BRANCH  17  20
ATOM     20  O   UNL     1      18.661  21.295  52.263  1.00  0.00    -0.504 OA
ATOM     21  H   UNL     1      18.775  20.344  51.935  1.00  0.00     0.293 HD
ENDBRANCH  17  20
ENDBRANCH   1  12
BRANCH   2  22
ATOM     22  O   UNL     1      22.465  26.360  52.445  1.00  0.00    -0.502 OA
ATOM     23  H   UNL     1      22.611  25.475  51.976  1.00  0.00     0.293 HD
ENDBRANCH   2  22
BRANCH   9  24
ATOM     24  O   UNL     1      15.875  29.478  55.125  1.00  0.00    -0.508 OA
ATOM     25  H   UNL     1      15.445  29.110  55.966  1.00  0.00     0.293 HD
ENDBRANCH   9  24
TORSDOF 5
ENDMDL
MODEL 8
REMARK VINA RESULT:    -3.041     18.940     21.642
REMARK INTER + INTRA:          -3.891
REMARK INTER:                  -4.386
REMARK INTRA:                   0.495
REMARK UNBOUND:                -0.317
REMARK SMILES O=c1c(O)c(-c2ccc(O)c(O)c2)oc2cc(O)ccc12
REMARK SMILES IDX 5 1 3 2 2 3 1 4 21 5 15 6 14 7 16 8 17 9 19 10 20 11 6 12
REMARK SMILES IDX 7 13 8 14 9 15 13 16 11 17 10 18 12 20 4 22 18 24
REMARK H PARENT 10 19 12 21 4 23 18 25
REMARK Flexibility Score: inf
ROOT
ATOM      1  C   UNL     1      19.152  26.516  52.850  1.00  0.00     0.180 A 
ATOM      2  C   UNL     1      20.548  26.618  52.676  1.00  0.00     0.208 A 
ATOM      3  C   UNL     1      21.248  25.516  52.159  1.00  0.00     0.235 A 
ATOM      4  O   UNL     1      22.496  25.587  51.984  1.00  0.00    -0.285 OA
ATOM      5  C   UNL     1      20.550  24.339  51.848  1.00  0.00     0.069 A 
ATOM      6  C   UNL     1      19.156  24.308  52.073  1.00  0.00     0.142 A 
ATOM      7  O   UNL     1      18.531  25.375  52.556  1.00  0.00    -0.452 OA
ATOM      8  C   UNL     1      18.427  23.150  51.785  1.00  0.00     0.094 A 
ATOM      9  C   UNL     1      19.071  22.019  51.271  1.00  0.00     0.119 A 
ATOM     10  C   UNL     1      20.453  22.047  51.044  1.00  0.00     0.047 A 
ATOM     11  C   UNL     1      21.192  23.199  51.331  1.00  0.00     0.020 A 
ENDROOT
BRANCH   1  12
ATOM     12  C   UNL     1      18.342  27.638  53.373  1.00  0.00     0.025 A 
ATOM     13  C   UNL     1      16.937  27.617  53.312  1.00  0.00     0.016 A 
ATOM     14  C   UNL     1      16.192  28.677  53.835  1.00  0.00     0.051 A 
ATOM     15  C   UNL     1      16.836  29.765  54.438  1.00  0.00     0.157 A 
ATOM     16  C   UNL     1      18.982  28.721  53.999  1.00  0.00     0.062 A 
ATOM     17  C   UNL     1      18.238  29.784  54.523  1.00  0.00     0.158 A 
BRANCH  15  18
ATOM     18  O   UNL     1      16.089  30.822  54.957  1.00  0.00    -0.504 OA
ATOM     19  H   UNL     1      16.041  31.719  54.489  1.00  0.00     0.293 HD
ENDBRANCH  15  18
BRANCH  17  20
ATOM     20  O   UNL     1      18.909  30.849  55.124  1.00  0.00    -0.504 OA
ATOM     21  H   UNL     1      18.416  31.613  55.569  1.00  0.00     0.293 HD
ENDBRANCH  17  20
ENDBRANCH   1  12
BRANCH   2  22
ATOM     22  O   UNL     1      21.224  27.785  53.041  1.00  0.00    -0.502 OA
ATOM     23  H   UNL     1      22.220  27.801  53.219  1.00  0.00     0.293 HD
ENDBRANCH   2  22
BRANCH   9  24
ATOM     24  O   UNL     1      18.329  20.875  50.990  1.00  0.00    -0.508 OA
ATOM     25  H   UNL     1      18.213  20.539  50.041  1.00  0.00     0.293 HD
ENDBRANCH   9  24
TORSDOF 5
ENDMDL
