MODEL 1
REMARK VINA RESULT:    -3.009      0.000      0.000
REMARK INTER + INTRA:          -4.163
REMARK INTER:                  -4.064
REMARK INTRA:                  -0.098
REMARK UNBOUND:                -0.098
REMARK SMILES [NH3+]CCCC[C@@H]([NH3+])C(=O)[O-]
REMARK SMILES IDX 4 1 3 2 2 3 1 4 5 8 6 9 7 10 8 14 9 15 10 16
REMARK H PARENT 1 5 1 6 1 7 7 11 7 12 7 13
REMARK Flexibility Score: inf
ROOT
ATOM      1  C   UNL     1      29.125   6.802  39.591  1.00  0.00     0.012 C 
ENDROOT
BRANCH   1   2
ATOM      2  C   UNL     1      29.066   6.210  41.004  1.00  0.00     0.061 C 
BRANCH   2   3
ATOM      3  C   UNL     1      29.124   7.315  42.068  1.00  0.00     0.258 C 
BRANCH   3   4
ATOM      4  N   UNL     1      27.782   7.800  42.391  1.00  0.00    -0.358 N 
ATOM      5  H   UNL     1      27.652   7.780  43.428  1.00  0.00     0.344 HD
ATOM      6  H   UNL     1      27.061   7.184  41.949  1.00  0.00     0.344 HD
ATOM      7  H   UNL     1      27.663   8.782  42.053  1.00  0.00     0.344 HD
ENDBRANCH   3   4
ENDBRANCH   2   3
ENDBRANCH   1   2
BRANCH   1   8
ATOM      8  C   UNL     1      29.048   5.695  38.527  1.00  0.00     0.072 C 
BRANCH   8   9
ATOM      9  C   UNL     1      27.883   4.713  38.774  1.00  0.00     0.227 C 
BRANCH   9  10
ATOM     10  N   UNL     1      26.930   4.706  37.656  1.00  0.00    -0.350 N 
ATOM     11  H   UNL     1      26.055   4.195  37.916  1.00  0.00     0.345 HD
ATOM     12  H   UNL     1      27.360   4.255  36.818  1.00  0.00     0.345 HD
ATOM     13  H   UNL     1      26.683   5.689  37.392  1.00  0.00     0.345 HD
ENDBRANCH   9  10
BRANCH   9  14
ATOM     14  C   UNL     1      28.433   3.327  38.989  1.00  0.00     0.099 C 
ATOM     15  O   UNL     1      28.287   2.754  40.100  1.00  0.00    -0.544 OA
ATOM     16  O   UNL     1      29.121   2.680  37.970  1.00  0.00    -0.544 OA
ENDBRANCH   9  14
ENDBRANCH   8   9
ENDBRANCH   1   8
TORSDOF 7
ENDMDL
MODEL 2
REMARK VINA RESULT:    -2.993      2.031      2.521
REMARK INTER + INTRA:          -4.141
REMARK INTER:                  -3.990
REMARK INTRA:                  -0.151
REMARK UNBOUND:                -0.098
REMARK SMILES [NH3+]CCCC[C@@H]([NH3+])C(=O)[O-]
REMARK SMILES IDX 4 1 3 2 2 3 1 4 5 8 6 9 7 10 8 14 9 15 10 16
REMARK H PARENT 1 5 1 6 1 7 7 11 7 12 7 13
REMARK Flexibility Score: inf
ROOT
ATOM      1  C   UNL     1      28.223   3.642  40.617  1.00  0.00     0.012 C 
ENDROOT
BRANCH   1   2
ATOM      2  C   UNL     1      29.108   4.346  41.652  1.00  0.00     0.061 C 
BRANCH   2   3
ATOM      3  C   UNL     1      29.125   5.864  41.423  1.00  0.00     0.258 C 
BRANCH   3   4
ATOM      4  N   UNL     1      27.770   6.377  41.221  1.00  0.00    -0.358 N 
ATOM      5  H   UNL     1      27.166   5.610  40.847  1.00  0.00     0.344 HD
ATOM      6  H   UNL     1      27.783   7.164  40.532  1.00  0.00     0.344 HD
ATOM      7  H   UNL     1      27.372   6.709  42.130  1.00  0.00     0.344 HD
ENDBRANCH   3   4
ENDBRANCH   2   3
ENDBRANCH   1   2
BRANCH   1   8
ATOM      8  C   UNL     1      29.076   2.916  39.566  1.00  0.00     0.072 C 
BRANCH   8   9
ATOM      9  C   UNL     1      28.644   3.242  38.119  1.00  0.00     0.227 C 
BRANCH   9  10
ATOM     10  N   UNL     1      27.650   2.282  37.619  1.00  0.00    -0.350 N 
ATOM     11  H   UNL     1      27.981   1.831  36.735  1.00  0.00     0.345 HD
ATOM     12  H   UNL     1      26.740   2.765  37.442  1.00  0.00     0.345 HD
ATOM     13  H   UNL     1      27.478   1.540  38.337  1.00  0.00     0.345 HD
ENDBRANCH   9  10
BRANCH   9  14
ATOM     14  C   UNL     1      28.083   4.639  38.067  1.00  0.00     0.099 C 
ATOM     15  O   UNL     1      26.855   4.821  37.857  1.00  0.00    -0.544 OA
ATOM     16  O   UNL     1      28.920   5.736  38.231  1.00  0.00    -0.544 OA
ENDBRANCH   9  14
ENDBRANCH   8   9
ENDBRANCH   1   8
TORSDOF 7
ENDMDL
MODEL 3
REMARK VINA RESULT:    -2.830      1.963      4.027
REMARK INTER + INTRA:          -3.921
REMARK INTER:                  -3.736
REMARK INTRA:                  -0.185
REMARK UNBOUND:                -0.098
REMARK SMILES [NH3+]CCCC[C@@H]([NH3+])C(=O)[O-]
REMARK SMILES IDX 4 1 3 2 2 3 1 4 5 8 6 9 7 10 8 14 9 15 10 16
REMARK H PARENT 1 5 1 6 1 7 7 11 7 12 7 13
REMARK Flexibility Score: inf
ROOT
ATOM      1  C   UNL     1      29.029   5.226  38.257  1.00  0.00     0.012 C 
ENDROOT
BRANCH   1   2
ATOM      2  C   UNL     1      29.092   3.853  37.576  1.00  0.00     0.061 C 
BRANCH   2   3
ATOM      3  C   UNL     1      27.708   3.193  37.536  1.00  0.00     0.258 C 
BRANCH   3   4
ATOM      4  N   UNL     1      26.978   3.582  36.329  1.00  0.00    -0.358 N 
ATOM      5  H   UNL     1      26.526   2.735  35.915  1.00  0.00     0.344 HD
ATOM      6  H   UNL     1      27.638   3.991  35.627  1.00  0.00     0.344 HD
ATOM      7  H   UNL     1      26.237   4.280  36.567  1.00  0.00     0.344 HD
ENDBRANCH   3   4
ENDBRANCH   2   3
ENDBRANCH   1   2
BRANCH   1   8
ATOM      8  C   UNL     1      28.229   5.154  39.567  1.00  0.00     0.072 C 
BRANCH   8   9
ATOM      9  C   UNL     1      29.045   4.548  40.730  1.00  0.00     0.227 C 
BRANCH   9  10
ATOM     10  N   UNL     1      29.052   5.426  41.907  1.00  0.00    -0.350 N 
ATOM     11  H   UNL     1      28.434   6.256  41.755  1.00  0.00     0.345 HD
ATOM     12  H   UNL     1      30.024   5.749  42.110  1.00  0.00     0.345 HD
ATOM     13  H   UNL     1      28.714   4.899  42.747  1.00  0.00     0.345 HD
ENDBRANCH   9  10
BRANCH   9  14
ATOM     14  C   UNL     1      28.474   3.202  41.094  1.00  0.00     0.099 C 
ATOM     15  O   UNL     1      27.515   3.120  41.905  1.00  0.00    -0.544 OA
ATOM     16  O   UNL     1      29.014   2.042  40.552  1.00  0.00    -0.544 OA
ENDBRANCH   9  14
ENDBRANCH   8   9
ENDBRANCH   1   8
TORSDOF 7
ENDMDL
MODEL 4
REMARK VINA RESULT:    -2.722      2.509      4.410
REMARK INTER + INTRA:          -3.775
REMARK INTER:                  -3.494
REMARK INTRA:                  -0.281
REMARK UNBOUND:                -0.098
REMARK SMILES [NH3+]CCCC[C@@H]([NH3+])C(=O)[O-]
REMARK SMILES IDX 4 1 3 2 2 3 1 4 5 8 6 9 7 10 8 14 9 15 10 16
REMARK H PARENT 1 5 1 6 1 7 7 11 7 12 7 13
REMARK Flexibility Score: inf
ROOT
ATOM      1  C   UNL     1      28.968   3.300  38.106  1.00  0.00     0.012 C 
ENDROOT
BRANCH   1   2
ATOM      2  C   UNL     1      27.585   2.763  37.720  1.00  0.00     0.061 C 
BRANCH   2   3
ATOM      3  C   UNL     1      26.879   3.711  36.741  1.00  0.00     0.258 C 
BRANCH   3   4
ATOM      4  N   UNL     1      26.294   4.851  37.447  1.00  0.00    -0.358 N 
ATOM      5  H   UNL     1      26.629   4.848  38.437  1.00  0.00     0.344 HD
ATOM      6  H   UNL     1      25.250   4.779  37.442  1.00  0.00     0.344 HD
ATOM      7  H   UNL     1      26.588   5.746  36.991  1.00  0.00     0.344 HD
ENDBRANCH   3   4
ENDBRANCH   2   3
ENDBRANCH   1   2
BRANCH   1   8
ATOM      8  C   UNL     1      29.116   3.394  39.633  1.00  0.00     0.072 C 
BRANCH   8   9
ATOM      9  C   UNL     1      28.002   4.240  40.288  1.00  0.00     0.227 C 
BRANCH   9  10
ATOM     10  N   UNL     1      27.687   3.772  41.644  1.00  0.00    -0.350 N 
ATOM     11  H   UNL     1      27.845   4.531  42.346  1.00  0.00     0.345 HD
ATOM     12  H   UNL     1      28.280   2.946  41.886  1.00  0.00     0.345 HD
ATOM     13  H   UNL     1      26.687   3.466  41.692  1.00  0.00     0.345 HD
ENDBRANCH   9  10
BRANCH   9  14
ATOM     14  C   UNL     1      28.429   5.685  40.328  1.00  0.00     0.099 C 
ATOM     15  O   UNL     1      28.536   6.343  39.260  1.00  0.00    -0.544 OA
ATOM     16  O   UNL     1      28.726   6.293  41.541  1.00  0.00    -0.544 OA
ENDBRANCH   9  14
ENDBRANCH   8   9
ENDBRANCH   1   8
TORSDOF 7
ENDMDL
MODEL 5
REMARK VINA RESULT:    -2.084     17.715     18.918
REMARK INTER + INTRA:          -2.913
REMARK INTER:                  -3.033
REMARK INTRA:                   0.120
REMARK UNBOUND:                -0.098
REMARK SMILES [NH3+]CCCC[C@@H]([NH3+])C(=O)[O-]
REMARK SMILES IDX 4 1 3 2 2 3 1 4 5 8 6 9 7 10 8 14 9 15 10 16
REMARK H PARENT 1 5 1 6 1 7 7 11 7 12 7 13
REMARK Flexibility Score: inf
ROOT
ATOM      1  C   UNL     1      12.110  13.836  46.769  1.00  0.00     0.012 C 
ENDROOT
BRANCH   1   2
ATOM      2  C   UNL     1      12.645  12.563  46.102  1.00  0.00     0.061 C 
BRANCH   2   3
ATOM      3  C   UNL     1      13.902  12.051  46.817  1.00  0.00     0.258 C 
BRANCH   3   4
ATOM      4  N   UNL     1      13.761  10.641  47.178  1.00  0.00    -0.358 N 
ATOM      5  H   UNL     1      12.794  10.322  46.940  1.00  0.00     0.344 HD
ATOM      6  H   UNL     1      13.914  10.515  48.206  1.00  0.00     0.344 HD
ATOM      7  H   UNL     1      14.450  10.062  46.645  1.00  0.00     0.344 HD
ENDBRANCH   3   4
ENDBRANCH   2   3
ENDBRANCH   1   2
BRANCH   1   8
ATOM      8  C   UNL     1      12.610  15.091  46.038  1.00  0.00     0.072 C 
BRANCH   8   9
ATOM      9  C   UNL     1      13.721  15.830  46.817  1.00  0.00     0.227 C 
BRANCH   9  10
ATOM     10  N   UNL     1      13.814  15.365  48.207  1.00  0.00    -0.350 N 
ATOM     11  H   UNL     1      13.032  15.753  48.782  1.00  0.00     0.345 HD
ATOM     12  H   UNL     1      14.728  15.654  48.623  1.00  0.00     0.345 HD
ATOM     13  H   UNL     1      13.772  14.319  48.236  1.00  0.00     0.345 HD
ENDBRANCH   9  10
BRANCH   9  14
ATOM     14  C   UNL     1      15.040  15.631  46.116  1.00  0.00     0.099 C 
ATOM     15  O   UNL     1      15.749  16.624  45.806  1.00  0.00    -0.544 OA
ATOM     16  O   UNL     1      15.474  14.351  45.792  1.00  0.00    -0.544 OA
ENDBRANCH   9  14
ENDBRANCH   8   9
ENDBRANCH   1   8
TORSDOF 7
ENDMDL
MODEL 6
REMARK VINA RESULT:    -2.007      3.135      3.672
REMARK INTER + INTRA:          -2.809
REMARK INTER:                  -2.800
REMARK INTRA:                  -0.010
REMARK UNBOUND:                -0.098
REMARK SMILES [NH3+]CCCC[C@@H]([NH3+])C(=O)[O-]
REMARK SMILES IDX 4 1 3 2 2 3 1 4 5 8 6 9 7 10 8 14 9 15 10 16
REMARK H PARENT 1 5 1 6 1 7 7 11 7 12 7 13
REMARK Flexibility Score: inf
ROOT
ATOM      1  C   UNL     1      28.814   3.201  40.704  1.00  0.00     0.012 C 
ENDROOT
BRANCH   1   2
ATOM      2  C   UNL     1      27.926   3.401  41.938  1.00  0.00     0.061 C 
BRANCH   2   3
ATOM      3  C   UNL     1      27.217   2.095  42.324  1.00  0.00     0.258 C 
BRANCH   3   4
ATOM      4  N   UNL     1      26.451   2.262  43.559  1.00  0.00    -0.358 N 
ATOM      5  H   UNL     1      25.695   1.541  43.593  1.00  0.00     0.344 HD
ATOM      6  H   UNL     1      26.013   3.213  43.585  1.00  0.00     0.344 HD
ATOM      7  H   UNL     1      27.076   2.139  44.389  1.00  0.00     0.344 HD
ENDBRANCH   3   4
ENDBRANCH   2   3
ENDBRANCH   1   2
BRANCH   1   8
ATOM      8  C   UNL     1      28.025   2.551  39.557  1.00  0.00     0.072 C 
BRANCH   8   9
ATOM      9  C   UNL     1      28.244   3.265  38.205  1.00  0.00     0.227 C 
BRANCH   9  10
ATOM     10  N   UNL     1      27.618   2.534  37.095  1.00  0.00    -0.350 N 
ATOM     11  H   UNL     1      26.957   3.151  36.569  1.00  0.00     0.345 HD
ATOM     12  H   UNL     1      27.102   1.701  37.458  1.00  0.00     0.345 HD
ATOM     13  H   UNL     1      28.355   2.186  36.437  1.00  0.00     0.345 HD
ENDBRANCH   9  10
BRANCH   9  14
ATOM     14  C   UNL     1      27.687   4.663  38.280  1.00  0.00     0.099 C 
ATOM     15  O   UNL     1      26.515   4.899  37.887  1.00  0.00    -0.544 OA
ATOM     16  O   UNL     1      28.470   5.703  38.766  1.00  0.00    -0.544 OA
ENDBRANCH   9  14
ENDBRANCH   8   9
ENDBRANCH   1   8
TORSDOF 7
ENDMDL
MODEL 7
REMARK VINA RESULT:    -1.842     17.655     18.551
REMARK INTER + INTRA:          -2.586
REMARK INTER:                  -2.594
REMARK INTRA:                   0.008
REMARK UNBOUND:                -0.098
REMARK SMILES [NH3+]CCCC[C@@H]([NH3+])C(=O)[O-]
REMARK SMILES IDX 4 1 3 2 2 3 1 4 5 8 6 9 7 10 8 14 9 15 10 16
REMARK H PARENT 1 5 1 6 1 7 7 11 7 12 7 13
REMARK Flexibility Score: inf
ROOT
ATOM      1  C   UNL     1      13.230  15.743  46.939  1.00  0.00     0.012 C 
ENDROOT
BRANCH   1   2
ATOM      2  C   UNL     1      14.725  16.072  46.861  1.00  0.00     0.061 C 
BRANCH   2   3
ATOM      3  C   UNL     1      15.313  15.651  45.507  1.00  0.00     0.258 C 
BRANCH   3   4
ATOM      4  N   UNL     1      16.019  16.765  44.875  1.00  0.00    -0.358 N 
ATOM      5  H   UNL     1      16.206  17.503  45.591  1.00  0.00     0.344 HD
ATOM      6  H   UNL     1      15.432  17.176  44.112  1.00  0.00     0.344 HD
ATOM      7  H   UNL     1      16.931  16.436  44.481  1.00  0.00     0.344 HD
ENDBRANCH   3   4
ENDBRANCH   2   3
ENDBRANCH   1   2
BRANCH   1   8
ATOM      8  C   UNL     1      12.992  14.444  47.725  1.00  0.00     0.072 C 
BRANCH   8   9
ATOM      9  C   UNL     1      12.564  13.269  46.818  1.00  0.00     0.227 C 
BRANCH   9  10
ATOM     10  N   UNL     1      12.071  13.737  45.516  1.00  0.00    -0.350 N 
ATOM     11  H   UNL     1      12.824  14.241  44.992  1.00  0.00     0.345 HD
ATOM     12  H   UNL     1      11.254  14.375  45.648  1.00  0.00     0.345 HD
ATOM     13  H   UNL     1      11.746  12.923  44.944  1.00  0.00     0.345 HD
ENDBRANCH   9  10
BRANCH   9  14
ATOM     14  C   UNL     1      13.731  12.336  46.622  1.00  0.00     0.099 C 
ATOM     15  O   UNL     1      14.741  12.713  45.972  1.00  0.00    -0.544 OA
ATOM     16  O   UNL     1      13.693  11.048  47.142  1.00  0.00    -0.544 OA
ENDBRANCH   9  14
ENDBRANCH   8   9
ENDBRANCH   1   8
TORSDOF 7
ENDMDL
MODEL 8
REMARK VINA RESULT:    -1.746     18.409     19.449
REMARK INTER + INTRA:          -2.457
REMARK INTER:                  -2.787
REMARK INTRA:                   0.330
REMARK UNBOUND:                -0.098
REMARK SMILES [NH3+]CCCC[C@@H]([NH3+])C(=O)[O-]
REMARK SMILES IDX 4 1 3 2 2 3 1 4 5 8 6 9 7 10 8 14 9 15 10 16
REMARK H PARENT 1 5 1 6 1 7 7 11 7 12 7 13
REMARK Flexibility Score: inf
ROOT
ATOM      1  C   UNL     1      13.927  15.740  46.976  1.00  0.00     0.012 C 
ENDROOT
BRANCH   1   2
ATOM      2  C   UNL     1      15.045  15.124  46.126  1.00  0.00     0.061 C 
BRANCH   2   3
ATOM      3  C   UNL     1      16.173  16.135  45.880  1.00  0.00     0.258 C 
BRANCH   3   4
ATOM      4  N   UNL     1      15.974  16.844  44.616  1.00  0.00    -0.358 N 
ATOM      5  H   UNL     1      15.253  17.588  44.751  1.00  0.00     0.344 HD
ATOM      6  H   UNL     1      15.640  16.179  43.880  1.00  0.00     0.344 HD
ATOM      7  H   UNL     1      16.869  17.290  44.309  1.00  0.00     0.344 HD
ENDBRANCH   3   4
ENDBRANCH   2   3
ENDBRANCH   1   2
BRANCH   1   8
ATOM      8  C   UNL     1      12.774  16.238  46.091  1.00  0.00     0.072 C 
BRANCH   8   9
ATOM      9  C   UNL     1      11.613  15.223  46.000  1.00  0.00     0.227 C 
BRANCH   9  10
ATOM     10  N   UNL     1      11.419  14.738  44.628  1.00  0.00    -0.350 N 
ATOM     11  H   UNL     1      12.159  14.045  44.370  1.00  0.00     0.345 HD
ATOM     12  H   UNL     1      11.443  15.538  43.956  1.00  0.00     0.345 HD
ATOM     13  H   UNL     1      10.481  14.282  44.539  1.00  0.00     0.345 HD
ENDBRANCH   9  10
BRANCH   9  14
ATOM     14  C   UNL     1      11.887  14.064  46.923  1.00  0.00     0.099 C 
ATOM     15  O   UNL     1      11.621  14.154  48.150  1.00  0.00    -0.544 OA
ATOM     16  O   UNL     1      12.453  12.895  46.428  1.00  0.00    -0.544 OA
ENDBRANCH   9  14
ENDBRANCH   8   9
ENDBRANCH   1   8
TORSDOF 7
ENDMDL
MODEL 9
REMARK VINA RESULT:    -1.496      1.794      1.958
REMARK INTER + INTRA:          -2.120
REMARK INTER:                  -1.947
REMARK INTRA:                  -0.173
REMARK UNBOUND:                -0.098
REMARK SMILES [NH3+]CCCC[C@@H]([NH3+])C(=O)[O-]
REMARK SMILES IDX 4 1 3 2 2 3 1 4 5 8 6 9 7 10 8 14 9 15 10 16
REMARK H PARENT 1 5 1 6 1 7 7 11 7 12 7 13
REMARK Flexibility Score: inf
ROOT
ATOM      1  C   UNL     1      27.944   5.894  39.698  1.00  0.00     0.012 C 
ENDROOT
BRANCH   1   2
ATOM      2  C   UNL     1      29.125   6.680  40.279  1.00  0.00     0.061 C 
BRANCH   2   3
ATOM      3  C   UNL     1      29.125   6.624  41.813  1.00  0.00     0.258 C 
BRANCH   3   4
ATOM      4  N   UNL     1      28.241   7.646  42.373  1.00  0.00    -0.358 N 
ATOM      5  H   UNL     1      28.796   8.510  42.568  1.00  0.00     0.344 HD
ATOM      6  H   UNL     1      27.820   7.305  43.269  1.00  0.00     0.344 HD
ATOM      7  H   UNL     1      27.481   7.877  41.692  1.00  0.00     0.344 HD
ENDBRANCH   3   4
ENDBRANCH   2   3
ENDBRANCH   1   2
BRANCH   1   8
ATOM      8  C   UNL     1      27.849   4.497  40.331  1.00  0.00     0.072 C 
BRANCH   8   9
ATOM      9  C   UNL     1      28.775   3.468  39.646  1.00  0.00     0.227 C 
BRANCH   9  10
ATOM     10  N   UNL     1      28.723   2.160  40.311  1.00  0.00    -0.350 N 
ATOM     11  H   UNL     1      29.642   1.932  40.756  1.00  0.00     0.345 HD
ATOM     12  H   UNL     1      28.477   1.414  39.621  1.00  0.00     0.345 HD
ATOM     13  H   UNL     1      27.980   2.164  41.048  1.00  0.00     0.345 HD
ENDBRANCH   9  10
BRANCH   9  14
ATOM     14  C   UNL     1      28.383   3.327  38.198  1.00  0.00     0.099 C 
ATOM     15  O   UNL     1      27.390   2.623  37.877  1.00  0.00    -0.544 OA
ATOM     16  O   UNL     1      29.125   3.957  37.206  1.00  0.00    -0.544 OA
ENDBRANCH   9  14
ENDBRANCH   8   9
ENDBRANCH   1   8
TORSDOF 7
ENDMDL
