MODEL 1
REMARK VINA RESULT:    -4.773      0.000      0.000
REMARK INTER + INTRA:          -5.449
REMARK INTER:                  -5.471
REMARK INTRA:                   0.022
REMARK UNBOUND:                 0.022
REMARK SMILES CC(C)[C@@H]([NH3+])C(=O)[O-]
REMARK SMILES IDX 4 1 5 2 6 6 7 7 8 8 2 9 1 10 3 11
REMARK H PARENT 5 3 5 4 5 5
REMARK Flexibility Score: inf
ROOT
ATOM      1  C   UNL     1     160.866 160.104 161.583  1.00  0.00     0.230 C 
ENDROOT
BRANCH   1   2
ATOM      2  N   UNL     1     160.432 158.924 160.816  1.00  0.00    -0.350 N 
ATOM      3  H   UNL     1     160.146 159.202 159.851  1.00  0.00     0.345 HD
ATOM      4  H   UNL     1     159.600 158.495 161.282  1.00  0.00     0.345 HD
ATOM      5  H   UNL     1     161.189 158.205 160.762  1.00  0.00     0.345 HD
ENDBRANCH   1   2
BRANCH   1   6
ATOM      6  C   UNL     1     160.533 161.378 160.847  1.00  0.00     0.099 C 
ATOM      7  O   UNL     1     161.445 162.133 160.415  1.00  0.00    -0.544 OA
ATOM      8  O   UNL     1     159.205 161.702 160.598  1.00  0.00    -0.544 OA
ENDBRANCH   1   6
BRANCH   1   9
ATOM      9  C   UNL     1     160.293 160.133 163.033  1.00  0.00     0.047 C 
ATOM     10  C   UNL     1     160.426 161.525 163.671  1.00  0.00     0.014 C 
ATOM     11  C   UNL     1     160.900 159.066 163.958  1.00  0.00     0.014 C 
ENDBRANCH   1   9
TORSDOF 3
ENDMDL
MODEL 2
REMARK VINA RESULT:    -4.762      1.926      2.618
REMARK INTER + INTRA:          -5.436
REMARK INTER:                  -5.500
REMARK INTRA:                   0.064
REMARK UNBOUND:                 0.022
REMARK SMILES CC(C)[C@@H]([NH3+])C(=O)[O-]
REMARK SMILES IDX 4 1 5 2 6 6 7 7 8 8 2 9 1 10 3 11
REMARK H PARENT 5 3 5 4 5 5
REMARK Flexibility Score: inf
ROOT
ATOM      1  C   UNL     1     160.170 160.949 161.558  1.00  0.00     0.230 C 
ENDROOT
BRANCH   1   2
ATOM      2  N   UNL     1     160.649 162.099 160.774  1.00  0.00    -0.350 N 
ATOM      3  H   UNL     1     161.665 162.264 160.951  1.00  0.00     0.345 HD
ATOM      4  H   UNL     1     160.133 162.959 161.069  1.00  0.00     0.345 HD
ATOM      5  H   UNL     1     160.494 161.955 159.750  1.00  0.00     0.345 HD
ENDBRANCH   1   2
BRANCH   1   6
ATOM      6  C   UNL     1     160.477 159.650 160.854  1.00  0.00     0.099 C 
ATOM      7  O   UNL     1     159.549 158.909 160.430  1.00  0.00    -0.544 OA
ATOM      8  O   UNL     1     161.797 159.286 160.625  1.00  0.00    -0.544 OA
ENDBRANCH   1   6
BRANCH   1   9
ATOM      9  C   UNL     1     160.720 160.933 163.017  1.00  0.00     0.047 C 
ATOM     10  C   UNL     1     160.634 159.534 163.645  1.00  0.00     0.014 C 
ATOM     11  C   UNL     1     160.057 161.969 163.937  1.00  0.00     0.014 C 
ENDBRANCH   1   9
TORSDOF 3
ENDMDL
MODEL 3
REMARK VINA RESULT:    -4.582      2.971      4.484
REMARK INTER + INTRA:          -5.230
REMARK INTER:                  -5.295
REMARK INTRA:                   0.065
REMARK UNBOUND:                 0.022
REMARK SMILES CC(C)[C@@H]([NH3+])C(=O)[O-]
REMARK SMILES IDX 4 1 5 2 6 6 7 7 8 8 2 9 1 10 3 11
REMARK H PARENT 5 3 5 4 5 5
REMARK Flexibility Score: inf
ROOT
ATOM      1  C   UNL     1     160.864 160.921 159.453  1.00  0.00     0.230 C 
ENDROOT
BRANCH   1   2
ATOM      2  N   UNL     1     160.439 162.084 160.249  1.00  0.00    -0.350 N 
ATOM      3  H   UNL     1     160.345 162.928 159.641  1.00  0.00     0.345 HD
ATOM      4  H   UNL     1     161.165 162.294 160.972  1.00  0.00     0.345 HD
ATOM      5  H   UNL     1     159.531 161.903 160.735  1.00  0.00     0.345 HD
ENDBRANCH   1   2
BRANCH   1   6
ATOM      6  C   UNL     1     160.542 159.631 160.167  1.00  0.00     0.099 C 
ATOM      7  O   UNL     1     161.460 158.894 160.618  1.00  0.00    -0.544 OA
ATOM      8  O   UNL     1     159.216 159.272 160.374  1.00  0.00    -0.544 OA
ENDBRANCH   1   6
BRANCH   1   9
ATOM      9  C   UNL     1     160.274 160.920 158.010  1.00  0.00     0.047 C 
ATOM     10  C   UNL     1     160.349 159.528 157.363  1.00  0.00     0.014 C 
ATOM     11  C   UNL     1     160.907 161.970 157.083  1.00  0.00     0.014 C 
ENDBRANCH   1   9
TORSDOF 3
ENDMDL
MODEL 4
REMARK VINA RESULT:    -4.557      2.994      3.606
REMARK INTER + INTRA:          -5.201
REMARK INTER:                  -5.219
REMARK INTRA:                   0.017
REMARK UNBOUND:                 0.022
REMARK SMILES CC(C)[C@@H]([NH3+])C(=O)[O-]
REMARK SMILES IDX 4 1 5 2 6 6 7 7 8 8 2 9 1 10 3 11
REMARK H PARENT 5 3 5 4 5 5
REMARK Flexibility Score: inf
ROOT
ATOM      1  C   UNL     1     160.496 161.098 159.045  1.00  0.00     0.230 C 
ENDROOT
BRANCH   1   2
ATOM      2  N   UNL     1     161.477 162.002 159.668  1.00  0.00    -0.350 N 
ATOM      3  H   UNL     1     161.984 162.550 158.937  1.00  0.00     0.345 HD
ATOM      4  H   UNL     1     162.186 161.438 160.190  1.00  0.00     0.345 HD
ATOM      5  H   UNL     1     161.018 162.659 160.339  1.00  0.00     0.345 HD
ENDBRANCH   1   2
BRANCH   1   6
ATOM      6  C   UNL     1     160.709 161.016 157.553  1.00  0.00     0.099 C 
ATOM      7  O   UNL     1     161.227 161.975 156.920  1.00  0.00    -0.544 OA
ATOM      8  O   UNL     1     160.376 159.851 156.874  1.00  0.00    -0.544 OA
ENDBRANCH   1   6
BRANCH   1   9
ATOM      9  C   UNL     1     160.485 159.676 159.684  1.00  0.00     0.047 C 
ATOM     10  C   UNL     1     159.056 159.139 159.857  1.00  0.00     0.014 C 
ATOM     11  C   UNL     1     161.247 159.592 161.015  1.00  0.00     0.014 C 
ENDBRANCH   1   9
TORSDOF 3
ENDMDL
MODEL 5
REMARK VINA RESULT:    -4.557      2.851      3.679
REMARK INTER + INTRA:          -5.201
REMARK INTER:                  -5.205
REMARK INTRA:                   0.004
REMARK UNBOUND:                 0.022
REMARK SMILES CC(C)[C@@H]([NH3+])C(=O)[O-]
REMARK SMILES IDX 4 1 5 2 6 6 7 7 8 8 2 9 1 10 3 11
REMARK H PARENT 5 3 5 4 5 5
REMARK Flexibility Score: inf
ROOT
ATOM      1  C   UNL     1     160.553 159.860 159.022  1.00  0.00     0.230 C 
ENDROOT
BRANCH   1   2
ATOM      2  N   UNL     1     159.601 158.940 159.666  1.00  0.00    -0.350 N 
ATOM      3  H   UNL     1     159.737 157.967 159.310  1.00  0.00     0.345 HD
ATOM      4  H   UNL     1     158.624 159.230 159.429  1.00  0.00     0.345 HD
ATOM      5  H   UNL     1     159.706 158.948 160.706  1.00  0.00     0.345 HD
ENDBRANCH   1   2
BRANCH   1   6
ATOM      6  C   UNL     1     160.304 159.942 157.536  1.00  0.00     0.099 C 
ATOM      7  O   UNL     1     159.796 158.973 156.910  1.00  0.00    -0.544 OA
ATOM      8  O   UNL     1     160.591 161.118 156.855  1.00  0.00    -0.544 OA
ENDBRANCH   1   6
BRANCH   1   9
ATOM      9  C   UNL     1     160.559 161.280 159.665  1.00  0.00     0.047 C 
ATOM     10  C   UNL     1     161.986 161.824 159.836  1.00  0.00     0.014 C 
ATOM     11  C   UNL     1     159.799 161.358 160.998  1.00  0.00     0.014 C 
ENDBRANCH   1   9
TORSDOF 3
ENDMDL
MODEL 6
REMARK VINA RESULT:    -4.543      2.463      3.306
REMARK INTER + INTRA:          -5.186
REMARK INTER:                  -5.192
REMARK INTRA:                   0.007
REMARK UNBOUND:                 0.022
REMARK SMILES CC(C)[C@@H]([NH3+])C(=O)[O-]
REMARK SMILES IDX 4 1 5 2 6 6 7 7 8 8 2 9 1 10 3 11
REMARK H PARENT 5 3 5 4 5 5
REMARK Flexibility Score: inf
ROOT
ATOM      1  C   UNL     1     160.533 161.022 161.932  1.00  0.00     0.230 C 
ENDROOT
BRANCH   1   2
ATOM      2  N   UNL     1     159.557 161.908 161.276  1.00  0.00    -0.350 N 
ATOM      3  H   UNL     1     159.850 162.906 161.370  1.00  0.00     0.345 HD
ATOM      4  H   UNL     1     158.627 161.807 161.743  1.00  0.00     0.345 HD
ATOM      5  H   UNL     1     159.446 161.672 160.263  1.00  0.00     0.345 HD
ENDBRANCH   1   2
BRANCH   1   6
ATOM      6  C   UNL     1     160.286 160.954 163.419  1.00  0.00     0.099 C 
ATOM      7  O   UNL     1     159.699 161.893 164.021  1.00  0.00    -0.544 OA
ATOM      8  O   UNL     1     160.664 159.821 164.127  1.00  0.00    -0.544 OA
ENDBRANCH   1   6
BRANCH   1   9
ATOM      9  C   UNL     1     160.575 159.593 161.309  1.00  0.00     0.047 C 
ATOM     10  C   UNL     1     162.015 159.087 161.137  1.00  0.00     0.014 C 
ATOM     11  C   UNL     1     159.810 159.476 159.981  1.00  0.00     0.014 C 
ENDBRANCH   1   9
TORSDOF 3
ENDMDL
MODEL 7
REMARK VINA RESULT:    -4.503      2.448      3.446
REMARK INTER + INTRA:          -5.140
REMARK INTER:                  -5.123
REMARK INTRA:                  -0.017
REMARK UNBOUND:                 0.022
REMARK SMILES CC(C)[C@@H]([NH3+])C(=O)[O-]
REMARK SMILES IDX 4 1 5 2 6 6 7 7 8 8 2 9 1 10 3 11
REMARK H PARENT 5 3 5 4 5 5
REMARK Flexibility Score: inf
ROOT
ATOM      1  C   UNL     1     160.813 159.309 161.923  1.00  0.00     0.230 C 
ENDROOT
BRANCH   1   2
ATOM      2  N   UNL     1     162.219 159.014 161.598  1.00  0.00    -0.350 N 
ATOM      3  H   UNL     1     162.346 158.940 160.564  1.00  0.00     0.345 HD
ATOM      4  H   UNL     1     162.485 158.093 162.016  1.00  0.00     0.345 HD
ATOM      5  H   UNL     1     162.860 159.748 161.977  1.00  0.00     0.345 HD
ENDBRANCH   1   2
BRANCH   1   6
ATOM      6  C   UNL     1     160.676 159.781 163.349  1.00  0.00     0.099 C 
ATOM      7  O   UNL     1     160.071 160.853 163.621  1.00  0.00    -0.544 OA
ATOM      8  O   UNL     1     161.179 159.001 164.383  1.00  0.00    -0.544 OA
ENDBRANCH   1   6
BRANCH   1   9
ATOM      9  C   UNL     1     160.159 160.324 160.936  1.00  0.00     0.047 C 
ATOM     10  C   UNL     1     159.493 159.616 159.746  1.00  0.00     0.014 C 
ATOM     11  C   UNL     1     161.125 161.408 160.435  1.00  0.00     0.014 C 
ENDBRANCH   1   9
TORSDOF 3
ENDMDL
MODEL 8
REMARK VINA RESULT:    -4.377      2.495      3.149
REMARK INTER + INTRA:          -4.995
REMARK INTER:                  -5.182
REMARK INTRA:                   0.187
REMARK UNBOUND:                 0.022
REMARK SMILES CC(C)[C@@H]([NH3+])C(=O)[O-]
REMARK SMILES IDX 4 1 5 2 6 6 7 7 8 8 2 9 1 10 3 11
REMARK H PARENT 5 3 5 4 5 5
REMARK Flexibility Score: inf
ROOT
ATOM      1  C   UNL     1     160.255 159.456 159.334  1.00  0.00     0.230 C 
ENDROOT
BRANCH   1   2
ATOM      2  N   UNL     1     158.885 158.935 159.471  1.00  0.00    -0.350 N 
ATOM      3  H   UNL     1     158.593 158.935 160.474  1.00  0.00     0.345 HD
ATOM      4  H   UNL     1     158.855 157.945 159.133  1.00  0.00     0.345 HD
ATOM      5  H   UNL     1     158.204 159.497 158.910  1.00  0.00     0.345 HD
ENDBRANCH   1   2
BRANCH   1   6
ATOM      6  C   UNL     1     160.444 160.132 157.998  1.00  0.00     0.099 C 
ATOM      7  O   UNL     1     160.795 161.341 157.929  1.00  0.00    -0.544 OA
ATOM      8  O   UNL     1     160.278 159.402 156.828  1.00  0.00    -0.544 OA
ENDBRANCH   1   6
BRANCH   1   9
ATOM      9  C   UNL     1     160.666 160.405 160.501  1.00  0.00     0.047 C 
ATOM     10  C   UNL     1     160.985 159.626 161.786  1.00  0.00     0.014 C 
ATOM     11  C   UNL     1     159.636 161.508 160.791  1.00  0.00     0.014 C 
ENDBRANCH   1   9
TORSDOF 3
ENDMDL
MODEL 9
REMARK VINA RESULT:    -4.263      2.468      3.348
REMARK INTER + INTRA:          -4.864
REMARK INTER:                  -4.985
REMARK INTRA:                   0.121
REMARK UNBOUND:                 0.022
REMARK SMILES CC(C)[C@@H]([NH3+])C(=O)[O-]
REMARK SMILES IDX 4 1 5 2 6 6 7 7 8 8 2 9 1 10 3 11
REMARK H PARENT 5 3 5 4 5 5
REMARK Flexibility Score: inf
ROOT
ATOM      1  C   UNL     1     160.285 161.449 161.807  1.00  0.00     0.230 C 
ENDROOT
BRANCH   1   2
ATOM      2  N   UNL     1     158.894 161.869 161.570  1.00  0.00    -0.350 N 
ATOM      3  H   UNL     1     158.743 162.076 160.558  1.00  0.00     0.345 HD
ATOM      4  H   UNL     1     158.701 162.747 162.105  1.00  0.00     0.345 HD
ATOM      5  H   UNL     1     158.215 161.137 161.881  1.00  0.00     0.345 HD
ENDBRANCH   1   2
BRANCH   1   6
ATOM      6  C   UNL     1     160.427 160.792 163.158  1.00  0.00     0.099 C 
ATOM      7  O   UNL     1     160.681 159.561 163.256  1.00  0.00    -0.544 OA
ATOM      8  O   UNL     1     160.327 161.561 164.311  1.00  0.00    -0.544 OA
ENDBRANCH   1   6
BRANCH   1   9
ATOM      9  C   UNL     1     160.845 160.529 160.680  1.00  0.00     0.047 C 
ATOM     10  C   UNL     1     161.375 161.342 159.490  1.00  0.00     0.014 C 
ATOM     11  C   UNL     1     159.844 159.469 160.194  1.00  0.00     0.014 C 
ENDBRANCH   1   9
TORSDOF 3
ENDMDL
