MODEL 1
REMARK VINA RESULT:    -1.978      0.000      0.000
REMARK INTER + INTRA:          -1.978
REMARK INTER:                  -1.978
REMARK INTRA:                   0.000
REMARK UNBOUND:                 0.000
REMARK SMILES CC(=O)[O-]
REMARK SMILES IDX 1 1 2 2 3 3 4 4
REMARK H PARENT
REMARK Flexibility Score: inf
ROOT
ATOM      1  C   UNL     1     -17.514  -9.765 -31.435  1.00  0.00     0.063 C 
ATOM      2  C   UNL     1     -16.880 -10.488 -30.294  1.00  0.00     0.038 C 
ATOM      3  O   UNL     1     -15.738 -10.149 -29.888  1.00  0.00    -0.550 OA
ATOM      4  O   UNL     1     -17.571 -11.502 -29.644  1.00  0.00    -0.550 OA
ENDROOT
TORSDOF 0
ENDMDL
MODEL 2
REMARK VINA RESULT:    -1.838     11.820     12.257
REMARK INTER + INTRA:          -1.838
REMARK INTER:                  -1.838
REMARK INTRA:                   0.000
REMARK UNBOUND:                 0.000
REMARK SMILES CC(=O)[O-]
REMARK SMILES IDX 1 1 2 2 3 3 4 4
REMARK H PARENT
REMARK Flexibility Score: inf
ROOT
ATOM      1  C   UNL     1     -17.679   1.824 -33.803  1.00  0.00     0.063 C 
ATOM      2  C   UNL     1     -17.618   1.513 -32.346  1.00  0.00     0.038 C 
ATOM      3  O   UNL     1     -18.568   1.843 -31.588  1.00  0.00    -0.550 OA
ATOM      4  O   UNL     1     -16.535   0.812 -31.830  1.00  0.00    -0.550 OA
ENDROOT
TORSDOF 0
ENDMDL
MODEL 3
REMARK VINA RESULT:    -1.836     23.193     23.425
REMARK INTER + INTRA:          -1.836
REMARK INTER:                  -1.836
REMARK INTRA:                   0.000
REMARK UNBOUND:                 0.000
REMARK SMILES CC(=O)[O-]
REMARK SMILES IDX 1 1 2 2 3 3 4 4
REMARK H PARENT
REMARK Flexibility Score: inf
ROOT
ATOM      1  C   UNL     1      -9.040   6.991 -16.550  1.00  0.00     0.063 C 
ATOM      2  C   UNL     1     -10.364   6.717 -15.921  1.00  0.00     0.038 C 
ATOM      3  O   UNL     1     -11.426   7.003 -16.534  1.00  0.00    -0.550 OA
ATOM      4  O   UNL     1     -10.430   6.097 -14.679  1.00  0.00    -0.550 OA
ENDROOT
TORSDOF 0
ENDMDL
MODEL 4
REMARK VINA RESULT:    -1.722      1.292      1.744
REMARK INTER + INTRA:          -1.722
REMARK INTER:                  -1.722
REMARK INTRA:                   0.000
REMARK UNBOUND:                 0.000
REMARK SMILES CC(=O)[O-]
REMARK SMILES IDX 1 1 2 2 3 3 4 4
REMARK H PARENT
REMARK Flexibility Score: inf
ROOT
ATOM      1  C   UNL     1     -15.240 -10.464 -29.681  1.00  0.00     0.063 C 
ATOM      2  C   UNL     1     -16.659 -10.634 -30.107  1.00  0.00     0.038 C 
ATOM      3  O   UNL     1     -17.146  -9.888 -30.995  1.00  0.00    -0.550 OA
ATOM      4  O   UNL     1     -17.431 -11.653 -29.563  1.00  0.00    -0.550 OA
ENDROOT
TORSDOF 0
ENDMDL
MODEL 5
REMARK VINA RESULT:    -1.702     23.185     23.457
REMARK INTER + INTRA:          -1.702
REMARK INTER:                  -1.702
REMARK INTRA:                   0.000
REMARK UNBOUND:                 0.000
REMARK SMILES CC(=O)[O-]
REMARK SMILES IDX 1 1 2 2 3 3 4 4
REMARK H PARENT
REMARK Flexibility Score: inf
ROOT
ATOM      1  C   UNL     1     -10.554   6.355 -14.479  1.00  0.00     0.063 C 
ATOM      2  C   UNL     1     -10.489   6.705 -15.927  1.00  0.00     0.038 C 
ATOM      3  O   UNL     1     -11.527   7.075 -16.535  1.00  0.00    -0.550 OA
ATOM      4  O   UNL     1      -9.272   6.676 -16.596  1.00  0.00    -0.550 OA
ENDROOT
TORSDOF 0
ENDMDL
MODEL 6
REMARK VINA RESULT:    -1.539     11.934     12.365
REMARK INTER + INTRA:          -1.539
REMARK INTER:                  -1.539
REMARK INTRA:                   0.000
REMARK UNBOUND:                 0.000
REMARK SMILES CC(=O)[O-]
REMARK SMILES IDX 1 1 2 2 3 3 4 4
REMARK H PARENT
REMARK Flexibility Score: inf
ROOT
ATOM      1  C   UNL     1     -18.543   1.774 -31.535  1.00  0.00     0.063 C 
ATOM      2  C   UNL     1     -17.492   1.533 -32.565  1.00  0.00     0.038 C 
ATOM      3  O   UNL     1     -16.441   0.911 -32.262  1.00  0.00    -0.550 OA
ATOM      4  O   UNL     1     -17.694   1.949 -33.876  1.00  0.00    -0.550 OA
ENDROOT
TORSDOF 0
ENDMDL
MODEL 7
REMARK VINA RESULT:    -1.464     17.649     17.825
REMARK INTER + INTRA:          -1.464
REMARK INTER:                  -1.464
REMARK INTRA:                   0.000
REMARK UNBOUND:                 0.000
REMARK SMILES CC(=O)[O-]
REMARK SMILES IDX 1 1 2 2 3 3 4 4
REMARK H PARENT
REMARK Flexibility Score: inf
ROOT
ATOM      1  C   UNL     1     -20.101  -0.531 -16.505  1.00  0.00     0.063 C 
ATOM      2  C   UNL     1     -19.840  -1.406 -15.325  1.00  0.00     0.038 C 
ATOM      3  O   UNL     1     -20.124  -2.631 -15.372  1.00  0.00    -0.550 OA
ATOM      4  O   UNL     1     -19.233  -0.881 -14.191  1.00  0.00    -0.550 OA
ENDROOT
TORSDOF 0
ENDMDL
MODEL 8
REMARK VINA RESULT:    -1.400     17.757     17.921
REMARK INTER + INTRA:          -1.400
REMARK INTER:                  -1.400
REMARK INTRA:                   0.000
REMARK UNBOUND:                 0.000
REMARK SMILES CC(=O)[O-]
REMARK SMILES IDX 1 1 2 2 3 3 4 4
REMARK H PARENT
REMARK Flexibility Score: inf
ROOT
ATOM      1  C   UNL     1     -19.349   0.168 -14.591  1.00  0.00     0.063 C 
ATOM      2  C   UNL     1     -19.805  -0.759 -15.667  1.00  0.00     0.038 C 
ATOM      3  O   UNL     1     -19.874  -0.360 -16.858  1.00  0.00    -0.550 OA
ATOM      4  O   UNL     1     -20.103  -2.082 -15.364  1.00  0.00    -0.550 OA
ENDROOT
TORSDOF 0
ENDMDL
MODEL 9
REMARK VINA RESULT:    -1.381     17.792     18.008
REMARK INTER + INTRA:          -1.381
REMARK INTER:                  -1.381
REMARK INTRA:                   0.000
REMARK UNBOUND:                 0.000
REMARK SMILES CC(=O)[O-]
REMARK SMILES IDX 1 1 2 2 3 3 4 4
REMARK H PARENT
REMARK Flexibility Score: inf
ROOT
ATOM      1  C   UNL     1     -20.125  -2.001 -15.163  1.00  0.00     0.063 C 
ATOM      2  C   UNL     1     -19.801  -0.612 -15.599  1.00  0.00     0.038 C 
ATOM      3  O   UNL     1     -19.450   0.250 -14.752  1.00  0.00    -0.550 OA
ATOM      4  O   UNL     1     -19.835  -0.281 -16.947  1.00  0.00    -0.550 OA
ENDROOT
TORSDOF 0
ENDMDL
