MODEL 1
REMARK VINA RESULT:    -3.307      0.000      0.000
REMARK INTER + INTRA:          -3.737
REMARK INTER:                  -5.047
REMARK INTRA:                   1.310
REMARK UNBOUND:                 1.310
REMARK SMILES CC1=CCC[C@@H](C)C(=O)C[C@@H](C(C)C)C(=O)C1
REMARK SMILES IDX 8 1 9 2 6 3 7 4 5 5 4 6 3 7 2 8 1 9 10 11 11 12 15 13 16 14
REMARK SMILES IDX 17 15 12 17 13 18 14 19
REMARK H PARENT
REMARK Flexibility Score: 70.00
ROOT
ATOM      1  C   UNL     1     104.350  50.418  53.939  1.00  0.00     0.136 C 
ATOM      2  O   UNL     1     105.481  50.875  54.018  1.00  0.00    -0.299 OA
ENDROOT
BRANCH   1   3
ATOM      3  C   UNL     1     103.195  51.271  54.445  1.00  0.00     0.053 C 
ATOM      4  C   UNL     1     103.379  52.724  53.960  1.00  0.00     0.016 C 
BRANCH   3   5
ATOM      5  C   UNL     1     102.996  51.238  55.983  1.00  0.00     0.015 C 
BRANCH   5   6
ATOM      6  C   UNL     1     102.236  49.984  56.490  1.00  0.00     0.028 C 
BRANCH   6   7
ATOM      7  C   UNL     1     102.776  49.553  57.834  1.00  0.00    -0.028 C 
ATOM      8  C   UNL     1     103.438  48.397  58.084  1.00  0.00    -0.070 CG0
ATOM      9  C   UNL     1     103.880  48.137  59.502  1.00  0.00     0.039 C 
ATOM     10  G   UNL     1     103.609  47.302  57.044  1.00  0.00     0.000 G0
ENDBRANCH   6   7
ENDBRANCH   5   6
ENDBRANCH   3   5
ENDBRANCH   1   3
BRANCH   1  11
ATOM     11  C   UNL     1     104.176  48.991  53.457  1.00  0.00     0.087 C 
BRANCH  11  12
ATOM     12  C   UNL     1     103.370  48.108  54.460  1.00  0.00     0.066 C 
BRANCH  12  13
ATOM     13  C   UNL     1     104.189  47.754  55.712  1.00  0.00     0.140 C 
ATOM     14  O   UNL     1     105.405  47.886  55.653  1.00  0.00    -0.299 OA
BRANCH  13  15
ATOM     15  C   UNL     1     103.603  47.313  57.049  1.00  0.00     0.106 CG0
ATOM     16  G   UNL     1     103.439  48.398  58.100  1.00  0.00     0.000 G0
ENDBRANCH  13  15
ENDBRANCH  12  13
BRANCH  12  17
ATOM     17  C   UNL     1     102.666  46.837  53.855  1.00  0.00    -0.006 C 
ATOM     18  C   UNL     1     101.711  46.210  54.893  1.00  0.00     0.008 C 
ATOM     19  C   UNL     1     101.905  47.084  52.532  1.00  0.00     0.008 C 
ENDBRANCH  12  17
ENDBRANCH  11  12
ENDBRANCH   1  11
TORSDOF 1
ENDMDL
MODEL 2
REMARK VINA RESULT:    -2.920      8.048     10.468
REMARK INTER + INTRA:          -3.147
REMARK INTER:                  -3.458
REMARK INTRA:                   0.311
REMARK UNBOUND:                 1.310
REMARK SMILES CC1=CCC[C@@H](C)C(=O)C[C@@H](C(C)C)C(=O)C1
REMARK SMILES IDX 8 1 9 2 6 3 7 4 5 5 4 6 3 7 2 8 1 9 10 11 11 12 15 13 16 14
REMARK SMILES IDX 17 15 12 17 13 18 14 19
REMARK H PARENT
REMARK Flexibility Score: 70.00
ROOT
ATOM      1  C   UNL     1     109.253  49.067  62.630  1.00  0.00     0.136 C 
ATOM      2  O   UNL     1     110.394  48.891  63.032  1.00  0.00    -0.299 OA
ENDROOT
BRANCH   1   3
ATOM      3  C   UNL     1     108.640  48.003  61.730  1.00  0.00     0.053 C 
ATOM      4  C   UNL     1     107.125  48.264  61.586  1.00  0.00     0.016 C 
BRANCH   3   5
ATOM      5  C   UNL     1     108.893  46.545  62.192  1.00  0.00     0.015 C 
BRANCH   5   6
ATOM      6  C   UNL     1     107.909  46.054  63.288  1.00  0.00     0.028 C 
BRANCH   6   7
ATOM      7  C   UNL     1     108.384  46.497  64.652  1.00  0.00    -0.028 C 
ATOM      8  C   UNL     1     107.835  47.487  65.395  1.00  0.00    -0.070 CG0
ATOM      9  C   UNL     1     108.470  47.796  66.728  1.00  0.00     0.039 C 
ATOM     10  G   UNL     1     106.725  48.388  64.880  1.00  0.00     0.000 G0
ENDBRANCH   6   7
ENDBRANCH   5   6
ENDBRANCH   3   5
ENDBRANCH   1   3
BRANCH   1  11
ATOM     11  C   UNL     1     108.564  50.379  62.950  1.00  0.00     0.087 C 
BRANCH  11  12
ATOM     12  C   UNL     1     108.298  50.565  64.476  1.00  0.00     0.066 C 
BRANCH  12  13
ATOM     13  C   UNL     1     106.991  49.892  64.925  1.00  0.00     0.140 C 
ATOM     14  O   UNL     1     106.072  50.615  65.287  1.00  0.00    -0.299 OA
BRANCH  13  15
ATOM     15  C   UNL     1     106.721  48.391  64.894  1.00  0.00     0.106 CG0
ATOM     16  G   UNL     1     107.840  47.496  65.401  1.00  0.00     0.000 G0
ENDBRANCH  13  15
ENDBRANCH  12  13
BRANCH  12  17
ATOM     17  C   UNL     1     108.404  52.037  65.025  1.00  0.00    -0.006 C 
ATOM     18  C   UNL     1     109.869  52.375  65.371  1.00  0.00     0.008 C 
ATOM     19  C   UNL     1     107.828  53.122  64.086  1.00  0.00     0.008 C 
ENDBRANCH  12  17
ENDBRANCH  11  12
ENDBRANCH   1  11
TORSDOF 1
ENDMDL
MODEL 3
REMARK VINA RESULT:    -2.897      1.883      4.013
REMARK INTER + INTRA:          -3.111
REMARK INTER:                  -4.934
REMARK INTRA:                   1.823
REMARK UNBOUND:                 1.310
REMARK SMILES CC1=CCC[C@@H](C)C(=O)C[C@@H](C(C)C)C(=O)C1
REMARK SMILES IDX 8 1 9 2 6 3 7 4 5 5 4 6 3 7 2 8 1 9 10 11 11 12 15 13 16 14
REMARK SMILES IDX 17 15 12 17 13 18 14 19
REMARK H PARENT
REMARK Flexibility Score: 70.00
ROOT
ATOM      1  C   UNL     1     103.449  47.627  56.748  1.00  0.00     0.136 C 
ATOM      2  O   UNL     1     102.360  47.071  56.725  1.00  0.00    -0.299 OA
ENDROOT
BRANCH   1   3
ATOM      3  C   UNL     1     103.656  48.758  57.745  1.00  0.00     0.053 C 
ATOM      4  C   UNL     1     103.529  48.207  59.181  1.00  0.00     0.016 C 
BRANCH   3   5
ATOM      5  C   UNL     1     102.708  49.970  57.548  1.00  0.00     0.015 C 
BRANCH   5   6
ATOM      6  C   UNL     1     102.259  50.183  56.078  1.00  0.00     0.028 C 
BRANCH   6   7
ATOM      7  C   UNL     1     102.809  51.487  55.548  1.00  0.00    -0.028 C 
ATOM      8  C   UNL     1     103.500  51.640  54.392  1.00  0.00    -0.070 CG0
ATOM      9  C   UNL     1     103.986  53.024  54.046  1.00  0.00     0.039 C 
ATOM     10  G   UNL     1     103.932  50.467  53.527  1.00  0.00     0.000 G0
ENDBRANCH   6   7
ENDBRANCH   5   6
ENDBRANCH   3   5
ENDBRANCH   1   3
BRANCH   1  11
ATOM     11  C   UNL     1     104.482  47.240  55.708  1.00  0.00     0.087 C 
BRANCH  11  12
ATOM     12  C   UNL     1     104.201  47.876  54.311  1.00  0.00     0.066 C 
BRANCH  12  13
ATOM     13  C   UNL     1     104.685  49.333  54.227  1.00  0.00     0.140 C 
ATOM     14  O   UNL     1     105.779  49.599  54.708  1.00  0.00    -0.299 OA
BRANCH  13  15
ATOM     15  C   UNL     1     103.939  50.467  53.532  1.00  0.00     0.106 CG0
ATOM     16  G   UNL     1     103.513  51.630  54.413  1.00  0.00     0.000 G0
ENDBRANCH  13  15
ENDBRANCH  12  13
BRANCH  12  17
ATOM     17  C   UNL     1     102.734  47.725  53.761  1.00  0.00    -0.006 C 
ATOM     18  C   UNL     1     102.707  47.958  52.237  1.00  0.00     0.008 C 
ATOM     19  C   UNL     1     102.053  46.378  54.093  1.00  0.00     0.008 C 
ENDBRANCH  12  17
ENDBRANCH  11  12
ENDBRANCH   1  11
TORSDOF 1
ENDMDL
MODEL 4
REMARK VINA RESULT:    -2.544      1.533      3.972
REMARK INTER + INTRA:          -2.573
REMARK INTER:                  -3.265
REMARK INTRA:                   0.692
REMARK UNBOUND:                 1.310
REMARK SMILES CC1=CCC[C@@H](C)C(=O)C[C@@H](C(C)C)C(=O)C1
REMARK SMILES IDX 8 1 9 2 6 3 7 4 5 5 4 6 3 7 2 8 1 9 10 11 11 12 15 13 16 14
REMARK SMILES IDX 17 15 12 17 13 18 14 19
REMARK H PARENT
REMARK Flexibility Score: 70.00
ROOT
ATOM      1  C   UNL     1     103.710  50.546  54.630  1.00  0.00     0.136 C 
ATOM      2  O   UNL     1     103.503  51.585  54.019  1.00  0.00    -0.299 OA
ENDROOT
BRANCH   1   3
ATOM      3  C   UNL     1     104.847  49.651  54.158  1.00  0.00     0.053 C 
ATOM      4  C   UNL     1     105.994  50.525  53.608  1.00  0.00     0.016 C 
BRANCH   3   5
ATOM      5  C   UNL     1     104.434  48.585  53.110  1.00  0.00     0.015 C 
BRANCH   5   6
ATOM      6  C   UNL     1     102.899  48.399  52.977  1.00  0.00     0.028 C 
BRANCH   6   7
ATOM      7  C   UNL     1     102.526  46.954  53.208  1.00  0.00    -0.028 C 
ATOM      8  C   UNL     1     101.953  46.457  54.331  1.00  0.00    -0.070 CG0
ATOM      9  C   UNL     1     101.677  44.975  54.378  1.00  0.00     0.039 C 
ATOM     10  G   UNL     1     101.728  47.290  55.581  1.00  0.00     0.000 G0
ENDBRANCH   6   7
ENDBRANCH   5   6
ENDBRANCH   3   5
ENDBRANCH   1   3
BRANCH   1  11
ATOM     11  C   UNL     1     102.754  50.154  55.739  1.00  0.00     0.087 C 
BRANCH  11  12
ATOM     12  C   UNL     1     103.367  49.112  56.725  1.00  0.00     0.066 C 
BRANCH  12  13
ATOM     13  C   UNL     1     102.965  47.670  56.372  1.00  0.00     0.140 C 
ATOM     14  O   UNL     1     103.668  46.762  56.796  1.00  0.00    -0.299 OA
BRANCH  13  15
ATOM     15  C   UNL     1     101.718  47.274  55.588  1.00  0.00     0.106 CG0
ATOM     16  G   UNL     1     101.949  46.456  54.328  1.00  0.00     0.000 G0
ENDBRANCH  13  15
ENDBRANCH  12  13
BRANCH  12  17
ATOM     17  C   UNL     1     103.168  49.404  58.259  1.00  0.00    -0.006 C 
ATOM     18  C   UNL     1     101.756  49.969  58.517  1.00  0.00     0.008 C 
ATOM     19  C   UNL     1     103.421  48.195  59.188  1.00  0.00     0.008 C 
ENDBRANCH  12  17
ENDBRANCH  11  12
ENDBRANCH   1  11
TORSDOF 1
ENDMDL
MODEL 5
REMARK VINA RESULT:    -2.544      7.131     10.673
REMARK INTER + INTRA:          -2.572
REMARK INTER:                  -3.158
REMARK INTRA:                   0.586
REMARK UNBOUND:                 1.310
REMARK SMILES CC1=CCC[C@@H](C)C(=O)C[C@@H](C(C)C)C(=O)C1
REMARK SMILES IDX 8 1 9 2 6 3 7 4 5 5 4 6 3 7 2 8 1 9 10 11 11 12 15 13 16 14
REMARK SMILES IDX 17 15 12 17 13 18 14 19
REMARK H PARENT
REMARK Flexibility Score: 70.00
ROOT
ATOM      1  C   UNL     1     107.374  47.864  65.337  1.00  0.00     0.136 C 
ATOM      2  O   UNL     1     106.192  47.893  65.027  1.00  0.00    -0.299 OA
ENDROOT
BRANCH   1   3
ATOM      3  C   UNL     1     107.995  46.515  65.669  1.00  0.00     0.053 C 
ATOM      4  C   UNL     1     109.232  46.726  66.568  1.00  0.00     0.016 C 
BRANCH   3   5
ATOM      5  C   UNL     1     108.370  45.657  64.432  1.00  0.00     0.015 C 
BRANCH   5   6
ATOM      6  C   UNL     1     109.009  46.471  63.275  1.00  0.00     0.028 C 
BRANCH   6   7
ATOM      7  C   UNL     1     107.981  46.756  62.206  1.00  0.00    -0.028 C 
ATOM      8  C   UNL     1     107.904  47.889  61.467  1.00  0.00    -0.070 CG0
ATOM      9  C   UNL     1     106.786  47.993  60.460  1.00  0.00     0.039 C 
ATOM     10  G   UNL     1     108.787  49.100  61.718  1.00  0.00     0.000 G0
ENDBRANCH   6   7
ENDBRANCH   5   6
ENDBRANCH   3   5
ENDBRANCH   1   3
BRANCH   1  11
ATOM     11  C   UNL     1     108.117  49.177  65.489  1.00  0.00     0.087 C 
BRANCH  11  12
ATOM     12  C   UNL     1     108.126  50.021  64.176  1.00  0.00     0.066 C 
BRANCH  12  13
ATOM     13  C   UNL     1     109.117  49.470  63.138  1.00  0.00     0.140 C 
ATOM     14  O   UNL     1     110.260  49.236  63.509  1.00  0.00    -0.299 OA
BRANCH  13  15
ATOM     15  C   UNL     1     108.773  49.127  61.692  1.00  0.00     0.106 CG0
ATOM     16  G   UNL     1     107.919  47.889  61.480  1.00  0.00     0.000 G0
ENDBRANCH  13  15
ENDBRANCH  12  13
BRANCH  12  17
ATOM     17  C   UNL     1     108.284  51.577  64.352  1.00  0.00    -0.006 C 
ATOM     18  C   UNL     1     106.974  52.192  64.887  1.00  0.00     0.008 C 
ATOM     19  C   UNL     1     109.466  52.012  65.250  1.00  0.00     0.008 C 
ENDBRANCH  12  17
ENDBRANCH  11  12
ENDBRANCH   1  11
TORSDOF 1
ENDMDL
MODEL 6
REMARK VINA RESULT:    -2.425      2.029      4.675
REMARK INTER + INTRA:          -2.391
REMARK INTER:                  -3.878
REMARK INTRA:                   1.487
REMARK UNBOUND:                 1.310
REMARK SMILES CC1=CCC[C@@H](C)C(=O)C[C@@H](C(C)C)C(=O)C1
REMARK SMILES IDX 8 1 9 2 6 3 7 4 5 5 4 6 3 7 2 8 1 9 10 11 11 12 15 13 16 14
REMARK SMILES IDX 17 15 12 17 13 18 14 19
REMARK H PARENT
REMARK Flexibility Score: 70.00
ROOT
ATOM      1  C   UNL     1     102.764  47.240  55.075  1.00  0.00     0.136 C 
ATOM      2  O   UNL     1     102.019  46.299  55.304  1.00  0.00    -0.299 OA
ENDROOT
BRANCH   1   3
ATOM      3  C   UNL     1     102.792  47.805  53.662  1.00  0.00     0.053 C 
ATOM      4  C   UNL     1     102.186  46.775  52.685  1.00  0.00     0.016 C 
BRANCH   3   5
ATOM      5  C   UNL     1     104.196  48.248  53.174  1.00  0.00     0.015 C 
BRANCH   5   6
ATOM      6  C   UNL     1     104.960  49.140  54.188  1.00  0.00     0.028 C 
BRANCH   6   7
ATOM      7  C   UNL     1     104.565  50.588  54.013  1.00  0.00    -0.028 C 
ATOM      8  C   UNL     1     103.476  51.180  54.561  1.00  0.00    -0.070 CG0
ATOM      9  C   UNL     1     103.240  52.636  54.247  1.00  0.00     0.039 C 
ATOM     10  G   UNL     1     102.419  50.411  55.335  1.00  0.00     0.000 G0
ENDBRANCH   6   7
ENDBRANCH   5   6
ENDBRANCH   3   5
ENDBRANCH   1   3
BRANCH   1  11
ATOM     11  C   UNL     1     103.699  47.709  56.173  1.00  0.00     0.087 C 
BRANCH  11  12
ATOM     12  C   UNL     1     102.976  48.570  57.255  1.00  0.00     0.066 C 
BRANCH  12  13
ATOM     13  C   UNL     1     102.716  50.008  56.777  1.00  0.00     0.140 C 
ATOM     14  O   UNL     1     102.833  50.911  57.596  1.00  0.00    -0.299 OA
BRANCH  13  15
ATOM     15  C   UNL     1     102.389  50.411  55.343  1.00  0.00     0.106 CG0
ATOM     16  G   UNL     1     103.469  51.177  54.598  1.00  0.00     0.000 G0
ENDBRANCH  13  15
ENDBRANCH  12  13
BRANCH  12  17
ATOM     17  C   UNL     1     103.608  48.549  58.696  1.00  0.00    -0.006 C 
ATOM     18  C   UNL     1     102.642  47.880  59.696  1.00  0.00     0.008 C 
ATOM     19  C   UNL     1     104.997  47.875  58.785  1.00  0.00     0.008 C 
ENDBRANCH  12  17
ENDBRANCH  11  12
ENDBRANCH   1  11
TORSDOF 1
ENDMDL
MODEL 7
REMARK VINA RESULT:    -1.726      7.128      9.743
REMARK INTER + INTRA:          -1.325
REMARK INTER:                  -2.294
REMARK INTRA:                   0.969
REMARK UNBOUND:                 1.310
REMARK SMILES CC1=CCC[C@@H](C)C(=O)C[C@@H](C(C)C)C(=O)C1
REMARK SMILES IDX 8 1 9 2 6 3 7 4 5 5 4 6 3 7 2 8 1 9 10 11 11 12 15 13 16 14
REMARK SMILES IDX 17 15 12 17 13 18 14 19
REMARK H PARENT
REMARK Flexibility Score: 70.00
ROOT
ATOM      1  C   UNL     1     108.409  50.248  64.116  1.00  0.00     0.136 C 
ATOM      2  O   UNL     1     109.096  51.078  64.694  1.00  0.00    -0.299 OA
ENDROOT
BRANCH   1   3
ATOM      3  C   UNL     1     106.989  50.020  64.616  1.00  0.00     0.053 C 
ATOM      4  C   UNL     1     106.376  51.367  65.054  1.00  0.00     0.016 C 
BRANCH   3   5
ATOM      5  C   UNL     1     106.869  48.977  65.758  1.00  0.00     0.015 C 
BRANCH   5   6
ATOM      6  C   UNL     1     108.203  48.262  66.097  1.00  0.00     0.028 C 
BRANCH   6   7
ATOM      7  C   UNL     1     108.028  46.764  66.018  1.00  0.00    -0.028 C 
ATOM      8  C   UNL     1     108.605  45.949  65.102  1.00  0.00    -0.070 CG0
ATOM      9  C   UNL     1     108.287  44.477  65.175  1.00  0.00     0.039 C 
ATOM     10  G   UNL     1     109.419  46.471  63.929  1.00  0.00     0.000 G0
ENDBRANCH   6   7
ENDBRANCH   5   6
ENDBRANCH   3   5
ENDBRANCH   1   3
BRANCH   1  11
ATOM     11  C   UNL     1     109.045  49.415  63.021  1.00  0.00     0.087 C 
BRANCH  11  12
ATOM     12  C   UNL     1     108.085  48.320  62.460  1.00  0.00     0.066 C 
BRANCH  12  13
ATOM     13  C   UNL     1     108.613  46.898  62.713  1.00  0.00     0.140 C 
ATOM     14  O   UNL     1     108.431  46.059  61.839  1.00  0.00    -0.299 OA
BRANCH  13  15
ATOM     15  C   UNL     1     109.408  46.461  63.938  1.00  0.00     0.106 CG0
ATOM     16  G   UNL     1     108.598  45.950  65.118  1.00  0.00     0.000 G0
ENDBRANCH  13  15
ENDBRANCH  12  13
BRANCH  12  17
ATOM     17  C   UNL     1     107.619  48.503  60.968  1.00  0.00    -0.006 C 
ATOM     18  C   UNL     1     108.628  47.841  60.007  1.00  0.00     0.008 C 
ATOM     19  C   UNL     1     106.195  47.983  60.665  1.00  0.00     0.008 C 
ENDBRANCH  12  17
ENDBRANCH  11  12
ENDBRANCH   1  11
TORSDOF 1
ENDMDL
MODEL 8
REMARK VINA RESULT:    -1.443      1.396      3.310
REMARK INTER + INTRA:          -0.892
REMARK INTER:                  -3.315
REMARK INTRA:                   2.423
REMARK UNBOUND:                 1.310
REMARK SMILES CC1=CCC[C@@H](C)C(=O)C[C@@H](C(C)C)C(=O)C1
REMARK SMILES IDX 8 1 9 2 6 3 7 4 5 5 4 6 3 7 2 8 1 9 10 11 11 12 15 13 16 14
REMARK SMILES IDX 17 15 12 17 13 18 14 19
REMARK H PARENT
REMARK Flexibility Score: 70.00
ROOT
ATOM      1  C   UNL     1     103.121  47.821  52.944  1.00  0.00     0.136 C 
ATOM      2  O   UNL     1     102.499  48.535  52.171  1.00  0.00    -0.299 OA
ENDROOT
BRANCH   1   3
ATOM      3  C   UNL     1     102.405  46.617  53.541  1.00  0.00     0.053 C 
ATOM      4  C   UNL     1     100.881  46.787  53.367  1.00  0.00     0.016 C 
BRANCH   3   5
ATOM      5  C   UNL     1     102.749  46.336  55.027  1.00  0.00     0.015 C 
BRANCH   5   6
ATOM      6  C   UNL     1     101.774  47.004  56.033  1.00  0.00     0.028 C 
BRANCH   6   7
ATOM      7  C   UNL     1     102.407  47.077  57.403  1.00  0.00    -0.028 C 
ATOM      8  C   UNL     1     103.196  48.082  57.854  1.00  0.00    -0.070 CG0
ATOM      9  C   UNL     1     103.753  47.960  59.250  1.00  0.00     0.039 C 
ATOM     10  G   UNL     1     103.662  49.227  56.971  1.00  0.00     0.000 G0
ENDBRANCH   6   7
ENDBRANCH   5   6
ENDBRANCH   3   5
ENDBRANCH   1   3
BRANCH   1  11
ATOM     11  C   UNL     1     104.519  48.239  53.353  1.00  0.00     0.087 C 
BRANCH  11  12
ATOM     12  C   UNL     1     104.522  49.393  54.403  1.00  0.00     0.066 C 
BRANCH  12  13
ATOM     13  C   UNL     1     104.620  48.868  55.845  1.00  0.00     0.140 C 
ATOM     14  O   UNL     1     105.562  48.136  56.122  1.00  0.00    -0.299 OA
BRANCH  13  15
ATOM     15  C   UNL     1     103.673  49.239  56.981  1.00  0.00     0.106 CG0
ATOM     16  G   UNL     1     103.191  48.093  57.855  1.00  0.00     0.000 G0
ENDBRANCH  13  15
ENDBRANCH  12  13
BRANCH  12  17
ATOM     17  C   UNL     1     103.379  50.466  54.260  1.00  0.00    -0.006 C 
ATOM     18  C   UNL     1     102.468  50.449  55.505  1.00  0.00     0.008 C 
ATOM     19  C   UNL     1     103.871  51.907  53.995  1.00  0.00     0.008 C 
ENDBRANCH  12  17
ENDBRANCH  11  12
ENDBRANCH   1  11
TORSDOF 1
ENDMDL
MODEL 9
REMARK VINA RESULT:    -1.420      7.429     10.057
REMARK INTER + INTRA:          -0.857
REMARK INTER:                  -2.962
REMARK INTRA:                   2.106
REMARK UNBOUND:                 1.310
REMARK SMILES CC1=CCC[C@@H](C)C(=O)C[C@@H](C(C)C)C(=O)C1
REMARK SMILES IDX 8 1 9 2 6 3 7 4 5 5 4 6 3 7 2 8 1 9 10 11 11 12 15 13 16 14
REMARK SMILES IDX 17 15 12 17 13 18 14 19
REMARK H PARENT
REMARK Flexibility Score: 70.00
ROOT
ATOM      1  C   UNL     1     107.053  50.567  65.172  1.00  0.00     0.136 C 
ATOM      2  O   UNL     1     106.063  51.233  64.909  1.00  0.00    -0.299 OA
ENDROOT
BRANCH   1   3
ATOM      3  C   UNL     1     108.420  51.162  64.864  1.00  0.00     0.053 C 
ATOM      4  C   UNL     1     108.404  52.673  65.176  1.00  0.00     0.016 C 
BRANCH   3   5
ATOM      5  C   UNL     1     108.917  50.917  63.415  1.00  0.00     0.015 C 
BRANCH   5   6
ATOM      6  C   UNL     1     109.488  49.493  63.180  1.00  0.00     0.028 C 
BRANCH   6   7
ATOM      7  C   UNL     1     109.286  49.080  61.742  1.00  0.00    -0.028 C 
ATOM      8  C   UNL     1     108.436  48.117  61.309  1.00  0.00    -0.070 CG0
ATOM      9  C   UNL     1     108.394  47.834  59.829  1.00  0.00     0.039 C 
ATOM     10  G   UNL     1     107.655  47.220  62.255  1.00  0.00     0.000 G0
ENDBRANCH   6   7
ENDBRANCH   5   6
ENDBRANCH   3   5
ENDBRANCH   1   3
BRANCH   1  11
ATOM     11  C   UNL     1     106.862  49.149  65.674  1.00  0.00     0.087 C 
BRANCH  11  12
ATOM     12  C   UNL     1     107.618  48.094  64.809  1.00  0.00     0.066 C 
BRANCH  12  13
ATOM     13  C   UNL     1     106.984  47.918  63.420  1.00  0.00     0.140 C 
ATOM     14  O   UNL     1     105.878  48.410  63.232  1.00  0.00    -0.299 OA
BRANCH  13  15
ATOM     15  C   UNL     1     107.649  47.235  62.231  1.00  0.00     0.106 CG0
ATOM     16  G   UNL     1     108.452  48.132  61.303  1.00  0.00     0.000 G0
ENDBRANCH  13  15
ENDBRANCH  12  13
BRANCH  12  17
ATOM     17  C   UNL     1     107.896  46.705  65.494  1.00  0.00    -0.006 C 
ATOM     18  C   UNL     1     108.526  45.725  64.482  1.00  0.00     0.008 C 
ATOM     19  C   UNL     1     108.773  46.772  66.766  1.00  0.00     0.008 C 
ENDBRANCH  12  17
ENDBRANCH  11  12
ENDBRANCH   1  11
TORSDOF 1
ENDMDL
