MODEL 1
REMARK VINA RESULT:    -5.272      0.000      0.000
REMARK INTER + INTRA:         -11.850
REMARK INTER:                  -9.586
REMARK INTRA:                  -2.264
REMARK UNBOUND:                -2.264
REMARK SMILES CCCCCCCCCCCCCC[C@@H](C)C(=O)[O-]
REMARK SMILES IDX 9 1 10 2 11 3 12 4 13 5 14 6 15 7 16 8 17 9 18 10 19 11 8 12
REMARK SMILES IDX 7 13 6 14 5 15 4 16 3 17 2 18 1 19
REMARK H PARENT
REMARK Flexibility Score: inf
ROOT
ATOM      1  C   UNL     1       9.578   3.020  18.281  1.00  0.00     0.000 C 
ENDROOT
BRANCH   1   2
ATOM      2  C   UNL     1      10.720   2.987  19.309  1.00  0.00     0.000 C 
BRANCH   2   3
ATOM      3  C   UNL     1      10.224   2.723  20.739  1.00  0.00     0.000 C 
BRANCH   3   4
ATOM      4  C   UNL     1      10.387   3.970  21.616  1.00  0.00     0.000 C 
BRANCH   4   5
ATOM      5  C   UNL     1      11.546   4.846  21.119  1.00  0.00     0.001 C 
BRANCH   5   6
ATOM      6  C   UNL     1      11.768   6.102  21.980  1.00  0.00     0.009 C 
BRANCH   6   7
ATOM      7  C   UNL     1      11.359   7.424  21.274  1.00  0.00     0.032 C 
ATOM      8  C   UNL     1       9.902   7.806  21.577  1.00  0.00     0.014 C 
BRANCH   7   9
ATOM      9  C   UNL     1      12.263   8.555  21.689  1.00  0.00     0.044 C 
ATOM     10  O   UNL     1      11.807   9.536  22.335  1.00  0.00    -0.550 OA
ATOM     11  O   UNL     1      13.611   8.525  21.353  1.00  0.00    -0.550 OA
ENDBRANCH   7   9
ENDBRANCH   6   7
ENDBRANCH   5   6
ENDBRANCH   4   5
ENDBRANCH   3   4
ENDBRANCH   2   3
ENDBRANCH   1   2
BRANCH   1  12
ATOM     12  C   UNL     1       8.190   2.889  18.935  1.00  0.00     0.000 C 
BRANCH  12  13
ATOM     13  C   UNL     1       7.358   4.176  18.814  1.00  0.00    -0.000 C 
BRANCH  13  14
ATOM     14  C   UNL     1       8.149   5.430  19.227  1.00  0.00    -0.000 C 
BRANCH  14  15
ATOM     15  C   UNL     1       8.092   6.549  18.172  1.00  0.00    -0.000 C 
BRANCH  15  16
ATOM     16  C   UNL     1       9.418   7.294  17.936  1.00  0.00    -0.000 C 
BRANCH  16  17
ATOM     17  C   UNL     1      10.534   6.381  17.407  1.00  0.00    -0.000 C 
BRANCH  17  18
ATOM     18  C   UNL     1      11.851   6.637  18.147  1.00  0.00    -0.003 C 
ATOM     19  C   UNL     1      12.795   5.445  18.025  1.00  0.00     0.004 C 
ENDBRANCH  17  18
ENDBRANCH  16  17
ENDBRANCH  15  16
ENDBRANCH  14  15
ENDBRANCH  13  14
ENDBRANCH  12  13
ENDBRANCH   1  12
TORSDOF 14
ENDMDL
MODEL 2
REMARK VINA RESULT:    -5.243     17.780     19.512
REMARK INTER + INTRA:         -11.799
REMARK INTER:                  -9.835
REMARK INTRA:                  -1.964
REMARK UNBOUND:                -2.264
REMARK SMILES CCCCCCCCCCCCCC[C@@H](C)C(=O)[O-]
REMARK SMILES IDX 9 1 10 2 11 3 12 4 13 5 14 6 15 7 16 8 17 9 18 10 19 11 8 12
REMARK SMILES IDX 7 13 6 14 5 15 4 16 3 17 2 18 1 19
REMARK H PARENT
REMARK Flexibility Score: inf
ROOT
ATOM      1  C   UNL     1      15.892  -4.712  33.363  1.00  0.00     0.000 C 
ENDROOT
BRANCH   1   2
ATOM      2  C   UNL     1      15.259  -5.677  34.377  1.00  0.00     0.000 C 
BRANCH   2   3
ATOM      3  C   UNL     1      15.163  -5.076  35.788  1.00  0.00     0.000 C 
BRANCH   3   4
ATOM      4  C   UNL     1      16.549  -4.975  36.437  1.00  0.00     0.000 C 
BRANCH   4   5
ATOM      5  C   UNL     1      17.035  -3.520  36.475  1.00  0.00     0.001 C 
BRANCH   5   6
ATOM      6  C   UNL     1      18.461  -3.343  35.925  1.00  0.00     0.009 C 
BRANCH   6   7
ATOM      7  C   UNL     1      18.642  -2.068  35.055  1.00  0.00     0.032 C 
ATOM      8  C   UNL     1      17.559  -1.958  33.971  1.00  0.00     0.014 C 
BRANCH   7   9
ATOM      9  C   UNL     1      18.614  -0.829  35.910  1.00  0.00     0.044 C 
ATOM     10  O   UNL     1      19.447  -0.675  36.843  1.00  0.00    -0.550 OA
ATOM     11  O   UNL     1      17.660   0.154  35.678  1.00  0.00    -0.550 OA
ENDBRANCH   7   9
ENDBRANCH   6   7
ENDBRANCH   5   6
ENDBRANCH   4   5
ENDBRANCH   3   4
ENDBRANCH   2   3
ENDBRANCH   1   2
BRANCH   1  12
ATOM     12  C   UNL     1      16.855  -5.421  32.393  1.00  0.00     0.000 C 
BRANCH  12  13
ATOM     13  C   UNL     1      18.322  -5.316  32.839  1.00  0.00    -0.000 C 
BRANCH  13  14
ATOM     14  C   UNL     1      18.823  -6.597  33.530  1.00  0.00    -0.000 C 
BRANCH  14  15
ATOM     15  C   UNL     1      17.887  -7.799  33.312  1.00  0.00    -0.000 C 
BRANCH  15  16
ATOM     16  C   UNL     1      18.295  -8.746  32.168  1.00  0.00    -0.000 C 
BRANCH  16  17
ATOM     17  C   UNL     1      17.109  -9.529  31.586  1.00  0.00    -0.000 C 
BRANCH  17  18
ATOM     18  C   UNL     1      15.777  -8.888  31.991  1.00  0.00    -0.003 C 
ATOM     19  C   UNL     1      14.605  -9.822  31.702  1.00  0.00     0.004 C 
ENDBRANCH  17  18
ENDBRANCH  16  17
ENDBRANCH  15  16
ENDBRANCH  14  15
ENDBRANCH  13  14
ENDBRANCH  12  13
ENDBRANCH   1  12
TORSDOF 14
ENDMDL
MODEL 3
REMARK VINA RESULT:    -5.179      5.392      6.651
REMARK INTER + INTRA:         -11.682
REMARK INTER:                 -10.551
REMARK INTRA:                  -1.132
REMARK UNBOUND:                -2.264
REMARK SMILES CCCCCCCCCCCCCC[C@@H](C)C(=O)[O-]
REMARK SMILES IDX 9 1 10 2 11 3 12 4 13 5 14 6 15 7 16 8 17 9 18 10 19 11 8 12
REMARK SMILES IDX 7 13 6 14 5 15 4 16 3 17 2 18 1 19
REMARK H PARENT
REMARK Flexibility Score: inf
ROOT
ATOM      1  C   UNL     1      10.980   2.244  22.502  1.00  0.00     0.000 C 
ENDROOT
BRANCH   1   2
ATOM      2  C   UNL     1      10.959   0.850  23.149  1.00  0.00     0.000 C 
BRANCH   2   3
ATOM      3  C   UNL     1      11.718   0.804  24.484  1.00  0.00     0.000 C 
BRANCH   3   4
ATOM      4  C   UNL     1      10.788   0.381  25.629  1.00  0.00     0.000 C 
BRANCH   4   5
ATOM      5  C   UNL     1      11.516  -0.535  26.622  1.00  0.00     0.001 C 
BRANCH   5   6
ATOM      6  C   UNL     1      12.732  -1.250  26.007  1.00  0.00     0.009 C 
BRANCH   6   7
ATOM      7  C   UNL     1      14.032  -1.106  26.846  1.00  0.00     0.032 C 
ATOM      8  C   UNL     1      15.149  -2.027  26.332  1.00  0.00     0.014 C 
BRANCH   7   9
ATOM      9  C   UNL     1      14.521   0.318  26.835  1.00  0.00     0.044 C 
ATOM     10  O   UNL     1      15.084   0.794  25.813  1.00  0.00    -0.550 OA
ATOM     11  O   UNL     1      14.362   1.117  27.961  1.00  0.00    -0.550 OA
ENDBRANCH   7   9
ENDBRANCH   6   7
ENDBRANCH   5   6
ENDBRANCH   4   5
ENDBRANCH   3   4
ENDBRANCH   2   3
ENDBRANCH   1   2
BRANCH   1  12
ATOM     12  C   UNL     1      10.249   2.277  21.147  1.00  0.00     0.000 C 
BRANCH  12  13
ATOM     13  C   UNL     1      10.447   3.609  20.405  1.00  0.00    -0.000 C 
BRANCH  13  14
ATOM     14  C   UNL     1       9.372   4.650  20.764  1.00  0.00    -0.000 C 
BRANCH  14  15
ATOM     15  C   UNL     1       9.969   5.998  21.209  1.00  0.00    -0.000 C 
BRANCH  15  16
ATOM     16  C   UNL     1      11.501   6.103  21.096  1.00  0.00    -0.000 C 
BRANCH  16  17
ATOM     17  C   UNL     1      11.957   7.193  20.115  1.00  0.00    -0.000 C 
BRANCH  17  18
ATOM     18  C   UNL     1      11.662   6.787  18.667  1.00  0.00    -0.003 C 
ATOM     19  C   UNL     1      12.503   5.584  18.248  1.00  0.00     0.004 C 
ENDBRANCH  17  18
ENDBRANCH  16  17
ENDBRANCH  15  16
ENDBRANCH  14  15
ENDBRANCH  13  14
ENDBRANCH  12  13
ENDBRANCH   1  12
TORSDOF 14
ENDMDL
MODEL 4
REMARK VINA RESULT:    -5.097      4.427      6.819
REMARK INTER + INTRA:         -11.533
REMARK INTER:                 -10.363
REMARK INTRA:                  -1.170
REMARK UNBOUND:                -2.264
REMARK SMILES CCCCCCCCCCCCCC[C@@H](C)C(=O)[O-]
REMARK SMILES IDX 9 1 10 2 11 3 12 4 13 5 14 6 15 7 16 8 17 9 18 10 19 11 8 12
REMARK SMILES IDX 7 13 6 14 5 15 4 16 3 17 2 18 1 19
REMARK H PARENT
REMARK Flexibility Score: inf
ROOT
ATOM      1  C   UNL     1      11.287   0.781  23.876  1.00  0.00     0.000 C 
ENDROOT
BRANCH   1   2
ATOM      2  C   UNL     1      10.695   1.030  22.480  1.00  0.00     0.000 C 
BRANCH   2   3
ATOM      3  C   UNL     1      10.621   2.523  22.124  1.00  0.00     0.000 C 
BRANCH   3   4
ATOM      4  C   UNL     1      10.221   2.717  20.656  1.00  0.00     0.000 C 
BRANCH   4   5
ATOM      5  C   UNL     1      10.962   3.909  20.035  1.00  0.00     0.001 C 
BRANCH   5   6
ATOM      6  C   UNL     1      11.110   5.099  21.000  1.00  0.00     0.009 C 
BRANCH   6   7
ATOM      7  C   UNL     1      10.547   6.433  20.438  1.00  0.00     0.032 C 
ATOM      8  C   UNL     1      10.018   7.345  21.555  1.00  0.00     0.014 C 
BRANCH   7   9
ATOM      9  C   UNL     1      11.599   7.171  19.653  1.00  0.00     0.044 C 
ATOM     10  O   UNL     1      11.582   7.162  18.393  1.00  0.00    -0.550 OA
ATOM     11  O   UNL     1      12.604   7.863  20.318  1.00  0.00    -0.550 OA
ENDBRANCH   7   9
ENDBRANCH   6   7
ENDBRANCH   5   6
ENDBRANCH   4   5
ENDBRANCH   3   4
ENDBRANCH   2   3
ENDBRANCH   1   2
BRANCH   1  12
ATOM     12  C   UNL     1      10.218   0.378  24.908  1.00  0.00     0.000 C 
BRANCH  12  13
ATOM     13  C   UNL     1      10.828  -0.025  26.261  1.00  0.00    -0.000 C 
BRANCH  13  14
ATOM     14  C   UNL     1      12.354  -0.212  26.187  1.00  0.00    -0.000 C 
BRANCH  14  15
ATOM     15  C   UNL     1      13.079   0.283  27.451  1.00  0.00    -0.000 C 
BRANCH  15  16
ATOM     16  C   UNL     1      14.336   1.135  27.193  1.00  0.00    -0.000 C 
BRANCH  16  17
ATOM     17  C   UNL     1      15.062   0.754  25.895  1.00  0.00    -0.000 C 
BRANCH  17  18
ATOM     18  C   UNL     1      15.338   1.994  25.036  1.00  0.00    -0.003 C 
ATOM     19  C   UNL     1      14.085   2.852  24.886  1.00  0.00     0.004 C 
ENDBRANCH  17  18
ENDBRANCH  16  17
ENDBRANCH  15  16
ENDBRANCH  14  15
ENDBRANCH  13  14
ENDBRANCH  12  13
ENDBRANCH   1  12
TORSDOF 14
ENDMDL
MODEL 5
REMARK VINA RESULT:    -5.077     17.994     19.944
REMARK INTER + INTRA:         -11.497
REMARK INTER:                  -9.379
REMARK INTRA:                  -2.118
REMARK UNBOUND:                -2.264
REMARK SMILES CCCCCCCCCCCCCC[C@@H](C)C(=O)[O-]
REMARK SMILES IDX 9 1 10 2 11 3 12 4 13 5 14 6 15 7 16 8 17 9 18 10 19 11 8 12
REMARK SMILES IDX 7 13 6 14 5 15 4 16 3 17 2 18 1 19
REMARK H PARENT
REMARK Flexibility Score: inf
ROOT
ATOM      1  C   UNL     1      18.990  -6.206  34.478  1.00  0.00     0.000 C 
ENDROOT
BRANCH   1   2
ATOM      2  C   UNL     1      18.730  -7.193  35.627  1.00  0.00     0.000 C 
BRANCH   2   3
ATOM      3  C   UNL     1      17.530  -6.788  36.497  1.00  0.00     0.000 C 
BRANCH   3   4
ATOM      4  C   UNL     1      17.704  -5.366  37.044  1.00  0.00     0.000 C 
BRANCH   4   5
ATOM      5  C   UNL     1      16.648  -4.417  36.460  1.00  0.00     0.001 C 
BRANCH   5   6
ATOM      6  C   UNL     1      17.025  -2.932  36.601  1.00  0.00     0.009 C 
BRANCH   6   7
ATOM      7  C   UNL     1      18.118  -2.466  35.600  1.00  0.00     0.032 C 
ATOM      8  C   UNL     1      17.695  -2.702  34.142  1.00  0.00     0.014 C 
BRANCH   7   9
ATOM      9  C   UNL     1      18.434  -1.006  35.793  1.00  0.00     0.044 C 
ATOM     10  O   UNL     1      17.796  -0.123  35.160  1.00  0.00    -0.550 OA
ATOM     11  O   UNL     1      19.441  -0.623  36.671  1.00  0.00    -0.550 OA
ENDBRANCH   7   9
ENDBRANCH   6   7
ENDBRANCH   5   6
ENDBRANCH   4   5
ENDBRANCH   3   4
ENDBRANCH   2   3
ENDBRANCH   1   2
BRANCH   1  12
ATOM     12  C   UNL     1      18.854  -6.862  33.093  1.00  0.00     0.000 C 
BRANCH  12  13
ATOM     13  C   UNL     1      18.422  -8.335  33.179  1.00  0.00    -0.000 C 
BRANCH  13  14
ATOM     14  C   UNL     1      17.968  -8.898  31.820  1.00  0.00    -0.000 C 
BRANCH  14  15
ATOM     15  C   UNL     1      16.475  -9.275  31.798  1.00  0.00    -0.000 C 
BRANCH  15  16
ATOM     16  C   UNL     1      15.501  -8.105  32.026  1.00  0.00    -0.000 C 
BRANCH  16  17
ATOM     17  C   UNL     1      15.126  -7.916  33.503  1.00  0.00    -0.000 C 
BRANCH  17  18
ATOM     18  C   UNL     1      15.095  -6.429  33.875  1.00  0.00    -0.003 C 
ATOM     19  C   UNL     1      15.714  -5.571  32.775  1.00  0.00     0.004 C 
ENDBRANCH  17  18
ENDBRANCH  16  17
ENDBRANCH  15  16
ENDBRANCH  14  15
ENDBRANCH  13  14
ENDBRANCH  12  13
ENDBRANCH   1  12
TORSDOF 14
ENDMDL
MODEL 6
REMARK VINA RESULT:    -4.968      5.058      6.328
REMARK INTER + INTRA:         -11.298
REMARK INTER:                 -10.185
REMARK INTRA:                  -1.113
REMARK UNBOUND:                -2.264
REMARK SMILES CCCCCCCCCCCCCC[C@@H](C)C(=O)[O-]
REMARK SMILES IDX 9 1 10 2 11 3 12 4 13 5 14 6 15 7 16 8 17 9 18 10 19 11 8 12
REMARK SMILES IDX 7 13 6 14 5 15 4 16 3 17 2 18 1 19
REMARK H PARENT
REMARK Flexibility Score: inf
ROOT
ATOM      1  C   UNL     1      10.991   2.837  21.988  1.00  0.00     0.000 C 
ENDROOT
BRANCH   1   2
ATOM      2  C   UNL     1      10.615   1.403  22.393  1.00  0.00     0.000 C 
BRANCH   2   3
ATOM      3  C   UNL     1      11.252   0.976  23.724  1.00  0.00     0.000 C 
BRANCH   3   4
ATOM      4  C   UNL     1      10.203   0.366  24.663  1.00  0.00     0.000 C 
BRANCH   4   5
ATOM      5  C   UNL     1      10.692   0.376  26.117  1.00  0.00     0.001 C 
BRANCH   5   6
ATOM      6  C   UNL     1      12.011  -0.391  26.318  1.00  0.00     0.009 C 
BRANCH   6   7
ATOM      7  C   UNL     1      13.139   0.462  26.961  1.00  0.00     0.032 C 
ATOM      8  C   UNL     1      13.281   0.182  28.465  1.00  0.00     0.014 C 
BRANCH   7   9
ATOM      9  C   UNL     1      14.458   0.203  26.283  1.00  0.00     0.044 C 
ATOM     10  O   UNL     1      15.025  -0.918  26.391  1.00  0.00    -0.550 OA
ATOM     11  O   UNL     1      15.065   1.205  25.537  1.00  0.00    -0.550 OA
ENDBRANCH   7   9
ENDBRANCH   6   7
ENDBRANCH   5   6
ENDBRANCH   4   5
ENDBRANCH   3   4
ENDBRANCH   2   3
ENDBRANCH   1   2
BRANCH   1  12
ATOM     12  C   UNL     1       9.973   3.464  21.019  1.00  0.00     0.000 C 
BRANCH  12  13
ATOM     13  C   UNL     1      10.082   2.889  19.597  1.00  0.00    -0.000 C 
BRANCH  13  14
ATOM     14  C   UNL     1      10.554   3.936  18.572  1.00  0.00    -0.000 C 
BRANCH  14  15
ATOM     15  C   UNL     1      11.955   4.492  18.886  1.00  0.00    -0.000 C 
BRANCH  15  16
ATOM     16  C   UNL     1      12.220   5.922  18.378  1.00  0.00    -0.000 C 
BRANCH  16  17
ATOM     17  C   UNL     1      11.267   6.961  18.988  1.00  0.00    -0.000 C 
BRANCH  17  18
ATOM     18  C   UNL     1      11.509   7.111  20.494  1.00  0.00    -0.003 C 
ATOM     19  C   UNL     1      10.193   7.148  21.264  1.00  0.00     0.004 C 
ENDBRANCH  17  18
ENDBRANCH  16  17
ENDBRANCH  15  16
ENDBRANCH  14  15
ENDBRANCH  13  14
ENDBRANCH  12  13
ENDBRANCH   1  12
TORSDOF 14
ENDMDL
MODEL 7
REMARK VINA RESULT:    -4.921      3.735      6.245
REMARK INTER + INTRA:         -11.213
REMARK INTER:                 -10.188
REMARK INTRA:                  -1.025
REMARK UNBOUND:                -2.264
REMARK SMILES CCCCCCCCCCCCCC[C@@H](C)C(=O)[O-]
REMARK SMILES IDX 9 1 10 2 11 3 12 4 13 5 14 6 15 7 16 8 17 9 18 10 19 11 8 12
REMARK SMILES IDX 7 13 6 14 5 15 4 16 3 17 2 18 1 19
REMARK H PARENT
REMARK Flexibility Score: inf
ROOT
ATOM      1  C   UNL     1      10.278   1.944  20.760  1.00  0.00     0.000 C 
ENDROOT
BRANCH   1   2
ATOM      2  C   UNL     1      10.117   3.272  20.004  1.00  0.00     0.000 C 
BRANCH   2   3
ATOM      3  C   UNL     1      10.589   3.186  18.544  1.00  0.00     0.000 C 
BRANCH   3   4
ATOM      4  C   UNL     1      11.270   4.490  18.110  1.00  0.00     0.000 C 
BRANCH   4   5
ATOM      5  C   UNL     1      11.937   5.188  19.303  1.00  0.00     0.001 C 
BRANCH   5   6
ATOM      6  C   UNL     1      11.873   6.723  19.220  1.00  0.00     0.009 C 
BRANCH   6   7
ATOM      7  C   UNL     1      11.695   7.417  20.599  1.00  0.00     0.032 C 
ATOM      8  C   UNL     1      11.347   6.409  21.705  1.00  0.00     0.014 C 
BRANCH   7   9
ATOM      9  C   UNL     1      12.942   8.166  20.986  1.00  0.00     0.044 C 
ATOM     10  O   UNL     1      13.705   8.640  20.102  1.00  0.00    -0.550 OA
ATOM     11  O   UNL     1      13.265   8.332  22.327  1.00  0.00    -0.550 OA
ENDBRANCH   7   9
ENDBRANCH   6   7
ENDBRANCH   5   6
ENDBRANCH   4   5
ENDBRANCH   3   4
ENDBRANCH   2   3
ENDBRANCH   1   2
BRANCH   1  12
ATOM     12  C   UNL     1      10.666   2.147  22.236  1.00  0.00     0.000 C 
BRANCH  12  13
ATOM     13  C   UNL     1      10.907   0.817  22.969  1.00  0.00    -0.000 C 
BRANCH  13  14
ATOM     14  C   UNL     1      11.654   1.005  24.301  1.00  0.00    -0.000 C 
BRANCH  14  15
ATOM     15  C   UNL     1      10.930   0.351  25.492  1.00  0.00    -0.000 C 
BRANCH  15  16
ATOM     16  C   UNL     1      11.820   0.045  26.710  1.00  0.00    -0.000 C 
BRANCH  16  17
ATOM     17  C   UNL     1      13.269  -0.286  26.327  1.00  0.00    -0.000 C 
BRANCH  17  18
ATOM     18  C   UNL     1      14.248   0.695  26.981  1.00  0.00    -0.003 C 
ATOM     19  C   UNL     1      15.076   1.432  25.931  1.00  0.00     0.004 C 
ENDBRANCH  17  18
ENDBRANCH  16  17
ENDBRANCH  15  16
ENDBRANCH  14  15
ENDBRANCH  13  14
ENDBRANCH  12  13
ENDBRANCH   1  12
TORSDOF 14
ENDMDL
MODEL 8
REMARK VINA RESULT:    -4.878     17.590     20.145
REMARK INTER + INTRA:         -11.135
REMARK INTER:                  -8.840
REMARK INTRA:                  -2.295
REMARK UNBOUND:                -2.264
REMARK SMILES CCCCCCCCCCCCCC[C@@H](C)C(=O)[O-]
REMARK SMILES IDX 9 1 10 2 11 3 12 4 13 5 14 6 15 7 16 8 17 9 18 10 19 11 8 12
REMARK SMILES IDX 7 13 6 14 5 15 4 16 3 17 2 18 1 19
REMARK H PARENT
REMARK Flexibility Score: inf
ROOT
ATOM      1  C   UNL     1      16.990  -2.110  33.297  1.00  0.00     0.000 C 
ENDROOT
BRANCH   1   2
ATOM      2  C   UNL     1      16.130  -3.190  32.622  1.00  0.00     0.000 C 
BRANCH   2   3
ATOM      3  C   UNL     1      16.823  -4.561  32.582  1.00  0.00     0.000 C 
BRANCH   3   4
ATOM      4  C   UNL     1      15.830  -5.666  32.200  1.00  0.00     0.000 C 
BRANCH   4   5
ATOM      5  C   UNL     1      15.395  -6.467  33.435  1.00  0.00     0.001 C 
BRANCH   5   6
ATOM      6  C   UNL     1      15.735  -7.965  33.336  1.00  0.00     0.009 C 
BRANCH   6   7
ATOM      7  C   UNL     1      16.283  -8.391  31.946  1.00  0.00     0.032 C 
ATOM      8  C   UNL     1      17.594  -9.183  32.067  1.00  0.00     0.014 C 
BRANCH   7   9
ATOM      9  C   UNL     1      15.270  -9.222  31.203  1.00  0.00     0.044 C 
ATOM     10  O   UNL     1      15.136  -9.104  29.956  1.00  0.00    -0.550 OA
ATOM     11  O   UNL     1      14.468 -10.122  31.894  1.00  0.00    -0.550 OA
ENDBRANCH   7   9
ENDBRANCH   6   7
ENDBRANCH   5   6
ENDBRANCH   4   5
ENDBRANCH   3   4
ENDBRANCH   2   3
ENDBRANCH   1   2
BRANCH   1  12
ATOM     12  C   UNL     1      17.988  -2.697  34.310  1.00  0.00     0.000 C 
BRANCH  12  13
ATOM     13  C   UNL     1      17.803  -2.119  35.723  1.00  0.00    -0.000 C 
BRANCH  13  14
ATOM     14  C   UNL     1      17.442  -3.197  36.760  1.00  0.00    -0.000 C 
BRANCH  14  15
ATOM     15  C   UNL     1      16.784  -4.438  36.129  1.00  0.00    -0.000 C 
BRANCH  15  16
ATOM     16  C   UNL     1      17.183  -5.783  36.763  1.00  0.00    -0.000 C 
BRANCH  16  17
ATOM     17  C   UNL     1      18.604  -6.227  36.384  1.00  0.00    -0.000 C 
BRANCH  17  18
ATOM     18  C   UNL     1      18.587  -7.101  35.124  1.00  0.00    -0.003 C 
ATOM     19  C   UNL     1      19.262  -6.394  33.952  1.00  0.00     0.004 C 
ENDBRANCH  17  18
ENDBRANCH  16  17
ENDBRANCH  15  16
ENDBRANCH  14  15
ENDBRANCH  13  14
ENDBRANCH  12  13
ENDBRANCH   1  12
TORSDOF 14
ENDMDL
MODEL 9
REMARK VINA RESULT:    -4.864      5.001      6.096
REMARK INTER + INTRA:         -11.108
REMARK INTER:                 -10.038
REMARK INTRA:                  -1.070
REMARK UNBOUND:                -2.264
REMARK SMILES CCCCCCCCCCCCCC[C@@H](C)C(=O)[O-]
REMARK SMILES IDX 9 1 10 2 11 3 12 4 13 5 14 6 15 7 16 8 17 9 18 10 19 11 8 12
REMARK SMILES IDX 7 13 6 14 5 15 4 16 3 17 2 18 1 19
REMARK H PARENT
REMARK Flexibility Score: inf
ROOT
ATOM      1  C   UNL     1      10.236   1.852  20.627  1.00  0.00     0.000 C 
ENDROOT
BRANCH   1   2
ATOM      2  C   UNL     1      10.633   2.126  22.086  1.00  0.00     0.000 C 
BRANCH   2   3
ATOM      3  C   UNL     1      10.696   0.846  22.934  1.00  0.00     0.000 C 
BRANCH   3   4
ATOM      4  C   UNL     1      11.722   0.989  24.066  1.00  0.00     0.000 C 
BRANCH   4   5
ATOM      5  C   UNL     1      11.193   0.375  25.370  1.00  0.00     0.001 C 
BRANCH   5   6
ATOM      6  C   UNL     1      12.274  -0.376  26.167  1.00  0.00     0.009 C 
BRANCH   6   7
ATOM      7  C   UNL     1      13.327   0.557  26.826  1.00  0.00     0.032 C 
ATOM      8  C   UNL     1      13.323   0.431  28.357  1.00  0.00     0.014 C 
BRANCH   7   9
ATOM      9  C   UNL     1      14.708   0.255  26.308  1.00  0.00     0.044 C 
ATOM     10  O   UNL     1      15.445   1.179  25.871  1.00  0.00    -0.550 OA
ATOM     11  O   UNL     1      15.178  -1.053  26.303  1.00  0.00    -0.550 OA
ENDBRANCH   7   9
ENDBRANCH   6   7
ENDBRANCH   5   6
ENDBRANCH   4   5
ENDBRANCH   3   4
ENDBRANCH   2   3
ENDBRANCH   1   2
BRANCH   1  12
ATOM     12  C   UNL     1      10.256   3.125  19.761  1.00  0.00     0.000 C 
BRANCH  12  13
ATOM     13  C   UNL     1       8.915   3.376  19.053  1.00  0.00    -0.000 C 
BRANCH  13  14
ATOM     14  C   UNL     1       8.654   4.871  18.796  1.00  0.00    -0.000 C 
BRANCH  14  15
ATOM     15  C   UNL     1       7.839   5.538  19.919  1.00  0.00    -0.000 C 
BRANCH  15  16
ATOM     16  C   UNL     1       8.564   5.653  21.273  1.00  0.00    -0.000 C 
BRANCH  16  17
ATOM     17  C   UNL     1       9.504   6.865  21.348  1.00  0.00    -0.000 C 
BRANCH  17  18
ATOM     18  C   UNL     1      10.969   6.419  21.430  1.00  0.00    -0.003 C 
ATOM     19  C   UNL     1      11.664   6.557  20.079  1.00  0.00     0.004 C 
ENDBRANCH  17  18
ENDBRANCH  16  17
ENDBRANCH  15  16
ENDBRANCH  14  15
ENDBRANCH  13  14
ENDBRANCH  12  13
ENDBRANCH   1  12
TORSDOF 14
ENDMDL
