MODEL 1
REMARK VINA RESULT:    -5.897      0.000      0.000
REMARK INTER + INTRA:          -9.506
REMARK INTER:                  -8.138
REMARK INTRA:                  -1.368
REMARK UNBOUND:                -1.368
REMARK SMILES O=C([O-])[C@@H]1O[C@@H](Oc2cc3oc(-c4ccccc4)cc(=O)c3c(O)c2O)[C@@H](O)[C@@H](O)[C@@H]1O
REMARK SMILES IDX 7 1 6 2 4 3 31 4 5 5 29 6 27 7 2 8 1 9 3 10 32 11 30 13
REMARK SMILES IDX 28 15 8 17 25 18 9 19 23 20 10 21 22 22 11 23 20 24 12 25
REMARK SMILES IDX 19 26 21 27 26 28 24 30 13 32 14 33 18 34 15 35 17 36 16 37
REMARK H PARENT 32 12 30 14 28 16 26 29 24 31
REMARK Flexibility Score: inf
ROOT
ATOM      1  O   UNL     1      18.763  22.363  16.286  1.00  0.00    -0.458 OA
ENDROOT
BRANCH   1   2
ATOM      2  C   UNL     1      19.340  21.573  17.337  1.00  0.00     0.339 C 
ATOM      3  C   UNL     1      17.229  20.919  18.134  1.00  0.00     0.199 C 
ATOM      4  C   UNL     1      17.387  21.671  19.473  1.00  0.00     0.180 C 
ATOM      5  O   UNL     1      18.488  20.478  17.643  1.00  0.00    -0.328 OA
ATOM      6  C   UNL     1      18.336  22.868  19.289  1.00  0.00     0.181 C 
ATOM      7  C   UNL     1      19.641  22.398  18.612  1.00  0.00     0.214 C 
BRANCH   3   8
ATOM      8  C   UNL     1      16.324  19.734  18.307  1.00  0.00     0.073 C 
ATOM      9  O   UNL     1      16.547  18.662  17.686  1.00  0.00    -0.547 OA
ATOM     10  O   UNL     1      15.262  19.800  19.201  1.00  0.00    -0.547 OA
ENDBRANCH   3   8
BRANCH   4  11
ATOM     11  O   UNL     1      17.899  20.801  20.452  1.00  0.00    -0.387 OA
ATOM     12  H   UNL     1      18.637  20.292  20.026  1.00  0.00     0.211 HD
ENDBRANCH   4  11
BRANCH   6  13
ATOM     13  O   UNL     1      17.699  23.853  18.514  1.00  0.00    -0.387 OA
ATOM     14  H   UNL     1      17.991  23.718  17.575  1.00  0.00     0.211 HD
ENDBRANCH   6  13
BRANCH   7  15
ATOM     15  O   UNL     1      20.472  23.490  18.312  1.00  0.00    -0.384 OA
ATOM     16  H   UNL     1      20.077  24.282  18.760  1.00  0.00     0.211 HD
ENDBRANCH   7  15
ENDBRANCH   1   2
BRANCH   1  17
ATOM     17  C   UNL     1      19.220  22.461  14.960  1.00  0.00     0.172 A 
ATOM     18  C   UNL     1      20.034  23.518  14.497  1.00  0.00     0.201 A 
ATOM     19  C   UNL     1      18.863  21.431  14.089  1.00  0.00     0.098 A 
ATOM     20  C   UNL     1      20.397  23.579  13.126  1.00  0.00     0.176 A 
ATOM     21  C   UNL     1      19.246  21.457  12.750  1.00  0.00     0.146 A 
ATOM     22  C   UNL     1      20.012  22.533  12.251  1.00  0.00     0.111 A 
ATOM     23  O   UNL     1      18.875  20.460  11.955  1.00  0.00    -0.456 OA
ATOM     24  C   UNL     1      20.349  22.507  10.880  1.00  0.00     0.197 A 
ATOM     25  C   UNL     1      19.188  20.400  10.662  1.00  0.00     0.138 A 
ATOM     26  C   UNL     1      19.934  21.439  10.086  1.00  0.00     0.100 A 
ATOM     27  O   UNL     1      21.020  23.433  10.350  1.00  0.00    -0.289 OA
BRANCH  18  28
ATOM     28  O   UNL     1      20.504  24.457  15.416  1.00  0.00    -0.502 OA
ATOM     29  H   UNL     1      20.140  25.394  15.513  1.00  0.00     0.293 HD
ENDBRANCH  18  28
BRANCH  20  30
ATOM     30  O   UNL     1      21.125  24.660  12.617  1.00  0.00    -0.504 OA
ATOM     31  H   UNL     1      22.073  24.599  12.275  1.00  0.00     0.293 HD
ENDBRANCH  20  30
BRANCH  25  32
ATOM     32  C   UNL     1      18.718  19.236   9.868  1.00  0.00     0.017 A 
ATOM     33  C   UNL     1      17.551  19.354   9.092  1.00  0.00     0.012 A 
ATOM     34  C   UNL     1      19.395  18.000   9.893  1.00  0.00     0.012 A 
ATOM     35  C   UNL     1      17.084  18.270   8.342  1.00  0.00     0.001 A 
ATOM     36  C   UNL     1      18.922  16.919   9.142  1.00  0.00     0.001 A 
ATOM     37  C   UNL     1      17.770  17.055   8.365  1.00  0.00     0.000 A 
ENDBRANCH  25  32
ENDBRANCH   1  17
TORSDOF 9
ENDMDL
MODEL 2
REMARK VINA RESULT:    -5.678      8.217     12.886
REMARK INTER + INTRA:          -9.204
REMARK INTER:                  -8.051
REMARK INTRA:                  -1.153
REMARK UNBOUND:                -1.368
REMARK SMILES O=C([O-])[C@@H]1O[C@@H](Oc2cc3oc(-c4ccccc4)cc(=O)c3c(O)c2O)[C@@H](O)[C@@H](O)[C@@H]1O
REMARK SMILES IDX 7 1 6 2 4 3 31 4 5 5 29 6 27 7 2 8 1 9 3 10 32 11 30 13
REMARK SMILES IDX 28 15 8 17 25 18 9 19 23 20 10 21 22 22 11 23 20 24 12 25
REMARK SMILES IDX 19 26 21 27 26 28 24 30 13 32 14 33 18 34 15 35 17 36 16 37
REMARK H PARENT 32 12 30 14 28 16 26 29 24 31
REMARK Flexibility Score: inf
ROOT
ATOM      1  O   UNL     1      15.796  13.730   5.862  1.00  0.00    -0.458 OA
ENDROOT
BRANCH   1   2
ATOM      2  C   UNL     1      16.090  13.163   4.575  1.00  0.00     0.339 C 
ATOM      3  C   UNL     1      13.813  12.876   4.075  1.00  0.00     0.199 C 
ATOM      4  C   UNL     1      13.901  11.335   4.071  1.00  0.00     0.180 C 
ATOM      5  O   UNL     1      15.042  13.460   3.664  1.00  0.00    -0.328 OA
ATOM      6  C   UNL     1      15.044  10.877   4.994  1.00  0.00     0.181 C 
ATOM      7  C   UNL     1      16.339  11.635   4.635  1.00  0.00     0.214 C 
BRANCH   3   8
ATOM      8  C   UNL     1      12.717  13.336   3.159  1.00  0.00     0.073 C 
ATOM      9  O   UNL     1      12.940  13.514   1.932  1.00  0.00    -0.547 OA
ATOM     10  O   UNL     1      11.431  13.516   3.654  1.00  0.00    -0.547 OA
ENDBRANCH   3   8
BRANCH   4  11
ATOM     11  O   UNL     1      14.129  10.873   2.762  1.00  0.00    -0.387 OA
ATOM     12  H   UNL     1      15.095  10.654   2.699  1.00  0.00     0.211 HD
ENDBRANCH   4  11
BRANCH   6  13
ATOM     13  O   UNL     1      14.683  11.110   6.332  1.00  0.00    -0.387 OA
ATOM     14  H   UNL     1      14.341  10.252   6.695  1.00  0.00     0.211 HD
ENDBRANCH   6  13
BRANCH   7  15
ATOM     15  O   UNL     1      17.366  11.335   5.544  1.00  0.00    -0.384 OA
ATOM     16  H   UNL     1      17.069  11.668   6.431  1.00  0.00     0.211 HD
ENDBRANCH   7  15
ENDBRANCH   1   2
BRANCH   1  17
ATOM     17  C   UNL     1      16.180  14.998   6.329  1.00  0.00     0.172 A 
ATOM     18  C   UNL     1      17.035  15.189   7.437  1.00  0.00     0.201 A 
ATOM     19  C   UNL     1      15.705  16.104   5.625  1.00  0.00     0.098 A 
ATOM     20  C   UNL     1      17.321  16.505   7.887  1.00  0.00     0.176 A 
ATOM     21  C   UNL     1      16.010  17.401   6.031  1.00  0.00     0.146 A 
ATOM     22  C   UNL     1      16.816  17.617   7.170  1.00  0.00     0.111 A 
ATOM     23  O   UNL     1      15.527  18.424   5.335  1.00  0.00    -0.456 OA
ATOM     24  C   UNL     1      17.071  18.956   7.539  1.00  0.00     0.197 A 
ATOM     25  C   UNL     1      15.759  19.697   5.649  1.00  0.00     0.138 A 
ATOM     26  C   UNL     1      16.539  19.996   6.777  1.00  0.00     0.100 A 
ATOM     27  O   UNL     1      17.770  19.240   8.549  1.00  0.00    -0.289 OA
BRANCH  18  28
ATOM     28  O   UNL     1      17.621  14.073   8.036  1.00  0.00    -0.502 OA
ATOM     29  H   UNL     1      17.564  13.133   7.673  1.00  0.00     0.293 HD
ENDBRANCH  18  28
BRANCH  20  30
ATOM     30  O   UNL     1      18.089  16.727   9.036  1.00  0.00    -0.504 OA
ATOM     31  H   UNL     1      18.490  15.995   9.604  1.00  0.00     0.293 HD
ENDBRANCH  20  30
BRANCH  25  32
ATOM     32  C   UNL     1      15.166  20.761   4.800  1.00  0.00     0.017 A 
ATOM     33  C   UNL     1      13.848  20.617   4.330  1.00  0.00     0.012 A 
ATOM     34  C   UNL     1      15.901  21.903   4.423  1.00  0.00     0.012 A 
ATOM     35  C   UNL     1      13.270  21.601   3.522  1.00  0.00     0.001 A 
ATOM     36  C   UNL     1      15.318  22.884   3.613  1.00  0.00     0.001 A 
ATOM     37  C   UNL     1      14.004  22.734   3.166  1.00  0.00     0.000 A 
ENDBRANCH  25  32
ENDBRANCH   1  17
TORSDOF 9
ENDMDL
MODEL 3
REMARK VINA RESULT:    -5.356      8.732     13.557
REMARK INTER + INTRA:          -8.760
REMARK INTER:                  -7.667
REMARK INTRA:                  -1.093
REMARK UNBOUND:                -1.368
REMARK SMILES O=C([O-])[C@@H]1O[C@@H](Oc2cc3oc(-c4ccccc4)cc(=O)c3c(O)c2O)[C@@H](O)[C@@H](O)[C@@H]1O
REMARK SMILES IDX 7 1 6 2 4 3 31 4 5 5 29 6 27 7 2 8 1 9 3 10 32 11 30 13
REMARK SMILES IDX 28 15 8 17 25 18 9 19 23 20 10 21 22 22 11 23 20 24 12 25
REMARK SMILES IDX 19 26 21 27 26 28 24 30 13 32 14 33 18 34 15 35 17 36 16 37
REMARK H PARENT 32 12 30 14 28 16 26 29 24 31
REMARK Flexibility Score: inf
ROOT
ATOM      1  O   UNL     1      15.638  13.669   4.547  1.00  0.00    -0.458 OA
ENDROOT
BRANCH   1   2
ATOM      2  C   UNL     1      15.083  12.453   5.076  1.00  0.00     0.339 C 
ATOM      3  C   UNL     1      16.661  11.129   3.949  1.00  0.00     0.199 C 
ATOM      4  C   UNL     1      15.608  10.468   3.034  1.00  0.00     0.180 C 
ATOM      5  O   UNL     1      16.102  11.473   5.209  1.00  0.00    -0.328 OA
ATOM      6  C   UNL     1      14.413  11.420   2.845  1.00  0.00     0.181 C 
ATOM      7  C   UNL     1      13.913  11.907   4.221  1.00  0.00     0.214 C 
BRANCH   3   8
ATOM      8  C   UNL     1      17.821  10.200   4.161  1.00  0.00     0.073 C 
ATOM      9  O   UNL     1      18.055   9.270   3.344  1.00  0.00    -0.547 OA
ATOM     10  O   UNL     1      18.678  10.398   5.236  1.00  0.00    -0.547 OA
ENDBRANCH   3   8
BRANCH   4  11
ATOM     11  O   UNL     1      15.171   9.259   3.606  1.00  0.00    -0.387 OA
ATOM     12  H   UNL     1      15.979   8.700   3.749  1.00  0.00     0.211 HD
ENDBRANCH   4  11
BRANCH   6  13
ATOM     13  O   UNL     1      14.805  12.505   2.043  1.00  0.00    -0.387 OA
ATOM     14  H   UNL     1      14.423  13.323   2.455  1.00  0.00     0.211 HD
ENDBRANCH   6  13
BRANCH   7  15
ATOM     15  O   UNL     1      12.909  12.877   4.076  1.00  0.00    -0.384 OA
ATOM     16  H   UNL     1      12.129  12.564   4.603  1.00  0.00     0.211 HD
ENDBRANCH   7  15
ENDBRANCH   1   2
BRANCH   1  17
ATOM     17  C   UNL     1      15.903  14.851   5.259  1.00  0.00     0.172 A 
ATOM     18  C   UNL     1      16.604  14.876   6.485  1.00  0.00     0.201 A 
ATOM     19  C   UNL     1      15.469  16.047   4.687  1.00  0.00     0.098 A 
ATOM     20  C   UNL     1      16.772  16.105   7.176  1.00  0.00     0.176 A 
ATOM     21  C   UNL     1      15.662  17.265   5.334  1.00  0.00     0.146 A 
ATOM     22  C   UNL     1      16.310  17.309   6.588  1.00  0.00     0.111 A 
ATOM     23  O   UNL     1      15.223  18.378   4.756  1.00  0.00    -0.456 OA
ATOM     24  C   UNL     1      16.455  18.574   7.199  1.00  0.00     0.197 A 
ATOM     25  C   UNL     1      15.356  19.586   5.299  1.00  0.00     0.138 A 
ATOM     26  C   UNL     1      15.975  19.712   6.552  1.00  0.00     0.100 A 
ATOM     27  O   UNL     1      17.010  18.702   8.323  1.00  0.00    -0.289 OA
BRANCH  18  28
ATOM     28  O   UNL     1      17.161  13.690   6.967  1.00  0.00    -0.502 OA
ATOM     29  H   UNL     1      17.684  13.035   6.406  1.00  0.00     0.293 HD
ENDBRANCH  18  28
BRANCH  20  30
ATOM     30  O   UNL     1      17.380  16.152   8.435  1.00  0.00    -0.504 OA
ATOM     31  H   UNL     1      18.022  16.872   8.732  1.00  0.00     0.293 HD
ENDBRANCH  20  30
BRANCH  25  32
ATOM     32  C   UNL     1      14.826  20.761   4.563  1.00  0.00     0.017 A 
ATOM     33  C   UNL     1      15.688  21.828   4.249  1.00  0.00     0.012 A 
ATOM     34  C   UNL     1      13.469  20.853   4.193  1.00  0.00     0.012 A 
ATOM     35  C   UNL     1      15.211  22.949   3.563  1.00  0.00     0.001 A 
ATOM     36  C   UNL     1      12.997  21.978   3.508  1.00  0.00     0.001 A 
ATOM     37  C   UNL     1      13.868  23.023   3.191  1.00  0.00     0.000 A 
ENDBRANCH  25  32
ENDBRANCH   1  17
TORSDOF 9
ENDMDL
MODEL 4
REMARK VINA RESULT:    -5.308      8.455     12.410
REMARK INTER + INTRA:          -8.693
REMARK INTER:                  -7.394
REMARK INTRA:                  -1.299
REMARK UNBOUND:                -1.368
REMARK SMILES O=C([O-])[C@@H]1O[C@@H](Oc2cc3oc(-c4ccccc4)cc(=O)c3c(O)c2O)[C@@H](O)[C@@H](O)[C@@H]1O
REMARK SMILES IDX 7 1 6 2 4 3 31 4 5 5 29 6 27 7 2 8 1 9 3 10 32 11 30 13
REMARK SMILES IDX 28 15 8 17 25 18 9 19 23 20 10 21 22 22 11 23 20 24 12 25
REMARK SMILES IDX 19 26 21 27 26 28 24 30 13 32 14 33 18 34 15 35 17 36 16 37
REMARK H PARENT 32 12 30 14 28 16 26 29 24 31
REMARK Flexibility Score: inf
ROOT
ATOM      1  O   UNL     1      14.783  19.118   4.143  1.00  0.00    -0.458 OA
ENDROOT
BRANCH   1   2
ATOM      2  C   UNL     1      15.259  19.779   2.959  1.00  0.00     0.339 C 
ATOM      3  C   UNL     1      15.922  21.679   4.170  1.00  0.00     0.199 C 
ATOM      4  C   UNL     1      14.879  22.598   3.501  1.00  0.00     0.180 C 
ATOM      5  O   UNL     1      16.335  20.644   3.286  1.00  0.00    -0.328 OA
ATOM      6  C   UNL     1      13.666  21.766   3.050  1.00  0.00     0.181 C 
ATOM      7  C   UNL     1      14.144  20.558   2.218  1.00  0.00     0.214 C 
BRANCH   3   8
ATOM      8  C   UNL     1      17.122  22.476   4.593  1.00  0.00     0.073 C 
ATOM      9  O   UNL     1      17.278  22.808   5.798  1.00  0.00    -0.547 OA
ATOM     10  O   UNL     1      18.097  22.806   3.660  1.00  0.00    -0.547 OA
ENDBRANCH   3   8
BRANCH   4  11
ATOM     11  O   UNL     1      15.454  23.245   2.392  1.00  0.00    -0.387 OA
ATOM     12  H   UNL     1      14.707  23.517   1.798  1.00  0.00     0.211 HD
ENDBRANCH   4  11
BRANCH   6  13
ATOM     13  O   UNL     1      12.946  21.342   4.180  1.00  0.00    -0.387 OA
ATOM     14  H   UNL     1      12.266  22.039   4.370  1.00  0.00     0.211 HD
ENDBRANCH   6  13
BRANCH   7  15
ATOM     15  O   UNL     1      13.070  19.709   1.903  1.00  0.00    -0.384 OA
ATOM     16  H   UNL     1      12.644  19.455   2.763  1.00  0.00     0.211 HD
ENDBRANCH   7  15
ENDBRANCH   1   2
BRANCH   1  17
ATOM     17  C   UNL     1      15.157  17.844   4.601  1.00  0.00     0.172 A 
ATOM     18  C   UNL     1      14.662  16.644   4.045  1.00  0.00     0.201 A 
ATOM     19  C   UNL     1      16.091  17.791   5.637  1.00  0.00     0.098 A 
ATOM     20  C   UNL     1      15.038  15.397   4.610  1.00  0.00     0.176 A 
ATOM     21  C   UNL     1      16.500  16.573   6.174  1.00  0.00     0.146 A 
ATOM     22  C   UNL     1      15.974  15.363   5.673  1.00  0.00     0.111 A 
ATOM     23  O   UNL     1      17.384  16.571   7.166  1.00  0.00    -0.456 OA
ATOM     24  C   UNL     1      16.416  14.165   6.276  1.00  0.00     0.197 A 
ATOM     25  C   UNL     1      17.830  15.460   7.747  1.00  0.00     0.138 A 
ATOM     26  C   UNL     1      17.344  14.216   7.316  1.00  0.00     0.100 A 
ATOM     27  O   UNL     1      15.989  13.040   5.898  1.00  0.00    -0.289 OA
BRANCH  18  28
ATOM     28  O   UNL     1      13.846  16.712   2.914  1.00  0.00    -0.502 OA
ATOM     29  H   UNL     1      12.982  17.231   2.864  1.00  0.00     0.293 HD
ENDBRANCH  18  28
BRANCH  20  30
ATOM     30  O   UNL     1      14.493  14.196   4.143  1.00  0.00    -0.504 OA
ATOM     31  H   UNL     1      13.880  14.120   3.344  1.00  0.00     0.293 HD
ENDBRANCH  20  30
BRANCH  25  32
ATOM     32  C   UNL     1      18.818  15.578   8.849  1.00  0.00     0.017 A 
ATOM     33  C   UNL     1      19.683  16.687   8.887  1.00  0.00     0.012 A 
ATOM     34  C   UNL     1      18.936  14.590   9.847  1.00  0.00     0.012 A 
ATOM     35  C   UNL     1      20.628  16.817   9.910  1.00  0.00     0.001 A 
ATOM     36  C   UNL     1      19.884  14.724  10.867  1.00  0.00     0.001 A 
ATOM     37  C   UNL     1      20.726  15.838  10.900  1.00  0.00     0.000 A 
ENDBRANCH  25  32
ENDBRANCH   1  17
TORSDOF 9
ENDMDL
MODEL 5
REMARK VINA RESULT:    -5.272      9.256     12.551
REMARK INTER + INTRA:          -8.644
REMARK INTER:                  -7.412
REMARK INTRA:                  -1.232
REMARK UNBOUND:                -1.368
REMARK SMILES O=C([O-])[C@@H]1O[C@@H](Oc2cc3oc(-c4ccccc4)cc(=O)c3c(O)c2O)[C@@H](O)[C@@H](O)[C@@H]1O
REMARK SMILES IDX 7 1 6 2 4 3 31 4 5 5 29 6 27 7 2 8 1 9 3 10 32 11 30 13
REMARK SMILES IDX 28 15 8 17 25 18 9 19 23 20 10 21 22 22 11 23 20 24 12 25
REMARK SMILES IDX 19 26 21 27 26 28 24 30 13 32 14 33 18 34 15 35 17 36 16 37
REMARK H PARENT 32 12 30 14 28 16 26 29 24 31
REMARK Flexibility Score: inf
ROOT
ATOM      1  O   UNL     1      14.545  19.196   4.529  1.00  0.00    -0.458 OA
ENDROOT
BRANCH   1   2
ATOM      2  C   UNL     1      14.993  19.731   3.273  1.00  0.00     0.339 C 
ATOM      3  C   UNL     1      15.798  21.691   4.286  1.00  0.00     0.199 C 
ATOM      4  C   UNL     1      14.767  22.601   3.585  1.00  0.00     0.180 C 
ATOM      5  O   UNL     1      16.122  20.567   3.478  1.00  0.00    -0.328 OA
ATOM      6  C   UNL     1      13.497  21.793   3.261  1.00  0.00     0.181 C 
ATOM      7  C   UNL     1      13.881  20.497   2.517  1.00  0.00     0.214 C 
BRANCH   3   8
ATOM      8  C   UNL     1      17.051  22.461   4.586  1.00  0.00     0.073 C 
ATOM      9  O   UNL     1      17.293  22.861   5.755  1.00  0.00    -0.547 OA
ATOM     10  O   UNL     1      17.980  22.690   3.578  1.00  0.00    -0.547 OA
ENDBRANCH   3   8
BRANCH   4  11
ATOM     11  O   UNL     1      15.317  23.123   2.401  1.00  0.00    -0.387 OA
ATOM     12  H   UNL     1      14.574  23.553   1.904  1.00  0.00     0.211 HD
ENDBRANCH   4  11
BRANCH   6  13
ATOM     13  O   UNL     1      12.814  21.501   4.453  1.00  0.00    -0.387 OA
ATOM     14  H   UNL     1      13.098  22.176   5.124  1.00  0.00     0.211 HD
ENDBRANCH   6  13
BRANCH   7  15
ATOM     15  O   UNL     1      12.756  19.678   2.323  1.00  0.00    -0.384 OA
ATOM     16  H   UNL     1      13.067  18.740   2.413  1.00  0.00     0.211 HD
ENDBRANCH   7  15
ENDBRANCH   1   2
BRANCH   1  17
ATOM     17  C   UNL     1      15.089  18.097   5.216  1.00  0.00     0.172 A 
ATOM     18  C   UNL     1      15.700  18.202   6.484  1.00  0.00     0.201 A 
ATOM     19  C   UNL     1      14.975  16.847   4.606  1.00  0.00     0.098 A 
ATOM     20  C   UNL     1      16.286  17.055   7.082  1.00  0.00     0.176 A 
ATOM     21  C   UNL     1      15.509  15.707   5.199  1.00  0.00     0.146 A 
ATOM     22  C   UNL     1      16.176  15.797   6.440  1.00  0.00     0.111 A 
ATOM     23  O   UNL     1      15.386  14.539   4.577  1.00  0.00    -0.456 OA
ATOM     24  C   UNL     1      16.712  14.605   6.977  1.00  0.00     0.197 A 
ATOM     25  C   UNL     1      15.868  13.397   5.062  1.00  0.00     0.138 A 
ATOM     26  C   UNL     1      16.558  13.405   6.284  1.00  0.00     0.100 A 
ATOM     27  O   UNL     1      17.333  14.598   8.074  1.00  0.00    -0.289 OA
BRANCH  18  28
ATOM     28  O   UNL     1      15.672  19.431   7.146  1.00  0.00    -0.502 OA
ATOM     29  H   UNL     1      16.326  19.709   7.863  1.00  0.00     0.293 HD
ENDBRANCH  18  28
BRANCH  20  30
ATOM     30  O   UNL     1      16.980  17.143   8.294  1.00  0.00    -0.504 OA
ATOM     31  H   UNL     1      17.504  17.953   8.593  1.00  0.00     0.293 HD
ENDBRANCH  20  30
BRANCH  25  32
ATOM     32  C   UNL     1      15.672  12.151   4.279  1.00  0.00     0.017 A 
ATOM     33  C   UNL     1      16.024  10.913   4.848  1.00  0.00     0.012 A 
ATOM     34  C   UNL     1      15.168  12.174   2.963  1.00  0.00     0.012 A 
ATOM     35  C   UNL     1      15.856   9.726   4.127  1.00  0.00     0.001 A 
ATOM     36  C   UNL     1      15.003  10.984   2.246  1.00  0.00     0.001 A 
ATOM     37  C   UNL     1      15.344   9.762   2.829  1.00  0.00     0.000 A 
ENDBRANCH  25  32
ENDBRANCH   1  17
TORSDOF 9
ENDMDL
MODEL 6
REMARK VINA RESULT:    -5.179      7.664     12.435
REMARK INTER + INTRA:          -8.516
REMARK INTER:                  -7.427
REMARK INTRA:                  -1.089
REMARK UNBOUND:                -1.368
REMARK SMILES O=C([O-])[C@@H]1O[C@@H](Oc2cc3oc(-c4ccccc4)cc(=O)c3c(O)c2O)[C@@H](O)[C@@H](O)[C@@H]1O
REMARK SMILES IDX 7 1 6 2 4 3 31 4 5 5 29 6 27 7 2 8 1 9 3 10 32 11 30 13
REMARK SMILES IDX 28 15 8 17 25 18 9 19 23 20 10 21 22 22 11 23 20 24 12 25
REMARK SMILES IDX 19 26 21 27 26 28 24 30 13 32 14 33 18 34 15 35 17 36 16 37
REMARK H PARENT 32 12 30 14 28 16 26 29 24 31
REMARK Flexibility Score: inf
ROOT
ATOM      1  O   UNL     1      17.664  13.948   5.939  1.00  0.00    -0.458 OA
ENDROOT
BRANCH   1   2
ATOM      2  C   UNL     1      17.546  13.687   4.531  1.00  0.00     0.339 C 
ATOM      3  C   UNL     1      16.020  11.937   4.886  1.00  0.00     0.199 C 
ATOM      4  C   UNL     1      16.984  10.851   4.364  1.00  0.00     0.180 C 
ATOM      5  O   UNL     1      16.251  13.182   4.239  1.00  0.00    -0.328 OA
ATOM      6  C   UNL     1      18.440  11.301   4.579  1.00  0.00     0.181 C 
ATOM      7  C   UNL     1      18.636  12.720   4.006  1.00  0.00     0.214 C 
BRANCH   3   8
ATOM      8  C   UNL     1      14.596  11.520   4.660  1.00  0.00     0.073 C 
ATOM      9  O   UNL     1      13.830  11.301   5.635  1.00  0.00    -0.547 OA
ATOM     10  O   UNL     1      14.100  11.426   3.365  1.00  0.00    -0.547 OA
ENDBRANCH   3   8
BRANCH   4  11
ATOM     11  O   UNL     1      16.751  10.624   2.996  1.00  0.00    -0.387 OA
ATOM     12  H   UNL     1      17.309  11.276   2.497  1.00  0.00     0.211 HD
ENDBRANCH   4  11
BRANCH   6  13
ATOM     13  O   UNL     1      18.738  11.271   5.952  1.00  0.00    -0.387 OA
ATOM     14  H   UNL     1      18.378  10.418   6.309  1.00  0.00     0.211 HD
ENDBRANCH   6  13
BRANCH   7  15
ATOM     15  O   UNL     1      19.918  13.209   4.304  1.00  0.00    -0.384 OA
ATOM     16  H   UNL     1      20.545  12.773   3.671  1.00  0.00     0.211 HD
ENDBRANCH   7  15
ENDBRANCH   1   2
BRANCH   1  17
ATOM     17  C   UNL     1      17.528  15.192   6.577  1.00  0.00     0.172 A 
ATOM     18  C   UNL     1      17.902  15.419   7.920  1.00  0.00     0.201 A 
ATOM     19  C   UNL     1      17.027  16.246   5.813  1.00  0.00     0.098 A 
ATOM     20  C   UNL     1      17.669  16.688   8.512  1.00  0.00     0.176 A 
ATOM     21  C   UNL     1      16.831  17.508   6.369  1.00  0.00     0.146 A 
ATOM     22  C   UNL     1      17.144  17.743   7.725  1.00  0.00     0.111 A 
ATOM     23  O   UNL     1      16.342  18.479   5.605  1.00  0.00    -0.456 OA
ATOM     24  C   UNL     1      16.902  19.039   8.231  1.00  0.00     0.197 A 
ATOM     25  C   UNL     1      16.115  19.714   6.048  1.00  0.00     0.138 A 
ATOM     26  C   UNL     1      16.385  20.024   7.390  1.00  0.00     0.100 A 
ATOM     27  O   UNL     1      17.141  19.332   9.434  1.00  0.00    -0.289 OA
BRANCH  18  28
ATOM     28  O   UNL     1      18.540  14.396   8.624  1.00  0.00    -0.502 OA
ATOM     29  H   UNL     1      18.347  14.157   9.586  1.00  0.00     0.293 HD
ENDBRANCH  18  28
BRANCH  20  30
ATOM     30  O   UNL     1      17.942  16.918   9.865  1.00  0.00    -0.504 OA
ATOM     31  H   UNL     1      18.727  17.454  10.205  1.00  0.00     0.293 HD
ENDBRANCH  20  30
BRANCH  25  32
ATOM     32  C   UNL     1      15.565  20.720   5.105  1.00  0.00     0.017 A 
ATOM     33  C   UNL     1      14.291  20.518   4.543  1.00  0.00     0.012 A 
ATOM     34  C   UNL     1      16.299  21.863   4.730  1.00  0.00     0.012 A 
ATOM     35  C   UNL     1      13.755  21.447   3.646  1.00  0.00     0.001 A 
ATOM     36  C   UNL     1      15.758  22.789   3.831  1.00  0.00     0.001 A 
ATOM     37  C   UNL     1      14.487  22.582   3.293  1.00  0.00     0.000 A 
ENDBRANCH  25  32
ENDBRANCH   1  17
TORSDOF 9
ENDMDL
MODEL 7
REMARK VINA RESULT:    -5.175      2.565      8.503
REMARK INTER + INTRA:          -8.509
REMARK INTER:                  -7.085
REMARK INTRA:                  -1.424
REMARK UNBOUND:                -1.368
REMARK SMILES O=C([O-])[C@@H]1O[C@@H](Oc2cc3oc(-c4ccccc4)cc(=O)c3c(O)c2O)[C@@H](O)[C@@H](O)[C@@H]1O
REMARK SMILES IDX 7 1 6 2 4 3 31 4 5 5 29 6 27 7 2 8 1 9 3 10 32 11 30 13
REMARK SMILES IDX 28 15 8 17 25 18 9 19 23 20 10 21 22 22 11 23 20 24 12 25
REMARK SMILES IDX 19 26 21 27 26 28 24 30 13 32 14 33 18 34 15 35 17 36 16 37
REMARK H PARENT 32 12 30 14 28 16 26 29 24 31
REMARK Flexibility Score: inf
ROOT
ATOM      1  O   UNL     1      19.413  19.689   9.908  1.00  0.00    -0.458 OA
ENDROOT
BRANCH   1   2
ATOM      2  C   UNL     1      18.145  19.156   9.491  1.00  0.00     0.339 C 
ATOM      3  C   UNL     1      19.100  17.098   8.887  1.00  0.00     0.199 C 
ATOM      4  C   UNL     1      18.803  17.283   7.384  1.00  0.00     0.180 C 
ATOM      5  O   UNL     1      18.123  17.750   9.687  1.00  0.00    -0.328 OA
ATOM      6  C   UNL     1      18.752  18.783   7.045  1.00  0.00     0.181 C 
ATOM      7  C   UNL     1      17.801  19.505   8.022  1.00  0.00     0.214 C 
BRANCH   3   8
ATOM      8  C   UNL     1      19.129  15.638   9.235  1.00  0.00     0.073 C 
ATOM      9  O   UNL     1      18.881  15.254  10.409  1.00  0.00    -0.547 OA
ATOM     10  O   UNL     1      19.377  14.696   8.245  1.00  0.00    -0.547 OA
ENDBRANCH   3   8
BRANCH   4  11
ATOM     11  O   UNL     1      17.575  16.677   7.062  1.00  0.00    -0.387 OA
ATOM     12  H   UNL     1      16.875  17.373   7.170  1.00  0.00     0.211 HD
ENDBRANCH   4  11
BRANCH   6  13
ATOM     13  O   UNL     1      20.048  19.321   7.118  1.00  0.00    -0.387 OA
ATOM     14  H   UNL     1      20.237  19.743   6.240  1.00  0.00     0.211 HD
ENDBRANCH   6  13
BRANCH   7  15
ATOM     15  O   UNL     1      17.835  20.895   7.821  1.00  0.00    -0.384 OA
ATOM     16  H   UNL     1      18.058  21.040   6.865  1.00  0.00     0.211 HD
ENDBRANCH   7  15
ENDBRANCH   1   2
BRANCH   1  17
ATOM     17  C   UNL     1      19.625  20.733  10.824  1.00  0.00     0.172 A 
ATOM     18  C   UNL     1      20.125  22.000  10.451  1.00  0.00     0.201 A 
ATOM     19  C   UNL     1      19.286  20.488  12.155  1.00  0.00     0.098 A 
ATOM     20  C   UNL     1      20.376  22.980  11.448  1.00  0.00     0.176 A 
ATOM     21  C   UNL     1      19.489  21.454  13.137  1.00  0.00     0.146 A 
ATOM     22  C   UNL     1      20.041  22.708  12.798  1.00  0.00     0.111 A 
ATOM     23  O   UNL     1      19.160  21.173  14.394  1.00  0.00    -0.456 OA
ATOM     24  C   UNL     1      20.239  23.634  13.846  1.00  0.00     0.197 A 
ATOM     25  C   UNL     1      19.322  22.029  15.401  1.00  0.00     0.138 A 
ATOM     26  C   UNL     1      19.880  23.291  15.148  1.00  0.00     0.100 A 
ATOM     27  O   UNL     1      20.738  24.773  13.633  1.00  0.00    -0.289 OA
BRANCH  18  28
ATOM     28  O   UNL     1      20.317  22.278   9.097  1.00  0.00    -0.502 OA
ATOM     29  H   UNL     1      21.214  22.274   8.634  1.00  0.00     0.293 HD
ENDBRANCH  18  28
BRANCH  20  30
ATOM     30  O   UNL     1      20.957  24.211  11.125  1.00  0.00    -0.504 OA
ATOM     31  H   UNL     1      21.692  24.652  11.658  1.00  0.00     0.293 HD
ENDBRANCH  20  30
BRANCH  25  32
ATOM     32  C   UNL     1      18.920  21.606  16.766  1.00  0.00     0.017 A 
ATOM     33  C   UNL     1      19.718  21.969  17.867  1.00  0.00     0.012 A 
ATOM     34  C   UNL     1      17.770  20.822  16.991  1.00  0.00     0.012 A 
ATOM     35  C   UNL     1      19.365  21.576  19.161  1.00  0.00     0.001 A 
ATOM     36  C   UNL     1      17.422  20.431  18.289  1.00  0.00     0.001 A 
ATOM     37  C   UNL     1      18.217  20.811  19.372  1.00  0.00     0.000 A 
ENDBRANCH  25  32
ENDBRANCH   1  17
TORSDOF 9
ENDMDL
MODEL 8
REMARK VINA RESULT:    -5.050      1.311      2.242
REMARK INTER + INTRA:          -8.337
REMARK INTER:                  -7.778
REMARK INTRA:                  -0.559
REMARK UNBOUND:                -1.368
REMARK SMILES O=C([O-])[C@@H]1O[C@@H](Oc2cc3oc(-c4ccccc4)cc(=O)c3c(O)c2O)[C@@H](O)[C@@H](O)[C@@H]1O
REMARK SMILES IDX 7 1 6 2 4 3 31 4 5 5 29 6 27 7 2 8 1 9 3 10 32 11 30 13
REMARK SMILES IDX 28 15 8 17 25 18 9 19 23 20 10 21 22 22 11 23 20 24 12 25
REMARK SMILES IDX 19 26 21 27 26 28 24 30 13 32 14 33 18 34 15 35 17 36 16 37
REMARK H PARENT 32 12 30 14 28 16 26 29 24 31
REMARK Flexibility Score: inf
ROOT
ATOM      1  O   UNL     1      20.055  22.258  16.958  1.00  0.00    -0.458 OA
ENDROOT
BRANCH   1   2
ATOM      2  C   UNL     1      19.171  22.954  17.852  1.00  0.00     0.339 C 
ATOM      3  C   UNL     1      19.271  21.230  19.444  1.00  0.00     0.199 C 
ATOM      4  C   UNL     1      17.784  20.851  19.280  1.00  0.00     0.180 C 
ATOM      5  O   UNL     1      19.477  22.615  19.196  1.00  0.00    -0.328 OA
ATOM      6  C   UNL     1      17.308  21.216  17.863  1.00  0.00     0.181 C 
ATOM      7  C   UNL     1      17.677  22.681  17.551  1.00  0.00     0.214 C 
BRANCH   3   8
ATOM      8  C   UNL     1      19.741  20.901  20.831  1.00  0.00     0.073 C 
ATOM      9  O   UNL     1      20.415  19.860  21.050  1.00  0.00    -0.547 OA
ATOM     10  O   UNL     1      19.477  21.777  21.877  1.00  0.00    -0.547 OA
ENDBRANCH   3   8
BRANCH   4  11
ATOM     11  O   UNL     1      17.009  21.534  20.235  1.00  0.00    -0.387 OA
ATOM     12  H   UNL     1      16.635  20.847  20.846  1.00  0.00     0.211 HD
ENDBRANCH   4  11
BRANCH   6  13
ATOM     13  O   UNL     1      17.899  20.343  16.934  1.00  0.00    -0.387 OA
ATOM     14  H   UNL     1      18.497  19.737  17.445  1.00  0.00     0.211 HD
ENDBRANCH   6  13
BRANCH   7  15
ATOM     15  O   UNL     1      17.373  23.003  16.218  1.00  0.00    -0.384 OA
ATOM     16  H   UNL     1      17.895  23.816  15.993  1.00  0.00     0.211 HD
ENDBRANCH   7  15
ENDBRANCH   1   2
BRANCH   1  17
ATOM     17  C   UNL     1      20.191  22.473  15.576  1.00  0.00     0.172 A 
ATOM     18  C   UNL     1      20.524  23.726  15.016  1.00  0.00     0.201 A 
ATOM     19  C   UNL     1      20.016  21.368  14.742  1.00  0.00     0.098 A 
ATOM     20  C   UNL     1      20.576  23.876  13.604  1.00  0.00     0.176 A 
ATOM     21  C   UNL     1      20.104  21.491  13.358  1.00  0.00     0.146 A 
ATOM     22  C   UNL     1      20.378  22.746  12.772  1.00  0.00     0.111 A 
ATOM     23  O   UNL     1      19.920  20.414  12.602  1.00  0.00    -0.456 OA
ATOM     24  C   UNL     1      20.434  22.806  11.362  1.00  0.00     0.197 A 
ATOM     25  C   UNL     1      19.978  20.434  11.272  1.00  0.00     0.138 A 
ATOM     26  C   UNL     1      20.231  21.647  10.613  1.00  0.00     0.100 A 
ATOM     27  O   UNL     1      20.661  23.888  10.756  1.00  0.00    -0.289 OA
BRANCH  18  28
ATOM     28  O   UNL     1      20.843  24.782  15.870  1.00  0.00    -0.502 OA
ATOM     29  H   UNL     1      20.218  25.542  16.097  1.00  0.00     0.293 HD
ENDBRANCH  18  28
BRANCH  20  30
ATOM     30  O   UNL     1      20.811  25.123  13.016  1.00  0.00    -0.504 OA
ATOM     31  H   UNL     1      20.393  25.988  13.327  1.00  0.00     0.293 HD
ENDBRANCH  20  30
BRANCH  25  32
ATOM     32  C   UNL     1      19.755  19.168  10.530  1.00  0.00     0.017 A 
ATOM     33  C   UNL     1      18.469  18.868  10.043  1.00  0.00     0.012 A 
ATOM     34  C   UNL     1      20.793  18.237  10.322  1.00  0.00     0.012 A 
ATOM     35  C   UNL     1      18.232  17.678   9.347  1.00  0.00     0.001 A 
ATOM     36  C   UNL     1      20.550  17.048   9.627  1.00  0.00     0.001 A 
ATOM     37  C   UNL     1      19.272  16.771   9.138  1.00  0.00     0.000 A 
ENDBRANCH  25  32
ENDBRANCH   1  17
TORSDOF 9
ENDMDL
MODEL 9
REMARK VINA RESULT:    -4.933      1.620      3.160
REMARK INTER + INTRA:          -8.176
REMARK INTER:                  -6.710
REMARK INTRA:                  -1.467
REMARK UNBOUND:                -1.368
REMARK SMILES O=C([O-])[C@@H]1O[C@@H](Oc2cc3oc(-c4ccccc4)cc(=O)c3c(O)c2O)[C@@H](O)[C@@H](O)[C@@H]1O
REMARK SMILES IDX 7 1 6 2 4 3 31 4 5 5 29 6 27 7 2 8 1 9 3 10 32 11 30 13
REMARK SMILES IDX 28 15 8 17 25 18 9 19 23 20 10 21 22 22 11 23 20 24 12 25
REMARK SMILES IDX 19 26 21 27 26 28 24 30 13 32 14 33 18 34 15 35 17 36 16 37
REMARK H PARENT 32 12 30 14 28 16 26 29 24 31
REMARK Flexibility Score: inf
ROOT
ATOM      1  O   UNL     1      19.321  22.023  17.763  1.00  0.00    -0.458 OA
ENDROOT
BRANCH   1   2
ATOM      2  C   UNL     1      18.141  22.406  18.489  1.00  0.00     0.339 C 
ATOM      3  C   UNL     1      19.395  23.525  20.129  1.00  0.00     0.199 C 
ATOM      4  C   UNL     1      19.000  22.542  21.251  1.00  0.00     0.180 C 
ATOM      5  O   UNL     1      18.362  23.638  19.159  1.00  0.00    -0.328 OA
ATOM      6  C   UNL     1      18.683  21.163  20.646  1.00  0.00     0.181 C 
ATOM      7  C   UNL     1      17.673  21.321  19.490  1.00  0.00     0.214 C 
BRANCH   3   8
ATOM      8  C   UNL     1      19.683  24.881  20.704  1.00  0.00     0.073 C 
ATOM      9  O   UNL     1      19.844  25.030  21.944  1.00  0.00    -0.547 OA
ATOM     10  O   UNL     1      19.827  25.975  19.859  1.00  0.00    -0.547 OA
ENDBRANCH   3   8
BRANCH   4  11
ATOM     11  O   UNL     1      17.875  23.031  21.940  1.00  0.00    -0.387 OA
ATOM     12  H   UNL     1      18.155  23.872  22.386  1.00  0.00     0.211 HD
ENDBRANCH   4  11
BRANCH   6  13
ATOM     13  O   UNL     1      19.873  20.569  20.192  1.00  0.00    -0.387 OA
ATOM     14  H   UNL     1      20.300  20.137  20.978  1.00  0.00     0.211 HD
ENDBRANCH   6  13
BRANCH   7  15
ATOM     15  O   UNL     1      17.465  20.097  18.834  1.00  0.00    -0.384 OA
ATOM     16  H   UNL     1      18.055  19.431  19.275  1.00  0.00     0.211 HD
ENDBRANCH   7  15
ENDBRANCH   1   2
BRANCH   1  17
ATOM     17  C   UNL     1      19.662  22.403  16.454  1.00  0.00     0.172 A 
ATOM     18  C   UNL     1      20.229  23.656  16.134  1.00  0.00     0.201 A 
ATOM     19  C   UNL     1      19.450  21.462  15.445  1.00  0.00     0.098 A 
ATOM     20  C   UNL     1      20.483  23.989  14.777  1.00  0.00     0.176 A 
ATOM     21  C   UNL     1      19.733  21.760  14.115  1.00  0.00     0.146 A 
ATOM     22  C   UNL     1      20.246  23.028  13.764  1.00  0.00     0.111 A 
ATOM     23  O   UNL     1      19.506  20.837  13.186  1.00  0.00    -0.456 OA
ATOM     24  C   UNL     1      20.491  23.271  12.394  1.00  0.00     0.197 A 
ATOM     25  C   UNL     1      19.739  21.031  11.890  1.00  0.00     0.138 A 
ATOM     26  C   UNL     1      20.235  22.270  11.458  1.00  0.00     0.100 A 
ATOM     27  O   UNL     1      20.938  24.379  11.992  1.00  0.00    -0.289 OA
BRANCH  18  28
ATOM     28  O   UNL     1      20.572  24.525  17.171  1.00  0.00    -0.502 OA
ATOM     29  H   UNL     1      21.028  24.242  18.026  1.00  0.00     0.293 HD
ENDBRANCH  18  28
BRANCH  20  30
ATOM     30  O   UNL     1      20.957  25.255  14.418  1.00  0.00    -0.504 OA
ATOM     31  H   UNL     1      20.417  25.945  13.917  1.00  0.00     0.293 HD
ENDBRANCH  20  30
BRANCH  25  32
ATOM     32  C   UNL     1      19.447  19.927  10.941  1.00  0.00     0.017 A 
ATOM     33  C   UNL     1      18.137  19.759  10.455  1.00  0.00     0.012 A 
ATOM     34  C   UNL     1      20.444  19.018  10.532  1.00  0.00     0.012 A 
ATOM     35  C   UNL     1      17.835  18.723   9.567  1.00  0.00     0.001 A 
ATOM     36  C   UNL     1      20.136  17.982   9.643  1.00  0.00     0.001 A 
ATOM     37  C   UNL     1      18.834  17.837   9.159  1.00  0.00     0.000 A 
ENDBRANCH  25  32
ENDBRANCH   1  17
TORSDOF 9
ENDMDL
