MODEL 1
REMARK VINA RESULT:     1.406      0.000      0.000
REMARK INTER + INTRA:           0.815
REMARK INTER:                   1.981
REMARK INTRA:                  -1.166
REMARK UNBOUND:                -1.166
REMARK SMILES OC[C@H]1O[C@H](O[C@H]2OC=C[C@@H]3[C@H](O)[C@@H]4O[C@]4(CO)[C@@H]23)[C@H](O)[C@H](O)[C@@H]1O
REMARK SMILES IDX 6 1 7 2 10 3 9 4 11 5 8 6 19 7 12 8 16 9 14 10 15 11 13 12
REMARK SMILES IDX 17 14 18 15 5 17 20 18 4 19 22 20 3 21 24 22 21 23 23 25
REMARK SMILES IDX 2 27 1 28 25 30
REMARK H PARENT 13 13 18 16 21 24 23 26 1 29 25 31
REMARK Flexibility Score: inf
ROOT
ATOM      1  O   UNL     1     -21.746 -16.560 -14.038  1.00  0.00    -0.310 OA
ENDROOT
BRANCH   1   2
ATOM      2  C   UNL     1     -20.735 -17.100 -13.190  1.00  0.00     0.315 C 
ATOM      3  C   UNL     1     -17.842 -17.602 -13.065  1.00  0.00     0.018 C 
ATOM      4  C   UNL     1     -18.698 -18.582 -13.423  1.00  0.00     0.186 C 
ATOM      5  C   UNL     1     -18.411 -16.231 -13.304  1.00  0.00     0.059 C 
ATOM      6  O   UNL     1     -20.026 -18.211 -13.801  1.00  0.00    -0.472 OA
ATOM      7  C   UNL     1     -19.713 -16.079 -12.532  1.00  0.00     0.105 C 
ATOM      8  C   UNL     1     -17.592 -14.981 -13.015  1.00  0.00     0.154 C 
ATOM      9  C   UNL     1     -19.978 -14.543 -12.344  1.00  0.00     0.130 C 
ATOM     10  C   UNL     1     -18.698 -13.875 -12.740  1.00  0.00     0.183 C 
ATOM     11  O   UNL     1     -19.127 -13.875 -11.416  1.00  0.00    -0.360 OA
BRANCH   8  12
ATOM     12  O   UNL     1     -16.778 -15.240 -11.906  1.00  0.00    -0.390 OA
ATOM     13  H   UNL     1     -16.529 -16.205 -11.842  1.00  0.00     0.211 HD
ENDBRANCH   8  12
BRANCH   9  14
ATOM     14  C   UNL     1     -21.393 -13.912 -12.309  1.00  0.00     0.195 C 
BRANCH  14  15
ATOM     15  O   UNL     1     -22.002 -13.884 -13.581  1.00  0.00    -0.393 OA
ATOM     16  H   UNL     1     -22.448 -14.773 -13.717  1.00  0.00     0.210 HD
ENDBRANCH  14  15
ENDBRANCH   9  14
ENDBRANCH   1   2
BRANCH   1  17
ATOM     17  C   UNL     1     -22.864 -17.370 -14.331  1.00  0.00     0.286 C 
ATOM     18  C   UNL     1     -24.057 -16.516 -14.845  1.00  0.00     0.202 C 
ATOM     19  O   UNL     1     -23.261 -18.099 -13.171  1.00  0.00    -0.341 OA
ATOM     20  C   UNL     1     -25.390 -17.365 -15.035  1.00  0.00     0.179 C 
ATOM     21  C   UNL     1     -24.325 -19.007 -13.466  1.00  0.00     0.178 C 
ATOM     22  C   UNL     1     -25.623 -18.232 -13.768  1.00  0.00     0.177 C 
BRANCH  18  23
ATOM     23  O   UNL     1     -24.267 -15.536 -13.855  1.00  0.00    -0.385 OA
ATOM     24  H   UNL     1     -23.999 -14.660 -14.242  1.00  0.00     0.211 HD
ENDBRANCH  18  23
BRANCH  20  25
ATOM     25  O   UNL     1     -26.473 -16.523 -15.297  1.00  0.00    -0.387 OA
ATOM     26  H   UNL     1     -26.559 -16.426 -16.285  1.00  0.00     0.211 HD
ENDBRANCH  20  25
BRANCH  21  27
ATOM     27  C   UNL     1     -23.933 -20.091 -14.512  1.00  0.00     0.191 C 
BRANCH  27  28
ATOM     28  O   UNL     1     -22.852 -20.860 -14.060  1.00  0.00    -0.394 OA
ATOM     29  H   UNL     1     -22.093 -20.604 -14.649  1.00  0.00     0.210 HD
ENDBRANCH  27  28
ENDBRANCH  21  27
BRANCH  22  30
ATOM     30  O   UNL     1     -25.873 -17.374 -12.680  1.00  0.00    -0.387 OA
ATOM     31  H   UNL     1     -25.543 -16.472 -12.964  1.00  0.00     0.211 HD
ENDBRANCH  22  30
ENDBRANCH   1  17
TORSDOF 10
ENDMDL
MODEL 2
REMARK VINA RESULT:     1.708      1.329      1.769
REMARK INTER + INTRA:           1.241
REMARK INTER:                   1.308
REMARK INTRA:                  -0.067
REMARK UNBOUND:                -1.166
REMARK SMILES OC[C@H]1O[C@H](O[C@H]2OC=C[C@@H]3[C@H](O)[C@@H]4O[C@]4(CO)[C@@H]23)[C@H](O)[C@H](O)[C@@H]1O
REMARK SMILES IDX 6 1 7 2 10 3 9 4 11 5 8 6 19 7 12 8 16 9 14 10 15 11 13 12
REMARK SMILES IDX 17 14 18 15 5 17 20 18 4 19 22 20 3 21 24 22 21 23 23 25
REMARK SMILES IDX 2 27 1 28 25 30
REMARK H PARENT 13 13 18 16 21 24 23 26 1 29 25 31
REMARK Flexibility Score: inf
ROOT
ATOM      1  O   UNL     1     -22.174 -15.876 -13.368  1.00  0.00    -0.310 OA
ENDROOT
BRANCH   1   2
ATOM      2  C   UNL     1     -21.088 -16.700 -12.949  1.00  0.00     0.315 C 
ATOM      3  C   UNL     1     -18.310 -17.388 -13.619  1.00  0.00     0.018 C 
ATOM      4  C   UNL     1     -19.332 -18.167 -14.029  1.00  0.00     0.186 C 
ATOM      5  C   UNL     1     -18.744 -15.976 -13.341  1.00  0.00     0.059 C 
ATOM      6  O   UNL     1     -20.654 -17.624 -13.983  1.00  0.00    -0.472 OA
ATOM      7  C   UNL     1     -19.840 -15.979 -12.285  1.00  0.00     0.105 C 
ATOM      8  C   UNL     1     -17.739 -14.916 -12.913  1.00  0.00     0.154 C 
ATOM      9  C   UNL     1     -19.873 -14.552 -11.630  1.00  0.00     0.130 C 
ATOM     10  C   UNL     1     -18.625 -13.875 -12.106  1.00  0.00     0.183 C 
ATOM     11  O   UNL     1     -18.780 -14.237 -10.771  1.00  0.00    -0.360 OA
BRANCH   8  12
ATOM     12  O   UNL     1     -16.758 -15.537 -12.128  1.00  0.00    -0.390 OA
ATOM     13  H   UNL     1     -16.512 -14.985 -11.334  1.00  0.00     0.211 HD
ENDBRANCH   8  12
BRANCH   9  14
ATOM     14  C   UNL     1     -21.166 -13.875 -11.107  1.00  0.00     0.195 C 
BRANCH  14  15
ATOM     15  O   UNL     1     -22.243 -14.006 -12.007  1.00  0.00    -0.393 OA
ATOM     16  H   UNL     1     -23.044 -13.579 -11.577  1.00  0.00     0.210 HD
ENDBRANCH  14  15
ENDBRANCH   9  14
ENDBRANCH   1   2
BRANCH   1  17
ATOM     17  C   UNL     1     -23.148 -16.447 -14.212  1.00  0.00     0.286 C 
ATOM     18  C   UNL     1     -23.221 -15.698 -15.573  1.00  0.00     0.202 C 
ATOM     19  O   UNL     1     -24.427 -16.417 -13.580  1.00  0.00    -0.341 OA
ATOM     20  C   UNL     1     -24.416 -16.205 -16.495  1.00  0.00     0.179 C 
ATOM     21  C   UNL     1     -25.413 -17.085 -14.369  1.00  0.00     0.178 C 
ATOM     22  C   UNL     1     -25.715 -16.278 -15.647  1.00  0.00     0.177 C 
BRANCH  18  23
ATOM     23  O   UNL     1     -23.430 -14.345 -15.242  1.00  0.00    -0.385 OA
ATOM     24  H   UNL     1     -24.027 -14.322 -14.448  1.00  0.00     0.211 HD
ENDBRANCH  18  23
BRANCH  20  25
ATOM     25  O   UNL     1     -24.564 -15.370 -17.605  1.00  0.00    -0.387 OA
ATOM     26  H   UNL     1     -23.656 -15.087 -17.904  1.00  0.00     0.211 HD
ENDBRANCH  20  25
BRANCH  21  27
ATOM     27  C   UNL     1     -25.105 -18.595 -14.588  1.00  0.00     0.191 C 
BRANCH  27  28
ATOM     28  O   UNL     1     -26.191 -19.392 -14.204  1.00  0.00    -0.394 OA
ATOM     29  H   UNL     1     -25.782 -20.221 -13.837  1.00  0.00     0.210 HD
ENDBRANCH  27  28
ENDBRANCH  21  27
BRANCH  22  30
ATOM     30  O   UNL     1     -26.066 -14.971 -15.256  1.00  0.00    -0.387 OA
ATOM     31  H   UNL     1     -25.220 -14.437 -15.305  1.00  0.00     0.211 HD
ENDBRANCH  22  30
ENDBRANCH   1  17
TORSDOF 10
ENDMDL
MODEL 3
REMARK VINA RESULT:     1.879      1.265      6.276
REMARK INTER + INTRA:           1.482
REMARK INTER:                   2.364
REMARK INTRA:                  -0.882
REMARK UNBOUND:                -1.166
REMARK SMILES OC[C@H]1O[C@H](O[C@H]2OC=C[C@@H]3[C@H](O)[C@@H]4O[C@]4(CO)[C@@H]23)[C@H](O)[C@H](O)[C@@H]1O
REMARK SMILES IDX 6 1 7 2 10 3 9 4 11 5 8 6 19 7 12 8 16 9 14 10 15 11 13 12
REMARK SMILES IDX 17 14 18 15 5 17 20 18 4 19 22 20 3 21 24 22 21 23 23 25
REMARK SMILES IDX 2 27 1 28 25 30
REMARK H PARENT 13 13 18 16 21 24 23 26 1 29 25 31
REMARK Flexibility Score: inf
ROOT
ATOM      1  O   UNL     1     -21.869 -16.271 -13.794  1.00  0.00    -0.310 OA
ENDROOT
BRANCH   1   2
ATOM      2  C   UNL     1     -22.346 -17.487 -14.368  1.00  0.00     0.315 C 
ATOM      3  C   UNL     1     -23.933 -19.879 -13.737  1.00  0.00     0.018 C 
ATOM      4  C   UNL     1     -22.585 -19.909 -13.677  1.00  0.00     0.186 C 
ATOM      5  C   UNL     1     -24.480 -18.487 -13.584  1.00  0.00     0.059 C 
ATOM      6  O   UNL     1     -21.884 -18.663 -13.651  1.00  0.00    -0.472 OA
ATOM      7  C   UNL     1     -23.901 -17.591 -14.668  1.00  0.00     0.105 C 
ATOM      8  C   UNL     1     -25.981 -18.232 -13.573  1.00  0.00     0.154 C 
ATOM      9  C   UNL     1     -24.865 -16.362 -14.836  1.00  0.00     0.130 C 
ATOM     10  C   UNL     1     -26.100 -16.730 -14.073  1.00  0.00     0.183 C 
ATOM     11  O   UNL     1     -26.116 -16.635 -15.462  1.00  0.00    -0.360 OA
BRANCH   8  12
ATOM     12  O   UNL     1     -26.587 -19.154 -14.435  1.00  0.00    -0.390 OA
ATOM     13  H   UNL     1     -27.380 -18.764 -14.900  1.00  0.00     0.211 HD
ENDBRANCH   8  12
BRANCH   9  14
ATOM     14  C   UNL     1     -24.386 -14.938 -15.215  1.00  0.00     0.195 C 
BRANCH  14  15
ATOM     15  O   UNL     1     -23.837 -14.245 -14.117  1.00  0.00    -0.393 OA
ATOM     16  H   UNL     1     -23.540 -14.933 -13.448  1.00  0.00     0.210 HD
ENDBRANCH  14  15
ENDBRANCH   9  14
ENDBRANCH   1   2
BRANCH   1  17
ATOM     17  C   UNL     1     -20.600 -16.285 -13.179  1.00  0.00     0.286 C 
ATOM     18  C   UNL     1     -20.477 -15.152 -12.122  1.00  0.00     0.202 C 
ATOM     19  O   UNL     1     -19.575 -16.137 -14.161  1.00  0.00    -0.341 OA
ATOM     20  C   UNL     1     -19.009 -15.027 -11.517  1.00  0.00     0.179 C 
ATOM     21  C   UNL     1     -18.276 -16.253 -13.578  1.00  0.00     0.178 C 
ATOM     22  C   UNL     1     -17.980 -15.036 -12.680  1.00  0.00     0.177 C 
BRANCH  18  23
ATOM     23  O   UNL     1     -20.800 -13.965 -12.807  1.00  0.00    -0.385 OA
ATOM     24  H   UNL     1     -21.024 -14.214 -13.743  1.00  0.00     0.211 HD
ENDBRANCH  18  23
BRANCH  20  25
ATOM     25  O   UNL     1     -18.900 -13.875 -10.733  1.00  0.00    -0.387 OA
ATOM     26  H   UNL     1     -17.935 -13.720 -10.543  1.00  0.00     0.211 HD
ENDBRANCH  20  25
BRANCH  21  27
ATOM     27  C   UNL     1     -18.017 -17.643 -12.929  1.00  0.00     0.191 C 
BRANCH  27  28
ATOM     28  O   UNL     1     -18.897 -18.609 -13.437  1.00  0.00    -0.394 OA
ATOM     29  H   UNL     1     -18.322 -19.394 -13.644  1.00  0.00     0.210 HD
ENDBRANCH  27  28
ENDBRANCH  21  27
BRANCH  22  30
ATOM     30  O   UNL     1     -18.171 -13.875 -13.453  1.00  0.00    -0.387 OA
ATOM     31  H   UNL     1     -18.143 -13.110 -12.808  1.00  0.00     0.211 HD
ENDBRANCH  22  30
ENDBRANCH   1  17
TORSDOF 10
ENDMDL
MODEL 4
REMARK VINA RESULT:     2.065      1.875      6.054
REMARK INTER + INTRA:           1.744
REMARK INTER:                  -0.476
REMARK INTRA:                   2.220
REMARK UNBOUND:                -1.166
REMARK SMILES OC[C@H]1O[C@H](O[C@H]2OC=C[C@@H]3[C@H](O)[C@@H]4O[C@]4(CO)[C@@H]23)[C@H](O)[C@H](O)[C@@H]1O
REMARK SMILES IDX 6 1 7 2 10 3 9 4 11 5 8 6 19 7 12 8 16 9 14 10 15 11 13 12
REMARK SMILES IDX 17 14 18 15 5 17 20 18 4 19 22 20 3 21 24 22 21 23 23 25
REMARK SMILES IDX 2 27 1 28 25 30
REMARK H PARENT 13 13 18 16 21 24 23 26 1 29 25 31
REMARK Flexibility Score: inf
ROOT
ATOM      1  O   UNL     1     -21.796 -17.635 -14.037  1.00  0.00    -0.310 OA
ENDROOT
BRANCH   1   2
ATOM      2  C   UNL     1     -23.056 -18.109 -14.505  1.00  0.00     0.315 C 
ATOM      3  C   UNL     1     -25.939 -17.953 -13.955  1.00  0.00     0.018 C 
ATOM      4  C   UNL     1     -25.207 -18.993 -13.507  1.00  0.00     0.186 C 
ATOM      5  C   UNL     1     -25.101 -16.731 -14.208  1.00  0.00     0.059 C 
ATOM      6  O   UNL     1     -23.783 -18.859 -13.494  1.00  0.00    -0.472 OA
ATOM      7  C   UNL     1     -24.011 -17.061 -15.217  1.00  0.00     0.105 C 
ATOM      8  C   UNL     1     -25.735 -15.427 -14.673  1.00  0.00     0.154 C 
ATOM      9  C   UNL     1     -23.536 -15.711 -15.863  1.00  0.00     0.130 C 
ATOM     10  C   UNL     1     -24.551 -14.696 -15.437  1.00  0.00     0.183 C 
ATOM     11  O   UNL     1     -24.453 -15.098 -16.766  1.00  0.00    -0.360 OA
BRANCH   8  12
ATOM     12  O   UNL     1     -26.821 -15.741 -15.501  1.00  0.00    -0.390 OA
ATOM     13  H   UNL     1     -26.972 -16.726 -15.561  1.00  0.00     0.211 HD
ENDBRANCH   8  12
BRANCH   9  14
ATOM     14  C   UNL     1     -22.081 -15.445 -16.328  1.00  0.00     0.195 C 
BRANCH  14  15
ATOM     15  O   UNL     1     -21.692 -14.104 -16.136  1.00  0.00    -0.393 OA
ATOM     16  H   UNL     1     -20.695 -14.098 -16.011  1.00  0.00     0.210 HD
ENDBRANCH  14  15
ENDBRANCH   9  14
ENDBRANCH   1   2
BRANCH   1  17
ATOM     17  C   UNL     1     -21.691 -16.271 -13.692  1.00  0.00     0.286 C 
ATOM     18  C   UNL     1     -20.262 -15.728 -13.978  1.00  0.00     0.202 C 
ATOM     19  O   UNL     1     -22.006 -16.086 -12.312  1.00  0.00    -0.341 OA
ATOM     20  C   UNL     1     -20.050 -14.239 -13.455  1.00  0.00     0.179 C 
ATOM     21  C   UNL     1     -22.010 -14.701 -11.961  1.00  0.00     0.178 C 
ATOM     22  C   UNL     1     -20.577 -14.134 -11.998  1.00  0.00     0.177 C 
BRANCH  18  23
ATOM     23  O   UNL     1     -19.390 -16.592 -13.288  1.00  0.00    -0.385 OA
ATOM     24  H   UNL     1     -19.384 -17.459 -13.774  1.00  0.00     0.211 HD
ENDBRANCH  18  23
BRANCH  20  25
ATOM     25  O   UNL     1     -18.704 -13.876 -13.550  1.00  0.00    -0.387 OA
ATOM     26  H   UNL     1     -18.521 -13.183 -12.858  1.00  0.00     0.211 HD
ENDBRANCH  20  25
BRANCH  21  27
ATOM     27  C   UNL     1     -23.079 -13.875 -12.735  1.00  0.00     0.191 C 
BRANCH  27  28
ATOM     28  O   UNL     1     -24.327 -13.949 -12.103  1.00  0.00    -0.394 OA
ATOM     29  H   UNL     1     -24.123 -13.907 -11.130  1.00  0.00     0.210 HD
ENDBRANCH  27  28
ENDBRANCH  21  27
BRANCH  22  30
ATOM     30  O   UNL     1     -19.774 -14.943 -11.173  1.00  0.00    -0.387 OA
ATOM     31  H   UNL     1     -19.361 -15.625 -11.780  1.00  0.00     0.211 HD
ENDBRANCH  22  30
ENDBRANCH   1  17
TORSDOF 10
ENDMDL
MODEL 5
REMARK VINA RESULT:     2.258      1.366      6.697
REMARK INTER + INTRA:           2.015
REMARK INTER:                   1.472
REMARK INTRA:                   0.544
REMARK UNBOUND:                -1.166
REMARK SMILES OC[C@H]1O[C@H](O[C@H]2OC=C[C@@H]3[C@H](O)[C@@H]4O[C@]4(CO)[C@@H]23)[C@H](O)[C@H](O)[C@@H]1O
REMARK SMILES IDX 6 1 7 2 10 3 9 4 11 5 8 6 19 7 12 8 16 9 14 10 15 11 13 12
REMARK SMILES IDX 17 14 18 15 5 17 20 18 4 19 22 20 3 21 24 22 21 23 23 25
REMARK SMILES IDX 2 27 1 28 25 30
REMARK H PARENT 13 13 18 16 21 24 23 26 1 29 25 31
REMARK Flexibility Score: inf
ROOT
ATOM      1  O   UNL     1     -21.673 -16.472 -14.210  1.00  0.00    -0.310 OA
ENDROOT
BRANCH   1   2
ATOM      2  C   UNL     1     -22.840 -15.799 -13.741  1.00  0.00     0.315 C 
ATOM      3  C   UNL     1     -25.389 -14.666 -14.666  1.00  0.00     0.018 C 
ATOM      4  C   UNL     1     -24.310 -13.877 -14.478  1.00  0.00     0.186 C 
ATOM      5  C   UNL     1     -25.012 -16.101 -14.907  1.00  0.00     0.059 C 
ATOM      6  O   UNL     1     -23.029 -14.503 -14.369  1.00  0.00    -0.472 OA
ATOM      7  C   UNL     1     -24.199 -16.619 -13.730  1.00  0.00     0.105 C 
ATOM      8  C   UNL     1     -26.074 -17.154 -15.191  1.00  0.00     0.154 C 
ATOM      9  C   UNL     1     -24.300 -18.186 -13.734  1.00  0.00     0.130 C 
ATOM     10  C   UNL     1     -25.389 -18.503 -14.711  1.00  0.00     0.183 C 
ATOM     11  O   UNL     1     -25.561 -18.728 -13.348  1.00  0.00    -0.360 OA
BRANCH   8  12
ATOM     12  O   UNL     1     -27.222 -16.823 -14.460  1.00  0.00    -0.390 OA
ATOM     13  H   UNL     1     -27.557 -17.595 -13.922  1.00  0.00     0.211 HD
ENDBRANCH   8  12
BRANCH   9  14
ATOM     14  C   UNL     1     -23.158 -19.123 -13.264  1.00  0.00     0.195 C 
BRANCH  14  15
ATOM     15  O   UNL     1     -23.110 -20.324 -14.002  1.00  0.00    -0.393 OA
ATOM     16  H   UNL     1     -22.176 -20.416 -14.361  1.00  0.00     0.210 HD
ENDBRANCH  14  15
ENDBRANCH   9  14
ENDBRANCH   1   2
BRANCH   1  17
ATOM     17  C   UNL     1     -20.510 -16.409 -13.414  1.00  0.00     0.286 C 
ATOM     18  C   UNL     1     -20.603 -15.257 -12.375  1.00  0.00     0.202 C 
ATOM     19  O   UNL     1     -19.360 -16.219 -14.237  1.00  0.00    -0.341 OA
ATOM     20  C   UNL     1     -19.250 -15.044 -11.563  1.00  0.00     0.179 C 
ATOM     21  C   UNL     1     -18.157 -16.257 -13.467  1.00  0.00     0.178 C 
ATOM     22  C   UNL     1     -18.060 -15.014 -12.561  1.00  0.00     0.177 C 
BRANCH  18  23
ATOM     23  O   UNL     1     -20.882 -14.098 -13.126  1.00  0.00    -0.385 OA
ATOM     24  H   UNL     1     -21.237 -13.415 -12.497  1.00  0.00     0.211 HD
ENDBRANCH  18  23
BRANCH  20  25
ATOM     25  O   UNL     1     -19.317 -13.878 -10.797  1.00  0.00    -0.387 OA
ATOM     26  H   UNL     1     -20.084 -13.334 -11.128  1.00  0.00     0.211 HD
ENDBRANCH  20  25
BRANCH  21  27
ATOM     27  C   UNL     1     -17.926 -17.623 -12.757  1.00  0.00     0.191 C 
BRANCH  27  28
ATOM     28  O   UNL     1     -17.978 -18.682 -13.673  1.00  0.00    -0.394 OA
ATOM     29  H   UNL     1     -18.629 -18.389 -14.366  1.00  0.00     0.210 HD
ENDBRANCH  27  28
ENDBRANCH  21  27
BRANCH  22  30
ATOM     30  O   UNL     1     -18.194 -13.876 -13.379  1.00  0.00    -0.387 OA
ATOM     31  H   UNL     1     -18.856 -14.127 -14.088  1.00  0.00     0.211 HD
ENDBRANCH  22  30
ENDBRANCH   1  17
TORSDOF 10
ENDMDL
MODEL 6
REMARK VINA RESULT:     2.514      1.239      2.512
REMARK INTER + INTRA:           2.377
REMARK INTER:                   2.724
REMARK INTRA:                  -0.348
REMARK UNBOUND:                -1.166
REMARK SMILES OC[C@H]1O[C@H](O[C@H]2OC=C[C@@H]3[C@H](O)[C@@H]4O[C@]4(CO)[C@@H]23)[C@H](O)[C@H](O)[C@@H]1O
REMARK SMILES IDX 6 1 7 2 10 3 9 4 11 5 8 6 19 7 12 8 16 9 14 10 15 11 13 12
REMARK SMILES IDX 17 14 18 15 5 17 20 18 4 19 22 20 3 21 24 22 21 23 23 25
REMARK SMILES IDX 2 27 1 28 25 30
REMARK H PARENT 13 13 18 16 21 24 23 26 1 29 25 31
REMARK Flexibility Score: inf
ROOT
ATOM      1  O   UNL     1     -21.943 -16.579 -14.645  1.00  0.00    -0.310 OA
ENDROOT
BRANCH   1   2
ATOM      2  C   UNL     1     -21.138 -17.116 -13.598  1.00  0.00     0.315 C 
ATOM      3  C   UNL     1     -18.346 -17.705 -12.893  1.00  0.00     0.018 C 
ATOM      4  C   UNL     1     -19.153 -18.670 -13.378  1.00  0.00     0.186 C 
ATOM      5  C   UNL     1     -18.803 -16.327 -13.284  1.00  0.00     0.059 C 
ATOM      6  O   UNL     1     -20.367 -18.273 -14.021  1.00  0.00    -0.472 OA
ATOM      7  C   UNL     1     -20.224 -16.103 -12.788  1.00  0.00     0.105 C 
ATOM      8  C   UNL     1     -18.008 -15.093 -12.882  1.00  0.00     0.154 C 
ATOM      9  C   UNL     1     -20.460 -14.552 -12.706  1.00  0.00     0.130 C 
ATOM     10  C   UNL     1     -19.101 -13.942 -12.866  1.00  0.00     0.183 C 
ATOM     11  O   UNL     1     -19.779 -13.875 -11.652  1.00  0.00    -0.360 OA
BRANCH   8  12
ATOM     12  O   UNL     1     -17.435 -15.333 -11.626  1.00  0.00    -0.390 OA
ATOM     13  H   UNL     1     -18.127 -15.437 -10.915  1.00  0.00     0.211 HD
ENDBRANCH   8  12
BRANCH   9  14
ATOM     14  C   UNL     1     -21.829 -13.875 -12.970  1.00  0.00     0.195 C 
BRANCH  14  15
ATOM     15  O   UNL     1     -22.693 -13.960 -11.859  1.00  0.00    -0.393 OA
ATOM     16  H   UNL     1     -23.566 -14.333 -12.188  1.00  0.00     0.210 HD
ENDBRANCH  14  15
ENDBRANCH   9  14
ENDBRANCH   1   2
BRANCH   1  17
ATOM     17  C   UNL     1     -23.333 -16.481 -14.425  1.00  0.00     0.286 C 
ATOM     18  C   UNL     1     -23.826 -17.587 -13.450  1.00  0.00     0.202 C 
ATOM     19  O   UNL     1     -24.035 -16.585 -15.662  1.00  0.00    -0.341 OA
ATOM     20  C   UNL     1     -25.410 -17.616 -13.298  1.00  0.00     0.179 C 
ATOM     21  C   UNL     1     -25.439 -16.384 -15.482  1.00  0.00     0.178 C 
ATOM     22  C   UNL     1     -26.056 -17.566 -14.709  1.00  0.00     0.177 C 
BRANCH  18  23
ATOM     23  O   UNL     1     -23.390 -18.802 -14.013  1.00  0.00    -0.385 OA
ATOM     24  H   UNL     1     -24.199 -19.303 -14.300  1.00  0.00     0.211 HD
ENDBRANCH  18  23
BRANCH  20  25
ATOM     25  O   UNL     1     -25.811 -18.745 -12.581  1.00  0.00    -0.387 OA
ATOM     26  H   UNL     1     -25.845 -19.517 -13.210  1.00  0.00     0.211 HD
ENDBRANCH  20  25
BRANCH  21  27
ATOM     27  C   UNL     1     -25.790 -14.970 -14.935  1.00  0.00     0.191 C 
BRANCH  27  28
ATOM     28  O   UNL     1     -25.313 -13.966 -15.788  1.00  0.00    -0.394 OA
ATOM     29  H   UNL     1     -24.326 -14.089 -15.800  1.00  0.00     0.210 HD
ENDBRANCH  27  28
ENDBRANCH  21  27
BRANCH  22  30
ATOM     30  O   UNL     1     -25.719 -18.749 -15.395  1.00  0.00    -0.387 OA
ATOM     31  H   UNL     1     -25.351 -18.456 -16.279  1.00  0.00     0.211 HD
ENDBRANCH  22  30
ENDBRANCH   1  17
TORSDOF 10
ENDMDL
MODEL 7
REMARK VINA RESULT:     2.544      1.493      6.342
REMARK INTER + INTRA:           2.419
REMARK INTER:                   1.986
REMARK INTRA:                   0.432
REMARK UNBOUND:                -1.166
REMARK SMILES OC[C@H]1O[C@H](O[C@H]2OC=C[C@@H]3[C@H](O)[C@@H]4O[C@]4(CO)[C@@H]23)[C@H](O)[C@H](O)[C@@H]1O
REMARK SMILES IDX 6 1 7 2 10 3 9 4 11 5 8 6 19 7 12 8 16 9 14 10 15 11 13 12
REMARK SMILES IDX 17 14 18 15 5 17 20 18 4 19 22 20 3 21 24 22 21 23 23 25
REMARK SMILES IDX 2 27 1 28 25 30
REMARK H PARENT 13 13 18 16 21 24 23 26 1 29 25 31
REMARK Flexibility Score: inf
ROOT
ATOM      1  O   UNL     1     -21.432 -17.295 -12.899  1.00  0.00    -0.310 OA
ENDROOT
BRANCH   1   2
ATOM      2  C   UNL     1     -21.896 -18.316 -13.781  1.00  0.00     0.315 C 
ATOM      3  C   UNL     1     -23.692 -20.641 -13.891  1.00  0.00     0.018 C 
ATOM      4  C   UNL     1     -22.369 -20.799 -13.677  1.00  0.00     0.186 C 
ATOM      5  C   UNL     1     -24.172 -19.270 -13.502  1.00  0.00     0.059 C 
ATOM      6  O   UNL     1     -21.607 -19.653 -13.291  1.00  0.00    -0.472 OA
ATOM      7  C   UNL     1     -23.398 -18.219 -14.283  1.00  0.00     0.105 C 
ATOM      8  C   UNL     1     -25.643 -18.894 -13.617  1.00  0.00     0.154 C 
ATOM      9  C   UNL     1     -24.257 -16.904 -14.291  1.00  0.00     0.130 C 
ATOM     10  C   UNL     1     -25.604 -17.315 -13.784  1.00  0.00     0.183 C 
ATOM     11  O   UNL     1     -25.424 -16.929 -15.109  1.00  0.00    -0.360 OA
BRANCH   8  12
ATOM     12  O   UNL     1     -26.178 -19.557 -14.729  1.00  0.00    -0.390 OA
ATOM     13  H   UNL     1     -25.559 -20.259 -15.077  1.00  0.00     0.211 HD
ENDBRANCH   8  12
BRANCH   9  14
ATOM     14  C   UNL     1     -23.647 -15.479 -14.286  1.00  0.00     0.195 C 
BRANCH  14  15
ATOM     15  O   UNL     1     -23.828 -14.821 -13.052  1.00  0.00    -0.393 OA
ATOM     16  H   UNL     1     -22.922 -14.518 -12.740  1.00  0.00     0.210 HD
ENDBRANCH  14  15
ENDBRANCH   9  14
ENDBRANCH   1   2
BRANCH   1  17
ATOM     17  C   UNL     1     -20.631 -16.269 -13.442  1.00  0.00     0.286 C 
ATOM     18  C   UNL     1     -19.134 -16.472 -13.074  1.00  0.00     0.202 C 
ATOM     19  O   UNL     1     -21.073 -14.998 -12.969  1.00  0.00    -0.341 OA
ATOM     20  C   UNL     1     -18.215 -15.253 -13.528  1.00  0.00     0.179 C 
ATOM     21  C   UNL     1     -20.346 -13.932 -13.585  1.00  0.00     0.178 C 
ATOM     22  C   UNL     1     -18.886 -13.922 -13.091  1.00  0.00     0.177 C 
BRANCH  18  23
ATOM     23  O   UNL     1     -19.106 -16.578 -11.670  1.00  0.00    -0.385 OA
ATOM     24  H   UNL     1     -18.200 -16.896 -11.414  1.00  0.00     0.211 HD
ENDBRANCH  18  23
BRANCH  20  25
ATOM     25  O   UNL     1     -16.930 -15.387 -12.997  1.00  0.00    -0.387 OA
ATOM     26  H   UNL     1     -16.316 -14.801 -13.520  1.00  0.00     0.211 HD
ENDBRANCH  20  25
BRANCH  21  27
ATOM     27  C   UNL     1     -20.531 -13.876 -15.129  1.00  0.00     0.191 C 
BRANCH  27  28
ATOM     28  O   UNL     1     -21.890 -13.880 -15.475  1.00  0.00    -0.394 OA
ATOM     29  H   UNL     1     -21.900 -13.841 -16.469  1.00  0.00     0.210 HD
ENDBRANCH  27  28
ENDBRANCH  21  27
BRANCH  22  30
ATOM     30  O   UNL     1     -18.910 -13.876 -11.684  1.00  0.00    -0.387 OA
ATOM     31  H   UNL     1     -18.077 -14.343 -11.382  1.00  0.00     0.211 HD
ENDBRANCH  22  30
ENDBRANCH   1  17
TORSDOF 10
ENDMDL
MODEL 8
REMARK VINA RESULT:     2.626      1.883      5.851
REMARK INTER + INTRA:           2.534
REMARK INTER:                   0.188
REMARK INTRA:                   2.346
REMARK UNBOUND:                -1.166
REMARK SMILES OC[C@H]1O[C@H](O[C@H]2OC=C[C@@H]3[C@H](O)[C@@H]4O[C@]4(CO)[C@@H]23)[C@H](O)[C@H](O)[C@@H]1O
REMARK SMILES IDX 6 1 7 2 10 3 9 4 11 5 8 6 19 7 12 8 16 9 14 10 15 11 13 12
REMARK SMILES IDX 17 14 18 15 5 17 20 18 4 19 22 20 3 21 24 22 21 23 23 25
REMARK SMILES IDX 2 27 1 28 25 30
REMARK H PARENT 13 13 18 16 21 24 23 26 1 29 25 31
REMARK Flexibility Score: inf
ROOT
ATOM      1  O   UNL     1     -21.373 -13.881 -14.787  1.00  0.00    -0.310 OA
ENDROOT
BRANCH   1   2
ATOM      2  C   UNL     1     -22.707 -13.945 -15.288  1.00  0.00     0.315 C 
ATOM      3  C   UNL     1     -24.592 -15.756 -16.631  1.00  0.00     0.018 C 
ATOM      4  C   UNL     1     -23.891 -14.843 -17.335  1.00  0.00     0.186 C 
ATOM      5  C   UNL     1     -23.925 -16.109 -15.330  1.00  0.00     0.059 C 
ATOM      6  O   UNL     1     -22.757 -14.236 -16.711  1.00  0.00    -0.472 OA
ATOM      7  C   UNL     1     -23.741 -14.850 -14.495  1.00  0.00     0.105 C 
ATOM      8  C   UNL     1     -24.522 -17.156 -14.402  1.00  0.00     0.154 C 
ATOM      9  C   UNL     1     -23.579 -15.293 -12.997  1.00  0.00     0.130 C 
ATOM     10  C   UNL     1     -23.968 -16.739 -12.974  1.00  0.00     0.183 C 
ATOM     11  O   UNL     1     -24.761 -15.774 -12.361  1.00  0.00    -0.360 OA
BRANCH   8  12
ATOM     12  O   UNL     1     -25.918 -17.082 -14.499  1.00  0.00    -0.390 OA
ATOM     13  H   UNL     1     -26.369 -17.745 -13.905  1.00  0.00     0.211 HD
ENDBRANCH   8  12
BRANCH   9  14
ATOM     14  C   UNL     1     -22.696 -14.542 -11.969  1.00  0.00     0.195 C 
BRANCH  14  15
ATOM     15  O   UNL     1     -23.455 -13.943 -10.943  1.00  0.00    -0.393 OA
ATOM     16  H   UNL     1     -24.295 -14.484 -10.840  1.00  0.00     0.210 HD
ENDBRANCH  14  15
ENDBRANCH   9  14
ENDBRANCH   1   2
BRANCH   1  17
ATOM     17  C   UNL     1     -20.937 -14.918 -13.936  1.00  0.00     0.286 C 
ATOM     18  C   UNL     1     -19.818 -14.423 -12.977  1.00  0.00     0.202 C 
ATOM     19  O   UNL     1     -20.457 -16.018 -14.706  1.00  0.00    -0.341 OA
ATOM     20  C   UNL     1     -19.183 -15.598 -12.109  1.00  0.00     0.179 C 
ATOM     21  C   UNL     1     -20.108 -17.124 -13.871  1.00  0.00     0.178 C 
ATOM     22  C   UNL     1     -18.851 -16.794 -13.041  1.00  0.00     0.177 C 
BRANCH  18  23
ATOM     23  O   UNL     1     -18.826 -13.875 -13.813  1.00  0.00    -0.385 OA
ATOM     24  H   UNL     1     -18.521 -13.027 -13.394  1.00  0.00     0.211 HD
ENDBRANCH  18  23
BRANCH  20  25
ATOM     25  O   UNL     1     -18.055 -15.143 -11.422  1.00  0.00    -0.387 OA
ATOM     26  H   UNL     1     -17.736 -15.877 -10.829  1.00  0.00     0.211 HD
ENDBRANCH  20  25
BRANCH  21  27
ATOM     27  C   UNL     1     -21.313 -17.689 -13.065  1.00  0.00     0.191 C 
BRANCH  27  28
ATOM     28  O   UNL     1     -21.507 -19.050 -13.337  1.00  0.00    -0.394 OA
ATOM     29  H   UNL     1     -21.916 -19.420 -12.508  1.00  0.00     0.210 HD
ENDBRANCH  27  28
ENDBRANCH  21  27
BRANCH  22  30
ATOM     30  O   UNL     1     -17.839 -16.395 -13.935  1.00  0.00    -0.387 OA
ATOM     31  H   UNL     1     -17.342 -15.658 -13.473  1.00  0.00     0.211 HD
ENDBRANCH  22  30
ENDBRANCH   1  17
TORSDOF 10
ENDMDL
