MODEL 1
REMARK VINA RESULT:    -4.973      0.000      0.000
REMARK INTER + INTRA:         -15.927
REMARK INTER:                 -12.532
REMARK INTRA:                  -3.395
REMARK UNBOUND:                -3.395
REMARK SMILES CCCCCCCCCCCCCCCCCCCCCCCCCCCC(=O)[O-]
REMARK SMILES IDX 15 1 16 2 17 3 18 4 19 5 20 6 21 7 22 8 23 9 24 10 25 11
REMARK SMILES IDX 26 12 27 13 28 14 29 15 30 16 14 17 13 18 12 19 11 20 10 21
REMARK SMILES IDX 9 22 8 23 7 24 6 25 5 26 4 27 3 28 2 29 1 30
REMARK H PARENT
REMARK Flexibility Score: inf
ROOT
ATOM      1  C   UNL     1       6.265  80.213  37.354  1.00  0.00     0.000 C 
ENDROOT
BRANCH   1   2
ATOM      2  C   UNL     1       5.434  79.919  38.618  1.00  0.00     0.000 C 
BRANCH   2   3
ATOM      3  C   UNL     1       6.233  79.383  39.821  1.00  0.00     0.000 C 
BRANCH   3   4
ATOM      4  C   UNL     1       5.796  77.975  40.253  1.00  0.00     0.000 C 
BRANCH   4   5
ATOM      5  C   UNL     1       6.783  76.915  39.744  1.00  0.00     0.000 C 
BRANCH   5   6
ATOM      6  C   UNL     1       6.126  76.006  38.698  1.00  0.00     0.000 C 
BRANCH   6   7
ATOM      7  C   UNL     1       4.597  76.063  38.795  1.00  0.00     0.000 C 
BRANCH   7   8
ATOM      8  C   UNL     1       4.016  74.690  39.168  1.00  0.00     0.000 C 
BRANCH   8   9
ATOM      9  C   UNL     1       4.873  73.521  38.656  1.00  0.00     0.000 C 
BRANCH   9  10
ATOM     10  C   UNL     1       5.266  72.537  39.772  1.00  0.00     0.000 C 
BRANCH  10  11
ATOM     11  C   UNL     1       5.397  71.087  39.274  1.00  0.00     0.000 C 
BRANCH  11  12
ATOM     12  C   UNL     1       6.754  70.783  38.603  1.00  0.00     0.006 C 
BRANCH  12  13
ATOM     13  C   UNL     1       7.866  71.723  39.088  1.00  0.00     0.053 C 
BRANCH  13  14
ATOM     14  C   UNL     1       8.623  72.288  37.928  1.00  0.00     0.041 C 
ATOM     15  O   UNL     1       8.214  73.332  37.354  1.00  0.00    -0.550 OA
ATOM     16  O   UNL     1       9.804  71.689  37.509  1.00  0.00    -0.550 OA
ENDBRANCH  13  14
ENDBRANCH  12  13
ENDBRANCH  11  12
ENDBRANCH  10  11
ENDBRANCH   9  10
ENDBRANCH   8   9
ENDBRANCH   7   8
ENDBRANCH   6   7
ENDBRANCH   5   6
ENDBRANCH   4   5
ENDBRANCH   3   4
ENDBRANCH   2   3
ENDBRANCH   1   2
BRANCH   1  17
ATOM     17  C   UNL     1       6.643  78.943  36.572  1.00  0.00     0.000 C 
BRANCH  17  18
ATOM     18  C   UNL     1       8.126  78.910  36.162  1.00  0.00     0.000 C 
BRANCH  18  19
ATOM     19  C   UNL     1       9.002  77.910  36.940  1.00  0.00     0.000 C 
BRANCH  19  20
ATOM     20  C   UNL     1       9.523  78.479  38.269  1.00  0.00     0.000 C 
BRANCH  20  21
ATOM     21  C   UNL     1      10.126  79.875  38.073  1.00  0.00     0.000 C 
BRANCH  21  22
ATOM     22  C   UNL     1      10.721  80.407  39.387  1.00  0.00    -0.000 C 
BRANCH  22  23
ATOM     23  C   UNL     1      10.202  79.641  40.624  1.00  0.00    -0.000 C 
BRANCH  23  24
ATOM     24  C   UNL     1      11.117  79.759  41.857  1.00  0.00    -0.000 C 
BRANCH  24  25
ATOM     25  C   UNL     1      10.472  80.438  43.076  1.00  0.00    -0.000 C 
BRANCH  25  26
ATOM     26  C   UNL     1       9.550  81.609  42.687  1.00  0.00    -0.000 C 
BRANCH  26  27
ATOM     27  C   UNL     1       8.076  81.333  43.023  1.00  0.00    -0.000 C 
BRANCH  27  28
ATOM     28  C   UNL     1       7.710  81.762  44.456  1.00  0.00    -0.000 C 
BRANCH  28  29
ATOM     29  C   UNL     1       7.537  80.562  45.402  1.00  0.00    -0.003 C 
ATOM     30  C   UNL     1       7.158  80.982  46.823  1.00  0.00     0.004 C 
ENDBRANCH  28  29
ENDBRANCH  27  28
ENDBRANCH  26  27
ENDBRANCH  25  26
ENDBRANCH  24  25
ENDBRANCH  23  24
ENDBRANCH  22  23
ENDBRANCH  21  22
ENDBRANCH  20  21
ENDBRANCH  19  20
ENDBRANCH  18  19
ENDBRANCH  17  18
ENDBRANCH   1  17
TORSDOF 26
ENDMDL
MODEL 2
REMARK VINA RESULT:    -4.955      3.239      8.806
REMARK INTER + INTRA:         -15.881
REMARK INTER:                 -12.191
REMARK INTRA:                  -3.690
REMARK UNBOUND:                -3.395
REMARK SMILES CCCCCCCCCCCCCCCCCCCCCCCCCCCC(=O)[O-]
REMARK SMILES IDX 15 1 16 2 17 3 18 4 19 5 20 6 21 7 22 8 23 9 24 10 25 11
REMARK SMILES IDX 26 12 27 13 28 14 29 15 30 16 14 17 13 18 12 19 11 20 10 21
REMARK SMILES IDX 9 22 8 23 7 24 6 25 5 26 4 27 3 28 2 29 1 30
REMARK H PARENT
REMARK Flexibility Score: inf
ROOT
ATOM      1  C   UNL     1       6.145  79.255  39.955  1.00  0.00     0.000 C 
ENDROOT
BRANCH   1   2
ATOM      2  C   UNL     1       5.266  79.784  38.805  1.00  0.00     0.000 C 
BRANCH   2   3
ATOM      3  C   UNL     1       6.033  80.349  37.595  1.00  0.00     0.000 C 
BRANCH   3   4
ATOM      4  C   UNL     1       6.163  79.342  36.443  1.00  0.00     0.000 C 
BRANCH   4   5
ATOM      5  C   UNL     1       7.629  79.178  36.021  1.00  0.00     0.000 C 
BRANCH   5   6
ATOM      6  C   UNL     1       8.361  78.189  36.937  1.00  0.00     0.000 C 
BRANCH   6   7
ATOM      7  C   UNL     1       9.729  78.736  37.364  1.00  0.00     0.000 C 
BRANCH   7   8
ATOM      8  C   UNL     1       9.590  79.711  38.543  1.00  0.00     0.000 C 
BRANCH   8   9
ATOM      9  C   UNL     1      10.905  80.434  38.877  1.00  0.00     0.000 C 
BRANCH   9  10
ATOM     10  C   UNL     1      10.778  81.370  40.091  1.00  0.00     0.000 C 
BRANCH  10  11
ATOM     11  C   UNL     1       9.323  81.773  40.387  1.00  0.00     0.000 C 
BRANCH  11  12
ATOM     12  C   UNL     1       9.091  82.230  41.844  1.00  0.00     0.006 C 
BRANCH  12  13
ATOM     13  C   UNL     1       8.109  81.316  42.590  1.00  0.00     0.053 C 
BRANCH  13  14
ATOM     14  C   UNL     1       8.405  81.309  44.057  1.00  0.00     0.041 C 
ATOM     15  O   UNL     1       7.483  81.512  44.889  1.00  0.00    -0.550 OA
ATOM     16  O   UNL     1       9.692  81.034  44.506  1.00  0.00    -0.550 OA
ENDBRANCH  13  14
ENDBRANCH  12  13
ENDBRANCH  11  12
ENDBRANCH  10  11
ENDBRANCH   9  10
ENDBRANCH   8   9
ENDBRANCH   7   8
ENDBRANCH   6   7
ENDBRANCH   5   6
ENDBRANCH   4   5
ENDBRANCH   3   4
ENDBRANCH   2   3
ENDBRANCH   1   2
BRANCH   1  17
ATOM     17  C   UNL     1       6.315  77.726  39.929  1.00  0.00     0.000 C 
BRANCH  17  18
ATOM     18  C   UNL     1       5.078  76.994  39.378  1.00  0.00     0.000 C 
BRANCH  18  19
ATOM     19  C   UNL     1       5.332  76.111  38.141  1.00  0.00     0.000 C 
BRANCH  19  20
ATOM     20  C   UNL     1       6.632  75.301  38.242  1.00  0.00     0.000 C 
BRANCH  20  21
ATOM     21  C   UNL     1       6.994  74.668  36.893  1.00  0.00     0.000 C 
BRANCH  21  22
ATOM     22  C   UNL     1       5.861  73.762  36.387  1.00  0.00    -0.000 C 
BRANCH  22  23
ATOM     23  C   UNL     1       5.690  72.491  37.246  1.00  0.00    -0.000 C 
BRANCH  23  24
ATOM     24  C   UNL     1       6.958  71.621  37.330  1.00  0.00    -0.000 C 
BRANCH  24  25
ATOM     25  C   UNL     1       7.632  71.593  38.711  1.00  0.00    -0.000 C 
BRANCH  25  26
ATOM     26  C   UNL     1       9.159  71.783  38.633  1.00  0.00    -0.000 C 
BRANCH  26  27
ATOM     27  C   UNL     1       9.635  72.143  37.218  1.00  0.00    -0.000 C 
BRANCH  27  28
ATOM     28  C   UNL     1      11.088  71.706  36.959  1.00  0.00    -0.000 C 
BRANCH  28  29
ATOM     29  C   UNL     1      12.037  72.116  38.098  1.00  0.00    -0.003 C 
ATOM     30  C   UNL     1      13.296  72.822  37.591  1.00  0.00     0.004 C 
ENDBRANCH  28  29
ENDBRANCH  27  28
ENDBRANCH  26  27
ENDBRANCH  25  26
ENDBRANCH  24  25
ENDBRANCH  23  24
ENDBRANCH  22  23
ENDBRANCH  21  22
ENDBRANCH  20  21
ENDBRANCH  19  20
ENDBRANCH  18  19
ENDBRANCH  17  18
ENDBRANCH   1  17
TORSDOF 26
ENDMDL
MODEL 3
REMARK VINA RESULT:    -4.864      3.224      8.468
REMARK INTER + INTRA:         -15.652
REMARK INTER:                 -12.507
REMARK INTRA:                  -3.145
REMARK UNBOUND:                -3.395
REMARK SMILES CCCCCCCCCCCCCCCCCCCCCCCCCCCC(=O)[O-]
REMARK SMILES IDX 15 1 16 2 17 3 18 4 19 5 20 6 21 7 22 8 23 9 24 10 25 11
REMARK SMILES IDX 26 12 27 13 28 14 29 15 30 16 14 17 13 18 12 19 11 20 10 21
REMARK SMILES IDX 9 22 8 23 7 24 6 25 5 26 4 27 3 28 2 29 1 30
REMARK H PARENT
REMARK Flexibility Score: inf
ROOT
ATOM      1  C   UNL     1       9.906  76.545  36.621  1.00  0.00     0.000 C 
ENDROOT
BRANCH   1   2
ATOM      2  C   UNL     1       9.585  77.946  36.064  1.00  0.00     0.000 C 
BRANCH   2   3
ATOM      3  C   UNL     1       8.953  78.925  37.071  1.00  0.00     0.000 C 
BRANCH   3   4
ATOM      4  C   UNL     1       9.942  79.406  38.143  1.00  0.00     0.000 C 
BRANCH   4   5
ATOM      5  C   UNL     1       9.482  78.979  39.544  1.00  0.00     0.000 C 
BRANCH   5   6
ATOM      6  C   UNL     1       9.029  80.190  40.369  1.00  0.00     0.000 C 
BRANCH   6   7
ATOM      7  C   UNL     1      10.074  81.313  40.327  1.00  0.00     0.000 C 
BRANCH   7   8
ATOM      8  C   UNL     1      10.506  81.718  41.744  1.00  0.00     0.000 C 
BRANCH   8   9
ATOM      9  C   UNL     1       9.472  81.335  42.816  1.00  0.00     0.000 C 
BRANCH   9  10
ATOM     10  C   UNL     1       8.436  82.444  43.066  1.00  0.00     0.000 C 
BRANCH  10  11
ATOM     11  C   UNL     1       7.793  82.359  44.461  1.00  0.00     0.000 C 
BRANCH  11  12
ATOM     12  C   UNL     1       7.944  80.975  45.130  1.00  0.00     0.006 C 
BRANCH  12  13
ATOM     13  C   UNL     1       7.215  80.899  46.478  1.00  0.00     0.053 C 
BRANCH  13  14
ATOM     14  C   UNL     1       6.980  79.475  46.872  1.00  0.00     0.041 C 
ATOM     15  O   UNL     1       7.956  78.714  47.105  1.00  0.00    -0.550 OA
ATOM     16  O   UNL     1       5.684  79.000  47.027  1.00  0.00    -0.550 OA
ENDBRANCH  13  14
ENDBRANCH  12  13
ENDBRANCH  11  12
ENDBRANCH  10  11
ENDBRANCH   9  10
ENDBRANCH   8   9
ENDBRANCH   7   8
ENDBRANCH   6   7
ENDBRANCH   5   6
ENDBRANCH   4   5
ENDBRANCH   3   4
ENDBRANCH   2   3
ENDBRANCH   1   2
BRANCH   1  17
ATOM     17  C   UNL     1       8.647  75.740  36.988  1.00  0.00     0.000 C 
BRANCH  17  18
ATOM     18  C   UNL     1       8.762  74.248  36.626  1.00  0.00     0.000 C 
BRANCH  18  19
ATOM     19  C   UNL     1       7.627  73.352  37.159  1.00  0.00     0.000 C 
BRANCH  19  20
ATOM     20  C   UNL     1       8.140  72.171  37.995  1.00  0.00     0.000 C 
BRANCH  20  21
ATOM     21  C   UNL     1       7.208  71.886  39.179  1.00  0.00     0.000 C 
BRANCH  21  22
ATOM     22  C   UNL     1       7.036  73.134  40.058  1.00  0.00    -0.000 C 
BRANCH  22  23
ATOM     23  C   UNL     1       5.554  73.527  40.244  1.00  0.00    -0.000 C 
BRANCH  23  24
ATOM     24  C   UNL     1       4.648  73.112  39.070  1.00  0.00    -0.000 C 
BRANCH  24  25
ATOM     25  C   UNL     1       3.968  74.279  38.335  1.00  0.00    -0.000 C 
BRANCH  25  26
ATOM     26  C   UNL     1       4.200  75.635  39.028  1.00  0.00    -0.000 C 
BRANCH  26  27
ATOM     27  C   UNL     1       5.217  76.511  38.281  1.00  0.00    -0.000 C 
BRANCH  27  28
ATOM     28  C   UNL     1       6.120  77.310  39.238  1.00  0.00    -0.000 C 
BRANCH  28  29
ATOM     29  C   UNL     1       5.827  78.819  39.201  1.00  0.00    -0.003 C 
ATOM     30  C   UNL     1       4.838  79.254  40.285  1.00  0.00     0.004 C 
ENDBRANCH  28  29
ENDBRANCH  27  28
ENDBRANCH  26  27
ENDBRANCH  25  26
ENDBRANCH  24  25
ENDBRANCH  23  24
ENDBRANCH  22  23
ENDBRANCH  21  22
ENDBRANCH  20  21
ENDBRANCH  19  20
ENDBRANCH  18  19
ENDBRANCH  17  18
ENDBRANCH   1  17
TORSDOF 26
ENDMDL
MODEL 4
REMARK VINA RESULT:    -4.849      1.294      2.247
REMARK INTER + INTRA:         -15.615
REMARK INTER:                 -11.824
REMARK INTRA:                  -3.791
REMARK UNBOUND:                -3.395
REMARK SMILES CCCCCCCCCCCCCCCCCCCCCCCCCCCC(=O)[O-]
REMARK SMILES IDX 15 1 16 2 17 3 18 4 19 5 20 6 21 7 22 8 23 9 24 10 25 11
REMARK SMILES IDX 26 12 27 13 28 14 29 15 30 16 14 17 13 18 12 19 11 20 10 21
REMARK SMILES IDX 9 22 8 23 7 24 6 25 5 26 4 27 3 28 2 29 1 30
REMARK H PARENT
REMARK Flexibility Score: inf
ROOT
ATOM      1  C   UNL     1       6.412  79.214  39.216  1.00  0.00     0.000 C 
ENDROOT
BRANCH   1   2
ATOM      2  C   UNL     1       5.195  78.465  39.794  1.00  0.00     0.000 C 
BRANCH   2   3
ATOM      3  C   UNL     1       5.122  76.965  39.453  1.00  0.00     0.000 C 
BRANCH   3   4
ATOM      4  C   UNL     1       6.506  76.315  39.307  1.00  0.00     0.000 C 
BRANCH   4   5
ATOM      5  C   UNL     1       6.586  75.479  38.022  1.00  0.00     0.000 C 
BRANCH   5   6
ATOM      6  C   UNL     1       5.186  75.176  37.472  1.00  0.00     0.000 C 
BRANCH   6   7
ATOM      7  C   UNL     1       4.866  73.679  37.567  1.00  0.00     0.000 C 
BRANCH   7   8
ATOM      8  C   UNL     1       4.661  73.250  39.028  1.00  0.00     0.000 C 
BRANCH   8   9
ATOM      9  C   UNL     1       5.521  72.038  39.421  1.00  0.00     0.000 C 
BRANCH   9  10
ATOM     10  C   UNL     1       6.993  72.407  39.666  1.00  0.00     0.000 C 
BRANCH  10  11
ATOM     11  C   UNL     1       7.974  71.497  38.905  1.00  0.00     0.000 C 
BRANCH  11  12
ATOM     12  C   UNL     1       8.128  71.864  37.413  1.00  0.00     0.006 C 
BRANCH  12  13
ATOM     13  C   UNL     1       9.368  72.730  37.153  1.00  0.00     0.053 C 
BRANCH  13  14
ATOM     14  C   UNL     1      10.618  71.964  37.449  1.00  0.00     0.041 C 
ATOM     15  O   UNL     1      11.167  72.061  38.578  1.00  0.00    -0.550 OA
ATOM     16  O   UNL     1      11.153  71.107  36.494  1.00  0.00    -0.550 OA
ENDBRANCH  13  14
ENDBRANCH  12  13
ENDBRANCH  11  12
ENDBRANCH  10  11
ENDBRANCH   9  10
ENDBRANCH   8   9
ENDBRANCH   7   8
ENDBRANCH   6   7
ENDBRANCH   5   6
ENDBRANCH   4   5
ENDBRANCH   3   4
ENDBRANCH   2   3
ENDBRANCH   1   2
BRANCH   1  17
ATOM     17  C   UNL     1       6.144  79.815  37.825  1.00  0.00     0.000 C 
BRANCH  17  18
ATOM     18  C   UNL     1       6.664  78.929  36.679  1.00  0.00     0.000 C 
BRANCH  18  19
ATOM     19  C   UNL     1       8.171  79.051  36.384  1.00  0.00     0.000 C 
BRANCH  19  20
ATOM     20  C   UNL     1       8.999  77.931  37.030  1.00  0.00     0.000 C 
BRANCH  20  21
ATOM     21  C   UNL     1       9.687  78.420  38.310  1.00  0.00     0.000 C 
BRANCH  21  22
ATOM     22  C   UNL     1      10.108  79.892  38.182  1.00  0.00    -0.000 C 
BRANCH  22  23
ATOM     23  C   UNL     1      10.485  80.521  39.541  1.00  0.00    -0.000 C 
BRANCH  23  24
ATOM     24  C   UNL     1      10.466  79.523  40.715  1.00  0.00    -0.000 C 
BRANCH  24  25
ATOM     25  C   UNL     1      11.583  79.725  41.751  1.00  0.00    -0.000 C 
BRANCH  25  26
ATOM     26  C   UNL     1      12.005  81.199  41.893  1.00  0.00    -0.000 C 
BRANCH  26  27
ATOM     27  C   UNL     1      11.447  81.850  43.169  1.00  0.00    -0.000 C 
BRANCH  27  28
ATOM     28  C   UNL     1      11.062  80.812  44.237  1.00  0.00    -0.000 C 
BRANCH  28  29
ATOM     29  C   UNL     1       9.549  80.784  44.512  1.00  0.00    -0.003 C 
ATOM     30  C   UNL     1       8.770  81.751  43.618  1.00  0.00     0.004 C 
ENDBRANCH  28  29
ENDBRANCH  27  28
ENDBRANCH  26  27
ENDBRANCH  25  26
ENDBRANCH  24  25
ENDBRANCH  23  24
ENDBRANCH  22  23
ENDBRANCH  21  22
ENDBRANCH  20  21
ENDBRANCH  19  20
ENDBRANCH  18  19
ENDBRANCH  17  18
ENDBRANCH   1  17
TORSDOF 26
ENDMDL
MODEL 5
REMARK VINA RESULT:    -4.847      1.927      3.681
REMARK INTER + INTRA:         -15.608
REMARK INTER:                 -11.325
REMARK INTRA:                  -4.283
REMARK UNBOUND:                -3.395
REMARK SMILES CCCCCCCCCCCCCCCCCCCCCCCCCCCC(=O)[O-]
REMARK SMILES IDX 15 1 16 2 17 3 18 4 19 5 20 6 21 7 22 8 23 9 24 10 25 11
REMARK SMILES IDX 26 12 27 13 28 14 29 15 30 16 14 17 13 18 12 19 11 20 10 21
REMARK SMILES IDX 9 22 8 23 7 24 6 25 5 26 4 27 3 28 2 29 1 30
REMARK H PARENT
REMARK Flexibility Score: inf
ROOT
ATOM      1  C   UNL     1       6.222  77.479  39.991  1.00  0.00     0.000 C 
ENDROOT
BRANCH   1   2
ATOM      2  C   UNL     1       6.475  76.127  39.296  1.00  0.00     0.000 C 
BRANCH   2   3
ATOM      3  C   UNL     1       5.333  75.628  38.390  1.00  0.00     0.000 C 
BRANCH   3   4
ATOM      4  C   UNL     1       5.811  75.235  36.984  1.00  0.00     0.000 C 
BRANCH   4   5
ATOM      5  C   UNL     1       5.083  73.978  36.490  1.00  0.00     0.000 C 
BRANCH   5   6
ATOM      6  C   UNL     1       3.951  73.582  37.446  1.00  0.00     0.000 C 
BRANCH   6   7
ATOM      7  C   UNL     1       3.971  72.076  37.736  1.00  0.00     0.000 C 
BRANCH   7   8
ATOM      8  C   UNL     1       5.383  71.606  38.116  1.00  0.00     0.000 C 
BRANCH   8   9
ATOM      9  C   UNL     1       5.769  71.978  39.557  1.00  0.00     0.000 C 
BRANCH   9  10
ATOM     10  C   UNL     1       7.181  72.580  39.659  1.00  0.00     0.000 C 
BRANCH  10  11
ATOM     11  C   UNL     1       7.983  72.450  38.352  1.00  0.00     0.000 C 
BRANCH  11  12
ATOM     12  C   UNL     1       9.360  71.776  38.536  1.00  0.00     0.006 C 
BRANCH  12  13
ATOM     13  C   UNL     1      10.361  72.194  37.450  1.00  0.00     0.053 C 
BRANCH  13  14
ATOM     14  C   UNL     1      11.746  72.273  38.011  1.00  0.00     0.041 C 
ATOM     15  O   UNL     1      12.608  73.012  37.467  1.00  0.00    -0.550 OA
ATOM     16  O   UNL     1      12.072  71.565  39.162  1.00  0.00    -0.550 OA
ENDBRANCH  13  14
ENDBRANCH  12  13
ENDBRANCH  11  12
ENDBRANCH  10  11
ENDBRANCH   9  10
ENDBRANCH   8   9
ENDBRANCH   7   8
ENDBRANCH   6   7
ENDBRANCH   5   6
ENDBRANCH   4   5
ENDBRANCH   3   4
ENDBRANCH   2   3
ENDBRANCH   1   2
BRANCH   1  17
ATOM     17  C   UNL     1       5.267  78.392  39.202  1.00  0.00     0.000 C 
BRANCH  17  18
ATOM     18  C   UNL     1       5.893  79.755  38.852  1.00  0.00     0.000 C 
BRANCH  18  19
ATOM     19  C   UNL     1       5.906  80.108  37.353  1.00  0.00     0.000 C 
BRANCH  19  20
ATOM     20  C   UNL     1       6.333  78.930  36.465  1.00  0.00     0.000 C 
BRANCH  20  21
ATOM     21  C   UNL     1       7.826  79.006  36.126  1.00  0.00     0.000 C 
BRANCH  21  22
ATOM     22  C   UNL     1       8.574  77.770  36.648  1.00  0.00    -0.000 C 
BRANCH  22  23
ATOM     23  C   UNL     1       9.390  78.067  37.924  1.00  0.00    -0.000 C 
BRANCH  23  24
ATOM     24  C   UNL     1       9.594  79.569  38.197  1.00  0.00    -0.000 C 
BRANCH  24  25
ATOM     25  C   UNL     1      10.054  79.909  39.624  1.00  0.00    -0.000 C 
BRANCH  25  26
ATOM     26  C   UNL     1      11.356  80.733  39.650  1.00  0.00    -0.000 C 
BRANCH  26  27
ATOM     27  C   UNL     1      11.241  81.987  40.531  1.00  0.00    -0.000 C 
BRANCH  27  28
ATOM     28  C   UNL     1      10.126  81.863  41.585  1.00  0.00    -0.000 C 
BRANCH  28  29
ATOM     29  C   UNL     1      10.679  81.765  43.017  1.00  0.00    -0.003 C 
ATOM     30  C   UNL     1      11.032  80.331  43.416  1.00  0.00     0.004 C 
ENDBRANCH  28  29
ENDBRANCH  27  28
ENDBRANCH  26  27
ENDBRANCH  25  26
ENDBRANCH  24  25
ENDBRANCH  23  24
ENDBRANCH  22  23
ENDBRANCH  21  22
ENDBRANCH  20  21
ENDBRANCH  19  20
ENDBRANCH  18  19
ENDBRANCH  17  18
ENDBRANCH   1  17
TORSDOF 26
ENDMDL
MODEL 6
REMARK VINA RESULT:    -4.832      2.992      8.735
REMARK INTER + INTRA:         -15.572
REMARK INTER:                 -11.597
REMARK INTRA:                  -3.975
REMARK UNBOUND:                -3.395
REMARK SMILES CCCCCCCCCCCCCCCCCCCCCCCCCCCC(=O)[O-]
REMARK SMILES IDX 15 1 16 2 17 3 18 4 19 5 20 6 21 7 22 8 23 9 24 10 25 11
REMARK SMILES IDX 26 12 27 13 28 14 29 15 30 16 14 17 13 18 12 19 11 20 10 21
REMARK SMILES IDX 9 22 8 23 7 24 6 25 5 26 4 27 3 28 2 29 1 30
REMARK H PARENT
REMARK Flexibility Score: inf
ROOT
ATOM      1  C   UNL     1       6.016  79.800  38.859  1.00  0.00     0.000 C 
ENDROOT
BRANCH   1   2
ATOM      2  C   UNL     1       5.824  80.110  37.361  1.00  0.00     0.000 C 
BRANCH   2   3
ATOM      3  C   UNL     1       6.316  79.016  36.394  1.00  0.00     0.000 C 
BRANCH   3   4
ATOM      4  C   UNL     1       7.840  79.023  36.204  1.00  0.00     0.000 C 
BRANCH   4   5
ATOM      5  C   UNL     1       8.478  77.780  36.837  1.00  0.00     0.000 C 
BRANCH   5   6
ATOM      6  C   UNL     1       9.588  78.169  37.822  1.00  0.00     0.000 C 
BRANCH   6   7
ATOM      7  C   UNL     1       9.740  79.693  37.911  1.00  0.00     0.000 C 
BRANCH   7   8
ATOM      8  C   UNL     1       9.392  80.200  39.319  1.00  0.00     0.000 C 
BRANCH   8   9
ATOM      9  C   UNL     1      10.076  79.389  40.432  1.00  0.00     0.000 C 
BRANCH   9  10
ATOM     10  C   UNL     1      11.350  80.066  40.965  1.00  0.00     0.000 C 
BRANCH  10  11
ATOM     11  C   UNL     1      11.596  79.790  42.458  1.00  0.00     0.000 C 
BRANCH  11  12
ATOM     12  C   UNL     1      11.572  81.061  43.335  1.00  0.00     0.006 C 
BRANCH  12  13
ATOM     13  C   UNL     1      10.320  81.914  43.088  1.00  0.00     0.053 C 
BRANCH  13  14
ATOM     14  C   UNL     1       9.134  81.324  43.786  1.00  0.00     0.041 C 
ATOM     15  O   UNL     1       9.266  80.796  44.920  1.00  0.00    -0.550 OA
ATOM     16  O   UNL     1       7.875  81.400  43.202  1.00  0.00    -0.550 OA
ENDBRANCH  13  14
ENDBRANCH  12  13
ENDBRANCH  11  12
ENDBRANCH  10  11
ENDBRANCH   9  10
ENDBRANCH   8   9
ENDBRANCH   7   8
ENDBRANCH   6   7
ENDBRANCH   5   6
ENDBRANCH   4   5
ENDBRANCH   3   4
ENDBRANCH   2   3
ENDBRANCH   1   2
BRANCH   1  17
ATOM     17  C   UNL     1       5.403  78.452  39.278  1.00  0.00     0.000 C 
BRANCH  17  18
ATOM     18  C   UNL     1       6.423  77.512  39.946  1.00  0.00     0.000 C 
BRANCH  18  19
ATOM     19  C   UNL     1       6.479  76.086  39.367  1.00  0.00     0.000 C 
BRANCH  19  20
ATOM     20  C   UNL     1       5.481  75.865  38.221  1.00  0.00     0.000 C 
BRANCH  20  21
ATOM     21  C   UNL     1       4.066  75.623  38.760  1.00  0.00     0.000 C 
BRANCH  21  22
ATOM     22  C   UNL     1       3.694  74.134  38.682  1.00  0.00    -0.000 C 
BRANCH  22  23
ATOM     23  C   UNL     1       4.615  73.343  37.727  1.00  0.00    -0.000 C 
BRANCH  23  24
ATOM     24  C   UNL     1       4.568  71.818  37.938  1.00  0.00    -0.000 C 
BRANCH  24  25
ATOM     25  C   UNL     1       5.203  71.328  39.250  1.00  0.00    -0.000 C 
BRANCH  25  26
ATOM     26  C   UNL     1       6.603  71.923  39.492  1.00  0.00    -0.000 C 
BRANCH  26  27
ATOM     27  C   UNL     1       7.717  71.092  38.836  1.00  0.00    -0.000 C 
BRANCH  27  28
ATOM     28  C   UNL     1       8.818  71.972  38.217  1.00  0.00    -0.000 C 
BRANCH  28  29
ATOM     29  C   UNL     1       8.447  72.476  36.812  1.00  0.00    -0.003 C 
ATOM     30  C   UNL     1       8.285  73.997  36.756  1.00  0.00     0.004 C 
ENDBRANCH  28  29
ENDBRANCH  27  28
ENDBRANCH  26  27
ENDBRANCH  25  26
ENDBRANCH  24  25
ENDBRANCH  23  24
ENDBRANCH  22  23
ENDBRANCH  21  22
ENDBRANCH  20  21
ENDBRANCH  19  20
ENDBRANCH  18  19
ENDBRANCH  17  18
ENDBRANCH   1  17
TORSDOF 26
ENDMDL
MODEL 7
REMARK VINA RESULT:    -4.801      3.039      8.960
REMARK INTER + INTRA:         -15.494
REMARK INTER:                 -11.445
REMARK INTRA:                  -4.048
REMARK UNBOUND:                -3.395
REMARK SMILES CCCCCCCCCCCCCCCCCCCCCCCCCCCC(=O)[O-]
REMARK SMILES IDX 15 1 16 2 17 3 18 4 19 5 20 6 21 7 22 8 23 9 24 10 25 11
REMARK SMILES IDX 26 12 27 13 28 14 29 15 30 16 14 17 13 18 12 19 11 20 10 21
REMARK SMILES IDX 9 22 8 23 7 24 6 25 5 26 4 27 3 28 2 29 1 30
REMARK H PARENT
REMARK Flexibility Score: inf
ROOT
ATOM      1  C   UNL     1       5.611  79.544  37.899  1.00  0.00     0.000 C 
ENDROOT
BRANCH   1   2
ATOM      2  C   UNL     1       6.830  79.909  37.029  1.00  0.00     0.000 C 
BRANCH   2   3
ATOM      3  C   UNL     1       7.813  78.755  36.754  1.00  0.00     0.000 C 
BRANCH   3   4
ATOM      4  C   UNL     1       9.210  79.003  37.342  1.00  0.00     0.000 C 
BRANCH   4   5
ATOM      5  C   UNL     1       9.377  78.278  38.684  1.00  0.00     0.000 C 
BRANCH   5   6
ATOM      6  C   UNL     1       9.432  79.275  39.848  1.00  0.00     0.000 C 
BRANCH   6   7
ATOM      7  C   UNL     1       9.871  80.664  39.368  1.00  0.00     0.000 C 
BRANCH   7   8
ATOM      8  C   UNL     1      11.375  80.879  39.602  1.00  0.00     0.000 C 
BRANCH   8   9
ATOM      9  C   UNL     1      11.677  81.599  40.925  1.00  0.00     0.000 C 
BRANCH   9  10
ATOM     10  C   UNL     1      11.953  80.626  42.084  1.00  0.00     0.000 C 
BRANCH  10  11
ATOM     11  C   UNL     1      11.956  81.316  43.459  1.00  0.00     0.000 C 
BRANCH  11  12
ATOM     12  C   UNL     1      10.617  82.000  43.812  1.00  0.00     0.006 C 
BRANCH  12  13
ATOM     13  C   UNL     1       9.556  80.993  44.276  1.00  0.00     0.053 C 
BRANCH  13  14
ATOM     14  C   UNL     1       8.183  81.470  43.919  1.00  0.00     0.041 C 
ATOM     15  O   UNL     1       7.542  82.205  44.715  1.00  0.00    -0.550 OA
ATOM     16  O   UNL     1       7.631  81.140  42.687  1.00  0.00    -0.550 OA
ENDBRANCH  13  14
ENDBRANCH  12  13
ENDBRANCH  11  12
ENDBRANCH  10  11
ENDBRANCH   9  10
ENDBRANCH   8   9
ENDBRANCH   7   8
ENDBRANCH   6   7
ENDBRANCH   5   6
ENDBRANCH   4   5
ENDBRANCH   3   4
ENDBRANCH   2   3
ENDBRANCH   1   2
BRANCH   1  17
ATOM     17  C   UNL     1       5.918  79.573  39.407  1.00  0.00     0.000 C 
BRANCH  17  18
ATOM     18  C   UNL     1       5.466  78.295  40.136  1.00  0.00     0.000 C 
BRANCH  18  19
ATOM     19  C   UNL     1       5.860  76.973  39.450  1.00  0.00     0.000 C 
BRANCH  19  20
ATOM     20  C   UNL     1       4.647  76.107  39.078  1.00  0.00     0.000 C 
BRANCH  20  21
ATOM     21  C   UNL     1       4.926  75.276  37.820  1.00  0.00     0.000 C 
BRANCH  21  22
ATOM     22  C   UNL     1       6.377  75.461  37.349  1.00  0.00    -0.000 C 
BRANCH  22  23
ATOM     23  C   UNL     1       6.904  74.239  36.564  1.00  0.00    -0.000 C 
BRANCH  23  24
ATOM     24  C   UNL     1       7.986  73.439  37.311  1.00  0.00    -0.000 C 
BRANCH  24  25
ATOM     25  C   UNL     1       7.573  72.013  37.712  1.00  0.00    -0.000 C 
BRANCH  25  26
ATOM     26  C   UNL     1       7.212  71.896  39.205  1.00  0.00    -0.000 C 
BRANCH  26  27
ATOM     27  C   UNL     1       5.699  71.987  39.454  1.00  0.00    -0.000 C 
BRANCH  27  28
ATOM     28  C   UNL     1       4.895  71.052  38.532  1.00  0.00    -0.000 C 
BRANCH  28  29
ATOM     29  C   UNL     1       3.817  71.801  37.730  1.00  0.00    -0.003 C 
ATOM     30  C   UNL     1       4.136  71.870  36.235  1.00  0.00     0.004 C 
ENDBRANCH  28  29
ENDBRANCH  27  28
ENDBRANCH  26  27
ENDBRANCH  25  26
ENDBRANCH  24  25
ENDBRANCH  23  24
ENDBRANCH  22  23
ENDBRANCH  21  22
ENDBRANCH  20  21
ENDBRANCH  19  20
ENDBRANCH  18  19
ENDBRANCH  17  18
ENDBRANCH   1  17
TORSDOF 26
ENDMDL
MODEL 8
REMARK VINA RESULT:    -4.730      3.256      8.552
REMARK INTER + INTRA:         -15.315
REMARK INTER:                 -11.775
REMARK INTRA:                  -3.540
REMARK UNBOUND:                -3.395
REMARK SMILES CCCCCCCCCCCCCCCCCCCCCCCCCCCC(=O)[O-]
REMARK SMILES IDX 15 1 16 2 17 3 18 4 19 5 20 6 21 7 22 8 23 9 24 10 25 11
REMARK SMILES IDX 26 12 27 13 28 14 29 15 30 16 14 17 13 18 12 19 11 20 10 21
REMARK SMILES IDX 9 22 8 23 7 24 6 25 5 26 4 27 3 28 2 29 1 30
REMARK H PARENT
REMARK Flexibility Score: inf
ROOT
ATOM      1  C   UNL     1       6.460  78.751  39.547  1.00  0.00     0.000 C 
ENDROOT
BRANCH   1   2
ATOM      2  C   UNL     1       7.856  79.222  40.001  1.00  0.00     0.000 C 
BRANCH   2   3
ATOM      3  C   UNL     1       7.871  80.491  40.873  1.00  0.00     0.000 C 
BRANCH   3   4
ATOM      4  C   UNL     1       9.218  81.228  40.837  1.00  0.00     0.000 C 
BRANCH   4   5
ATOM      5  C   UNL     1      10.195  80.538  39.875  1.00  0.00     0.000 C 
BRANCH   5   6
ATOM      6  C   UNL     1      11.607  80.477  40.472  1.00  0.00     0.000 C 
BRANCH   6   7
ATOM      7  C   UNL     1      11.564  80.119  41.963  1.00  0.00     0.000 C 
BRANCH   7   8
ATOM      8  C   UNL     1      12.357  81.136  42.797  1.00  0.00     0.000 C 
BRANCH   8   9
ATOM      9  C   UNL     1      11.491  81.855  43.845  1.00  0.00     0.000 C 
BRANCH   9  10
ATOM     10  C   UNL     1      10.318  80.992  44.341  1.00  0.00     0.000 C 
BRANCH  10  11
ATOM     11  C   UNL     1       9.002  81.780  44.460  1.00  0.00     0.000 C 
BRANCH  11  12
ATOM     12  C   UNL     1       7.773  80.893  44.754  1.00  0.00     0.006 C 
BRANCH  12  13
ATOM     13  C   UNL     1       7.319  80.995  46.216  1.00  0.00     0.053 C 
BRANCH  13  14
ATOM     14  C   UNL     1       7.069  79.635  46.788  1.00  0.00     0.041 C 
ATOM     15  O   UNL     1       5.904  79.294  47.121  1.00  0.00    -0.550 OA
ATOM     16  O   UNL     1       8.115  78.729  46.910  1.00  0.00    -0.550 OA
ENDBRANCH  13  14
ENDBRANCH  12  13
ENDBRANCH  11  12
ENDBRANCH  10  11
ENDBRANCH   9  10
ENDBRANCH   8   9
ENDBRANCH   7   8
ENDBRANCH   6   7
ENDBRANCH   5   6
ENDBRANCH   4   5
ENDBRANCH   3   4
ENDBRANCH   2   3
ENDBRANCH   1   2
BRANCH   1  17
ATOM     17  C   UNL     1       5.804  79.702  38.530  1.00  0.00     0.000 C 
BRANCH  17  18
ATOM     18  C   UNL     1       6.719  80.024  37.334  1.00  0.00     0.000 C 
BRANCH  18  19
ATOM     19  C   UNL     1       7.126  78.813  36.473  1.00  0.00     0.000 C 
BRANCH  19  20
ATOM     20  C   UNL     1       8.641  78.559  36.476  1.00  0.00     0.000 C 
BRANCH  20  21
ATOM     21  C   UNL     1       8.959  77.119  36.893  1.00  0.00     0.000 C 
BRANCH  21  22
ATOM     22  C   UNL     1       7.671  76.310  37.111  1.00  0.00    -0.000 C 
BRANCH  22  23
ATOM     23  C   UNL     1       7.902  74.788  36.999  1.00  0.00    -0.000 C 
BRANCH  23  24
ATOM     24  C   UNL     1       6.697  74.015  36.429  1.00  0.00    -0.000 C 
BRANCH  24  25
ATOM     25  C   UNL     1       6.319  72.744  37.207  1.00  0.00    -0.000 C 
BRANCH  25  26
ATOM     26  C   UNL     1       7.234  72.494  38.421  1.00  0.00    -0.000 C 
BRANCH  26  27
ATOM     27  C   UNL     1       6.628  73.017  39.732  1.00  0.00    -0.000 C 
BRANCH  27  28
ATOM     28  C   UNL     1       5.109  73.242  39.628  1.00  0.00    -0.000 C 
BRANCH  28  29
ATOM     29  C   UNL     1       4.722  74.724  39.771  1.00  0.00    -0.003 C 
ATOM     30  C   UNL     1       3.730  75.181  38.700  1.00  0.00     0.004 C 
ENDBRANCH  28  29
ENDBRANCH  27  28
ENDBRANCH  26  27
ENDBRANCH  25  26
ENDBRANCH  24  25
ENDBRANCH  23  24
ENDBRANCH  22  23
ENDBRANCH  21  22
ENDBRANCH  20  21
ENDBRANCH  19  20
ENDBRANCH  18  19
ENDBRANCH  17  18
ENDBRANCH   1  17
TORSDOF 26
ENDMDL
MODEL 9
REMARK VINA RESULT:    -4.721      2.762      4.881
REMARK INTER + INTRA:         -15.293
REMARK INTER:                 -11.801
REMARK INTRA:                  -3.492
REMARK UNBOUND:                -3.395
REMARK SMILES CCCCCCCCCCCCCCCCCCCCCCCCCCCC(=O)[O-]
REMARK SMILES IDX 15 1 16 2 17 3 18 4 19 5 20 6 21 7 22 8 23 9 24 10 25 11
REMARK SMILES IDX 26 12 27 13 28 14 29 15 30 16 14 17 13 18 12 19 11 20 10 21
REMARK SMILES IDX 9 22 8 23 7 24 6 25 5 26 4 27 3 28 2 29 1 30
REMARK H PARENT
REMARK Flexibility Score: inf
ROOT
ATOM      1  C   UNL     1       8.413  74.178  36.688  1.00  0.00     0.000 C 
ENDROOT
BRANCH   1   2
ATOM      2  C   UNL     1       7.067  73.568  36.249  1.00  0.00     0.000 C 
BRANCH   2   3
ATOM      3  C   UNL     1       6.837  72.106  36.675  1.00  0.00     0.000 C 
BRANCH   3   4
ATOM      4  C   UNL     1       7.672  71.698  37.898  1.00  0.00     0.000 C 
BRANCH   4   5
ATOM      5  C   UNL     1       6.818  71.706  39.173  1.00  0.00     0.000 C 
BRANCH   5   6
ATOM      6  C   UNL     1       7.085  72.964  40.008  1.00  0.00     0.000 C 
BRANCH   6   7
ATOM      7  C   UNL     1       5.776  73.677  40.372  1.00  0.00     0.000 C 
BRANCH   7   8
ATOM      8  C   UNL     1       4.710  73.458  39.287  1.00  0.00     0.000 C 
BRANCH   8   9
ATOM      9  C   UNL     1       3.992  74.757  38.885  1.00  0.00     0.000 C 
BRANCH   9  10
ATOM     10  C   UNL     1       4.961  75.845  38.392  1.00  0.00     0.000 C 
BRANCH  10  11
ATOM     11  C   UNL     1       5.053  77.045  39.350  1.00  0.00     0.000 C 
BRANCH  11  12
ATOM     12  C   UNL     1       6.501  77.421  39.735  1.00  0.00     0.006 C 
BRANCH  12  13
ATOM     13  C   UNL     1       6.639  78.907  40.094  1.00  0.00     0.053 C 
BRANCH  13  14
ATOM     14  C   UNL     1       5.383  79.416  40.726  1.00  0.00     0.041 C 
ATOM     15  O   UNL     1       4.473  79.916  40.014  1.00  0.00    -0.550 OA
ATOM     16  O   UNL     1       5.197  79.298  42.098  1.00  0.00    -0.550 OA
ENDBRANCH  13  14
ENDBRANCH  12  13
ENDBRANCH  11  12
ENDBRANCH  10  11
ENDBRANCH   9  10
ENDBRANCH   8   9
ENDBRANCH   7   8
ENDBRANCH   6   7
ENDBRANCH   5   6
ENDBRANCH   4   5
ENDBRANCH   3   4
ENDBRANCH   2   3
ENDBRANCH   1   2
BRANCH   1  17
ATOM     17  C   UNL     1       8.323  75.687  36.976  1.00  0.00     0.000 C 
BRANCH  17  18
ATOM     18  C   UNL     1       9.609  76.446  36.602  1.00  0.00     0.000 C 
BRANCH  18  19
ATOM     19  C   UNL     1       9.519  77.981  36.696  1.00  0.00     0.000 C 
BRANCH  19  20
ATOM     20  C   UNL     1       9.777  78.510  38.115  1.00  0.00     0.000 C 
BRANCH  20  21
ATOM     21  C   UNL     1       9.949  80.033  38.115  1.00  0.00     0.000 C 
BRANCH  21  22
ATOM     22  C   UNL     1      10.930  80.477  39.211  1.00  0.00    -0.000 C 
BRANCH  22  23
ATOM     23  C   UNL     1      10.330  80.351  40.628  1.00  0.00    -0.000 C 
BRANCH  23  24
ATOM     24  C   UNL     1      11.224  79.578  41.616  1.00  0.00    -0.000 C 
BRANCH  24  25
ATOM     25  C   UNL     1      11.779  80.419  42.777  1.00  0.00    -0.000 C 
BRANCH  25  26
ATOM     26  C   UNL     1      12.276  81.805  42.325  1.00  0.00    -0.000 C 
BRANCH  26  27
ATOM     27  C   UNL     1      11.322  82.936  42.740  1.00  0.00    -0.000 C 
BRANCH  27  28
ATOM     28  C   UNL     1      10.314  82.489  43.814  1.00  0.00    -0.000 C 
BRANCH  28  29
ATOM     29  C   UNL     1       8.856  82.741  43.393  1.00  0.00    -0.003 C 
ATOM     30  C   UNL     1       8.050  81.448  43.255  1.00  0.00     0.004 C 
ENDBRANCH  28  29
ENDBRANCH  27  28
ENDBRANCH  26  27
ENDBRANCH  25  26
ENDBRANCH  24  25
ENDBRANCH  23  24
ENDBRANCH  22  23
ENDBRANCH  21  22
ENDBRANCH  20  21
ENDBRANCH  19  20
ENDBRANCH  18  19
ENDBRANCH  17  18
ENDBRANCH   1  17
TORSDOF 26
ENDMDL
