MODEL 1
REMARK VINA RESULT:    -7.186      0.000      0.000
REMARK INTER + INTRA:         -10.878
REMARK INTER:                 -10.127
REMARK INTRA:                  -0.751
REMARK UNBOUND:                -0.751
REMARK SMILES C[C@@H](CO)CCC(=O)[C@H](C)[C@H]1C(=O)C[C@H]2[C@H]3CC=C4C[C@@H](O)CC[C@]4(C)[C@H]3CC[C@@]12C
REMARK SMILES IDX 6 1 5 2 2 3 1 4 3 5 4 6 7 8 8 9 9 10 10 11 11 12 12 13 30 14
REMARK SMILES IDX 13 15 14 16 15 17 29 18 31 19 16 20 28 21 27 22 17 23 25 24
REMARK SMILES IDX 18 25 19 26 24 27 26 28 20 29 23 30 21 31 22 32
REMARK H PARENT 4 7 22 33
REMARK Flexibility Score: inf
ROOT
ATOM      1  C   UNL     1      48.833   8.414  20.639  1.00  0.00     0.076 C 
ENDROOT
BRANCH   1   2
ATOM      2  C   UNL     1      48.879   9.228  19.327  1.00  0.00     0.013 C 
BRANCH   2   3
ATOM      3  C   UNL     1      50.012   8.866  18.330  1.00  0.00     0.012 C 
ATOM      4  C   UNL     1      50.947   7.776  18.875  1.00  0.00     0.010 C 
BRANCH   3   5
ATOM      5  C   UNL     1      49.488   8.517  16.927  1.00  0.00     0.159 C 
BRANCH   5   6
ATOM      6  O   UNL     1      50.361   7.617  16.301  1.00  0.00    -0.396 OA
ATOM      7  H   UNL     1      50.401   7.889  15.346  1.00  0.00     0.210 HD
ENDBRANCH   5   6
ENDBRANCH   3   5
ENDBRANCH   2   3
ENDBRANCH   1   2
BRANCH   1   8
ATOM      8  C   UNL     1      47.671   7.440  20.706  1.00  0.00     0.136 C 
ATOM      9  O   UNL     1      46.611   7.781  20.195  1.00  0.00    -0.299 OA
BRANCH   8  10
ATOM     10  C   UNL     1      47.690   6.118  21.471  1.00  0.00     0.064 C 
ATOM     11  C   UNL     1      46.773   6.258  22.705  1.00  0.00     0.017 C 
BRANCH  10  12
ATOM     12  C   UNL     1      49.120   5.542  21.800  1.00  0.00     0.072 C 
ATOM     13  C   UNL     1      49.586   5.882  23.179  1.00  0.00     0.137 C 
ATOM     14  C   UNL     1      49.347   3.975  21.680  1.00  0.00    -0.019 C 
ATOM     15  O   UNL     1      49.649   7.025  23.603  1.00  0.00    -0.299 OA
ATOM     16  C   UNL     1      49.974   4.725  24.004  1.00  0.00     0.080 C 
ATOM     17  C   UNL     1      50.076   3.556  23.013  1.00  0.00     0.007 C 
ATOM     18  C   UNL     1      48.054   3.131  21.483  1.00  0.00     0.008 C 
ATOM     19  C   UNL     1      50.262   3.727  20.444  1.00  0.00     0.012 C 
ATOM     20  C   UNL     1      49.707   2.154  23.617  1.00  0.00     0.001 C 
ATOM     21  C   UNL     1      48.248   1.601  21.611  1.00  0.00     0.005 C 
ATOM     22  C   UNL     1      49.453   1.137  22.486  1.00  0.00     0.003 C 
ATOM     23  C   UNL     1      48.532   2.121  24.624  1.00  0.00     0.031 C 
ATOM     24  C   UNL     1      49.305  -0.339  23.037  1.00  0.00    -0.008 C 
ATOM     25  C   UNL     1      48.134   0.722  25.012  1.00  0.00    -0.027 C 
ATOM     26  C   UNL     1      48.438  -0.384  24.297  1.00  0.00    -0.065 C 
ATOM     27  C   UNL     1      50.706  -0.917  23.426  1.00  0.00     0.014 C 
ATOM     28  C   UNL     1      48.696  -1.249  21.928  1.00  0.00     0.016 C 
ATOM     29  C   UNL     1      48.275  -1.734  24.959  1.00  0.00     0.063 C 
ATOM     30  C   UNL     1      50.641  -2.278  24.161  1.00  0.00     0.033 C 
ATOM     31  C   UNL     1      49.669  -2.250  25.361  1.00  0.00     0.118 C 
BRANCH  31  32
ATOM     32  O   UNL     1      49.576  -3.523  25.953  1.00  0.00    -0.393 OA
ATOM     33  H   UNL     1      48.775  -3.971  25.574  1.00  0.00     0.210 HD
ENDBRANCH  31  32
ENDBRANCH  10  12
ENDBRANCH   8  10
ENDBRANCH   1   8
TORSDOF 8
ENDMDL
MODEL 2
REMARK VINA RESULT:    -7.178      2.591      3.925
REMARK INTER + INTRA:         -10.867
REMARK INTER:                  -9.817
REMARK INTRA:                  -1.050
REMARK UNBOUND:                -0.751
REMARK SMILES C[C@@H](CO)CCC(=O)[C@H](C)[C@H]1C(=O)C[C@H]2[C@H]3CC=C4C[C@@H](O)CC[C@]4(C)[C@H]3CC[C@@]12C
REMARK SMILES IDX 6 1 5 2 2 3 1 4 3 5 4 6 7 8 8 9 9 10 10 11 11 12 12 13 30 14
REMARK SMILES IDX 13 15 14 16 15 17 29 18 31 19 16 20 28 21 27 22 17 23 25 24
REMARK SMILES IDX 18 25 19 26 24 27 26 28 20 29 23 30 21 31 22 32
REMARK H PARENT 4 7 22 33
REMARK Flexibility Score: inf
ROOT
ATOM      1  C   UNL     1      47.203  10.198  23.999  1.00  0.00     0.076 C 
ENDROOT
BRANCH   1   2
ATOM      2  C   UNL     1      46.608  10.262  22.575  1.00  0.00     0.013 C 
BRANCH   2   3
ATOM      3  C   UNL     1      46.547   8.924  21.792  1.00  0.00     0.012 C 
ATOM      4  C   UNL     1      45.132   8.325  21.762  1.00  0.00     0.010 C 
BRANCH   3   5
ATOM      5  C   UNL     1      47.152   9.025  20.382  1.00  0.00     0.159 C 
BRANCH   5   6
ATOM      6  O   UNL     1      46.400   8.256  19.484  1.00  0.00    -0.396 OA
ATOM      7  H   UNL     1      45.728   7.770  20.031  1.00  0.00     0.210 HD
ENDBRANCH   5   6
ENDBRANCH   3   5
ENDBRANCH   2   3
ENDBRANCH   1   2
BRANCH   1   8
ATOM      8  C   UNL     1      46.461   9.251  24.923  1.00  0.00     0.136 C 
ATOM      9  O   UNL     1      45.469   9.678  25.500  1.00  0.00    -0.299 OA
BRANCH   8  10
ATOM     10  C   UNL     1      46.932   7.842  25.283  1.00  0.00     0.064 C 
ATOM     11  C   UNL     1      46.352   7.476  26.666  1.00  0.00     0.017 C 
BRANCH  10  12
ATOM     12  C   UNL     1      48.483   7.590  25.153  1.00  0.00     0.072 C 
ATOM     13  C   UNL     1      49.096   7.046  26.403  1.00  0.00     0.137 C 
ATOM     14  C   UNL     1      48.993   6.616  24.006  1.00  0.00    -0.019 C 
ATOM     15  O   UNL     1      49.000   7.595  27.490  1.00  0.00    -0.299 OA
ATOM     16  C   UNL     1      49.838   5.786  26.233  1.00  0.00     0.080 C 
ATOM     17  C   UNL     1      50.002   5.633  24.712  1.00  0.00     0.007 C 
ATOM     18  C   UNL     1      47.879   5.812  23.275  1.00  0.00     0.008 C 
ATOM     19  C   UNL     1      49.719   7.488  22.939  1.00  0.00     0.012 C 
ATOM     20  C   UNL     1      50.025   4.148  24.203  1.00  0.00     0.001 C 
ATOM     21  C   UNL     1      48.391   4.693  22.336  1.00  0.00     0.005 C 
ATOM     22  C   UNL     1      49.793   4.103  22.680  1.00  0.00     0.003 C 
ATOM     23  C   UNL     1      49.065   3.160  24.909  1.00  0.00     0.031 C 
ATOM     24  C   UNL     1      50.034   2.657  22.085  1.00  0.00    -0.008 C 
ATOM     25  C   UNL     1      49.023   1.811  24.243  1.00  0.00    -0.027 C 
ATOM     26  C   UNL     1      49.417   1.574  22.972  1.00  0.00    -0.065 C 
ATOM     27  C   UNL     1      51.568   2.355  21.997  1.00  0.00     0.014 C 
ATOM     28  C   UNL     1      49.442   2.582  20.646  1.00  0.00     0.016 C 
ATOM     29  C   UNL     1      49.638   0.140  22.543  1.00  0.00     0.063 C 
ATOM     30  C   UNL     1      51.898   0.892  21.615  1.00  0.00     0.033 C 
ATOM     31  C   UNL     1      51.153  -0.128  22.506  1.00  0.00     0.118 C 
BRANCH  31  32
ATOM     32  O   UNL     1      51.415  -1.442  22.079  1.00  0.00    -0.393 OA
ATOM     33  H   UNL     1      51.674  -1.970  22.880  1.00  0.00     0.210 HD
ENDBRANCH  31  32
ENDBRANCH  10  12
ENDBRANCH   8  10
ENDBRANCH   1   8
TORSDOF 8
ENDMDL
MODEL 3
REMARK VINA RESULT:    -7.175      2.689      8.374
REMARK INTER + INTRA:         -10.862
REMARK INTER:                  -9.756
REMARK INTRA:                  -1.106
REMARK UNBOUND:                -0.751
REMARK SMILES C[C@@H](CO)CCC(=O)[C@H](C)[C@H]1C(=O)C[C@H]2[C@H]3CC=C4C[C@@H](O)CC[C@]4(C)[C@H]3CC[C@@]12C
REMARK SMILES IDX 6 1 5 2 2 3 1 4 3 5 4 6 7 8 8 9 9 10 10 11 11 12 12 13 30 14
REMARK SMILES IDX 13 15 14 16 15 17 29 18 31 19 16 20 28 21 27 22 17 23 25 24
REMARK SMILES IDX 18 25 19 26 24 27 26 28 20 29 23 30 21 31 22 32
REMARK H PARENT 4 7 22 33
REMARK Flexibility Score: inf
ROOT
ATOM      1  C   UNL     1      48.231  -0.897  21.992  1.00  0.00     0.076 C 
ENDROOT
BRANCH   1   2
ATOM      2  C   UNL     1      49.657  -0.740  22.566  1.00  0.00     0.013 C 
BRANCH   2   3
ATOM      3  C   UNL     1      50.136   0.711  22.832  1.00  0.00     0.012 C 
ATOM      4  C   UNL     1      50.090   1.080  24.323  1.00  0.00     0.010 C 
BRANCH   3   5
ATOM      5  C   UNL     1      51.512   1.012  22.215  1.00  0.00     0.159 C 
BRANCH   5   6
ATOM      6  O   UNL     1      52.222   1.897  23.037  1.00  0.00    -0.396 OA
ATOM      7  H   UNL     1      53.031   2.162  22.525  1.00  0.00     0.210 HD
ENDBRANCH   5   6
ENDBRANCH   3   5
ENDBRANCH   2   3
ENDBRANCH   1   2
BRANCH   1   8
ATOM      8  C   UNL     1      47.139  -0.488  22.963  1.00  0.00     0.136 C 
ATOM      9  O   UNL     1      46.705  -1.342  23.725  1.00  0.00    -0.299 OA
BRANCH   8  10
ATOM     10  C   UNL     1      46.455   0.878  22.974  1.00  0.00     0.064 C 
ATOM     11  C   UNL     1      45.123   0.747  23.742  1.00  0.00     0.017 C 
BRANCH  10  12
ATOM     12  C   UNL     1      46.318   1.582  21.570  1.00  0.00     0.072 C 
ATOM     13  C   UNL     1      44.908   1.941  21.229  1.00  0.00     0.137 C 
ATOM     14  C   UNL     1      47.140   2.916  21.313  1.00  0.00    -0.019 C 
ATOM     15  O   UNL     1      43.994   1.132  21.219  1.00  0.00    -0.299 OA
ATOM     16  C   UNL     1      44.692   3.360  20.899  1.00  0.00     0.080 C 
ATOM     17  C   UNL     1      46.104   3.932  20.697  1.00  0.00     0.007 C 
ATOM     18  C   UNL     1      47.815   3.532  22.573  1.00  0.00     0.008 C 
ATOM     19  C   UNL     1      48.268   2.583  20.292  1.00  0.00     0.012 C 
ATOM     20  C   UNL     1      46.261   5.442  21.098  1.00  0.00     0.001 C 
ATOM     21  C   UNL     1      48.404   4.949  22.371  1.00  0.00     0.005 C 
ATOM     22  C   UNL     1      47.753   5.804  21.240  1.00  0.00     0.003 C 
ATOM     23  C   UNL     1      45.487   5.908  22.355  1.00  0.00     0.031 C 
ATOM     24  C   UNL     1      47.973   7.360  21.416  1.00  0.00    -0.008 C 
ATOM     25  C   UNL     1      45.835   7.314  22.767  1.00  0.00    -0.027 C 
ATOM     26  C   UNL     1      46.957   7.965  22.387  1.00  0.00    -0.065 C 
ATOM     27  C   UNL     1      47.786   8.094  20.046  1.00  0.00     0.014 C 
ATOM     28  C   UNL     1      49.424   7.627  21.915  1.00  0.00     0.016 C 
ATOM     29  C   UNL     1      47.022   9.462  22.590  1.00  0.00     0.063 C 
ATOM     30  C   UNL     1      47.783   9.637  20.156  1.00  0.00     0.033 C 
ATOM     31  C   UNL     1      46.795  10.147  21.229  1.00  0.00     0.118 C 
BRANCH  31  32
ATOM     32  O   UNL     1      46.879  11.545  21.356  1.00  0.00    -0.393 OA
ATOM     33  H   UNL     1      47.840  11.791  21.318  1.00  0.00     0.210 HD
ENDBRANCH  31  32
ENDBRANCH  10  12
ENDBRANCH   8  10
ENDBRANCH   1   8
TORSDOF 8
ENDMDL
MODEL 4
REMARK VINA RESULT:    -7.145      1.962      8.589
REMARK INTER + INTRA:         -10.820
REMARK INTER:                  -9.327
REMARK INTRA:                  -1.494
REMARK UNBOUND:                -0.751
REMARK SMILES C[C@@H](CO)CCC(=O)[C@H](C)[C@H]1C(=O)C[C@H]2[C@H]3CC=C4C[C@@H](O)CC[C@]4(C)[C@H]3CC[C@@]12C
REMARK SMILES IDX 6 1 5 2 2 3 1 4 3 5 4 6 7 8 8 9 9 10 10 11 11 12 12 13 30 14
REMARK SMILES IDX 13 15 14 16 15 17 29 18 31 19 16 20 28 21 27 22 17 23 25 24
REMARK SMILES IDX 18 25 19 26 24 27 26 28 20 29 23 30 21 31 22 32
REMARK H PARENT 4 7 22 33
REMARK Flexibility Score: inf
ROOT
ATOM      1  C   UNL     1      49.741  -1.466  25.179  1.00  0.00     0.076 C 
ENDROOT
BRANCH   1   2
ATOM      2  C   UNL     1      50.473  -2.399  24.189  1.00  0.00     0.013 C 
BRANCH   2   3
ATOM      3  C   UNL     1      50.459  -1.970  22.698  1.00  0.00     0.012 C 
ATOM      4  C   UNL     1      51.844  -1.528  22.201  1.00  0.00     0.010 C 
BRANCH   3   5
ATOM      5  C   UNL     1      49.835  -3.030  21.775  1.00  0.00     0.159 C 
BRANCH   5   6
ATOM      6  O   UNL     1      48.505  -3.266  22.149  1.00  0.00    -0.396 OA
ATOM      7  H   UNL     1      48.042  -2.390  22.091  1.00  0.00     0.210 HD
ENDBRANCH   5   6
ENDBRANCH   3   5
ENDBRANCH   2   3
ENDBRANCH   1   2
BRANCH   1   8
ATOM      8  C   UNL     1      48.379  -1.012  24.687  1.00  0.00     0.136 C 
ATOM      9  O   UNL     1      47.492  -1.853  24.606  1.00  0.00    -0.299 OA
BRANCH   8  10
ATOM     10  C   UNL     1      48.067   0.391  24.168  1.00  0.00     0.064 C 
ATOM     11  C   UNL     1      46.534   0.541  24.069  1.00  0.00     0.017 C 
BRANCH  10  12
ATOM     12  C   UNL     1      48.837   0.819  22.860  1.00  0.00     0.072 C 
ATOM     13  C   UNL     1      48.029   0.633  21.616  1.00  0.00     0.137 C 
ATOM     14  C   UNL     1      49.381   2.307  22.761  1.00  0.00    -0.019 C 
ATOM     15  O   UNL     1      47.523  -0.431  21.298  1.00  0.00    -0.299 OA
ATOM     16  C   UNL     1      47.885   1.841  20.786  1.00  0.00     0.080 C 
ATOM     17  C   UNL     1      48.924   2.825  21.344  1.00  0.00     0.007 C 
ATOM     18  C   UNL     1      48.881   3.272  23.875  1.00  0.00     0.008 C 
ATOM     19  C   UNL     1      50.935   2.246  22.857  1.00  0.00     0.012 C 
ATOM     20  C   UNL     1      48.517   4.337  21.235  1.00  0.00     0.001 C 
ATOM     21  C   UNL     1      49.210   4.766  23.641  1.00  0.00     0.005 C 
ATOM     22  C   UNL     1      49.407   5.197  22.155  1.00  0.00     0.003 C 
ATOM     23  C   UNL     1      47.027   4.673  21.485  1.00  0.00     0.031 C 
ATOM     24  C   UNL     1      49.194   6.745  21.911  1.00  0.00    -0.008 C 
ATOM     25  C   UNL     1      46.763   6.154  21.537  1.00  0.00    -0.027 C 
ATOM     26  C   UNL     1      47.711   7.091  21.762  1.00  0.00    -0.065 C 
ATOM     27  C   UNL     1      49.900   7.189  20.586  1.00  0.00     0.014 C 
ATOM     28  C   UNL     1      49.821   7.549  23.089  1.00  0.00     0.016 C 
ATOM     29  C   UNL     1      47.379   8.535  21.458  1.00  0.00     0.063 C 
ATOM     30  C   UNL     1      49.579   8.642  20.160  1.00  0.00     0.033 C 
ATOM     31  C   UNL     1      48.059   8.922  20.131  1.00  0.00     0.118 C 
BRANCH  31  32
ATOM     32  O   UNL     1      47.810  10.269  19.819  1.00  0.00    -0.393 OA
ATOM     33  H   UNL     1      47.006  10.297  19.236  1.00  0.00     0.210 HD
ENDBRANCH  31  32
ENDBRANCH  10  12
ENDBRANCH   8  10
ENDBRANCH   1   8
TORSDOF 8
ENDMDL
MODEL 5
REMARK VINA RESULT:    -7.031      2.787      3.893
REMARK INTER + INTRA:         -10.659
REMARK INTER:                  -9.991
REMARK INTRA:                  -0.669
REMARK UNBOUND:                -0.751
REMARK SMILES C[C@@H](CO)CCC(=O)[C@H](C)[C@H]1C(=O)C[C@H]2[C@H]3CC=C4C[C@@H](O)CC[C@]4(C)[C@H]3CC[C@@]12C
REMARK SMILES IDX 6 1 5 2 2 3 1 4 3 5 4 6 7 8 8 9 9 10 10 11 11 12 12 13 30 14
REMARK SMILES IDX 13 15 14 16 15 17 29 18 31 19 16 20 28 21 27 22 17 23 25 24
REMARK SMILES IDX 18 25 19 26 24 27 26 28 20 29 23 30 21 31 22 32
REMARK H PARENT 4 7 22 33
REMARK Flexibility Score: inf
ROOT
ATOM      1  C   UNL     1      46.671  11.522  21.733  1.00  0.00     0.076 C 
ENDROOT
BRANCH   1   2
ATOM      2  C   UNL     1      47.257  11.561  20.304  1.00  0.00     0.013 C 
BRANCH   2   3
ATOM      3  C   UNL     1      47.380  12.961  19.647  1.00  0.00     0.012 C 
ATOM      4  C   UNL     1      47.357  14.098  20.680  1.00  0.00     0.010 C 
BRANCH   3   5
ATOM      5  C   UNL     1      48.586  13.076  18.700  1.00  0.00     0.159 C 
BRANCH   5   6
ATOM      6  O   UNL     1      48.231  13.810  17.561  1.00  0.00    -0.396 OA
ATOM      7  H   UNL     1      47.302  13.539  17.335  1.00  0.00     0.210 HD
ENDBRANCH   5   6
ENDBRANCH   3   5
ENDBRANCH   2   3
ENDBRANCH   1   2
BRANCH   1   8
ATOM      8  C   UNL     1      45.751  10.341  21.977  1.00  0.00     0.136 C 
ATOM      9  O   UNL     1      44.544  10.548  21.975  1.00  0.00    -0.299 OA
BRANCH   8  10
ATOM     10  C   UNL     1      46.222   8.935  22.349  1.00  0.00     0.064 C 
ATOM     11  C   UNL     1      45.530   8.524  23.666  1.00  0.00     0.017 C 
BRANCH  10  12
ATOM     12  C   UNL     1      47.784   8.722  22.354  1.00  0.00     0.072 C 
ATOM     13  C   UNL     1      48.392   8.865  23.712  1.00  0.00     0.137 C 
ATOM     14  C   UNL     1      48.357   7.345  21.807  1.00  0.00    -0.019 C 
ATOM     15  O   UNL     1      48.251   9.858  24.407  1.00  0.00    -0.299 OA
ATOM     16  C   UNL     1      49.187   7.710  24.160  1.00  0.00     0.080 C 
ATOM     17  C   UNL     1      49.390   6.862  22.895  1.00  0.00     0.007 C 
ATOM     18  C   UNL     1      47.292   6.241  21.546  1.00  0.00     0.008 C 
ATOM     19  C   UNL     1      49.070   7.638  20.454  1.00  0.00     0.012 C 
ATOM     20  C   UNL     1      49.483   5.315  23.153  1.00  0.00     0.001 C 
ATOM     21  C   UNL     1      47.868   4.834  21.251  1.00  0.00     0.005 C 
ATOM     22  C   UNL     1      49.286   4.542  21.834  1.00  0.00     0.003 C 
ATOM     23  C   UNL     1      48.549   4.738  24.243  1.00  0.00     0.031 C 
ATOM     24  C   UNL     1      49.597   3.000  21.997  1.00  0.00    -0.008 C 
ATOM     25  C   UNL     1      48.575   3.234  24.299  1.00  0.00    -0.027 C 
ATOM     26  C   UNL     1      49.005   2.441  23.292  1.00  0.00    -0.065 C 
ATOM     27  C   UNL     1      51.143   2.762  22.063  1.00  0.00     0.014 C 
ATOM     28  C   UNL     1      49.039   2.224  20.767  1.00  0.00     0.016 C 
ATOM     29  C   UNL     1      49.292   0.987  23.596  1.00  0.00     0.063 C 
ATOM     30  C   UNL     1      51.539   1.310  22.422  1.00  0.00     0.033 C 
ATOM     31  C   UNL     1      50.817   0.802  23.691  1.00  0.00     0.118 C 
BRANCH  31  32
ATOM     32  O   UNL     1      51.141  -0.544  23.940  1.00  0.00    -0.393 OA
ATOM     33  H   UNL     1      51.798  -0.561  24.684  1.00  0.00     0.210 HD
ENDBRANCH  31  32
ENDBRANCH  10  12
ENDBRANCH   8  10
ENDBRANCH   1   8
TORSDOF 8
ENDMDL
MODEL 6
REMARK VINA RESULT:    -6.988      3.196      4.792
REMARK INTER + INTRA:         -10.598
REMARK INTER:                  -9.166
REMARK INTRA:                  -1.432
REMARK UNBOUND:                -0.751
REMARK SMILES C[C@@H](CO)CCC(=O)[C@H](C)[C@H]1C(=O)C[C@H]2[C@H]3CC=C4C[C@@H](O)CC[C@]4(C)[C@H]3CC[C@@]12C
REMARK SMILES IDX 6 1 5 2 2 3 1 4 3 5 4 6 7 8 8 9 9 10 10 11 11 12 12 13 30 14
REMARK SMILES IDX 13 15 14 16 15 17 29 18 31 19 16 20 28 21 27 22 17 23 25 24
REMARK SMILES IDX 18 25 19 26 24 27 26 28 20 29 23 30 21 31 22 32
REMARK H PARENT 4 7 22 33
REMARK Flexibility Score: inf
ROOT
ATOM      1  C   UNL     1      44.423  10.081  22.416  1.00  0.00     0.076 C 
ENDROOT
BRANCH   1   2
ATOM      2  C   UNL     1      44.950  11.497  22.092  1.00  0.00     0.013 C 
BRANCH   2   3
ATOM      3  C   UNL     1      46.491  11.660  22.024  1.00  0.00     0.012 C 
ATOM      4  C   UNL     1      46.984  12.004  20.610  1.00  0.00     0.010 C 
BRANCH   3   5
ATOM      5  C   UNL     1      47.037  12.645  23.072  1.00  0.00     0.159 C 
BRANCH   5   6
ATOM      6  O   UNL     1      46.977  12.067  24.347  1.00  0.00    -0.396 OA
ATOM      7  H   UNL     1      47.913  12.035  24.681  1.00  0.00     0.210 HD
ENDBRANCH   5   6
ENDBRANCH   3   5
ENDBRANCH   2   3
ENDBRANCH   1   2
BRANCH   1   8
ATOM      8  C   UNL     1      44.929   9.536  23.738  1.00  0.00     0.136 C 
ATOM      9  O   UNL     1      44.595  10.120  24.762  1.00  0.00    -0.299 OA
BRANCH   8  10
ATOM     10  C   UNL     1      45.925   8.385  23.879  1.00  0.00     0.064 C 
ATOM     11  C   UNL     1      46.281   8.231  25.372  1.00  0.00     0.017 C 
BRANCH  10  12
ATOM     12  C   UNL     1      47.179   8.452  22.926  1.00  0.00     0.072 C 
ATOM     13  C   UNL     1      48.451   8.753  23.650  1.00  0.00     0.137 C 
ATOM     14  C   UNL     1      47.520   7.178  22.040  1.00  0.00    -0.019 C 
ATOM     15  O   UNL     1      48.600   9.732  24.365  1.00  0.00    -0.299 OA
ATOM     16  C   UNL     1      49.532   7.775  23.439  1.00  0.00     0.080 C 
ATOM     17  C   UNL     1      49.063   6.928  22.246  1.00  0.00     0.007 C 
ATOM     18  C   UNL     1      46.714   5.894  22.388  1.00  0.00     0.008 C 
ATOM     19  C   UNL     1      47.208   7.540  20.558  1.00  0.00     0.012 C 
ATOM     20  C   UNL     1      49.545   5.434  22.275  1.00  0.00     0.001 C 
ATOM     21  C   UNL     1      47.215   4.601  21.699  1.00  0.00     0.005 C 
ATOM     22  C   UNL     1      48.719   4.588  21.286  1.00  0.00     0.003 C 
ATOM     23  C   UNL     1      49.572   4.743  23.660  1.00  0.00     0.031 C 
ATOM     24  C   UNL     1      49.313   3.133  21.109  1.00  0.00    -0.008 C 
ATOM     25  C   UNL     1      49.873   3.271  23.572  1.00  0.00    -0.027 C 
ATOM     26  C   UNL     1      49.729   2.528  22.452  1.00  0.00    -0.065 C 
ATOM     27  C   UNL     1      50.596   3.175  20.212  1.00  0.00     0.014 C 
ATOM     28  C   UNL     1      48.261   2.223  20.408  1.00  0.00     0.016 C 
ATOM     29  C   UNL     1      50.374   1.161  22.408  1.00  0.00     0.063 C 
ATOM     30  C   UNL     1      51.360   1.831  20.147  1.00  0.00     0.033 C 
ATOM     31  C   UNL     1      51.650   1.253  21.551  1.00  0.00     0.118 C 
BRANCH  31  32
ATOM     32  O   UNL     1      52.273  -0.004  21.450  1.00  0.00    -0.393 OA
ATOM     33  H   UNL     1      51.636  -0.618  21.000  1.00  0.00     0.210 HD
ENDBRANCH  31  32
ENDBRANCH  10  12
ENDBRANCH   8  10
ENDBRANCH   1   8
TORSDOF 8
ENDMDL
MODEL 7
REMARK VINA RESULT:    -6.740      3.217      7.764
REMARK INTER + INTRA:         -10.250
REMARK INTER:                  -9.784
REMARK INTRA:                  -0.465
REMARK UNBOUND:                -0.751
REMARK SMILES C[C@@H](CO)CCC(=O)[C@H](C)[C@H]1C(=O)C[C@H]2[C@H]3CC=C4C[C@@H](O)CC[C@]4(C)[C@H]3CC[C@@]12C
REMARK SMILES IDX 6 1 5 2 2 3 1 4 3 5 4 6 7 8 8 9 9 10 10 11 11 12 12 13 30 14
REMARK SMILES IDX 13 15 14 16 15 17 29 18 31 19 16 20 28 21 27 22 17 23 25 24
REMARK SMILES IDX 18 25 19 26 24 27 26 28 20 29 23 30 21 31 22 32
REMARK H PARENT 4 7 22 33
REMARK Flexibility Score: inf
ROOT
ATOM      1  C   UNL     1      46.570   0.914  23.601  1.00  0.00     0.076 C 
ENDROOT
BRANCH   1   2
ATOM      2  C   UNL     1      45.033   0.844  23.748  1.00  0.00     0.013 C 
BRANCH   2   3
ATOM      3  C   UNL     1      44.201   1.347  22.539  1.00  0.00     0.012 C 
ATOM      4  C   UNL     1      43.154   0.321  22.080  1.00  0.00     0.010 C 
BRANCH   3   5
ATOM      5  C   UNL     1      43.576   2.731  22.774  1.00  0.00     0.159 C 
BRANCH   5   6
ATOM      6  O   UNL     1      42.889   3.147  21.625  1.00  0.00    -0.396 OA
ATOM      7  H   UNL     1      42.647   4.099  21.777  1.00  0.00     0.210 HD
ENDBRANCH   5   6
ENDBRANCH   3   5
ENDBRANCH   2   3
ENDBRANCH   1   2
BRANCH   1   8
ATOM      8  C   UNL     1      47.133  -0.120  22.644  1.00  0.00     0.136 C 
ATOM      9  O   UNL     1      46.528  -1.178  22.526  1.00  0.00    -0.299 OA
BRANCH   8  10
ATOM     10  C   UNL     1      48.467   0.013  21.911  1.00  0.00     0.064 C 
ATOM     11  C   UNL     1      49.606  -0.180  22.935  1.00  0.00     0.017 C 
BRANCH  10  12
ATOM     12  C   UNL     1      48.626   1.300  21.014  1.00  0.00     0.072 C 
ATOM     13  C   UNL     1      47.338   1.752  20.404  1.00  0.00     0.137 C 
ATOM     14  C   UNL     1      49.231   2.610  21.678  1.00  0.00    -0.019 C 
ATOM     15  O   UNL     1      46.630   1.030  19.721  1.00  0.00    -0.299 OA
ATOM     16  C   UNL     1      46.977   3.152  20.686  1.00  0.00     0.080 C 
ATOM     17  C   UNL     1      48.257   3.777  21.261  1.00  0.00     0.007 C 
ATOM     18  C   UNL     1      49.381   2.560  23.226  1.00  0.00     0.008 C 
ATOM     19  C   UNL     1      50.651   2.828  21.076  1.00  0.00     0.012 C 
ATOM     20  C   UNL     1      48.013   4.913  22.317  1.00  0.00     0.001 C 
ATOM     21  C   UNL     1      49.737   3.911  23.892  1.00  0.00     0.005 C 
ATOM     22  C   UNL     1      49.305   5.191  23.110  1.00  0.00     0.003 C 
ATOM     23  C   UNL     1      46.832   4.706  23.296  1.00  0.00     0.031 C 
ATOM     24  C   UNL     1      49.178   6.476  24.022  1.00  0.00    -0.008 C 
ATOM     25  C   UNL     1      46.782   5.749  24.380  1.00  0.00    -0.027 C 
ATOM     26  C   UNL     1      47.829   6.523  24.743  1.00  0.00    -0.065 C 
ATOM     27  C   UNL     1      49.274   7.773  23.150  1.00  0.00     0.014 C 
ATOM     28  C   UNL     1      50.344   6.499  25.055  1.00  0.00     0.016 C 
ATOM     29  C   UNL     1      47.559   7.742  25.597  1.00  0.00     0.063 C 
ATOM     30  C   UNL     1      48.960   9.075  23.926  1.00  0.00     0.033 C 
ATOM     31  C   UNL     1      47.624   8.990  24.698  1.00  0.00     0.118 C 
BRANCH  31  32
ATOM     32  O   UNL     1      47.412  10.158  25.451  1.00  0.00    -0.393 OA
ATOM     33  H   UNL     1      47.675   9.961  26.389  1.00  0.00     0.210 HD
ENDBRANCH  31  32
ENDBRANCH  10  12
ENDBRANCH   8  10
ENDBRANCH   1   8
TORSDOF 8
ENDMDL
MODEL 8
REMARK VINA RESULT:    -6.708      2.633      7.779
REMARK INTER + INTRA:         -10.204
REMARK INTER:                  -9.252
REMARK INTRA:                  -0.952
REMARK UNBOUND:                -0.751
REMARK SMILES C[C@@H](CO)CCC(=O)[C@H](C)[C@H]1C(=O)C[C@H]2[C@H]3CC=C4C[C@@H](O)CC[C@]4(C)[C@H]3CC[C@@]12C
REMARK SMILES IDX 6 1 5 2 2 3 1 4 3 5 4 6 7 8 8 9 9 10 10 11 11 12 12 13 30 14
REMARK SMILES IDX 13 15 14 16 15 17 29 18 31 19 16 20 28 21 27 22 17 23 25 24
REMARK SMILES IDX 18 25 19 26 24 27 26 28 20 29 23 30 21 31 22 32
REMARK H PARENT 4 7 22 33
REMARK Flexibility Score: inf
ROOT
ATOM      1  C   UNL     1      51.659   0.305  21.904  1.00  0.00     0.076 C 
ENDROOT
BRANCH   1   2
ATOM      2  C   UNL     1      52.042   1.758  21.546  1.00  0.00     0.013 C 
BRANCH   2   3
ATOM      3  C   UNL     1      52.494   2.012  20.083  1.00  0.00     0.012 C 
ATOM      4  C   UNL     1      51.602   3.035  19.363  1.00  0.00     0.010 C 
BRANCH   3   5
ATOM      5  C   UNL     1      53.983   2.375  19.969  1.00  0.00     0.159 C 
BRANCH   5   6
ATOM      6  O   UNL     1      54.120   3.704  19.545  1.00  0.00    -0.396 OA
ATOM      7  H   UNL     1      55.054   3.796  19.220  1.00  0.00     0.210 HD
ENDBRANCH   5   6
ENDBRANCH   3   5
ENDBRANCH   2   3
ENDBRANCH   1   2
BRANCH   1   8
ATOM      8  C   UNL     1      50.438   0.205  22.799  1.00  0.00     0.136 C 
ATOM      9  O   UNL     1      49.898  -0.889  22.907  1.00  0.00    -0.299 OA
BRANCH   8  10
ATOM     10  C   UNL     1      49.760   1.394  23.478  1.00  0.00     0.064 C 
ATOM     11  C   UNL     1      49.719   1.127  24.998  1.00  0.00     0.017 C 
BRANCH  10  12
ATOM     12  C   UNL     1      48.372   1.825  22.867  1.00  0.00     0.072 C 
ATOM     13  C   UNL     1      47.274   1.871  23.880  1.00  0.00     0.137 C 
ATOM     14  C   UNL     1      48.280   3.223  22.119  1.00  0.00    -0.019 C 
ATOM     15  O   UNL     1      46.976   0.924  24.590  1.00  0.00    -0.299 OA
ATOM     16  C   UNL     1      46.561   3.158  23.963  1.00  0.00     0.080 C 
ATOM     17  C   UNL     1      46.999   3.927  22.707  1.00  0.00     0.007 C 
ATOM     18  C   UNL     1      49.524   4.144  22.280  1.00  0.00     0.008 C 
ATOM     19  C   UNL     1      48.106   2.931  20.599  1.00  0.00     0.012 C 
ATOM     20  C   UNL     1      47.061   5.487  22.885  1.00  0.00     0.001 C 
ATOM     21  C   UNL     1      49.337   5.591  21.762  1.00  0.00     0.005 C 
ATOM     22  C   UNL     1      47.871   6.122  21.738  1.00  0.00     0.003 C 
ATOM     23  C   UNL     1      47.582   6.008  24.246  1.00  0.00     0.031 C 
ATOM     24  C   UNL     1      47.770   7.700  21.742  1.00  0.00    -0.008 C 
ATOM     25  C   UNL     1      47.776   7.501  24.264  1.00  0.00    -0.027 C 
ATOM     26  C   UNL     1      47.898   8.268  23.158  1.00  0.00    -0.065 C 
ATOM     27  C   UNL     1      46.377   8.158  21.193  1.00  0.00     0.014 C 
ATOM     28  C   UNL     1      48.874   8.295  20.819  1.00  0.00     0.016 C 
ATOM     29  C   UNL     1      47.751   9.766  23.303  1.00  0.00     0.063 C 
ATOM     30  C   UNL     1      46.109   9.674  21.347  1.00  0.00     0.033 C 
ATOM     31  C   UNL     1      46.357  10.170  22.789  1.00  0.00     0.118 C 
BRANCH  31  32
ATOM     32  O   UNL     1      46.181  11.563  22.871  1.00  0.00    -0.393 OA
ATOM     33  H   UNL     1      45.245  11.729  23.159  1.00  0.00     0.210 HD
ENDBRANCH  31  32
ENDBRANCH  10  12
ENDBRANCH   8  10
ENDBRANCH   1   8
TORSDOF 8
ENDMDL
MODEL 9
REMARK VINA RESULT:    -6.610     11.828     13.524
REMARK INTER + INTRA:         -10.066
REMARK INTER:                  -8.996
REMARK INTRA:                  -1.070
REMARK UNBOUND:                -0.751
REMARK SMILES C[C@@H](CO)CCC(=O)[C@H](C)[C@H]1C(=O)C[C@H]2[C@H]3CC=C4C[C@@H](O)CC[C@]4(C)[C@H]3CC[C@@]12C
REMARK SMILES IDX 6 1 5 2 2 3 1 4 3 5 4 6 7 8 8 9 9 10 10 11 11 12 12 13 30 14
REMARK SMILES IDX 13 15 14 16 15 17 29 18 31 19 16 20 28 21 27 22 17 23 25 24
REMARK SMILES IDX 18 25 19 26 24 27 26 28 20 29 23 30 21 31 22 32
REMARK H PARENT 4 7 22 33
REMARK Flexibility Score: inf
ROOT
ATOM      1  C   UNL     1      54.786   9.469   9.392  1.00  0.00     0.076 C 
ENDROOT
BRANCH   1   2
ATOM      2  C   UNL     1      53.359   9.752   8.872  1.00  0.00     0.013 C 
BRANCH   2   3
ATOM      3  C   UNL     1      52.190   9.243   9.756  1.00  0.00     0.012 C 
ATOM      4  C   UNL     1      51.472  10.383  10.494  1.00  0.00     0.010 C 
BRANCH   3   5
ATOM      5  C   UNL     1      51.201   8.352   8.986  1.00  0.00     0.159 C 
BRANCH   5   6
ATOM      6  O   UNL     1      51.828   7.158   8.607  1.00  0.00    -0.396 OA
ATOM      7  H   UNL     1      51.781   7.123   7.615  1.00  0.00     0.210 HD
ENDBRANCH   5   6
ENDBRANCH   3   5
ENDBRANCH   2   3
ENDBRANCH   1   2
BRANCH   1   8
ATOM      8  C   UNL     1      55.135   7.993   9.429  1.00  0.00     0.136 C 
ATOM      9  O   UNL     1      54.744   7.292   8.505  1.00  0.00    -0.299 OA
BRANCH   8  10
ATOM     10  C   UNL     1      55.831   7.295  10.597  1.00  0.00     0.064 C 
ATOM     11  C   UNL     1      54.839   6.292  11.223  1.00  0.00     0.017 C 
BRANCH  10  12
ATOM     12  C   UNL     1      56.523   8.248  11.645  1.00  0.00     0.072 C 
ATOM     13  C   UNL     1      55.678   8.506  12.851  1.00  0.00     0.137 C 
ATOM     14  C   UNL     1      57.934   7.820  12.234  1.00  0.00    -0.019 C 
ATOM     15  O   UNL     1      54.541   8.947  12.791  1.00  0.00    -0.299 OA
ATOM     16  C   UNL     1      56.321   8.190  14.137  1.00  0.00     0.080 C 
ATOM     17  C   UNL     1      57.807   8.004  13.795  1.00  0.00     0.007 C 
ATOM     18  C   UNL     1      58.381   6.369  11.896  1.00  0.00     0.008 C 
ATOM     19  C   UNL     1      59.002   8.789  11.645  1.00  0.00     0.012 C 
ATOM     20  C   UNL     1      58.561   6.964  14.698  1.00  0.00     0.001 C 
ATOM     21  C   UNL     1      59.629   5.873  12.667  1.00  0.00     0.005 C 
ATOM     22  C   UNL     1      59.896   6.557  14.044  1.00  0.00     0.003 C 
ATOM     23  C   UNL     1      57.770   5.697  15.104  1.00  0.00     0.031 C 
ATOM     24  C   UNL     1      60.796   5.693  15.016  1.00  0.00    -0.008 C 
ATOM     25  C   UNL     1      58.621   4.679  15.814  1.00  0.00    -0.027 C 
ATOM     26  C   UNL     1      59.971   4.639  15.757  1.00  0.00    -0.065 C 
ATOM     27  C   UNL     1      61.453   6.606  16.105  1.00  0.00     0.014 C 
ATOM     28  C   UNL     1      61.937   5.012  14.201  1.00  0.00     0.016 C 
ATOM     29  C   UNL     1      60.708   3.790  16.768  1.00  0.00     0.063 C 
ATOM     30  C   UNL     1      62.188   5.824  17.219  1.00  0.00     0.033 C 
ATOM     31  C   UNL     1      61.305   4.719  17.841  1.00  0.00     0.118 C 
BRANCH  31  32
ATOM     32  O   UNL     1      62.031   3.980  18.791  1.00  0.00    -0.393 OA
ATOM     33  H   UNL     1      61.462   3.893  19.601  1.00  0.00     0.210 HD
ENDBRANCH  31  32
ENDBRANCH  10  12
ENDBRANCH   8  10
ENDBRANCH   1   8
TORSDOF 8
ENDMDL
