MODEL 1
REMARK VINA RESULT:    -4.478      0.000      0.000
REMARK INTER + INTRA:         -14.106
REMARK INTER:                 -10.237
REMARK INTRA:                  -3.868
REMARK UNBOUND:                -3.868
REMARK SMILES CCCCCCCCCCCCCCCCCCCCCCCC(=O)[O-]
REMARK SMILES IDX 13 1 14 2 15 3 16 4 17 5 18 6 19 7 20 8 21 9 22 10 23 11
REMARK SMILES IDX 24 12 25 13 26 14 12 15 11 16 10 17 9 18 8 19 7 20 6 21 5 22
REMARK SMILES IDX 4 23 3 24 2 25 1 26
REMARK H PARENT
REMARK Flexibility Score: inf
ROOT
ATOM      1  C   UNL     1      14.776   4.096   0.919  1.00  0.00     0.000 C 
ENDROOT
BRANCH   1   2
ATOM      2  C   UNL     1      15.296   3.884  -0.513  1.00  0.00     0.000 C 
BRANCH   2   3
ATOM      3  C   UNL     1      16.182   2.633  -0.637  1.00  0.00     0.000 C 
BRANCH   3   4
ATOM      4  C   UNL     1      15.667   1.647  -1.700  1.00  0.00     0.000 C 
BRANCH   4   5
ATOM      5  C   UNL     1      14.664   0.633  -1.124  1.00  0.00     0.000 C 
BRANCH   5   6
ATOM      6  C   UNL     1      13.251   0.799  -1.710  1.00  0.00     0.000 C 
BRANCH   6   7
ATOM      7  C   UNL     1      12.196   1.083  -0.620  1.00  0.00     0.000 C 
BRANCH   7   8
ATOM      8  C   UNL     1      11.822   2.572  -0.488  1.00  0.00     0.000 C 
BRANCH   8   9
ATOM      9  C   UNL     1      11.112   2.945   0.824  1.00  0.00     0.000 C 
BRANCH   9  10
ATOM     10  C   UNL     1      11.060   4.465   1.058  1.00  0.00     0.006 C 
BRANCH  10  11
ATOM     11  C   UNL     1       9.765   4.898   1.760  1.00  0.00     0.053 C 
BRANCH  11  12
ATOM     12  C   UNL     1       8.752   5.419   0.787  1.00  0.00     0.041 C 
ATOM     13  O   UNL     1       8.397   6.627   0.827  1.00  0.00    -0.550 OA
ATOM     14  O   UNL     1       8.184   4.566  -0.151  1.00  0.00    -0.550 OA
ENDBRANCH  11  12
ENDBRANCH  10  11
ENDBRANCH   9  10
ENDBRANCH   8   9
ENDBRANCH   7   8
ENDBRANCH   6   7
ENDBRANCH   5   6
ENDBRANCH   4   5
ENDBRANCH   3   4
ENDBRANCH   2   3
ENDBRANCH   1   2
BRANCH   1  15
ATOM     15  C   UNL     1      15.199   2.973   1.885  1.00  0.00     0.000 C 
BRANCH  15  16
ATOM     16  C   UNL     1      14.059   2.354   2.716  1.00  0.00     0.000 C 
BRANCH  16  17
ATOM     17  C   UNL     1      13.991   0.822   2.597  1.00  0.00     0.000 C 
BRANCH  17  18
ATOM     18  C   UNL     1      12.703   0.245   3.206  1.00  0.00    -0.000 C 
BRANCH  18  19
ATOM     19  C   UNL     1      12.974  -0.640   4.432  1.00  0.00    -0.000 C 
BRANCH  19  20
ATOM     20  C   UNL     1      12.285  -0.070   5.681  1.00  0.00    -0.000 C 
BRANCH  20  21
ATOM     21  C   UNL     1      13.277   0.509   6.706  1.00  0.00    -0.000 C 
BRANCH  21  22
ATOM     22  C   UNL     1      13.815   1.914   6.379  1.00  0.00    -0.000 C 
BRANCH  22  23
ATOM     23  C   UNL     1      15.350   1.985   6.384  1.00  0.00    -0.000 C 
BRANCH  23  24
ATOM     24  C   UNL     1      16.006   0.780   5.689  1.00  0.00    -0.000 C 
BRANCH  24  25
ATOM     25  C   UNL     1      17.207   0.197   6.464  1.00  0.00    -0.003 C 
ATOM     26  C   UNL     1      17.917   1.252   7.310  1.00  0.00     0.004 C 
ENDBRANCH  24  25
ENDBRANCH  23  24
ENDBRANCH  22  23
ENDBRANCH  21  22
ENDBRANCH  20  21
ENDBRANCH  19  20
ENDBRANCH  18  19
ENDBRANCH  17  18
ENDBRANCH  16  17
ENDBRANCH  15  16
ENDBRANCH   1  15
TORSDOF 22
ENDMDL
MODEL 2
REMARK VINA RESULT:    -4.367      3.880      7.383
REMARK INTER + INTRA:         -13.852
REMARK INTER:                  -9.977
REMARK INTRA:                  -3.875
REMARK UNBOUND:                -3.868
REMARK SMILES CCCCCCCCCCCCCCCCCCCCCCCC(=O)[O-]
REMARK SMILES IDX 13 1 14 2 15 3 16 4 17 5 18 6 19 7 20 8 21 9 22 10 23 11
REMARK SMILES IDX 24 12 25 13 26 14 12 15 11 16 10 17 9 18 8 19 7 20 6 21 5 22
REMARK SMILES IDX 4 23 3 24 2 25 1 26
REMARK H PARENT
REMARK Flexibility Score: inf
ROOT
ATOM      1  C   UNL     1      16.031   1.752  -1.748  1.00  0.00     0.000 C 
ENDROOT
BRANCH   1   2
ATOM      2  C   UNL     1      14.962   0.646  -1.794  1.00  0.00     0.000 C 
BRANCH   2   3
ATOM      3  C   UNL     1      13.644   1.129  -2.421  1.00  0.00     0.000 C 
BRANCH   3   4
ATOM      4  C   UNL     1      12.478   1.135  -1.416  1.00  0.00     0.000 C 
BRANCH   4   5
ATOM      5  C   UNL     1      12.655   0.088  -0.304  1.00  0.00     0.000 C 
BRANCH   5   6
ATOM      6  C   UNL     1      12.554   0.697   1.105  1.00  0.00     0.000 C 
BRANCH   6   7
ATOM      7  C   UNL     1      13.922   0.750   1.818  1.00  0.00     0.000 C 
BRANCH   7   8
ATOM      8  C   UNL     1      13.874   1.417   3.207  1.00  0.00     0.000 C 
BRANCH   8   9
ATOM      9  C   UNL     1      15.237   1.882   3.746  1.00  0.00     0.000 C 
BRANCH   9  10
ATOM     10  C   UNL     1      15.586   1.248   5.104  1.00  0.00     0.006 C 
BRANCH  10  11
ATOM     11  C   UNL     1      16.728   1.989   5.812  1.00  0.00     0.053 C 
BRANCH  11  12
ATOM     12  C   UNL     1      17.549   1.066   6.660  1.00  0.00     0.041 C 
ATOM     13  O   UNL     1      17.991   1.453   7.774  1.00  0.00    -0.550 OA
ATOM     14  O   UNL     1      17.843  -0.216   6.211  1.00  0.00    -0.550 OA
ENDBRANCH  11  12
ENDBRANCH  10  11
ENDBRANCH   9  10
ENDBRANCH   8   9
ENDBRANCH   7   8
ENDBRANCH   6   7
ENDBRANCH   5   6
ENDBRANCH   4   5
ENDBRANCH   3   4
ENDBRANCH   2   3
ENDBRANCH   1   2
BRANCH   1  15
ATOM     15  C   UNL     1      16.129   2.435  -0.371  1.00  0.00     0.000 C 
BRANCH  15  16
ATOM     16  C   UNL     1      15.640   3.895  -0.323  1.00  0.00     0.000 C 
BRANCH  16  17
ATOM     17  C   UNL     1      14.145   4.017   0.024  1.00  0.00     0.000 C 
BRANCH  17  18
ATOM     18  C   UNL     1      13.918   4.548   1.448  1.00  0.00    -0.000 C 
BRANCH  18  19
ATOM     19  C   UNL     1      12.428   4.642   1.813  1.00  0.00    -0.000 C 
BRANCH  19  20
ATOM     20  C   UNL     1      11.553   4.087   0.680  1.00  0.00    -0.000 C 
BRANCH  20  21
ATOM     21  C   UNL     1      10.107   3.793   1.124  1.00  0.00    -0.000 C 
BRANCH  21  22
ATOM     22  C   UNL     1       9.041   3.927   0.020  1.00  0.00    -0.000 C 
BRANCH  22  23
ATOM     23  C   UNL     1       9.002   2.717  -0.926  1.00  0.00    -0.000 C 
BRANCH  23  24
ATOM     24  C   UNL     1       8.180   1.546  -0.362  1.00  0.00    -0.000 C 
BRANCH  24  25
ATOM     25  C   UNL     1       8.961   0.216  -0.301  1.00  0.00    -0.003 C 
ATOM     26  C   UNL     1       9.123  -0.426  -1.677  1.00  0.00     0.004 C 
ENDBRANCH  24  25
ENDBRANCH  23  24
ENDBRANCH  22  23
ENDBRANCH  21  22
ENDBRANCH  20  21
ENDBRANCH  19  20
ENDBRANCH  18  19
ENDBRANCH  17  18
ENDBRANCH  16  17
ENDBRANCH  15  16
ENDBRANCH   1  15
TORSDOF 22
ENDMDL
MODEL 3
REMARK VINA RESULT:    -4.334      4.039      7.721
REMARK INTER + INTRA:         -13.777
REMARK INTER:                  -9.981
REMARK INTRA:                  -3.796
REMARK UNBOUND:                -3.868
REMARK SMILES CCCCCCCCCCCCCCCCCCCCCCCC(=O)[O-]
REMARK SMILES IDX 13 1 14 2 15 3 16 4 17 5 18 6 19 7 20 8 21 9 22 10 23 11
REMARK SMILES IDX 24 12 25 13 26 14 12 15 11 16 10 17 9 18 8 19 7 20 6 21 5 22
REMARK SMILES IDX 4 23 3 24 2 25 1 26
REMARK H PARENT
REMARK Flexibility Score: inf
ROOT
ATOM      1  C   UNL     1      10.090   4.718  -0.533  1.00  0.00     0.000 C 
ENDROOT
BRANCH   1   2
ATOM      2  C   UNL     1       9.878   5.261   0.891  1.00  0.00     0.000 C 
BRANCH   2   3
ATOM      3  C   UNL     1      11.019   4.870   1.844  1.00  0.00     0.000 C 
BRANCH   3   4
ATOM      4  C   UNL     1      12.132   4.074   1.140  1.00  0.00     0.000 C 
BRANCH   4   5
ATOM      5  C   UNL     1      13.112   3.429   2.133  1.00  0.00     0.000 C 
BRANCH   5   6
ATOM      6  C   UNL     1      13.227   1.906   1.949  1.00  0.00     0.000 C 
BRANCH   6   7
ATOM      7  C   UNL     1      14.609   1.368   2.378  1.00  0.00     0.000 C 
BRANCH   7   8
ATOM      8  C   UNL     1      15.331   2.258   3.408  1.00  0.00     0.000 C 
BRANCH   8   9
ATOM      9  C   UNL     1      15.671   1.562   4.736  1.00  0.00     0.000 C 
BRANCH   9  10
ATOM     10  C   UNL     1      16.709   2.339   5.565  1.00  0.00     0.006 C 
BRANCH  10  11
ATOM     11  C   UNL     1      16.875   1.759   6.976  1.00  0.00     0.053 C 
BRANCH  11  12
ATOM     12  C   UNL     1      18.092   0.890   7.081  1.00  0.00     0.041 C 
ATOM     13  O   UNL     1      18.260  -0.064   6.277  1.00  0.00    -0.550 OA
ATOM     14  O   UNL     1      19.028   1.121   8.080  1.00  0.00    -0.550 OA
ENDBRANCH  11  12
ENDBRANCH  10  11
ENDBRANCH   9  10
ENDBRANCH   8   9
ENDBRANCH   7   8
ENDBRANCH   6   7
ENDBRANCH   5   6
ENDBRANCH   4   5
ENDBRANCH   3   4
ENDBRANCH   2   3
ENDBRANCH   1   2
BRANCH   1  15
ATOM     15  C   UNL     1       8.832   4.043  -1.113  1.00  0.00     0.000 C 
BRANCH  15  16
ATOM     16  C   UNL     1       7.880   3.423  -0.074  1.00  0.00     0.000 C 
BRANCH  16  17
ATOM     17  C   UNL     1       8.073   1.905   0.088  1.00  0.00     0.000 C 
BRANCH  17  18
ATOM     18  C   UNL     1       9.250   1.561   1.016  1.00  0.00    -0.000 C 
BRANCH  18  19
ATOM     19  C   UNL     1      10.138   0.442   0.453  1.00  0.00    -0.000 C 
BRANCH  19  20
ATOM     20  C   UNL     1      10.343   0.614  -1.059  1.00  0.00    -0.000 C 
BRANCH  20  21
ATOM     21  C   UNL     1      11.610   1.416  -1.410  1.00  0.00    -0.000 C 
BRANCH  21  22
ATOM     22  C   UNL     1      12.883   0.576  -1.617  1.00  0.00    -0.000 C 
BRANCH  22  23
ATOM     23  C   UNL     1      14.130   1.432  -1.891  1.00  0.00    -0.000 C 
BRANCH  23  24
ATOM     24  C   UNL     1      13.846   2.941  -1.808  1.00  0.00    -0.000 C 
BRANCH  24  25
ATOM     25  C   UNL     1      15.027   3.762  -1.245  1.00  0.00    -0.003 C 
ATOM     26  C   UNL     1      16.110   2.875  -0.634  1.00  0.00     0.004 C 
ENDBRANCH  24  25
ENDBRANCH  23  24
ENDBRANCH  22  23
ENDBRANCH  21  22
ENDBRANCH  20  21
ENDBRANCH  19  20
ENDBRANCH  18  19
ENDBRANCH  17  18
ENDBRANCH  16  17
ENDBRANCH  15  16
ENDBRANCH   1  15
TORSDOF 22
ENDMDL
MODEL 4
REMARK VINA RESULT:    -4.295      3.761      7.620
REMARK INTER + INTRA:         -13.688
REMARK INTER:                 -10.408
REMARK INTRA:                  -3.280
REMARK UNBOUND:                -3.868
REMARK SMILES CCCCCCCCCCCCCCCCCCCCCCCC(=O)[O-]
REMARK SMILES IDX 13 1 14 2 15 3 16 4 17 5 18 6 19 7 20 8 21 9 22 10 23 11
REMARK SMILES IDX 24 12 25 13 26 14 12 15 11 16 10 17 9 18 8 19 7 20 6 21 5 22
REMARK SMILES IDX 4 23 3 24 2 25 1 26
REMARK H PARENT
REMARK Flexibility Score: inf
ROOT
ATOM      1  C   UNL     1      16.010   2.641  -0.239  1.00  0.00     0.000 C 
ENDROOT
BRANCH   1   2
ATOM      2  C   UNL     1      15.451   4.048   0.035  1.00  0.00     0.000 C 
BRANCH   2   3
ATOM      3  C   UNL     1      14.363   4.047   1.121  1.00  0.00     0.000 C 
BRANCH   3   4
ATOM      4  C   UNL     1      14.299   2.718   1.894  1.00  0.00     0.000 C 
BRANCH   4   5
ATOM      5  C   UNL     1      12.871   2.157   1.983  1.00  0.00     0.000 C 
BRANCH   5   6
ATOM      6  C   UNL     1      12.819   0.773   2.653  1.00  0.00     0.000 C 
BRANCH   6   7
ATOM      7  C   UNL     1      13.967   0.569   3.664  1.00  0.00     0.000 C 
BRANCH   7   8
ATOM      8  C   UNL     1      13.558   0.815   5.129  1.00  0.00     0.000 C 
BRANCH   8   9
ATOM      9  C   UNL     1      14.535   1.689   5.933  1.00  0.00     0.000 C 
BRANCH   9  10
ATOM     10  C   UNL     1      15.865   1.926   5.196  1.00  0.00     0.006 C 
BRANCH  10  11
ATOM     11  C   UNL     1      16.996   2.320   6.155  1.00  0.00     0.053 C 
BRANCH  11  12
ATOM     12  C   UNL     1      17.678   1.118   6.734  1.00  0.00     0.041 C 
ATOM     13  O   UNL     1      17.475  -0.024   6.243  1.00  0.00    -0.550 OA
ATOM     14  O   UNL     1      18.521   1.256   7.829  1.00  0.00    -0.550 OA
ENDBRANCH  11  12
ENDBRANCH  10  11
ENDBRANCH   9  10
ENDBRANCH   8   9
ENDBRANCH   7   8
ENDBRANCH   6   7
ENDBRANCH   5   6
ENDBRANCH   4   5
ENDBRANCH   3   4
ENDBRANCH   2   3
ENDBRANCH   1   2
BRANCH   1  15
ATOM     15  C   UNL     1      15.843   2.203  -1.706  1.00  0.00     0.000 C 
BRANCH  15  16
ATOM     16  C   UNL     1      15.235   0.802  -1.910  1.00  0.00     0.000 C 
BRANCH  16  17
ATOM     17  C   UNL     1      13.697   0.805  -1.884  1.00  0.00     0.000 C 
BRANCH  17  18
ATOM     18  C   UNL     1      13.108   2.166  -2.288  1.00  0.00    -0.000 C 
BRANCH  18  19
ATOM     19  C   UNL     1      11.942   2.597  -1.385  1.00  0.00    -0.000 C 
BRANCH  19  20
ATOM     20  C   UNL     1      10.987   1.422  -1.129  1.00  0.00    -0.000 C 
BRANCH  20  21
ATOM     21  C   UNL     1       9.604   1.868  -0.620  1.00  0.00    -0.000 C 
BRANCH  21  22
ATOM     22  C   UNL     1       9.147   3.261  -1.094  1.00  0.00    -0.000 C 
BRANCH  22  23
ATOM     23  C   UNL     1       8.120   3.909  -0.152  1.00  0.00    -0.000 C 
BRANCH  23  24
ATOM     24  C   UNL     1       8.553   5.301   0.335  1.00  0.00    -0.000 C 
BRANCH  24  25
ATOM     25  C   UNL     1      10.067   5.415   0.614  1.00  0.00    -0.003 C 
ATOM     26  C   UNL     1      10.433   4.950   2.022  1.00  0.00     0.004 C 
ENDBRANCH  24  25
ENDBRANCH  23  24
ENDBRANCH  22  23
ENDBRANCH  21  22
ENDBRANCH  20  21
ENDBRANCH  19  20
ENDBRANCH  18  19
ENDBRANCH  17  18
ENDBRANCH  16  17
ENDBRANCH  15  16
ENDBRANCH   1  15
TORSDOF 22
ENDMDL
MODEL 5
REMARK VINA RESULT:    -4.287      1.472      2.242
REMARK INTER + INTRA:         -13.668
REMARK INTER:                 -10.674
REMARK INTRA:                  -2.995
REMARK UNBOUND:                -3.868
REMARK SMILES CCCCCCCCCCCCCCCCCCCCCCCC(=O)[O-]
REMARK SMILES IDX 13 1 14 2 15 3 16 4 17 5 18 6 19 7 20 8 21 9 22 10 23 11
REMARK SMILES IDX 24 12 25 13 26 14 12 15 11 16 10 17 9 18 8 19 7 20 6 21 5 22
REMARK SMILES IDX 4 23 3 24 2 25 1 26
REMARK H PARENT
REMARK Flexibility Score: inf
ROOT
ATOM      1  C   UNL     1      16.137   3.052  -0.413  1.00  0.00     0.000 C 
ENDROOT
BRANCH   1   2
ATOM      2  C   UNL     1      15.668   2.455  -1.752  1.00  0.00     0.000 C 
BRANCH   2   3
ATOM      3  C   UNL     1      15.754   0.920  -1.772  1.00  0.00     0.000 C 
BRANCH   3   4
ATOM      4  C   UNL     1      14.633   0.276  -2.607  1.00  0.00     0.000 C 
BRANCH   4   5
ATOM      5  C   UNL     1      13.326   1.083  -2.560  1.00  0.00     0.000 C 
BRANCH   5   6
ATOM      6  C   UNL     1      12.340   0.554  -1.504  1.00  0.00     0.000 C 
BRANCH   6   7
ATOM      7  C   UNL     1      10.891   1.012  -1.777  1.00  0.00     0.000 C 
BRANCH   7   8
ATOM      8  C   UNL     1      10.282   1.857  -0.641  1.00  0.00     0.000 C 
BRANCH   8   9
ATOM      9  C   UNL     1       8.855   2.366  -0.910  1.00  0.00     0.000 C 
BRANCH   9  10
ATOM     10  C   UNL     1       8.805   3.883  -1.166  1.00  0.00     0.006 C 
BRANCH  10  11
ATOM     11  C   UNL     1       9.869   4.641  -0.361  1.00  0.00     0.053 C 
BRANCH  11  12
ATOM     12  C   UNL     1       9.366   5.033   0.995  1.00  0.00     0.041 C 
ATOM     13  O   UNL     1       9.611   4.309   1.996  1.00  0.00    -0.550 OA
ATOM     14  O   UNL     1       8.607   6.187   1.149  1.00  0.00    -0.550 OA
ENDBRANCH  11  12
ENDBRANCH  10  11
ENDBRANCH   9  10
ENDBRANCH   8   9
ENDBRANCH   7   8
ENDBRANCH   6   7
ENDBRANCH   5   6
ENDBRANCH   4   5
ENDBRANCH   3   4
ENDBRANCH   2   3
ENDBRANCH   1   2
BRANCH   1  15
ATOM     15  C   UNL     1      15.170   4.115   0.142  1.00  0.00     0.000 C 
BRANCH  15  16
ATOM     16  C   UNL     1      13.679   3.731   0.109  1.00  0.00     0.000 C 
BRANCH  16  17
ATOM     17  C   UNL     1      13.058   3.607   1.511  1.00  0.00     0.000 C 
BRANCH  17  18
ATOM     18  C   UNL     1      12.777   2.146   1.898  1.00  0.00    -0.000 C 
BRANCH  18  19
ATOM     19  C   UNL     1      14.059   1.309   2.018  1.00  0.00    -0.000 C 
BRANCH  19  20
ATOM     20  C   UNL     1      14.836   1.678   3.289  1.00  0.00    -0.000 C 
BRANCH  20  21
ATOM     21  C   UNL     1      14.334   0.934   4.541  1.00  0.00    -0.000 C 
BRANCH  21  22
ATOM     22  C   UNL     1      14.351   1.755   5.844  1.00  0.00    -0.000 C 
BRANCH  22  23
ATOM     23  C   UNL     1      15.497   1.360   6.788  1.00  0.00    -0.000 C 
BRANCH  23  24
ATOM     24  C   UNL     1      16.845   1.980   6.381  1.00  0.00    -0.000 C 
BRANCH  24  25
ATOM     25  C   UNL     1      18.026   0.988   6.444  1.00  0.00    -0.003 C 
ATOM     26  C   UNL     1      18.753   1.037   7.787  1.00  0.00     0.004 C 
ENDBRANCH  24  25
ENDBRANCH  23  24
ENDBRANCH  22  23
ENDBRANCH  21  22
ENDBRANCH  20  21
ENDBRANCH  19  20
ENDBRANCH  18  19
ENDBRANCH  17  18
ENDBRANCH  16  17
ENDBRANCH  15  16
ENDBRANCH   1  15
TORSDOF 22
ENDMDL
MODEL 6
REMARK VINA RESULT:    -4.246      2.921      7.281
REMARK INTER + INTRA:         -13.576
REMARK INTER:                 -10.771
REMARK INTRA:                  -2.805
REMARK UNBOUND:                -3.868
REMARK SMILES CCCCCCCCCCCCCCCCCCCCCCCC(=O)[O-]
REMARK SMILES IDX 13 1 14 2 15 3 16 4 17 5 18 6 19 7 20 8 21 9 22 10 23 11
REMARK SMILES IDX 24 12 25 13 26 14 12 15 11 16 10 17 9 18 8 19 7 20 6 21 5 22
REMARK SMILES IDX 4 23 3 24 2 25 1 26
REMARK H PARENT
REMARK Flexibility Score: inf
ROOT
ATOM      1  C   UNL     1      15.983   2.422  -0.281  1.00  0.00     0.000 C 
ENDROOT
BRANCH   1   2
ATOM      2  C   UNL     1      15.700   3.934  -0.324  1.00  0.00     0.000 C 
BRANCH   2   3
ATOM      3  C   UNL     1      14.631   4.361   0.694  1.00  0.00     0.000 C 
BRANCH   3   4
ATOM      4  C   UNL     1      13.454   3.373   0.766  1.00  0.00     0.000 C 
BRANCH   4   5
ATOM      5  C   UNL     1      13.260   2.790   2.175  1.00  0.00     0.000 C 
BRANCH   5   6
ATOM      6  C   UNL     1      13.355   1.254   2.199  1.00  0.00     0.000 C 
BRANCH   6   7
ATOM      7  C   UNL     1      14.533   0.756   3.064  1.00  0.00     0.000 C 
BRANCH   7   8
ATOM      8  C   UNL     1      15.231   1.871   3.867  1.00  0.00     0.000 C 
BRANCH   8   9
ATOM      9  C   UNL     1      15.945   1.396   5.144  1.00  0.00     0.000 C 
BRANCH   9  10
ATOM     10  C   UNL     1      15.255   1.888   6.428  1.00  0.00     0.006 C 
BRANCH  10  11
ATOM     11  C   UNL     1      13.727   1.916   6.288  1.00  0.00     0.053 C 
BRANCH  11  12
ATOM     12  C   UNL     1      13.117   0.579   6.579  1.00  0.00     0.041 C 
ATOM     13  O   UNL     1      13.465  -0.068   7.602  1.00  0.00    -0.550 OA
ATOM     14  O   UNL     1      12.180   0.037   5.708  1.00  0.00    -0.550 OA
ENDBRANCH  11  12
ENDBRANCH  10  11
ENDBRANCH   9  10
ENDBRANCH   8   9
ENDBRANCH   7   8
ENDBRANCH   6   7
ENDBRANCH   5   6
ENDBRANCH   4   5
ENDBRANCH   3   4
ENDBRANCH   2   3
ENDBRANCH   1   2
BRANCH   1  15
ATOM     15  C   UNL     1      16.461   1.860  -1.633  1.00  0.00     0.000 C 
BRANCH  15  16
ATOM     16  C   UNL     1      15.737   0.587  -2.111  1.00  0.00     0.000 C 
BRANCH  16  17
ATOM     17  C   UNL     1      14.338   0.423  -1.492  1.00  0.00     0.000 C 
BRANCH  17  18
ATOM     18  C   UNL     1      13.220   0.872  -2.447  1.00  0.00    -0.000 C 
BRANCH  18  19
ATOM     19  C   UNL     1      12.102   1.642  -1.728  1.00  0.00    -0.000 C 
BRANCH  19  20
ATOM     20  C   UNL     1      10.806   0.819  -1.696  1.00  0.00    -0.000 C 
BRANCH  20  21
ATOM     21  C   UNL     1       9.574   1.650  -1.291  1.00  0.00    -0.000 C 
BRANCH  21  22
ATOM     22  C   UNL     1       9.842   2.763  -0.261  1.00  0.00    -0.000 C 
BRANCH  22  23
ATOM     23  C   UNL     1       8.731   3.825  -0.221  1.00  0.00    -0.000 C 
BRANCH  23  24
ATOM     24  C   UNL     1       9.213   5.172   0.342  1.00  0.00    -0.000 C 
BRANCH  24  25
ATOM     25  C   UNL     1       9.013   6.355  -0.629  1.00  0.00    -0.003 C 
ATOM     26  C   UNL     1       9.143   5.933  -2.091  1.00  0.00     0.004 C 
ENDBRANCH  24  25
ENDBRANCH  23  24
ENDBRANCH  22  23
ENDBRANCH  21  22
ENDBRANCH  20  21
ENDBRANCH  19  20
ENDBRANCH  18  19
ENDBRANCH  17  18
ENDBRANCH  16  17
ENDBRANCH  15  16
ENDBRANCH   1  15
TORSDOF 22
ENDMDL
MODEL 7
REMARK VINA RESULT:    -4.241      2.414      4.318
REMARK INTER + INTRA:         -13.563
REMARK INTER:                  -9.955
REMARK INTRA:                  -3.608
REMARK UNBOUND:                -3.868
REMARK SMILES CCCCCCCCCCCCCCCCCCCCCCCC(=O)[O-]
REMARK SMILES IDX 13 1 14 2 15 3 16 4 17 5 18 6 19 7 20 8 21 9 22 10 23 11
REMARK SMILES IDX 24 12 25 13 26 14 12 15 11 16 10 17 9 18 8 19 7 20 6 21 5 22
REMARK SMILES IDX 4 23 3 24 2 25 1 26
REMARK H PARENT
REMARK Flexibility Score: inf
ROOT
ATOM      1  C   UNL     1      11.992   4.979   2.041  1.00  0.00     0.000 C 
ENDROOT
BRANCH   1   2
ATOM      2  C   UNL     1      10.654   4.831   1.295  1.00  0.00     0.000 C 
BRANCH   2   3
ATOM      3  C   UNL     1      10.152   3.378   1.274  1.00  0.00     0.000 C 
BRANCH   3   4
ATOM      4  C   UNL     1       8.639   3.279   1.008  1.00  0.00     0.000 C 
BRANCH   4   5
ATOM      5  C   UNL     1       8.323   2.701  -0.381  1.00  0.00     0.000 C 
BRANCH   5   6
ATOM      6  C   UNL     1       9.589   2.385  -1.194  1.00  0.00     0.000 C 
BRANCH   6   7
ATOM      7  C   UNL     1       9.840   0.867  -1.320  1.00  0.00     0.000 C 
BRANCH   7   8
ATOM      8  C   UNL     1      11.327   0.491  -1.460  1.00  0.00     0.000 C 
BRANCH   8   9
ATOM      9  C   UNL     1      12.310   1.655  -1.248  1.00  0.00     0.000 C 
BRANCH   9  10
ATOM     10  C   UNL     1      13.468   1.645  -2.261  1.00  0.00     0.006 C 
BRANCH  10  11
ATOM     11  C   UNL     1      14.818   1.956  -1.600  1.00  0.00     0.053 C 
BRANCH  11  12
ATOM     12  C   UNL     1      15.079   3.431  -1.537  1.00  0.00     0.041 C 
ATOM     13  O   UNL     1      14.521   4.209  -2.355  1.00  0.00    -0.550 OA
ATOM     14  O   UNL     1      15.957   3.942  -0.590  1.00  0.00    -0.550 OA
ENDBRANCH  11  12
ENDBRANCH  10  11
ENDBRANCH   9  10
ENDBRANCH   8   9
ENDBRANCH   7   8
ENDBRANCH   6   7
ENDBRANCH   5   6
ENDBRANCH   4   5
ENDBRANCH   3   4
ENDBRANCH   2   3
ENDBRANCH   1   2
BRANCH   1  15
ATOM     15  C   UNL     1      13.074   4.008   1.532  1.00  0.00     0.000 C 
BRANCH  15  16
ATOM     16  C   UNL     1      13.556   2.964   2.557  1.00  0.00     0.000 C 
BRANCH  16  17
ATOM     17  C   UNL     1      14.384   1.834   1.919  1.00  0.00     0.000 C 
BRANCH  17  18
ATOM     18  C   UNL     1      13.753   0.450   2.143  1.00  0.00    -0.000 C 
BRANCH  18  19
ATOM     19  C   UNL     1      12.269   0.533   2.532  1.00  0.00    -0.000 C 
BRANCH  19  20
ATOM     20  C   UNL     1      11.987  -0.299   3.792  1.00  0.00    -0.000 C 
BRANCH  20  21
ATOM     21  C   UNL     1      13.198  -0.388   4.739  1.00  0.00    -0.000 C 
BRANCH  21  22
ATOM     22  C   UNL     1      13.092   0.458   6.022  1.00  0.00    -0.000 C 
BRANCH  22  23
ATOM     23  C   UNL     1      14.008   1.691   6.007  1.00  0.00    -0.000 C 
BRANCH  23  24
ATOM     24  C   UNL     1      15.417   1.380   5.473  1.00  0.00    -0.000 C 
BRANCH  24  25
ATOM     25  C   UNL     1      16.518   2.282   6.071  1.00  0.00    -0.003 C 
ATOM     26  C   UNL     1      17.567   1.482   6.841  1.00  0.00     0.004 C 
ENDBRANCH  24  25
ENDBRANCH  23  24
ENDBRANCH  22  23
ENDBRANCH  21  22
ENDBRANCH  20  21
ENDBRANCH  19  20
ENDBRANCH  18  19
ENDBRANCH  17  18
ENDBRANCH  16  17
ENDBRANCH  15  16
ENDBRANCH   1  15
TORSDOF 22
ENDMDL
MODEL 8
REMARK VINA RESULT:    -4.171     13.494     16.827
REMARK INTER + INTRA:         -13.403
REMARK INTER:                 -11.355
REMARK INTRA:                  -2.048
REMARK UNBOUND:                -3.868
REMARK SMILES CCCCCCCCCCCCCCCCCCCCCCCC(=O)[O-]
REMARK SMILES IDX 13 1 14 2 15 3 16 4 17 5 18 6 19 7 20 8 21 9 22 10 23 11
REMARK SMILES IDX 24 12 25 13 26 14 12 15 11 16 10 17 9 18 8 19 7 20 6 21 5 22
REMARK SMILES IDX 4 23 3 24 2 25 1 26
REMARK H PARENT
REMARK Flexibility Score: inf
ROOT
ATOM      1  C   UNL     1      23.499  11.300   5.396  1.00  0.00     0.000 C 
ENDROOT
BRANCH   1   2
ATOM      2  C   UNL     1      23.216   9.834   5.025  1.00  0.00     0.000 C 
BRANCH   2   3
ATOM      3  C   UNL     1      24.143   8.853   5.761  1.00  0.00     0.000 C 
BRANCH   3   4
ATOM      4  C   UNL     1      23.461   7.506   6.060  1.00  0.00     0.000 C 
BRANCH   4   5
ATOM      5  C   UNL     1      24.463   6.423   6.495  1.00  0.00     0.000 C 
BRANCH   5   6
ATOM      6  C   UNL     1      25.787   6.493   5.715  1.00  0.00     0.000 C 
BRANCH   6   7
ATOM      7  C   UNL     1      26.904   5.666   6.385  1.00  0.00     0.000 C 
BRANCH   7   8
ATOM      8  C   UNL     1      27.084   5.964   7.886  1.00  0.00     0.000 C 
BRANCH   8   9
ATOM      9  C   UNL     1      27.636   7.364   8.205  1.00  0.00     0.000 C 
BRANCH   9  10
ATOM     10  C   UNL     1      26.927   8.024   9.400  1.00  0.00     0.006 C 
BRANCH  10  11
ATOM     11  C   UNL     1      25.852   9.025   8.954  1.00  0.00     0.053 C 
BRANCH  11  12
ATOM     12  C   UNL     1      26.257  10.439   9.239  1.00  0.00     0.041 C 
ATOM     13  O   UNL     1      27.072  11.030   8.481  1.00  0.00    -0.550 OA
ATOM     14  O   UNL     1      25.753  11.097  10.353  1.00  0.00    -0.550 OA
ENDBRANCH  11  12
ENDBRANCH  10  11
ENDBRANCH   9  10
ENDBRANCH   8   9
ENDBRANCH   7   8
ENDBRANCH   6   7
ENDBRANCH   5   6
ENDBRANCH   4   5
ENDBRANCH   3   4
ENDBRANCH   2   3
ENDBRANCH   1   2
BRANCH   1  15
ATOM     15  C   UNL     1      22.218  12.144   5.534  1.00  0.00     0.000 C 
BRANCH  15  16
ATOM     16  C   UNL     1      22.414  13.545   6.143  1.00  0.00     0.000 C 
BRANCH  16  17
ATOM     17  C   UNL     1      23.883  13.853   6.481  1.00  0.00     0.000 C 
BRANCH  17  18
ATOM     18  C   UNL     1      24.369  15.161   5.835  1.00  0.00    -0.000 C 
BRANCH  18  19
ATOM     19  C   UNL     1      23.316  16.277   5.897  1.00  0.00    -0.000 C 
BRANCH  19  20
ATOM     20  C   UNL     1      22.960  16.772   4.488  1.00  0.00    -0.000 C 
BRANCH  20  21
ATOM     21  C   UNL     1      21.511  17.282   4.376  1.00  0.00    -0.000 C 
BRANCH  21  22
ATOM     22  C   UNL     1      20.735  17.355   5.704  1.00  0.00    -0.000 C 
BRANCH  22  23
ATOM     23  C   UNL     1      19.405  16.586   5.665  1.00  0.00    -0.000 C 
BRANCH  23  24
ATOM     24  C   UNL     1      19.104  15.848   6.981  1.00  0.00    -0.000 C 
BRANCH  24  25
ATOM     25  C   UNL     1      18.045  16.552   7.856  1.00  0.00    -0.003 C 
ATOM     26  C   UNL     1      18.574  17.842   8.481  1.00  0.00     0.004 C 
ENDBRANCH  24  25
ENDBRANCH  23  24
ENDBRANCH  22  23
ENDBRANCH  21  22
ENDBRANCH  20  21
ENDBRANCH  19  20
ENDBRANCH  18  19
ENDBRANCH  17  18
ENDBRANCH  16  17
ENDBRANCH  15  16
ENDBRANCH   1  15
TORSDOF 22
ENDMDL
MODEL 9
REMARK VINA RESULT:    -4.146      1.374      6.189
REMARK INTER + INTRA:         -13.346
REMARK INTER:                 -10.192
REMARK INTRA:                  -3.154
REMARK UNBOUND:                -3.868
REMARK SMILES CCCCCCCCCCCCCCCCCCCCCCCC(=O)[O-]
REMARK SMILES IDX 13 1 14 2 15 3 16 4 17 5 18 6 19 7 20 8 21 9 22 10 23 11
REMARK SMILES IDX 24 12 25 13 26 14 12 15 11 16 10 17 9 18 8 19 7 20 6 21 5 22
REMARK SMILES IDX 4 23 3 24 2 25 1 26
REMARK H PARENT
REMARK Flexibility Score: inf
ROOT
ATOM      1  C   UNL     1      14.353   1.827   6.160  1.00  0.00     0.000 C 
ENDROOT
BRANCH   1   2
ATOM      2  C   UNL     1      13.989   0.457   6.757  1.00  0.00     0.000 C 
BRANCH   2   3
ATOM      3  C   UNL     1      12.492   0.338   7.086  1.00  0.00     0.000 C 
BRANCH   3   4
ATOM      4  C   UNL     1      11.772  -0.694   6.200  1.00  0.00     0.000 C 
BRANCH   4   5
ATOM      5  C   UNL     1      12.347  -0.750   4.776  1.00  0.00     0.000 C 
BRANCH   5   6
ATOM      6  C   UNL     1      11.305  -0.394   3.701  1.00  0.00     0.000 C 
BRANCH   6   7
ATOM      7  C   UNL     1      11.932   0.356   2.506  1.00  0.00     0.000 C 
BRANCH   7   8
ATOM      8  C   UNL     1      10.904   1.088   1.623  1.00  0.00     0.000 C 
BRANCH   8   9
ATOM      9  C   UNL     1      11.360   2.463   1.106  1.00  0.00     0.000 C 
BRANCH   9  10
ATOM     10  C   UNL     1      10.273   3.543   1.254  1.00  0.00     0.006 C 
BRANCH  10  11
ATOM     11  C   UNL     1      10.005   4.278  -0.066  1.00  0.00     0.053 C 
BRANCH  11  12
ATOM     12  C   UNL     1       9.233   5.544   0.149  1.00  0.00     0.041 C 
ATOM     13  O   UNL     1       8.650   5.753   1.246  1.00  0.00    -0.550 OA
ATOM     14  O   UNL     1       9.139   6.484  -0.870  1.00  0.00    -0.550 OA
ENDBRANCH  11  12
ENDBRANCH  10  11
ENDBRANCH   9  10
ENDBRANCH   8   9
ENDBRANCH   7   8
ENDBRANCH   6   7
ENDBRANCH   5   6
ENDBRANCH   4   5
ENDBRANCH   3   4
ENDBRANCH   2   3
ENDBRANCH   1   2
BRANCH   1  15
ATOM     15  C   UNL     1      15.514   1.754   5.150  1.00  0.00     0.000 C 
BRANCH  15  16
ATOM     16  C   UNL     1      15.098   1.526   3.684  1.00  0.00     0.000 C 
BRANCH  16  17
ATOM     17  C   UNL     1      15.155   2.809   2.837  1.00  0.00     0.000 C 
BRANCH  17  18
ATOM     18  C   UNL     1      15.060   2.519   1.330  1.00  0.00    -0.000 C 
BRANCH  18  19
ATOM     19  C   UNL     1      14.752   3.777   0.504  1.00  0.00    -0.000 C 
BRANCH  19  20
ATOM     20  C   UNL     1      15.519   3.758  -0.826  1.00  0.00    -0.000 C 
BRANCH  20  21
ATOM     21  C   UNL     1      14.594   3.807  -2.056  1.00  0.00    -0.000 C 
BRANCH  21  22
ATOM     22  C   UNL     1      13.199   3.188  -1.855  1.00  0.00    -0.000 C 
BRANCH  22  23
ATOM     23  C   UNL     1      13.062   1.795  -2.490  1.00  0.00    -0.000 C 
BRANCH  23  24
ATOM     24  C   UNL     1      13.296   0.656  -1.484  1.00  0.00    -0.000 C 
BRANCH  24  25
ATOM     25  C   UNL     1      14.718   0.057  -1.548  1.00  0.00    -0.003 C 
ATOM     26  C   UNL     1      15.156  -0.244  -2.979  1.00  0.00     0.004 C 
ENDBRANCH  24  25
ENDBRANCH  23  24
ENDBRANCH  22  23
ENDBRANCH  21  22
ENDBRANCH  20  21
ENDBRANCH  19  20
ENDBRANCH  18  19
ENDBRANCH  17  18
ENDBRANCH  16  17
ENDBRANCH  15  16
ENDBRANCH   1  15
TORSDOF 22
ENDMDL
