MODEL 1
REMARK VINA RESULT:    -4.196      0.000      0.000
REMARK INTER + INTRA:         -12.473
REMARK INTER:                  -9.102
REMARK INTRA:                  -3.372
REMARK UNBOUND:                -3.372
REMARK SMILES CCCCCCCCCCCCCCCCCCCCCC(=O)[O-]
REMARK SMILES IDX 12 1 11 2 10 3 9 4 8 5 7 6 6 7 5 8 4 9 3 10 2 11 1 12 13 13
REMARK SMILES IDX 14 14 15 15 16 16 17 17 18 18 19 19 20 20 21 21 22 22 23 23
REMARK SMILES IDX 24 24
REMARK H PARENT
REMARK Flexibility Score: inf
ROOT
ATOM      1  C   UNL     1      27.760  -6.394  19.536  1.00  0.00     0.000 C 
ENDROOT
BRANCH   1   2
ATOM      2  C   UNL     1      29.148  -5.886  19.967  1.00  0.00     0.000 C 
BRANCH   2   3
ATOM      3  C   UNL     1      29.553  -4.517  19.386  1.00  0.00     0.000 C 
BRANCH   3   4
ATOM      4  C   UNL     1      29.258  -3.305  20.289  1.00  0.00    -0.000 C 
BRANCH   4   5
ATOM      5  C   UNL     1      27.968  -2.567  19.893  1.00  0.00    -0.000 C 
BRANCH   5   6
ATOM      6  C   UNL     1      27.537  -2.855  18.443  1.00  0.00    -0.000 C 
BRANCH   6   7
ATOM      7  C   UNL     1      26.052  -3.227  18.260  1.00  0.00    -0.000 C 
BRANCH   7   8
ATOM      8  C   UNL     1      25.329  -3.690  19.541  1.00  0.00    -0.000 C 
BRANCH   8   9
ATOM      9  C   UNL     1      23.922  -4.272  19.315  1.00  0.00    -0.000 C 
BRANCH   9  10
ATOM     10  C   UNL     1      23.107  -4.379  20.615  1.00  0.00    -0.000 C 
BRANCH  10  11
ATOM     11  C   UNL     1      21.597  -4.496  20.356  1.00  0.00    -0.003 C 
ATOM     12  C   UNL     1      21.047  -3.329  19.537  1.00  0.00     0.004 C 
ENDBRANCH  10  11
ENDBRANCH   9  10
ENDBRANCH   8   9
ENDBRANCH   7   8
ENDBRANCH   6   7
ENDBRANCH   5   6
ENDBRANCH   4   5
ENDBRANCH   3   4
ENDBRANCH   2   3
ENDBRANCH   1   2
BRANCH   1  13
ATOM     13  C   UNL     1      27.643  -6.589  18.017  1.00  0.00     0.000 C 
BRANCH  13  14
ATOM     14  C   UNL     1      26.256  -7.131  17.638  1.00  0.00     0.000 C 
BRANCH  14  15
ATOM     15  C   UNL     1      25.594  -6.343  16.494  1.00  0.00     0.000 C 
BRANCH  15  16
ATOM     16  C   UNL     1      24.448  -7.076  15.773  1.00  0.00     0.000 C 
BRANCH  16  17
ATOM     17  C   UNL     1      23.268  -6.150  15.427  1.00  0.00     0.000 C 
BRANCH  17  18
ATOM     18  C   UNL     1      23.594  -4.667  15.667  1.00  0.00     0.000 C 
BRANCH  18  19
ATOM     19  C   UNL     1      22.365  -3.857  16.115  1.00  0.00     0.000 C 
BRANCH  19  20
ATOM     20  C   UNL     1      22.672  -2.362  16.317  1.00  0.00     0.006 C 
BRANCH  20  21
ATOM     21  C   UNL     1      23.883  -1.858  15.511  1.00  0.00     0.053 C 
BRANCH  21  22
ATOM     22  C   UNL     1      23.490  -0.958  14.378  1.00  0.00     0.041 C 
ATOM     23  O   UNL     1      24.323  -0.668  13.478  1.00  0.00    -0.550 OA
ATOM     24  O   UNL     1      22.192  -0.466  14.298  1.00  0.00    -0.550 OA
ENDBRANCH  21  22
ENDBRANCH  20  21
ENDBRANCH  19  20
ENDBRANCH  18  19
ENDBRANCH  17  18
ENDBRANCH  16  17
ENDBRANCH  15  16
ENDBRANCH  14  15
ENDBRANCH  13  14
ENDBRANCH   1  13
TORSDOF 20
ENDMDL
MODEL 2
REMARK VINA RESULT:    -4.162      2.344      4.821
REMARK INTER + INTRA:         -12.399
REMARK INTER:                  -9.292
REMARK INTRA:                  -3.107
REMARK UNBOUND:                -3.372
REMARK SMILES CCCCCCCCCCCCCCCCCCCCCC(=O)[O-]
REMARK SMILES IDX 12 1 11 2 10 3 9 4 8 5 7 6 6 7 5 8 4 9 3 10 2 11 1 12 13 13
REMARK SMILES IDX 14 14 15 15 16 16 17 17 18 18 19 19 20 20 21 21 22 22 23 23
REMARK SMILES IDX 24 24
REMARK H PARENT
REMARK Flexibility Score: inf
ROOT
ATOM      1  C   UNL     1      23.947  -6.702  18.570  1.00  0.00     0.000 C 
ENDROOT
BRANCH   1   2
ATOM      2  C   UNL     1      25.359  -6.128  18.359  1.00  0.00     0.000 C 
BRANCH   2   3
ATOM      3  C   UNL     1      25.507  -5.181  17.151  1.00  0.00     0.000 C 
BRANCH   3   4
ATOM      4  C   UNL     1      26.160  -3.820  17.457  1.00  0.00    -0.000 C 
BRANCH   4   5
ATOM      5  C   UNL     1      25.902  -3.347  18.897  1.00  0.00    -0.000 C 
BRANCH   5   6
ATOM      6  C   UNL     1      27.195  -2.960  19.639  1.00  0.00    -0.000 C 
BRANCH   6   7
ATOM      7  C   UNL     1      28.425  -2.726  18.739  1.00  0.00    -0.000 C 
BRANCH   7   8
ATOM      8  C   UNL     1      29.104  -1.351  18.900  1.00  0.00    -0.000 C 
BRANCH   8   9
ATOM      9  C   UNL     1      28.657  -0.286  17.882  1.00  0.00    -0.000 C 
BRANCH   9  10
ATOM     10  C   UNL     1      27.968  -0.896  16.648  1.00  0.00    -0.000 C 
BRANCH  10  11
ATOM     11  C   UNL     1      26.908   0.037  16.046  1.00  0.00    -0.003 C 
ATOM     12  C   UNL     1      25.921  -0.698  15.139  1.00  0.00     0.004 C 
ENDBRANCH  10  11
ENDBRANCH   9  10
ENDBRANCH   8   9
ENDBRANCH   7   8
ENDBRANCH   6   7
ENDBRANCH   5   6
ENDBRANCH   4   5
ENDBRANCH   3   4
ENDBRANCH   2   3
ENDBRANCH   1   2
BRANCH   1  13
ATOM     13  C   UNL     1      23.509  -6.682  20.043  1.00  0.00     0.000 C 
BRANCH  13  14
ATOM     14  C   UNL     1      22.210  -5.881  20.218  1.00  0.00     0.000 C 
BRANCH  14  15
ATOM     15  C   UNL     1      22.419  -4.360  20.093  1.00  0.00     0.000 C 
BRANCH  15  16
ATOM     16  C   UNL     1      21.153  -3.553  19.751  1.00  0.00     0.000 C 
BRANCH  16  17
ATOM     17  C   UNL     1      21.148  -3.029  18.305  1.00  0.00     0.000 C 
BRANCH  17  18
ATOM     18  C   UNL     1      22.430  -3.400  17.541  1.00  0.00     0.000 C 
BRANCH  18  19
ATOM     19  C   UNL     1      22.653  -2.520  16.299  1.00  0.00     0.000 C 
BRANCH  19  20
ATOM     20  C   UNL     1      22.577  -3.313  14.981  1.00  0.00     0.006 C 
BRANCH  20  21
ATOM     21  C   UNL     1      22.128  -4.774  15.154  1.00  0.00     0.053 C 
BRANCH  21  22
ATOM     22  C   UNL     1      21.535  -5.351  13.904  1.00  0.00     0.041 C 
ATOM     23  O   UNL     1      21.663  -6.577  13.646  1.00  0.00    -0.550 OA
ATOM     24  O   UNL     1      20.813  -4.537  13.037  1.00  0.00    -0.550 OA
ENDBRANCH  21  22
ENDBRANCH  20  21
ENDBRANCH  19  20
ENDBRANCH  18  19
ENDBRANCH  17  18
ENDBRANCH  16  17
ENDBRANCH  15  16
ENDBRANCH  14  15
ENDBRANCH  13  14
ENDBRANCH   1  13
TORSDOF 20
ENDMDL
MODEL 3
REMARK VINA RESULT:    -4.131      2.120      5.598
REMARK INTER + INTRA:         -12.332
REMARK INTER:                  -9.160
REMARK INTRA:                  -3.172
REMARK UNBOUND:                -3.372
REMARK SMILES CCCCCCCCCCCCCCCCCCCCCC(=O)[O-]
REMARK SMILES IDX 12 1 11 2 10 3 9 4 8 5 7 6 6 7 5 8 4 9 3 10 2 11 1 12 13 13
REMARK SMILES IDX 14 14 15 15 16 16 17 17 18 18 19 19 20 20 21 21 22 22 23 23
REMARK SMILES IDX 24 24
REMARK H PARENT
REMARK Flexibility Score: inf
ROOT
ATOM      1  C   UNL     1      23.837  -4.140  16.342  1.00  0.00     0.000 C 
ENDROOT
BRANCH   1   2
ATOM      2  C   UNL     1      22.364  -3.862  16.692  1.00  0.00     0.000 C 
BRANCH   2   3
ATOM      3  C   UNL     1      22.140  -3.021  17.965  1.00  0.00     0.000 C 
BRANCH   3   4
ATOM      4  C   UNL     1      20.914  -3.417  18.809  1.00  0.00    -0.000 C 
BRANCH   4   5
ATOM      5  C   UNL     1      21.236  -3.534  20.308  1.00  0.00    -0.000 C 
BRANCH   5   6
ATOM      6  C   UNL     1      22.605  -4.185  20.576  1.00  0.00    -0.000 C 
BRANCH   6   7
ATOM      7  C   UNL     1      22.619  -5.727  20.535  1.00  0.00    -0.000 C 
BRANCH   7   8
ATOM      8  C   UNL     1      23.288  -6.344  19.290  1.00  0.00    -0.000 C 
BRANCH   8   9
ATOM      9  C   UNL     1      24.660  -6.992  19.547  1.00  0.00    -0.000 C 
BRANCH   9  10
ATOM     10  C   UNL     1      25.246  -7.661  18.292  1.00  0.00    -0.000 C 
BRANCH  10  11
ATOM     11  C   UNL     1      24.188  -7.900  17.205  1.00  0.00    -0.003 C 
ATOM     12  C   UNL     1      24.726  -7.662  15.794  1.00  0.00     0.004 C 
ENDBRANCH  10  11
ENDBRANCH   9  10
ENDBRANCH   8   9
ENDBRANCH   7   8
ENDBRANCH   6   7
ENDBRANCH   5   6
ENDBRANCH   4   5
ENDBRANCH   3   4
ENDBRANCH   2   3
ENDBRANCH   1   2
BRANCH   1  13
ATOM     13  C   UNL     1      24.808  -3.192  17.062  1.00  0.00     0.000 C 
BRANCH  13  14
ATOM     14  C   UNL     1      25.811  -3.980  17.918  1.00  0.00     0.000 C 
BRANCH  14  15
ATOM     15  C   UNL     1      25.886  -3.480  19.372  1.00  0.00     0.000 C 
BRANCH  15  16
ATOM     16  C   UNL     1      27.256  -2.927  19.804  1.00  0.00     0.000 C 
BRANCH  16  17
ATOM     17  C   UNL     1      28.285  -2.915  18.660  1.00  0.00     0.000 C 
BRANCH  17  18
ATOM     18  C   UNL     1      28.563  -1.497  18.134  1.00  0.00     0.000 C 
BRANCH  18  19
ATOM     19  C   UNL     1      28.040  -1.286  16.703  1.00  0.00     0.000 C 
BRANCH  19  20
ATOM     20  C   UNL     1      27.647   0.175  16.418  1.00  0.00     0.006 C 
BRANCH  20  21
ATOM     21  C   UNL     1      27.195   0.430  14.968  1.00  0.00     0.053 C 
BRANCH  21  22
ATOM     22  C   UNL     1      26.247   1.585  14.851  1.00  0.00     0.041 C 
ATOM     23  O   UNL     1      25.437   1.840  15.782  1.00  0.00    -0.550 OA
ATOM     24  O   UNL     1      26.281   2.401  13.726  1.00  0.00    -0.550 OA
ENDBRANCH  21  22
ENDBRANCH  20  21
ENDBRANCH  19  20
ENDBRANCH  18  19
ENDBRANCH  17  18
ENDBRANCH  16  17
ENDBRANCH  15  16
ENDBRANCH  14  15
ENDBRANCH  13  14
ENDBRANCH   1  13
TORSDOF 20
ENDMDL
MODEL 4
REMARK VINA RESULT:    -4.130      2.828      5.552
REMARK INTER + INTRA:         -12.331
REMARK INTER:                  -9.262
REMARK INTRA:                  -3.069
REMARK UNBOUND:                -3.372
REMARK SMILES CCCCCCCCCCCCCCCCCCCCCC(=O)[O-]
REMARK SMILES IDX 12 1 11 2 10 3 9 4 8 5 7 6 6 7 5 8 4 9 3 10 2 11 1 12 13 13
REMARK SMILES IDX 14 14 15 15 16 16 17 17 18 18 19 19 20 20 21 21 22 22 23 23
REMARK SMILES IDX 24 24
REMARK H PARENT
REMARK Flexibility Score: inf
ROOT
ATOM      1  C   UNL     1      22.388  -8.187  19.887  1.00  0.00     0.000 C 
ENDROOT
BRANCH   1   2
ATOM      2  C   UNL     1      22.737  -9.527  19.216  1.00  0.00     0.000 C 
BRANCH   2   3
ATOM      3  C   UNL     1      23.970  -9.494  18.290  1.00  0.00     0.000 C 
BRANCH   3   4
ATOM      4  C   UNL     1      23.681  -9.743  16.799  1.00  0.00    -0.000 C 
BRANCH   4   5
ATOM      5  C   UNL     1      23.522  -8.440  15.998  1.00  0.00    -0.000 C 
BRANCH   5   6
ATOM      6  C   UNL     1      24.872  -7.803  15.620  1.00  0.00    -0.000 C 
BRANCH   6   7
ATOM      7  C   UNL     1      25.287  -6.589  16.476  1.00  0.00    -0.000 C 
BRANCH   7   8
ATOM      8  C   UNL     1      26.392  -6.866  17.516  1.00  0.00    -0.000 C 
BRANCH   8   9
ATOM      9  C   UNL     1      27.312  -5.669  17.816  1.00  0.00    -0.000 C 
BRANCH   9  10
ATOM     10  C   UNL     1      27.184  -5.170  19.266  1.00  0.00    -0.000 C 
BRANCH  10  11
ATOM     11  C   UNL     1      26.560  -3.769  19.352  1.00  0.00    -0.003 C 
ATOM     12  C   UNL     1      27.220  -2.769  18.403  1.00  0.00     0.004 C 
ENDBRANCH  10  11
ENDBRANCH   9  10
ENDBRANCH   8   9
ENDBRANCH   7   8
ENDBRANCH   6   7
ENDBRANCH   5   6
ENDBRANCH   4   5
ENDBRANCH   3   4
ENDBRANCH   2   3
ENDBRANCH   1   2
BRANCH   1  13
ATOM     13  C   UNL     1      23.047  -6.985  19.195  1.00  0.00     0.000 C 
BRANCH  13  14
ATOM     14  C   UNL     1      23.703  -6.051  20.224  1.00  0.00     0.000 C 
BRANCH  14  15
ATOM     15  C   UNL     1      22.973  -4.703  20.365  1.00  0.00     0.000 C 
BRANCH  15  16
ATOM     16  C   UNL     1      22.301  -4.185  19.080  1.00  0.00     0.000 C 
BRANCH  16  17
ATOM     17  C   UNL     1      23.314  -3.796  17.989  1.00  0.00     0.000 C 
BRANCH  17  18
ATOM     18  C   UNL     1      22.642  -3.510  16.637  1.00  0.00     0.000 C 
BRANCH  18  19
ATOM     19  C   UNL     1      22.498  -4.772  15.770  1.00  0.00     0.000 C 
BRANCH  19  20
ATOM     20  C   UNL     1      22.033  -4.465  14.334  1.00  0.00     0.006 C 
BRANCH  20  21
ATOM     21  C   UNL     1      21.102  -5.534  13.736  1.00  0.00     0.053 C 
BRANCH  21  22
ATOM     22  C   UNL     1      21.852  -6.643  13.061  1.00  0.00     0.041 C 
ATOM     23  O   UNL     1      21.361  -7.802  13.006  1.00  0.00    -0.550 OA
ATOM     24  O   UNL     1      23.081  -6.388  12.463  1.00  0.00    -0.550 OA
ENDBRANCH  21  22
ENDBRANCH  20  21
ENDBRANCH  19  20
ENDBRANCH  18  19
ENDBRANCH  17  18
ENDBRANCH  16  17
ENDBRANCH  15  16
ENDBRANCH  14  15
ENDBRANCH  13  14
ENDBRANCH   1  13
TORSDOF 20
ENDMDL
MODEL 5
REMARK VINA RESULT:    -4.125      2.760      6.116
REMARK INTER + INTRA:         -12.321
REMARK INTER:                  -9.054
REMARK INTRA:                  -3.267
REMARK UNBOUND:                -3.372
REMARK SMILES CCCCCCCCCCCCCCCCCCCCCC(=O)[O-]
REMARK SMILES IDX 12 1 11 2 10 3 9 4 8 5 7 6 6 7 5 8 4 9 3 10 2 11 1 12 13 13
REMARK SMILES IDX 14 14 15 15 16 16 17 17 18 18 19 19 20 20 21 21 22 22 23 23
REMARK SMILES IDX 24 24
REMARK H PARENT
REMARK Flexibility Score: inf
ROOT
ATOM      1  C   UNL     1      23.140  -4.711  20.235  1.00  0.00     0.000 C 
ENDROOT
BRANCH   1   2
ATOM      2  C   UNL     1      21.950  -3.736  20.291  1.00  0.00     0.000 C 
BRANCH   2   3
ATOM      3  C   UNL     1      21.073  -3.699  19.023  1.00  0.00     0.000 C 
BRANCH   3   4
ATOM      4  C   UNL     1      21.293  -2.482  18.106  1.00  0.00    -0.000 C 
BRANCH   4   5
ATOM      5  C   UNL     1      22.416  -2.705  17.080  1.00  0.00    -0.000 C 
BRANCH   5   6
ATOM      6  C   UNL     1      22.373  -4.106  16.442  1.00  0.00    -0.000 C 
BRANCH   6   7
ATOM      7  C   UNL     1      22.804  -4.168  14.963  1.00  0.00    -0.000 C 
BRANCH   7   8
ATOM      8  C   UNL     1      21.655  -4.363  13.952  1.00  0.00    -0.000 C 
BRANCH   8   9
ATOM      9  C   UNL     1      21.185  -5.819  13.780  1.00  0.00    -0.000 C 
BRANCH   9  10
ATOM     10  C   UNL     1      22.198  -6.683  13.009  1.00  0.00    -0.000 C 
BRANCH  10  11
ATOM     11  C   UNL     1      22.548  -7.982  13.751  1.00  0.00    -0.003 C 
ATOM     12  C   UNL     1      23.672  -7.794  14.771  1.00  0.00     0.004 C 
ENDBRANCH  10  11
ENDBRANCH   9  10
ENDBRANCH   8   9
ENDBRANCH   7   8
ENDBRANCH   6   7
ENDBRANCH   5   6
ENDBRANCH   4   5
ENDBRANCH   3   4
ENDBRANCH   2   3
ENDBRANCH   1   2
BRANCH   1  13
ATOM     13  C   UNL     1      22.738  -6.159  20.553  1.00  0.00     0.000 C 
BRANCH  13  14
ATOM     14  C   UNL     1      23.136  -7.103  19.408  1.00  0.00     0.000 C 
BRANCH  14  15
ATOM     15  C   UNL     1      24.160  -6.479  18.441  1.00  0.00     0.000 C 
BRANCH  15  16
ATOM     16  C   UNL     1      25.532  -7.176  18.402  1.00  0.00     0.000 C 
BRANCH  16  17
ATOM     17  C   UNL     1      26.401  -6.723  17.216  1.00  0.00     0.000 C 
BRANCH  17  18
ATOM     18  C   UNL     1      25.916  -5.398  16.604  1.00  0.00     0.000 C 
BRANCH  18  19
ATOM     19  C   UNL     1      26.786  -4.201  17.022  1.00  0.00     0.000 C 
BRANCH  19  20
ATOM     20  C   UNL     1      26.063  -3.240  17.984  1.00  0.00     0.006 C 
BRANCH  20  21
ATOM     21  C   UNL     1      26.445  -3.431  19.463  1.00  0.00     0.053 C 
BRANCH  21  22
ATOM     22  C   UNL     1      27.704  -2.707  19.834  1.00  0.00     0.041 C 
ATOM     23  O   UNL     1      28.180  -2.815  20.996  1.00  0.00    -0.550 OA
ATOM     24  O   UNL     1      28.369  -1.938  18.886  1.00  0.00    -0.550 OA
ENDBRANCH  21  22
ENDBRANCH  20  21
ENDBRANCH  19  20
ENDBRANCH  18  19
ENDBRANCH  17  18
ENDBRANCH  16  17
ENDBRANCH  15  16
ENDBRANCH  14  15
ENDBRANCH  13  14
ENDBRANCH   1  13
TORSDOF 20
ENDMDL
MODEL 6
REMARK VINA RESULT:    -4.087      2.406      5.339
REMARK INTER + INTRA:         -12.237
REMARK INTER:                  -9.679
REMARK INTRA:                  -2.558
REMARK UNBOUND:                -3.372
REMARK SMILES CCCCCCCCCCCCCCCCCCCCCC(=O)[O-]
REMARK SMILES IDX 12 1 11 2 10 3 9 4 8 5 7 6 6 7 5 8 4 9 3 10 2 11 1 12 13 13
REMARK SMILES IDX 14 14 15 15 16 16 17 17 18 18 19 19 20 20 21 21 22 22 23 23
REMARK SMILES IDX 24 24
REMARK H PARENT
REMARK Flexibility Score: inf
ROOT
ATOM      1  C   UNL     1      24.090  -6.534  18.639  1.00  0.00     0.000 C 
ENDROOT
BRANCH   1   2
ATOM      2  C   UNL     1      25.534  -6.067  18.383  1.00  0.00     0.000 C 
BRANCH   2   3
ATOM      3  C   UNL     1      25.687  -4.972  17.308  1.00  0.00     0.000 C 
BRANCH   3   4
ATOM      4  C   UNL     1      26.248  -3.629  17.811  1.00  0.00    -0.000 C 
BRANCH   4   5
ATOM      5  C   UNL     1      25.904  -3.356  19.285  1.00  0.00    -0.000 C 
BRANCH   5   6
ATOM      6  C   UNL     1      27.153  -3.138  20.159  1.00  0.00    -0.000 C 
BRANCH   6   7
ATOM      7  C   UNL     1      28.300  -2.359  19.485  1.00  0.00    -0.000 C 
BRANCH   7   8
ATOM      8  C   UNL     1      29.657  -3.091  19.445  1.00  0.00    -0.000 C 
BRANCH   8   9
ATOM      9  C   UNL     1      30.598  -2.772  20.621  1.00  0.00    -0.000 C 
BRANCH   9  10
ATOM     10  C   UNL     1      30.261  -1.437  21.307  1.00  0.00    -0.000 C 
BRANCH  10  11
ATOM     11  C   UNL     1      30.936  -1.294  22.679  1.00  0.00    -0.003 C 
ATOM     12  C   UNL     1      30.458  -0.062  23.447  1.00  0.00     0.004 C 
ENDBRANCH  10  11
ENDBRANCH   9  10
ENDBRANCH   8   9
ENDBRANCH   7   8
ENDBRANCH   6   7
ENDBRANCH   5   6
ENDBRANCH   4   5
ENDBRANCH   3   4
ENDBRANCH   2   3
ENDBRANCH   1   2
BRANCH   1  13
ATOM     13  C   UNL     1      23.697  -6.468  20.122  1.00  0.00     0.000 C 
BRANCH  13  14
ATOM     14  C   UNL     1      22.307  -5.837  20.294  1.00  0.00     0.000 C 
BRANCH  14  15
ATOM     15  C   UNL     1      22.326  -4.301  20.197  1.00  0.00     0.000 C 
BRANCH  15  16
ATOM     16  C   UNL     1      21.027  -3.662  19.673  1.00  0.00     0.000 C 
BRANCH  16  17
ATOM     17  C   UNL     1      21.241  -2.829  18.397  1.00  0.00     0.000 C 
BRANCH  17  18
ATOM     18  C   UNL     1      22.521  -3.227  17.643  1.00  0.00     0.000 C 
BRANCH  18  19
ATOM     19  C   UNL     1      22.681  -2.472  16.312  1.00  0.00     0.000 C 
BRANCH  19  20
ATOM     20  C   UNL     1      22.586  -3.394  15.083  1.00  0.00     0.006 C 
BRANCH  20  21
ATOM     21  C   UNL     1      22.372  -4.878  15.430  1.00  0.00     0.053 C 
BRANCH  21  22
ATOM     22  C   UNL     1      21.958  -5.697  14.244  1.00  0.00     0.041 C 
ATOM     23  O   UNL     1      20.762  -5.683  13.847  1.00  0.00    -0.550 OA
ATOM     24  O   UNL     1      22.902  -6.451  13.556  1.00  0.00    -0.550 OA
ENDBRANCH  21  22
ENDBRANCH  20  21
ENDBRANCH  19  20
ENDBRANCH  18  19
ENDBRANCH  17  18
ENDBRANCH  16  17
ENDBRANCH  15  16
ENDBRANCH  14  15
ENDBRANCH  13  14
ENDBRANCH   1  13
TORSDOF 20
ENDMDL
MODEL 7
REMARK VINA RESULT:    -4.084      2.616      4.457
REMARK INTER + INTRA:         -12.231
REMARK INTER:                  -8.613
REMARK INTRA:                  -3.618
REMARK UNBOUND:                -3.372
REMARK SMILES CCCCCCCCCCCCCCCCCCCCCC(=O)[O-]
REMARK SMILES IDX 12 1 11 2 10 3 9 4 8 5 7 6 6 7 5 8 4 9 3 10 2 11 1 12 13 13
REMARK SMILES IDX 14 14 15 15 16 16 17 17 18 18 19 19 20 20 21 21 22 22 23 23
REMARK SMILES IDX 24 24
REMARK H PARENT
REMARK Flexibility Score: inf
ROOT
ATOM      1  C   UNL     1      25.797  -3.359  18.229  1.00  0.00     0.000 C 
ENDROOT
BRANCH   1   2
ATOM      2  C   UNL     1      26.393  -3.360  19.648  1.00  0.00     0.000 C 
BRANCH   2   3
ATOM      3  C   UNL     1      27.892  -3.010  19.730  1.00  0.00     0.000 C 
BRANCH   3   4
ATOM      4  C   UNL     1      28.851  -4.215  19.723  1.00  0.00    -0.000 C 
BRANCH   4   5
ATOM      5  C   UNL     1      29.436  -4.503  18.331  1.00  0.00    -0.000 C 
BRANCH   5   6
ATOM      6  C   UNL     1      29.362  -5.993  17.948  1.00  0.00    -0.000 C 
BRANCH   6   7
ATOM      7  C   UNL     1      28.165  -6.765  18.540  1.00  0.00    -0.000 C 
BRANCH   7   8
ATOM      8  C   UNL     1      26.849  -6.647  17.744  1.00  0.00    -0.000 C 
BRANCH   8   9
ATOM      9  C   UNL     1      25.625  -7.291  18.419  1.00  0.00    -0.000 C 
BRANCH   9  10
ATOM     10  C   UNL     1      24.308  -6.972  17.691  1.00  0.00    -0.000 C 
BRANCH  10  11
ATOM     11  C   UNL     1      24.047  -7.914  16.506  1.00  0.00    -0.003 C 
ATOM     12  C   UNL     1      24.266  -9.385  16.863  1.00  0.00     0.004 C 
ENDBRANCH  10  11
ENDBRANCH   9  10
ENDBRANCH   8   9
ENDBRANCH   7   8
ENDBRANCH   6   7
ENDBRANCH   5   6
ENDBRANCH   4   5
ENDBRANCH   3   4
ENDBRANCH   2   3
ENDBRANCH   1   2
BRANCH   1  13
ATOM     13  C   UNL     1      26.599  -2.491  17.248  1.00  0.00     0.000 C 
BRANCH  13  14
ATOM     14  C   UNL     1      26.900  -3.261  15.953  1.00  0.00     0.000 C 
BRANCH  14  15
ATOM     15  C   UNL     1      25.765  -4.217  15.543  1.00  0.00     0.000 C 
BRANCH  15  16
ATOM     16  C   UNL     1      24.584  -3.555  14.811  1.00  0.00     0.000 C 
BRANCH  16  17
ATOM     17  C   UNL     1      23.394  -4.509  14.606  1.00  0.00     0.000 C 
BRANCH  17  18
ATOM     18  C   UNL     1      22.391  -4.456  15.769  1.00  0.00     0.000 C 
BRANCH  18  19
ATOM     19  C   UNL     1      22.464  -3.134  16.552  1.00  0.00     0.000 C 
BRANCH  19  20
ATOM     20  C   UNL     1      21.739  -3.200  17.909  1.00  0.00     0.006 C 
BRANCH  20  21
ATOM     21  C   UNL     1      22.460  -4.059  18.963  1.00  0.00     0.053 C 
BRANCH  21  22
ATOM     22  C   UNL     1      21.572  -4.432  20.112  1.00  0.00     0.041 C 
ATOM     23  O   UNL     1      20.868  -3.557  20.683  1.00  0.00    -0.550 OA
ATOM     24  O   UNL     1      21.498  -5.756  20.531  1.00  0.00    -0.550 OA
ENDBRANCH  21  22
ENDBRANCH  20  21
ENDBRANCH  19  20
ENDBRANCH  18  19
ENDBRANCH  17  18
ENDBRANCH  16  17
ENDBRANCH  15  16
ENDBRANCH  14  15
ENDBRANCH  13  14
ENDBRANCH   1  13
TORSDOF 20
ENDMDL
MODEL 8
REMARK VINA RESULT:    -4.067      3.828      7.036
REMARK INTER + INTRA:         -12.193
REMARK INTER:                  -9.652
REMARK INTRA:                  -2.541
REMARK UNBOUND:                -3.372
REMARK SMILES CCCCCCCCCCCCCCCCCCCCCC(=O)[O-]
REMARK SMILES IDX 12 1 11 2 10 3 9 4 8 5 7 6 6 7 5 8 4 9 3 10 2 11 1 12 13 13
REMARK SMILES IDX 14 14 15 15 16 16 17 17 18 18 19 19 20 20 21 21 22 22 23 23
REMARK SMILES IDX 24 24
REMARK H PARENT
REMARK Flexibility Score: inf
ROOT
ATOM      1  C   UNL     1      25.269  -6.299  16.715  1.00  0.00     0.000 C 
ENDROOT
BRANCH   1   2
ATOM      2  C   UNL     1      24.235  -6.838  17.719  1.00  0.00     0.000 C 
BRANCH   2   3
ATOM      3  C   UNL     1      24.582  -6.610  19.204  1.00  0.00     0.000 C 
BRANCH   3   4
ATOM      4  C   UNL     1      23.533  -5.825  20.013  1.00  0.00    -0.000 C 
BRANCH   4   5
ATOM      5  C   UNL     1      23.313  -4.400  19.478  1.00  0.00    -0.000 C 
BRANCH   5   6
ATOM      6  C   UNL     1      21.826  -4.066  19.262  1.00  0.00    -0.000 C 
BRANCH   6   7
ATOM      7  C   UNL     1      21.534  -3.072  18.119  1.00  0.00    -0.000 C 
BRANCH   7   8
ATOM      8  C   UNL     1      22.530  -3.116  16.942  1.00  0.00    -0.000 C 
BRANCH   8   9
ATOM      9  C   UNL     1      22.310  -4.274  15.952  1.00  0.00    -0.000 C 
BRANCH   9  10
ATOM     10  C   UNL     1      22.660  -3.891  14.503  1.00  0.00    -0.000 C 
BRANCH  10  11
ATOM     11  C   UNL     1      21.597  -4.360  13.498  1.00  0.00    -0.003 C 
ATOM     12  C   UNL     1      21.064  -5.758  13.811  1.00  0.00     0.004 C 
ENDBRANCH  10  11
ENDBRANCH   9  10
ENDBRANCH   8   9
ENDBRANCH   7   8
ENDBRANCH   6   7
ENDBRANCH   5   6
ENDBRANCH   4   5
ENDBRANCH   3   4
ENDBRANCH   2   3
ENDBRANCH   1   2
BRANCH   1  13
ATOM     13  C   UNL     1      26.335  -5.412  17.377  1.00  0.00     0.000 C 
BRANCH  13  14
ATOM     14  C   UNL     1      26.095  -3.930  17.050  1.00  0.00     0.000 C 
BRANCH  14  15
ATOM     15  C   UNL     1      26.773  -2.976  18.051  1.00  0.00     0.000 C 
BRANCH  15  16
ATOM     16  C   UNL     1      26.530  -3.306  19.536  1.00  0.00     0.000 C 
BRANCH  16  17
ATOM     17  C   UNL     1      27.730  -2.955  20.432  1.00  0.00     0.000 C 
BRANCH  17  18
ATOM     18  C   UNL     1      28.962  -3.824  20.132  1.00  0.00     0.000 C 
BRANCH  18  19
ATOM     19  C   UNL     1      30.212  -2.986  19.813  1.00  0.00     0.000 C 
BRANCH  19  20
ATOM     20  C   UNL     1      30.997  -2.575  21.073  1.00  0.00     0.006 C 
BRANCH  20  21
ATOM     21  C   UNL     1      31.457  -1.107  21.072  1.00  0.00     0.053 C 
BRANCH  21  22
ATOM     22  C   UNL     1      31.241  -0.431  22.393  1.00  0.00     0.041 C 
ATOM     23  O   UNL     1      31.237   0.826  22.472  1.00  0.00    -0.550 OA
ATOM     24  O   UNL     1      31.013  -1.193  23.534  1.00  0.00    -0.550 OA
ENDBRANCH  21  22
ENDBRANCH  20  21
ENDBRANCH  19  20
ENDBRANCH  18  19
ENDBRANCH  17  18
ENDBRANCH  16  17
ENDBRANCH  15  16
ENDBRANCH  14  15
ENDBRANCH  13  14
ENDBRANCH   1  13
TORSDOF 20
ENDMDL
MODEL 9
REMARK VINA RESULT:    -4.060      1.844      3.248
REMARK INTER + INTRA:         -12.179
REMARK INTER:                  -8.616
REMARK INTRA:                  -3.563
REMARK UNBOUND:                -3.372
REMARK SMILES CCCCCCCCCCCCCCCCCCCCCC(=O)[O-]
REMARK SMILES IDX 12 1 11 2 10 3 9 4 8 5 7 6 6 7 5 8 4 9 3 10 2 11 1 12 13 13
REMARK SMILES IDX 14 14 15 15 16 16 17 17 18 18 19 19 20 20 21 21 22 22 23 23
REMARK SMILES IDX 24 24
REMARK H PARENT
REMARK Flexibility Score: inf
ROOT
ATOM      1  C   UNL     1      27.353  -3.043  19.953  1.00  0.00     0.000 C 
ENDROOT
BRANCH   1   2
ATOM      2  C   UNL     1      28.739  -3.328  19.348  1.00  0.00     0.000 C 
BRANCH   2   3
ATOM      3  C   UNL     1      29.419  -4.618  19.850  1.00  0.00     0.000 C 
BRANCH   3   4
ATOM      4  C   UNL     1      28.614  -5.913  19.638  1.00  0.00    -0.000 C 
BRANCH   4   5
ATOM      5  C   UNL     1      28.340  -6.208  18.154  1.00  0.00    -0.000 C 
BRANCH   5   6
ATOM      6  C   UNL     1      27.117  -7.120  17.942  1.00  0.00    -0.000 C 
BRANCH   6   7
ATOM      7  C   UNL     1      25.958  -6.491  17.143  1.00  0.00    -0.000 C 
BRANCH   7   8
ATOM      8  C   UNL     1      24.564  -6.629  17.788  1.00  0.00    -0.000 C 
BRANCH   8   9
ATOM      9  C   UNL     1      24.405  -5.911  19.141  1.00  0.00    -0.000 C 
BRANCH   9  10
ATOM     10  C   UNL     1      22.933  -5.649  19.504  1.00  0.00    -0.000 C 
BRANCH  10  11
ATOM     11  C   UNL     1      22.714  -4.249  20.097  1.00  0.00    -0.003 C 
ATOM     12  C   UNL     1      21.339  -3.673  19.759  1.00  0.00     0.004 C 
ENDBRANCH  10  11
ENDBRANCH   9  10
ENDBRANCH   8   9
ENDBRANCH   7   8
ENDBRANCH   6   7
ENDBRANCH   5   6
ENDBRANCH   4   5
ENDBRANCH   3   4
ENDBRANCH   2   3
ENDBRANCH   1   2
BRANCH   1  13
ATOM     13  C   UNL     1      26.229  -3.072  18.906  1.00  0.00     0.000 C 
BRANCH  13  14
ATOM     14  C   UNL     1      26.799  -2.950  17.485  1.00  0.00     0.000 C 
BRANCH  14  15
ATOM     15  C   UNL     1      25.802  -2.333  16.487  1.00  0.00     0.000 C 
BRANCH  15  16
ATOM     16  C   UNL     1      24.715  -3.295  15.971  1.00  0.00     0.000 C 
BRANCH  16  17
ATOM     17  C   UNL     1      23.296  -2.880  16.397  1.00  0.00     0.000 C 
BRANCH  17  18
ATOM     18  C   UNL     1      22.275  -4.017  16.230  1.00  0.00     0.000 C 
BRANCH  18  19
ATOM     19  C   UNL     1      22.689  -5.027  15.146  1.00  0.00     0.000 C 
BRANCH  19  20
ATOM     20  C   UNL     1      21.557  -5.336  14.149  1.00  0.00     0.006 C 
BRANCH  20  21
ATOM     21  C   UNL     1      21.305  -4.217  13.123  1.00  0.00     0.053 C 
BRANCH  21  22
ATOM     22  C   UNL     1      22.536  -3.856  12.346  1.00  0.00     0.041 C 
ATOM     23  O   UNL     1      23.213  -2.841  12.663  1.00  0.00    -0.550 OA
ATOM     24  O   UNL     1      22.954  -4.659  11.291  1.00  0.00    -0.550 OA
ENDBRANCH  21  22
ENDBRANCH  20  21
ENDBRANCH  19  20
ENDBRANCH  18  19
ENDBRANCH  17  18
ENDBRANCH  16  17
ENDBRANCH  15  16
ENDBRANCH  14  15
ENDBRANCH  13  14
ENDBRANCH   1  13
TORSDOF 20
ENDMDL
