MODEL 1
REMARK VINA RESULT:    -5.023      0.000      0.000
REMARK INTER + INTRA:         -10.976
REMARK INTER:                  -9.135
REMARK INTRA:                  -1.841
REMARK UNBOUND:                -1.841
REMARK SMILES CCCCCCCCCCCCCCCC(=O)[O-]
REMARK SMILES IDX 9 1 10 2 11 3 12 4 13 5 14 6 15 7 16 8 17 9 18 10 8 11 7 12
REMARK SMILES IDX 6 13 5 14 4 15 3 16 2 17 1 18
REMARK H PARENT
REMARK Flexibility Score: inf
ROOT
ATOM      1  C   UNL     1      11.238  14.247 165.333  1.00  0.00     0.000 C 
ENDROOT
BRANCH   1   2
ATOM      2  C   UNL     1      12.263  15.397 165.270  1.00  0.00     0.000 C 
BRANCH   2   3
ATOM      3  C   UNL     1      12.005  16.440 164.168  1.00  0.00     0.000 C 
BRANCH   3   4
ATOM      4  C   UNL     1      10.661  17.166 164.339  1.00  0.00     0.000 C 
BRANCH   4   5
ATOM      5  C   UNL     1      10.466  18.293 163.312  1.00  0.00     0.000 C 
BRANCH   5   6
ATOM      6  C   UNL     1      11.584  18.333 162.255  1.00  0.00     0.006 C 
BRANCH   6   7
ATOM      7  C   UNL     1      11.037  18.182 160.828  1.00  0.00     0.053 C 
BRANCH   7   8
ATOM      8  C   UNL     1      11.112  16.764 160.353  1.00  0.00     0.041 C 
ATOM      9  O   UNL     1      10.278  15.913 160.763  1.00  0.00    -0.550 OA
ATOM     10  O   UNL     1      12.081  16.388 159.430  1.00  0.00    -0.550 OA
ENDBRANCH   7   8
ENDBRANCH   6   7
ENDBRANCH   5   6
ENDBRANCH   4   5
ENDBRANCH   3   4
ENDBRANCH   2   3
ENDBRANCH   1   2
BRANCH   1  11
ATOM     11  C   UNL     1      11.607  13.034 164.451  1.00  0.00     0.000 C 
BRANCH  11  12
ATOM     12  C   UNL     1      10.901  13.072 163.084  1.00  0.00    -0.000 C 
BRANCH  12  13
ATOM     13  C   UNL     1      11.869  12.815 161.909  1.00  0.00    -0.000 C 
BRANCH  13  14
ATOM     14  C   UNL     1      13.332  13.181 162.219  1.00  0.00    -0.000 C 
BRANCH  14  15
ATOM     15  C   UNL     1      13.736  14.617 161.839  1.00  0.00    -0.000 C 
BRANCH  15  16
ATOM     16  C   UNL     1      15.004  15.149 162.538  1.00  0.00    -0.000 C 
BRANCH  16  17
ATOM     17  C   UNL     1      15.913  14.066 163.146  1.00  0.00    -0.003 C 
ATOM     18  C   UNL     1      17.311  14.043 162.528  1.00  0.00     0.004 C 
ENDBRANCH  16  17
ENDBRANCH  15  16
ENDBRANCH  14  15
ENDBRANCH  13  14
ENDBRANCH  12  13
ENDBRANCH  11  12
ENDBRANCH   1  11
TORSDOF 14
ENDMDL
MODEL 2
REMARK VINA RESULT:    -5.009      3.248      5.114
REMARK INTER + INTRA:         -10.949
REMARK INTER:                  -8.655
REMARK INTRA:                  -2.295
REMARK UNBOUND:                -1.841
REMARK SMILES CCCCCCCCCCCCCCCC(=O)[O-]
REMARK SMILES IDX 9 1 10 2 11 3 12 4 13 5 14 6 15 7 16 8 17 9 18 10 8 11 7 12
REMARK SMILES IDX 6 13 5 14 4 15 3 16 2 17 1 18
REMARK H PARENT
REMARK Flexibility Score: inf
ROOT
ATOM      1  C   UNL     1      14.229  15.802 163.248  1.00  0.00     0.000 C 
ENDROOT
BRANCH   1   2
ATOM      2  C   UNL     1      13.002  16.521 163.842  1.00  0.00     0.000 C 
BRANCH   2   3
ATOM      3  C   UNL     1      12.362  15.823 165.055  1.00  0.00     0.000 C 
BRANCH   3   4
ATOM      4  C   UNL     1      10.836  15.680 164.923  1.00  0.00     0.000 C 
BRANCH   4   5
ATOM      5  C   UNL     1      10.154  17.001 164.532  1.00  0.00     0.000 C 
BRANCH   5   6
ATOM      6  C   UNL     1       8.976  17.359 165.456  1.00  0.00     0.006 C 
BRANCH   6   7
ATOM      7  C   UNL     1       8.970  16.515 166.738  1.00  0.00     0.053 C 
BRANCH   7   8
ATOM      8  C   UNL     1       7.828  16.878 167.635  1.00  0.00     0.041 C 
ATOM      9  O   UNL     1       7.468  16.093 168.552  1.00  0.00    -0.550 OA
ATOM     10  O   UNL     1       7.184  18.100 167.484  1.00  0.00    -0.550 OA
ENDBRANCH   7   8
ENDBRANCH   6   7
ENDBRANCH   5   6
ENDBRANCH   4   5
ENDBRANCH   3   4
ENDBRANCH   2   3
ENDBRANCH   1   2
BRANCH   1  11
ATOM     11  C   UNL     1      13.881  14.800 162.126  1.00  0.00     0.000 C 
BRANCH  11  12
ATOM     12  C   UNL     1      13.851  13.347 162.633  1.00  0.00    -0.000 C 
BRANCH  12  13
ATOM     13  C   UNL     1      12.419  12.772 162.701  1.00  0.00    -0.000 C 
BRANCH  13  14
ATOM     14  C   UNL     1      11.510  13.233 161.547  1.00  0.00    -0.000 C 
BRANCH  14  15
ATOM     15  C   UNL     1      10.099  13.680 161.972  1.00  0.00    -0.000 C 
BRANCH  15  16
ATOM     16  C   UNL     1       9.657  15.056 161.434  1.00  0.00    -0.000 C 
BRANCH  16  17
ATOM     17  C   UNL     1      10.634  15.710 160.441  1.00  0.00    -0.003 C 
ATOM     18  C   UNL     1      11.091  17.100 160.882  1.00  0.00     0.004 C 
ENDBRANCH  16  17
ENDBRANCH  15  16
ENDBRANCH  14  15
ENDBRANCH  13  14
ENDBRANCH  12  13
ENDBRANCH  11  12
ENDBRANCH   1  11
TORSDOF 14
ENDMDL
MODEL 3
REMARK VINA RESULT:    -4.978      2.153      5.416
REMARK INTER + INTRA:         -10.894
REMARK INTER:                  -8.860
REMARK INTRA:                  -2.034
REMARK UNBOUND:                -1.841
REMARK SMILES CCCCCCCCCCCCCCCC(=O)[O-]
REMARK SMILES IDX 9 1 10 2 11 3 12 4 13 5 14 6 15 7 16 8 17 9 18 10 8 11 7 12
REMARK SMILES IDX 6 13 5 14 4 15 3 16 2 17 1 18
REMARK H PARENT
REMARK Flexibility Score: inf
ROOT
ATOM      1  C   UNL     1       9.466  14.763 161.735  1.00  0.00     0.000 C 
ENDROOT
BRANCH   1   2
ATOM      2  C   UNL     1       9.731  13.263 161.971  1.00  0.00     0.000 C 
BRANCH   2   3
ATOM      3  C   UNL     1      10.860  12.658 161.117  1.00  0.00     0.000 C 
BRANCH   3   4
ATOM      4  C   UNL     1      12.142  12.397 161.925  1.00  0.00     0.000 C 
BRANCH   4   5
ATOM      5  C   UNL     1      12.028  12.875 163.381  1.00  0.00     0.000 C 
BRANCH   5   6
ATOM      6  C   UNL     1      13.146  13.858 163.773  1.00  0.00     0.006 C 
BRANCH   6   7
ATOM      7  C   UNL     1      14.509  13.440 163.205  1.00  0.00     0.053 C 
BRANCH   7   8
ATOM      8  C   UNL     1      15.348  14.627 162.846  1.00  0.00     0.041 C 
ATOM      9  O   UNL     1      14.850  15.784 162.868  1.00  0.00    -0.550 OA
ATOM     10  O   UNL     1      16.689  14.461 162.522  1.00  0.00    -0.550 OA
ENDBRANCH   7   8
ENDBRANCH   6   7
ENDBRANCH   5   6
ENDBRANCH   4   5
ENDBRANCH   3   4
ENDBRANCH   2   3
ENDBRANCH   1   2
BRANCH   1  11
ATOM     11  C   UNL     1      10.401  15.403 160.685  1.00  0.00     0.000 C 
BRANCH  11  12
ATOM     12  C   UNL     1      11.562  16.176 161.334  1.00  0.00    -0.000 C 
BRANCH  12  13
ATOM     13  C   UNL     1      11.242  17.674 161.532  1.00  0.00    -0.000 C 
BRANCH  13  14
ATOM     14  C   UNL     1      11.517  18.184 162.958  1.00  0.00    -0.000 C 
BRANCH  14  15
ATOM     15  C   UNL     1      10.260  18.439 163.810  1.00  0.00    -0.000 C 
BRANCH  15  16
ATOM     16  C   UNL     1       9.761  17.226 164.623  1.00  0.00    -0.000 C 
BRANCH  16  17
ATOM     17  C   UNL     1      10.837  16.173 164.945  1.00  0.00    -0.003 C 
ATOM     18  C   UNL     1      10.588  15.452 166.269  1.00  0.00     0.004 C 
ENDBRANCH  16  17
ENDBRANCH  15  16
ENDBRANCH  14  15
ENDBRANCH  13  14
ENDBRANCH  12  13
ENDBRANCH  11  12
ENDBRANCH   1  11
TORSDOF 14
ENDMDL
MODEL 4
REMARK VINA RESULT:    -4.968      2.489      3.531
REMARK INTER + INTRA:         -10.875
REMARK INTER:                  -8.986
REMARK INTRA:                  -1.889
REMARK UNBOUND:                -1.841
REMARK SMILES CCCCCCCCCCCCCCCC(=O)[O-]
REMARK SMILES IDX 9 1 10 2 11 3 12 4 13 5 14 6 15 7 16 8 17 9 18 10 8 11 7 12
REMARK SMILES IDX 6 13 5 14 4 15 3 16 2 17 1 18
REMARK H PARENT
REMARK Flexibility Score: inf
ROOT
ATOM      1  C   UNL     1       9.776  14.984 161.463  1.00  0.00     0.000 C 
ENDROOT
BRANCH   1   2
ATOM      2  C   UNL     1      10.810  15.530 160.459  1.00  0.00     0.000 C 
BRANCH   2   3
ATOM      3  C   UNL     1      11.204  17.003 160.665  1.00  0.00     0.000 C 
BRANCH   3   4
ATOM      4  C   UNL     1      11.594  17.317 162.120  1.00  0.00     0.000 C 
BRANCH   4   5
ATOM      5  C   UNL     1      10.809  18.507 162.695  1.00  0.00     0.000 C 
BRANCH   5   6
ATOM      6  C   UNL     1      10.177  18.196 164.063  1.00  0.00     0.006 C 
BRANCH   6   7
ATOM      7  C   UNL     1      10.463  16.759 164.520  1.00  0.00     0.053 C 
BRANCH   7   8
ATOM      8  C   UNL     1       9.744  16.427 165.790  1.00  0.00     0.041 C 
ATOM      9  O   UNL     1      10.255  15.625 166.616  1.00  0.00    -0.550 OA
ATOM     10  O   UNL     1       8.527  17.031 166.081  1.00  0.00    -0.550 OA
ENDBRANCH   7   8
ENDBRANCH   6   7
ENDBRANCH   5   6
ENDBRANCH   4   5
ENDBRANCH   3   4
ENDBRANCH   2   3
ENDBRANCH   1   2
BRANCH   1  11
ATOM     11  C   UNL     1      10.191  13.652 162.123  1.00  0.00     0.000 C 
BRANCH  11  12
ATOM     12  C   UNL     1      11.282  12.920 161.322  1.00  0.00    -0.000 C 
BRANCH  12  13
ATOM     13  C   UNL     1      12.599  12.766 162.114  1.00  0.00    -0.000 C 
BRANCH  13  14
ATOM     14  C   UNL     1      12.580  13.461 163.488  1.00  0.00    -0.000 C 
BRANCH  14  15
ATOM     15  C   UNL     1      13.438  14.736 163.582  1.00  0.00    -0.000 C 
BRANCH  15  16
ATOM     16  C   UNL     1      14.681  14.759 162.667  1.00  0.00    -0.000 C 
BRANCH  16  17
ATOM     17  C   UNL     1      15.883  13.951 163.185  1.00  0.00    -0.003 C 
ATOM     18  C   UNL     1      17.177  14.256 162.431  1.00  0.00     0.004 C 
ENDBRANCH  16  17
ENDBRANCH  15  16
ENDBRANCH  14  15
ENDBRANCH  13  14
ENDBRANCH  12  13
ENDBRANCH  11  12
ENDBRANCH   1  11
TORSDOF 14
ENDMDL
MODEL 5
REMARK VINA RESULT:    -4.959      2.312      4.839
REMARK INTER + INTRA:         -10.858
REMARK INTER:                  -8.806
REMARK INTRA:                  -2.052
REMARK UNBOUND:                -1.841
REMARK SMILES CCCCCCCCCCCCCCCC(=O)[O-]
REMARK SMILES IDX 9 1 10 2 11 3 12 4 13 5 14 6 15 7 16 8 17 9 18 10 8 11 7 12
REMARK SMILES IDX 6 13 5 14 4 15 3 16 2 17 1 18
REMARK H PARENT
REMARK Flexibility Score: inf
ROOT
ATOM      1  C   UNL     1      11.453  17.226 163.589  1.00  0.00     0.000 C 
ENDROOT
BRANCH   1   2
ATOM      2  C   UNL     1      11.064  17.638 162.155  1.00  0.00     0.000 C 
BRANCH   2   3
ATOM      3  C   UNL     1      10.764  16.470 161.200  1.00  0.00     0.000 C 
BRANCH   3   4
ATOM      4  C   UNL     1      11.920  16.186 160.226  1.00  0.00     0.000 C 
BRANCH   4   5
ATOM      5  C   UNL     1      12.500  14.773 160.397  1.00  0.00     0.000 C 
BRANCH   5   6
ATOM      6  C   UNL     1      13.977  14.784 160.828  1.00  0.00     0.006 C 
BRANCH   6   7
ATOM      7  C   UNL     1      14.147  15.185 162.300  1.00  0.00     0.053 C 
BRANCH   7   8
ATOM      8  C   UNL     1      15.278  14.450 162.948  1.00  0.00     0.041 C 
ATOM      9  O   UNL     1      15.098  13.843 164.037  1.00  0.00    -0.550 OA
ATOM     10  O   UNL     1      16.523  14.404 162.333  1.00  0.00    -0.550 OA
ENDBRANCH   7   8
ENDBRANCH   6   7
ENDBRANCH   5   6
ENDBRANCH   4   5
ENDBRANCH   3   4
ENDBRANCH   2   3
ENDBRANCH   1   2
BRANCH   1  11
ATOM     11  C   UNL     1      10.243  16.905 164.494  1.00  0.00     0.000 C 
BRANCH  11  12
ATOM     12  C   UNL     1      10.551  15.782 165.500  1.00  0.00    -0.000 C 
BRANCH  12  13
ATOM     13  C   UNL     1      11.825  14.990 165.133  1.00  0.00    -0.000 C 
BRANCH  13  14
ATOM     14  C   UNL     1      11.583  13.483 164.932  1.00  0.00    -0.000 C 
BRANCH  14  15
ATOM     15  C   UNL     1      11.756  12.986 163.484  1.00  0.00    -0.000 C 
BRANCH  15  16
ATOM     16  C   UNL     1      10.446  12.828 162.684  1.00  0.00    -0.000 C 
BRANCH  16  17
ATOM     17  C   UNL     1      10.554  11.943 161.430  1.00  0.00    -0.003 C 
ATOM     18  C   UNL     1       9.707  10.673 161.521  1.00  0.00     0.004 C 
ENDBRANCH  16  17
ENDBRANCH  15  16
ENDBRANCH  14  15
ENDBRANCH  13  14
ENDBRANCH  12  13
ENDBRANCH  11  12
ENDBRANCH   1  11
TORSDOF 14
ENDMDL
MODEL 6
REMARK VINA RESULT:    -4.925      1.696      3.762
REMARK INTER + INTRA:         -10.797
REMARK INTER:                  -9.077
REMARK INTRA:                  -1.720
REMARK UNBOUND:                -1.841
REMARK SMILES CCCCCCCCCCCCCCCC(=O)[O-]
REMARK SMILES IDX 9 1 10 2 11 3 12 4 13 5 14 6 15 7 16 8 17 9 18 10 8 11 7 12
REMARK SMILES IDX 6 13 5 14 4 15 3 16 2 17 1 18
REMARK H PARENT
REMARK Flexibility Score: inf
ROOT
ATOM      1  C   UNL     1      14.354  15.612 163.177  1.00  0.00     0.000 C 
ENDROOT
BRANCH   1   2
ATOM      2  C   UNL     1      13.460  16.770 163.663  1.00  0.00     0.000 C 
BRANCH   2   3
ATOM      3  C   UNL     1      12.158  16.339 164.361  1.00  0.00     0.000 C 
BRANCH   3   4
ATOM      4  C   UNL     1      10.902  16.915 163.687  1.00  0.00     0.000 C 
BRANCH   4   5
ATOM      5  C   UNL     1      11.177  18.247 162.971  1.00  0.00     0.000 C 
BRANCH   5   6
ATOM      6  C   UNL     1      10.998  18.151 161.446  1.00  0.00     0.006 C 
BRANCH   6   7
ATOM      7  C   UNL     1      10.857  16.698 160.971  1.00  0.00     0.053 C 
BRANCH   7   8
ATOM      8  C   UNL     1      11.917  16.334 159.978  1.00  0.00     0.041 C 
ATOM      9  O   UNL     1      12.633  15.314 160.160  1.00  0.00    -0.550 OA
ATOM     10  O   UNL     1      12.091  17.100 158.832  1.00  0.00    -0.550 OA
ENDBRANCH   7   8
ENDBRANCH   6   7
ENDBRANCH   5   6
ENDBRANCH   4   5
ENDBRANCH   3   4
ENDBRANCH   2   3
ENDBRANCH   1   2
BRANCH   1  11
ATOM     11  C   UNL     1      13.873  14.218 163.635  1.00  0.00     0.000 C 
BRANCH  11  12
ATOM     12  C   UNL     1      14.037  13.155 162.535  1.00  0.00    -0.000 C 
BRANCH  12  13
ATOM     13  C   UNL     1      12.697  12.496 162.142  1.00  0.00    -0.000 C 
BRANCH  13  14
ATOM     14  C   UNL     1      11.463  13.191 162.746  1.00  0.00    -0.000 C 
BRANCH  14  15
ATOM     15  C   UNL     1      10.145  12.949 161.987  1.00  0.00    -0.000 C 
BRANCH  15  16
ATOM     16  C   UNL     1      10.076  11.624 161.199  1.00  0.00    -0.000 C 
BRANCH  16  17
ATOM     17  C   UNL     1       9.860  10.367 162.060  1.00  0.00    -0.003 C 
ATOM     18  C   UNL     1       9.049   9.286 161.345  1.00  0.00     0.004 C 
ENDBRANCH  16  17
ENDBRANCH  15  16
ENDBRANCH  14  15
ENDBRANCH  13  14
ENDBRANCH  12  13
ENDBRANCH  11  12
ENDBRANCH   1  11
TORSDOF 14
ENDMDL
MODEL 7
REMARK VINA RESULT:    -4.884      3.401      5.486
REMARK INTER + INTRA:         -10.723
REMARK INTER:                  -9.220
REMARK INTRA:                  -1.502
REMARK UNBOUND:                -1.841
REMARK SMILES CCCCCCCCCCCCCCCC(=O)[O-]
REMARK SMILES IDX 9 1 10 2 11 3 12 4 13 5 14 6 15 7 16 8 17 9 18 10 8 11 7 12
REMARK SMILES IDX 6 13 5 14 4 15 3 16 2 17 1 18
REMARK H PARENT
REMARK Flexibility Score: inf
ROOT
ATOM      1  C   UNL     1      14.103  16.051 162.882  1.00  0.00     0.000 C 
ENDROOT
BRANCH   1   2
ATOM      2  C   UNL     1      13.144  16.732 163.878  1.00  0.00     0.000 C 
BRANCH   2   3
ATOM      3  C   UNL     1      11.723  16.987 163.346  1.00  0.00     0.000 C 
BRANCH   3   4
ATOM      4  C   UNL     1      10.649  16.880 164.441  1.00  0.00     0.000 C 
BRANCH   4   5
ATOM      5  C   UNL     1      10.954  15.769 165.458  1.00  0.00     0.000 C 
BRANCH   5   6
ATOM      6  C   UNL     1      10.019  15.808 166.680  1.00  0.00     0.006 C 
BRANCH   6   7
ATOM      7  C   UNL     1       8.842  16.772 166.476  1.00  0.00     0.053 C 
BRANCH   7   8
ATOM      8  C   UNL     1       7.851  16.681 167.595  1.00  0.00     0.041 C 
ATOM      9  O   UNL     1       7.257  17.715 168.000  1.00  0.00    -0.550 OA
ATOM     10  O   UNL     1       7.557  15.449 168.168  1.00  0.00    -0.550 OA
ENDBRANCH   7   8
ENDBRANCH   6   7
ENDBRANCH   5   6
ENDBRANCH   4   5
ENDBRANCH   3   4
ENDBRANCH   2   3
ENDBRANCH   1   2
BRANCH   1  11
ATOM     11  C   UNL     1      14.357  14.558 163.184  1.00  0.00     0.000 C 
BRANCH  11  12
ATOM     12  C   UNL     1      13.368  13.638 162.448  1.00  0.00    -0.000 C 
BRANCH  12  13
ATOM     13  C   UNL     1      12.271  13.078 163.380  1.00  0.00    -0.000 C 
BRANCH  13  14
ATOM     14  C   UNL     1      10.838  13.354 162.889  1.00  0.00    -0.000 C 
BRANCH  14  15
ATOM     15  C   UNL     1      10.610  13.106 161.386  1.00  0.00    -0.000 C 
BRANCH  15  16
ATOM     16  C   UNL     1      10.464  11.625 160.980  1.00  0.00    -0.000 C 
BRANCH  16  17
ATOM     17  C   UNL     1       9.627  10.767 161.944  1.00  0.00    -0.003 C 
ATOM     18  C   UNL     1       9.253   9.405 161.360  1.00  0.00     0.004 C 
ENDBRANCH  16  17
ENDBRANCH  15  16
ENDBRANCH  14  15
ENDBRANCH  13  14
ENDBRANCH  12  13
ENDBRANCH  11  12
ENDBRANCH   1  11
TORSDOF 14
ENDMDL
MODEL 8
REMARK VINA RESULT:    -4.882      3.552      5.249
REMARK INTER + INTRA:         -10.719
REMARK INTER:                  -8.742
REMARK INTRA:                  -1.977
REMARK UNBOUND:                -1.841
REMARK SMILES CCCCCCCCCCCCCCCC(=O)[O-]
REMARK SMILES IDX 9 1 10 2 11 3 12 4 13 5 14 6 15 7 16 8 17 9 18 10 8 11 7 12
REMARK SMILES IDX 6 13 5 14 4 15 3 16 2 17 1 18
REMARK H PARENT
REMARK Flexibility Score: inf
ROOT
ATOM      1  C   UNL     1      12.836  16.539 163.948  1.00  0.00     0.000 C 
ENDROOT
BRANCH   1   2
ATOM      2  C   UNL     1      12.025  15.975 165.131  1.00  0.00     0.000 C 
BRANCH   2   3
ATOM      3  C   UNL     1      10.506  16.205 165.048  1.00  0.00     0.000 C 
BRANCH   3   4
ATOM      4  C   UNL     1      10.142  17.584 164.472  1.00  0.00     0.000 C 
BRANCH   4   5
ATOM      5  C   UNL     1       9.011  18.269 165.255  1.00  0.00     0.000 C 
BRANCH   5   6
ATOM      6  C   UNL     1       8.023  17.265 165.873  1.00  0.00     0.006 C 
BRANCH   6   7
ATOM      7  C   UNL     1       7.925  17.413 167.398  1.00  0.00     0.053 C 
BRANCH   7   8
ATOM      8  C   UNL     1       7.218  16.251 168.024  1.00  0.00     0.041 C 
ATOM      9  O   UNL     1       5.969  16.135 167.912  1.00  0.00    -0.550 OA
ATOM     10  O   UNL     1       7.942  15.277 168.701  1.00  0.00    -0.550 OA
ENDBRANCH   7   8
ENDBRANCH   6   7
ENDBRANCH   5   6
ENDBRANCH   4   5
ENDBRANCH   3   4
ENDBRANCH   2   3
ENDBRANCH   1   2
BRANCH   1  11
ATOM     11  C   UNL     1      13.686  15.479 163.214  1.00  0.00     0.000 C 
BRANCH  11  12
ATOM     12  C   UNL     1      13.343  14.047 163.661  1.00  0.00    -0.000 C 
BRANCH  12  13
ATOM     13  C   UNL     1      13.418  13.030 162.501  1.00  0.00    -0.000 C 
BRANCH  13  14
ATOM     14  C   UNL     1      12.040  12.554 162.004  1.00  0.00    -0.000 C 
BRANCH  14  15
ATOM     15  C   UNL     1      10.836  13.186 162.727  1.00  0.00    -0.000 C 
BRANCH  15  16
ATOM     16  C   UNL     1       9.854  13.952 161.817  1.00  0.00    -0.000 C 
BRANCH  16  17
ATOM     17  C   UNL     1      10.199  15.435 161.593  1.00  0.00    -0.003 C 
ATOM     18  C   UNL     1      11.017  15.672 160.323  1.00  0.00     0.004 C 
ENDBRANCH  16  17
ENDBRANCH  15  16
ENDBRANCH  14  15
ENDBRANCH  13  14
ENDBRANCH  12  13
ENDBRANCH  11  12
ENDBRANCH   1  11
TORSDOF 14
ENDMDL
MODEL 9
REMARK VINA RESULT:    -4.860      2.371      4.914
REMARK INTER + INTRA:         -10.678
REMARK INTER:                  -8.404
REMARK INTRA:                  -2.274
REMARK UNBOUND:                -1.841
REMARK SMILES CCCCCCCCCCCCCCCC(=O)[O-]
REMARK SMILES IDX 9 1 10 2 11 3 12 4 13 5 14 6 15 7 16 8 17 9 18 10 8 11 7 12
REMARK SMILES IDX 6 13 5 14 4 15 3 16 2 17 1 18
REMARK H PARENT
REMARK Flexibility Score: inf
ROOT
ATOM      1  C   UNL     1      11.533  18.692 161.202  1.00  0.00     0.000 C 
ENDROOT
BRANCH   1   2
ATOM      2  C   UNL     1      11.618  18.757 162.740  1.00  0.00     0.000 C 
BRANCH   2   3
ATOM      3  C   UNL     1      10.523  17.975 163.486  1.00  0.00     0.000 C 
BRANCH   3   4
ATOM      4  C   UNL     1      11.084  16.801 164.307  1.00  0.00     0.000 C 
BRANCH   4   5
ATOM      5  C   UNL     1      12.618  16.731 164.261  1.00  0.00     0.000 C 
BRANCH   5   6
ATOM      6  C   UNL     1      13.137  15.372 163.760  1.00  0.00     0.006 C 
BRANCH   6   7
ATOM      7  C   UNL     1      14.436  15.510 162.953  1.00  0.00     0.053 C 
BRANCH   7   8
ATOM      8  C   UNL     1      15.181  14.214 162.875  1.00  0.00     0.041 C 
ATOM      9  O   UNL     1      14.556  13.121 162.910  1.00  0.00    -0.550 OA
ATOM     10  O   UNL     1      16.563  14.212 162.727  1.00  0.00    -0.550 OA
ENDBRANCH   7   8
ENDBRANCH   6   7
ENDBRANCH   5   6
ENDBRANCH   4   5
ENDBRANCH   3   4
ENDBRANCH   2   3
ENDBRANCH   1   2
BRANCH   1  11
ATOM     11  C   UNL     1      10.857  17.410 160.669  1.00  0.00     0.000 C 
BRANCH  11  12
ATOM     12  C   UNL     1      11.883  16.361 160.205  1.00  0.00    -0.000 C 
BRANCH  12  13
ATOM     13  C   UNL     1      11.512  14.930 160.651  1.00  0.00    -0.000 C 
BRANCH  13  14
ATOM     14  C   UNL     1      10.126  14.827 161.314  1.00  0.00    -0.000 C 
BRANCH  14  15
ATOM     15  C   UNL     1      10.030  13.804 162.461  1.00  0.00    -0.000 C 
BRANCH  15  16
ATOM     16  C   UNL     1      10.729  12.454 162.195  1.00  0.00    -0.000 C 
BRANCH  16  17
ATOM     17  C   UNL     1      10.056  11.573 161.128  1.00  0.00    -0.003 C 
ATOM     18  C   UNL     1       9.604  10.218 161.670  1.00  0.00     0.004 C 
ENDBRANCH  16  17
ENDBRANCH  15  16
ENDBRANCH  14  15
ENDBRANCH  13  14
ENDBRANCH  12  13
ENDBRANCH  11  12
ENDBRANCH   1  11
TORSDOF 14
ENDMDL
