MODEL 1
REMARK VINA RESULT:    -5.301      0.000      0.000
REMARK INTER + INTRA:         -13.732
REMARK INTER:                 -11.499
REMARK INTRA:                  -2.233
REMARK UNBOUND:                -2.233
REMARK SMILES CCCCCCCCCCCCCCCCCCCCCC(=O)[O-]
REMARK SMILES IDX 12 1 11 2 10 3 9 4 8 5 7 6 6 7 5 8 4 9 3 10 2 11 1 12 13 13
REMARK SMILES IDX 14 14 15 15 16 16 17 17 18 18 19 19 20 20 21 21 22 22 23 23
REMARK SMILES IDX 24 24
REMARK H PARENT
REMARK Flexibility Score: inf
ROOT
ATOM      1  C   UNL     1      -9.726  -3.602  -7.769  1.00  0.00     0.000 C 
ENDROOT
BRANCH   1   2
ATOM      2  C   UNL     1      -9.706  -5.136  -7.635  1.00  0.00     0.000 C 
BRANCH   2   3
ATOM      3  C   UNL     1     -10.432  -5.899  -8.760  1.00  0.00     0.000 C 
BRANCH   3   4
ATOM      4  C   UNL     1     -10.595  -7.414  -8.530  1.00  0.00    -0.000 C 
BRANCH   4   5
ATOM      5  C   UNL     1     -11.950  -7.980  -9.009  1.00  0.00    -0.000 C 
BRANCH   5   6
ATOM      6  C   UNL     1     -12.672  -7.031  -9.981  1.00  0.00    -0.000 C 
BRANCH   6   7
ATOM      7  C   UNL     1     -14.079  -6.647  -9.491  1.00  0.00    -0.000 C 
BRANCH   7   8
ATOM      8  C   UNL     1     -14.058  -5.984  -8.102  1.00  0.00    -0.000 C 
BRANCH   8   9
ATOM      9  C   UNL     1     -14.870  -6.768  -7.061  1.00  0.00    -0.000 C 
BRANCH   9  10
ATOM     10  C   UNL     1     -14.052  -7.098  -5.802  1.00  0.00    -0.000 C 
BRANCH  10  11
ATOM     11  C   UNL     1     -12.766  -6.265  -5.750  1.00  0.00    -0.003 C 
ATOM     12  C   UNL     1     -11.646  -7.021  -5.037  1.00  0.00     0.004 C 
ENDBRANCH  10  11
ENDBRANCH   9  10
ENDBRANCH   8   9
ENDBRANCH   7   8
ENDBRANCH   6   7
ENDBRANCH   5   6
ENDBRANCH   4   5
ENDBRANCH   3   4
ENDBRANCH   2   3
ENDBRANCH   1   2
BRANCH   1  13
ATOM     13  C   UNL     1      -9.732  -3.131  -9.234  1.00  0.00     0.000 C 
BRANCH  13  14
ATOM     14  C   UNL     1     -11.027  -2.393  -9.610  1.00  0.00     0.000 C 
BRANCH  14  15
ATOM     15  C   UNL     1     -10.772  -0.954 -10.096  1.00  0.00     0.000 C 
BRANCH  15  16
ATOM     16  C   UNL     1     -11.993  -0.041  -9.903  1.00  0.00     0.000 C 
BRANCH  16  17
ATOM     17  C   UNL     1     -13.264  -0.605 -10.557  1.00  0.00     0.000 C 
BRANCH  17  18
ATOM     18  C   UNL     1     -14.526  -0.064  -9.869  1.00  0.00     0.000 C 
BRANCH  18  19
ATOM     19  C   UNL     1     -14.662   1.463  -9.997  1.00  0.00     0.000 C 
BRANCH  19  20
ATOM     20  C   UNL     1     -14.691   2.171  -8.631  1.00  0.00     0.006 C 
BRANCH  20  21
ATOM     21  C   UNL     1     -14.224   3.630  -8.726  1.00  0.00     0.053 C 
BRANCH  21  22
ATOM     22  C   UNL     1     -12.731   3.739  -8.774  1.00  0.00     0.041 C 
ATOM     23  O   UNL     1     -12.120   3.592  -9.866  1.00  0.00    -0.550 OA
ATOM     24  O   UNL     1     -12.011   3.990  -7.611  1.00  0.00    -0.550 OA
ENDBRANCH  21  22
ENDBRANCH  20  21
ENDBRANCH  19  20
ENDBRANCH  18  19
ENDBRANCH  17  18
ENDBRANCH  16  17
ENDBRANCH  15  16
ENDBRANCH  14  15
ENDBRANCH  13  14
ENDBRANCH   1  13
TORSDOF 20
ENDMDL
MODEL 2
REMARK VINA RESULT:    -5.136      3.343      8.039
REMARK INTER + INTRA:         -13.374
REMARK INTER:                 -11.197
REMARK INTRA:                  -2.177
REMARK UNBOUND:                -2.233
REMARK SMILES CCCCCCCCCCCCCCCCCCCCCC(=O)[O-]
REMARK SMILES IDX 12 1 11 2 10 3 9 4 8 5 7 6 6 7 5 8 4 9 3 10 2 11 1 12 13 13
REMARK SMILES IDX 14 14 15 15 16 16 17 17 18 18 19 19 20 20 21 21 22 22 23 23
REMARK SMILES IDX 24 24
REMARK H PARENT
REMARK Flexibility Score: inf
ROOT
ATOM      1  C   UNL     1      -9.811  -3.584  -7.271  1.00  0.00     0.000 C 
ENDROOT
BRANCH   1   2
ATOM      2  C   UNL     1     -10.001  -3.042  -8.701  1.00  0.00     0.000 C 
BRANCH   2   3
ATOM      3  C   UNL     1     -10.427  -1.563  -8.786  1.00  0.00     0.000 C 
BRANCH   3   4
ATOM      4  C   UNL     1     -10.843  -1.078 -10.189  1.00  0.00    -0.000 C 
BRANCH   4   5
ATOM      5  C   UNL     1     -12.097  -0.176 -10.195  1.00  0.00    -0.000 C 
BRANCH   5   6
ATOM      6  C   UNL     1     -13.377  -0.952 -10.547  1.00  0.00    -0.000 C 
BRANCH   6   7
ATOM      7  C   UNL     1     -14.635  -0.070 -10.487  1.00  0.00    -0.000 C 
BRANCH   7   8
ATOM      8  C   UNL     1     -14.637   0.871  -9.268  1.00  0.00    -0.000 C 
BRANCH   8   9
ATOM      9  C   UNL     1     -14.832   2.343  -9.659  1.00  0.00    -0.000 C 
BRANCH   9  10
ATOM     10  C   UNL     1     -14.192   3.310  -8.649  1.00  0.00    -0.000 C 
BRANCH  10  11
ATOM     11  C   UNL     1     -12.912   3.931  -9.220  1.00  0.00    -0.003 C 
ATOM     12  C   UNL     1     -11.672   3.397  -8.504  1.00  0.00     0.004 C 
ENDBRANCH  10  11
ENDBRANCH   9  10
ENDBRANCH   8   9
ENDBRANCH   7   8
ENDBRANCH   6   7
ENDBRANCH   5   6
ENDBRANCH   4   5
ENDBRANCH   3   4
ENDBRANCH   2   3
ENDBRANCH   1   2
BRANCH   1  13
ATOM     13  C   UNL     1      -9.859  -5.121  -7.205  1.00  0.00     0.000 C 
BRANCH  13  14
ATOM     14  C   UNL     1      -9.975  -5.767  -8.595  1.00  0.00     0.000 C 
BRANCH  14  15
ATOM     15  C   UNL     1     -10.572  -7.186  -8.543  1.00  0.00     0.000 C 
BRANCH  15  16
ATOM     16  C   UNL     1     -11.913  -7.289  -9.287  1.00  0.00     0.000 C 
BRANCH  16  17
ATOM     17  C   UNL     1     -12.455  -5.919  -9.725  1.00  0.00     0.000 C 
BRANCH  17  18
ATOM     18  C   UNL     1     -13.425  -5.349  -8.680  1.00  0.00     0.000 C 
BRANCH  18  19
ATOM     19  C   UNL     1     -14.481  -6.373  -8.231  1.00  0.00     0.000 C 
BRANCH  19  20
ATOM     20  C   UNL     1     -14.575  -6.494  -6.700  1.00  0.00     0.006 C 
BRANCH  20  21
ATOM     21  C   UNL     1     -13.705  -7.634  -6.155  1.00  0.00     0.053 C 
BRANCH  21  22
ATOM     22  C   UNL     1     -12.565  -7.123  -5.327  1.00  0.00     0.041 C 
ATOM     23  O   UNL     1     -12.382  -5.883  -5.197  1.00  0.00    -0.550 OA
ATOM     24  O   UNL     1     -11.696  -8.015  -4.709  1.00  0.00    -0.550 OA
ENDBRANCH  21  22
ENDBRANCH  20  21
ENDBRANCH  19  20
ENDBRANCH  18  19
ENDBRANCH  17  18
ENDBRANCH  16  17
ENDBRANCH  15  16
ENDBRANCH  14  15
ENDBRANCH  13  14
ENDBRANCH   1  13
TORSDOF 20
ENDMDL
MODEL 3
REMARK VINA RESULT:    -5.009      0.963      2.476
REMARK INTER + INTRA:         -13.098
REMARK INTER:                 -10.999
REMARK INTRA:                  -2.099
REMARK UNBOUND:                -2.233
REMARK SMILES CCCCCCCCCCCCCCCCCCCCCC(=O)[O-]
REMARK SMILES IDX 12 1 11 2 10 3 9 4 8 5 7 6 6 7 5 8 4 9 3 10 2 11 1 12 13 13
REMARK SMILES IDX 14 14 15 15 16 16 17 17 18 18 19 19 20 20 21 21 22 22 23 23
REMARK SMILES IDX 24 24
REMARK H PARENT
REMARK Flexibility Score: inf
ROOT
ATOM      1  C   UNL     1     -10.639  -3.146  -9.181  1.00  0.00     0.000 C 
ENDROOT
BRANCH   1   2
ATOM      2  C   UNL     1      -9.357  -3.999  -9.139  1.00  0.00     0.000 C 
BRANCH   2   3
ATOM      3  C   UNL     1      -9.503  -5.363  -8.437  1.00  0.00     0.000 C 
BRANCH   3   4
ATOM      4  C   UNL     1     -10.364  -5.356  -7.158  1.00  0.00    -0.000 C 
BRANCH   4   5
ATOM      5  C   UNL     1     -10.584  -6.755  -6.542  1.00  0.00    -0.000 C 
BRANCH   5   6
ATOM      6  C   UNL     1     -11.446  -6.708  -5.269  1.00  0.00    -0.000 C 
BRANCH   6   7
ATOM      7  C   UNL     1     -12.792  -6.000  -5.496  1.00  0.00    -0.000 C 
BRANCH   7   8
ATOM      8  C   UNL     1     -13.915  -6.981  -5.879  1.00  0.00    -0.000 C 
BRANCH   8   9
ATOM      9  C   UNL     1     -14.536  -6.664  -7.247  1.00  0.00    -0.000 C 
BRANCH   9  10
ATOM     10  C   UNL     1     -13.758  -7.304  -8.408  1.00  0.00    -0.000 C 
BRANCH  10  11
ATOM     11  C   UNL     1     -13.102  -6.232  -9.286  1.00  0.00    -0.003 C 
ATOM     12  C   UNL     1     -13.971  -4.979  -9.373  1.00  0.00     0.004 C 
ENDBRANCH  10  11
ENDBRANCH   9  10
ENDBRANCH   8   9
ENDBRANCH   7   8
ENDBRANCH   6   7
ENDBRANCH   5   6
ENDBRANCH   4   5
ENDBRANCH   3   4
ENDBRANCH   2   3
ENDBRANCH   1   2
BRANCH   1  13
ATOM     13  C   UNL     1     -10.352  -1.635  -9.127  1.00  0.00     0.000 C 
BRANCH  13  14
ATOM     14  C   UNL     1     -10.926  -0.883 -10.339  1.00  0.00     0.000 C 
BRANCH  14  15
ATOM     15  C   UNL     1     -12.291  -0.234 -10.045  1.00  0.00     0.000 C 
BRANCH  15  16
ATOM     16  C   UNL     1     -13.455  -0.976 -10.722  1.00  0.00     0.000 C 
BRANCH  16  17
ATOM     17  C   UNL     1     -14.780  -0.204 -10.635  1.00  0.00     0.000 C 
BRANCH  17  18
ATOM     18  C   UNL     1     -14.874   0.586  -9.321  1.00  0.00     0.000 C 
BRANCH  18  19
ATOM     19  C   UNL     1     -15.014   2.101  -9.549  1.00  0.00     0.000 C 
BRANCH  19  20
ATOM     20  C   UNL     1     -14.771   2.917  -8.267  1.00  0.00     0.006 C 
BRANCH  20  21
ATOM     21  C   UNL     1     -13.963   4.193  -8.538  1.00  0.00     0.053 C 
BRANCH  21  22
ATOM     22  C   UNL     1     -12.528   3.893  -8.849  1.00  0.00     0.041 C 
ATOM     23  O   UNL     1     -11.712   3.665  -7.917  1.00  0.00    -0.550 OA
ATOM     24  O   UNL     1     -12.089   3.875 -10.168  1.00  0.00    -0.550 OA
ENDBRANCH  21  22
ENDBRANCH  20  21
ENDBRANCH  19  20
ENDBRANCH  18  19
ENDBRANCH  17  18
ENDBRANCH  16  17
ENDBRANCH  15  16
ENDBRANCH  14  15
ENDBRANCH  13  14
ENDBRANCH   1  13
TORSDOF 20
ENDMDL
MODEL 4
REMARK VINA RESULT:    -4.854     15.926     19.196
REMARK INTER + INTRA:         -12.763
REMARK INTER:                  -9.451
REMARK INTRA:                  -3.312
REMARK UNBOUND:                -2.233
REMARK SMILES CCCCCCCCCCCCCCCCCCCCCC(=O)[O-]
REMARK SMILES IDX 12 1 11 2 10 3 9 4 8 5 7 6 6 7 5 8 4 9 3 10 2 11 1 12 13 13
REMARK SMILES IDX 14 14 15 15 16 16 17 17 18 18 19 19 20 20 21 21 22 22 23 23
REMARK SMILES IDX 24 24
REMARK H PARENT
REMARK Flexibility Score: inf
ROOT
ATOM      1  C   UNL     1     -11.178   4.293   5.322  1.00  0.00     0.000 C 
ENDROOT
BRANCH   1   2
ATOM      2  C   UNL     1     -10.854   5.736   5.751  1.00  0.00     0.000 C 
BRANCH   2   3
ATOM      3  C   UNL     1      -9.408   5.964   6.235  1.00  0.00     0.000 C 
BRANCH   3   4
ATOM      4  C   UNL     1      -8.991   7.439   6.392  1.00  0.00    -0.000 C 
BRANCH   4   5
ATOM      5  C   UNL     1      -8.388   8.060   5.113  1.00  0.00    -0.000 C 
BRANCH   5   6
ATOM      6  C   UNL     1      -7.597   9.347   5.401  1.00  0.00    -0.000 C 
BRANCH   6   7
ATOM      7  C   UNL     1      -7.283   9.523   6.896  1.00  0.00    -0.000 C 
BRANCH   7   8
ATOM      8  C   UNL     1      -7.483  10.973   7.373  1.00  0.00    -0.000 C 
BRANCH   8   9
ATOM      9  C   UNL     1      -8.657  11.670   6.670  1.00  0.00    -0.000 C 
BRANCH   9  10
ATOM     10  C   UNL     1     -10.013  11.326   7.307  1.00  0.00    -0.000 C 
BRANCH  10  11
ATOM     11  C   UNL     1     -10.948  10.668   6.286  1.00  0.00    -0.003 C 
ATOM     12  C   UNL     1     -11.902   9.686   6.963  1.00  0.00     0.004 C 
ENDBRANCH  10  11
ENDBRANCH   9  10
ENDBRANCH   8   9
ENDBRANCH   7   8
ENDBRANCH   6   7
ENDBRANCH   5   6
ENDBRANCH   4   5
ENDBRANCH   3   4
ENDBRANCH   2   3
ENDBRANCH   1   2
BRANCH   1  13
ATOM     13  C   UNL     1     -11.967   3.516   6.390  1.00  0.00     0.000 C 
BRANCH  13  14
ATOM     14  C   UNL     1     -11.083   3.066   7.565  1.00  0.00     0.000 C 
BRANCH  14  15
ATOM     15  C   UNL     1     -11.468   3.744   8.892  1.00  0.00     0.000 C 
BRANCH  15  16
ATOM     16  C   UNL     1     -12.786   4.529   8.794  1.00  0.00     0.000 C 
BRANCH  16  17
ATOM     17  C   UNL     1     -12.580   6.048   8.901  1.00  0.00     0.000 C 
BRANCH  17  18
ATOM     18  C   UNL     1     -13.768   6.811   8.295  1.00  0.00     0.000 C 
BRANCH  18  19
ATOM     19  C   UNL     1     -14.343   6.116   7.049  1.00  0.00     0.000 C 
BRANCH  19  20
ATOM     20  C   UNL     1     -14.866   7.117   6.003  1.00  0.00     0.006 C 
BRANCH  20  21
ATOM     21  C   UNL     1     -13.874   7.321   4.850  1.00  0.00     0.053 C 
BRANCH  21  22
ATOM     22  C   UNL     1     -14.145   6.390   3.707  1.00  0.00     0.041 C 
ATOM     23  O   UNL     1     -14.281   5.156   3.914  1.00  0.00    -0.550 OA
ATOM     24  O   UNL     1     -14.234   6.885   2.411  1.00  0.00    -0.550 OA
ENDBRANCH  21  22
ENDBRANCH  20  21
ENDBRANCH  19  20
ENDBRANCH  18  19
ENDBRANCH  17  18
ENDBRANCH  16  17
ENDBRANCH  15  16
ENDBRANCH  14  15
ENDBRANCH  13  14
ENDBRANCH   1  13
TORSDOF 20
ENDMDL
MODEL 5
REMARK VINA RESULT:    -4.850     15.321     18.187
REMARK INTER + INTRA:         -12.753
REMARK INTER:                 -10.254
REMARK INTRA:                  -2.500
REMARK UNBOUND:                -2.233
REMARK SMILES CCCCCCCCCCCCCCCCCCCCCC(=O)[O-]
REMARK SMILES IDX 12 1 11 2 10 3 9 4 8 5 7 6 6 7 5 8 4 9 3 10 2 11 1 12 13 13
REMARK SMILES IDX 14 14 15 15 16 16 17 17 18 18 19 19 20 20 21 21 22 22 23 23
REMARK SMILES IDX 24 24
REMARK H PARENT
REMARK Flexibility Score: inf
ROOT
ATOM      1  C   UNL     1     -12.136   3.465   8.059  1.00  0.00     0.000 C 
ENDROOT
BRANCH   1   2
ATOM      2  C   UNL     1     -10.680   3.915   8.280  1.00  0.00     0.000 C 
BRANCH   2   3
ATOM      3  C   UNL     1     -10.432   5.428   8.115  1.00  0.00     0.000 C 
BRANCH   3   4
ATOM      4  C   UNL     1      -9.422   5.814   7.017  1.00  0.00    -0.000 C 
BRANCH   4   5
ATOM      5  C   UNL     1      -9.884   6.988   6.125  1.00  0.00    -0.000 C 
BRANCH   5   6
ATOM      6  C   UNL     1     -11.222   7.587   6.588  1.00  0.00    -0.000 C 
BRANCH   6   7
ATOM      7  C   UNL     1     -11.203   9.124   6.608  1.00  0.00    -0.000 C 
BRANCH   7   8
ATOM      8  C   UNL     1      -9.899   9.704   6.031  1.00  0.00    -0.000 C 
BRANCH   8   9
ATOM      9  C   UNL     1      -9.363  10.887   6.851  1.00  0.00    -0.000 C 
BRANCH   9  10
ATOM     10  C   UNL     1      -7.983  10.601   7.463  1.00  0.00    -0.000 C 
BRANCH  10  11
ATOM     11  C   UNL     1      -7.243   9.519   6.668  1.00  0.00    -0.003 C 
ATOM     12  C   UNL     1      -5.902  10.034   6.150  1.00  0.00     0.004 C 
ENDBRANCH  10  11
ENDBRANCH   9  10
ENDBRANCH   8   9
ENDBRANCH   7   8
ENDBRANCH   6   7
ENDBRANCH   5   6
ENDBRANCH   4   5
ENDBRANCH   3   4
ENDBRANCH   2   3
ENDBRANCH   1   2
BRANCH   1  13
ATOM     13  C   UNL     1     -12.877   4.327   7.022  1.00  0.00     0.000 C 
BRANCH  13  14
ATOM     14  C   UNL     1     -12.429   4.031   5.581  1.00  0.00     0.000 C 
BRANCH  14  15
ATOM     15  C   UNL     1     -13.228   4.826   4.533  1.00  0.00     0.000 C 
BRANCH  15  16
ATOM     16  C   UNL     1     -14.128   5.899   5.168  1.00  0.00     0.000 C 
BRANCH  16  17
ATOM     17  C   UNL     1     -14.355   7.105   4.243  1.00  0.00     0.000 C 
BRANCH  17  18
ATOM     18  C   UNL     1     -14.252   6.695   2.766  1.00  0.00     0.000 C 
BRANCH  18  19
ATOM     19  C   UNL     1     -14.202   7.905   1.818  1.00  0.00     0.000 C 
BRANCH  19  20
ATOM     20  C   UNL     1     -14.008   9.236   2.567  1.00  0.00     0.006 C 
BRANCH  20  21
ATOM     21  C   UNL     1     -13.880  10.426   1.608  1.00  0.00     0.053 C 
BRANCH  21  22
ATOM     22  C   UNL     1     -12.464  10.902   1.491  1.00  0.00     0.041 C 
ATOM     23  O   UNL     1     -11.789  10.633   0.462  1.00  0.00    -0.550 OA
ATOM     24  O   UNL     1     -11.886  11.632   2.523  1.00  0.00    -0.550 OA
ENDBRANCH  21  22
ENDBRANCH  20  21
ENDBRANCH  19  20
ENDBRANCH  18  19
ENDBRANCH  17  18
ENDBRANCH  16  17
ENDBRANCH  15  16
ENDBRANCH  14  15
ENDBRANCH  13  14
ENDBRANCH   1  13
TORSDOF 20
ENDMDL
MODEL 6
REMARK VINA RESULT:    -4.755     15.437     18.908
REMARK INTER + INTRA:         -12.549
REMARK INTER:                  -9.352
REMARK INTRA:                  -3.197
REMARK UNBOUND:                -2.233
REMARK SMILES CCCCCCCCCCCCCCCCCCCCCC(=O)[O-]
REMARK SMILES IDX 12 1 11 2 10 3 9 4 8 5 7 6 6 7 5 8 4 9 3 10 2 11 1 12 13 13
REMARK SMILES IDX 14 14 15 15 16 16 17 17 18 18 19 19 20 20 21 21 22 22 23 23
REMARK SMILES IDX 24 24
REMARK H PARENT
REMARK Flexibility Score: inf
ROOT
ATOM      1  C   UNL     1      -9.618   5.735   6.943  1.00  0.00     0.000 C 
ENDROOT
BRANCH   1   2
ATOM      2  C   UNL     1     -10.405   6.856   6.238  1.00  0.00     0.000 C 
BRANCH   2   3
ATOM      3  C   UNL     1     -11.425   7.596   7.127  1.00  0.00     0.000 C 
BRANCH   3   4
ATOM      4  C   UNL     1     -12.479   8.425   6.368  1.00  0.00    -0.000 C 
BRANCH   4   5
ATOM      5  C   UNL     1     -12.410   9.941   6.654  1.00  0.00    -0.000 C 
BRANCH   5   6
ATOM      6  C   UNL     1     -12.005  10.755   5.414  1.00  0.00    -0.000 C 
BRANCH   6   7
ATOM      7  C   UNL     1     -10.608  11.383   5.552  1.00  0.00    -0.000 C 
BRANCH   7   8
ATOM      8  C   UNL     1     -10.043  11.252   6.978  1.00  0.00    -0.000 C 
BRANCH   8   9
ATOM      9  C   UNL     1      -8.654  10.597   7.006  1.00  0.00    -0.000 C 
BRANCH   9  10
ATOM     10  C   UNL     1      -8.362   9.782   5.736  1.00  0.00    -0.000 C 
BRANCH  10  11
ATOM     11  C   UNL     1      -6.929  10.021   5.247  1.00  0.00    -0.003 C 
ATOM     12  C   UNL     1      -5.930   9.936   6.400  1.00  0.00     0.004 C 
ENDBRANCH  10  11
ENDBRANCH   9  10
ENDBRANCH   8   9
ENDBRANCH   7   8
ENDBRANCH   6   7
ENDBRANCH   5   6
ENDBRANCH   4   5
ENDBRANCH   3   4
ENDBRANCH   2   3
ENDBRANCH   1   2
BRANCH   1  13
ATOM     13  C   UNL     1     -10.268   5.290   8.265  1.00  0.00     0.000 C 
BRANCH  13  14
ATOM     14  C   UNL     1     -10.603   3.790   8.281  1.00  0.00     0.000 C 
BRANCH  14  15
ATOM     15  C   UNL     1     -11.740   3.423   7.309  1.00  0.00     0.000 C 
BRANCH  15  16
ATOM     16  C   UNL     1     -13.045   4.175   7.617  1.00  0.00     0.000 C 
BRANCH  16  17
ATOM     17  C   UNL     1     -13.620   4.894   6.387  1.00  0.00     0.000 C 
BRANCH  17  18
ATOM     18  C   UNL     1     -12.833   4.531   5.118  1.00  0.00     0.000 C 
BRANCH  18  19
ATOM     19  C   UNL     1     -13.576   4.923   3.830  1.00  0.00     0.000 C 
BRANCH  19  20
ATOM     20  C   UNL     1     -14.170   6.342   3.897  1.00  0.00     0.006 C 
BRANCH  20  21
ATOM     21  C   UNL     1     -14.353   6.959   2.505  1.00  0.00     0.053 C 
BRANCH  21  22
ATOM     22  C   UNL     1     -14.149   8.444   2.519  1.00  0.00     0.041 C 
ATOM     23  O   UNL     1     -14.470   9.118   3.533  1.00  0.00    -0.550 OA
ATOM     24  O   UNL     1     -13.617   9.085   1.407  1.00  0.00    -0.550 OA
ENDBRANCH  21  22
ENDBRANCH  20  21
ENDBRANCH  19  20
ENDBRANCH  18  19
ENDBRANCH  17  18
ENDBRANCH  16  17
ENDBRANCH  15  16
ENDBRANCH  14  15
ENDBRANCH  13  14
ENDBRANCH   1  13
TORSDOF 20
ENDMDL
MODEL 7
REMARK VINA RESULT:    -4.704     16.219     19.541
REMARK INTER + INTRA:         -12.437
REMARK INTER:                  -9.846
REMARK INTRA:                  -2.592
REMARK UNBOUND:                -2.233
REMARK SMILES CCCCCCCCCCCCCCCCCCCCCC(=O)[O-]
REMARK SMILES IDX 12 1 11 2 10 3 9 4 8 5 7 6 6 7 5 8 4 9 3 10 2 11 1 12 13 13
REMARK SMILES IDX 14 14 15 15 16 16 17 17 18 18 19 19 20 20 21 21 22 22 23 23
REMARK SMILES IDX 24 24
REMARK H PARENT
REMARK Flexibility Score: inf
ROOT
ATOM      1  C   UNL     1     -11.007   4.571   5.305  1.00  0.00     0.000 C 
ENDROOT
BRANCH   1   2
ATOM      2  C   UNL     1      -9.840   5.300   5.997  1.00  0.00     0.000 C 
BRANCH   2   3
ATOM      3  C   UNL     1      -9.903   6.839   5.934  1.00  0.00     0.000 C 
BRANCH   3   4
ATOM      4  C   UNL     1      -8.614   7.569   6.358  1.00  0.00    -0.000 C 
BRANCH   4   5
ATOM      5  C   UNL     1      -8.190   8.702   5.398  1.00  0.00    -0.000 C 
BRANCH   5   6
ATOM      6  C   UNL     1      -9.081   9.948   5.529  1.00  0.00    -0.000 C 
BRANCH   6   7
ATOM      7  C   UNL     1      -8.308  11.173   6.045  1.00  0.00    -0.000 C 
BRANCH   7   8
ATOM      8  C   UNL     1      -8.160  11.173   7.578  1.00  0.00    -0.000 C 
BRANCH   8   9
ATOM      9  C   UNL     1      -6.721  10.891   8.033  1.00  0.00    -0.000 C 
BRANCH   9  10
ATOM     10  C   UNL     1      -5.676  11.577   7.139  1.00  0.00    -0.000 C 
BRANCH  10  11
ATOM     11  C   UNL     1      -4.757  10.543   6.477  1.00  0.00    -0.003 C 
ATOM     12  C   UNL     1      -3.879  11.190   5.407  1.00  0.00     0.004 C 
ENDBRANCH  10  11
ENDBRANCH   9  10
ENDBRANCH   8   9
ENDBRANCH   7   8
ENDBRANCH   6   7
ENDBRANCH   5   6
ENDBRANCH   4   5
ENDBRANCH   3   4
ENDBRANCH   2   3
ENDBRANCH   1   2
BRANCH   1  13
ATOM     13  C   UNL     1     -11.679   3.525   6.212  1.00  0.00     0.000 C 
BRANCH  13  14
ATOM     14  C   UNL     1     -10.982   3.393   7.577  1.00  0.00     0.000 C 
BRANCH  14  15
ATOM     15  C   UNL     1     -11.818   3.976   8.731  1.00  0.00     0.000 C 
BRANCH  15  16
ATOM     16  C   UNL     1     -11.411   5.414   9.087  1.00  0.00     0.000 C 
BRANCH  16  17
ATOM     17  C   UNL     1     -12.410   6.459   8.567  1.00  0.00     0.000 C 
BRANCH  17  18
ATOM     18  C   UNL     1     -13.827   5.872   8.476  1.00  0.00     0.000 C 
BRANCH  18  19
ATOM     19  C   UNL     1     -14.381   5.881   7.042  1.00  0.00     0.000 C 
BRANCH  19  20
ATOM     20  C   UNL     1     -13.646   6.881   6.130  1.00  0.00     0.006 C 
BRANCH  20  21
ATOM     21  C   UNL     1     -14.494   7.291   4.919  1.00  0.00     0.053 C 
BRANCH  21  22
ATOM     22  C   UNL     1     -14.270   6.386   3.746  1.00  0.00     0.041 C 
ATOM     23  O   UNL     1     -14.169   5.143   3.915  1.00  0.00    -0.550 OA
ATOM     24  O   UNL     1     -14.159   6.918   2.466  1.00  0.00    -0.550 OA
ENDBRANCH  21  22
ENDBRANCH  20  21
ENDBRANCH  19  20
ENDBRANCH  18  19
ENDBRANCH  17  18
ENDBRANCH  16  17
ENDBRANCH  15  16
ENDBRANCH  14  15
ENDBRANCH  13  14
ENDBRANCH   1  13
TORSDOF 20
ENDMDL
MODEL 8
REMARK VINA RESULT:    -4.696     15.712     18.535
REMARK INTER + INTRA:         -12.419
REMARK INTER:                  -9.602
REMARK INTRA:                  -2.817
REMARK UNBOUND:                -2.233
REMARK SMILES CCCCCCCCCCCCCCCCCCCCCC(=O)[O-]
REMARK SMILES IDX 12 1 11 2 10 3 9 4 8 5 7 6 6 7 5 8 4 9 3 10 2 11 1 12 13 13
REMARK SMILES IDX 14 14 15 15 16 16 17 17 18 18 19 19 20 20 21 21 22 22 23 23
REMARK SMILES IDX 24 24
REMARK H PARENT
REMARK Flexibility Score: inf
ROOT
ATOM      1  C   UNL     1     -11.486   3.242   7.650  1.00  0.00     0.000 C 
ENDROOT
BRANCH   1   2
ATOM      2  C   UNL     1     -10.661   4.220   6.793  1.00  0.00     0.000 C 
BRANCH   2   3
ATOM      3  C   UNL     1     -11.291   4.590   5.436  1.00  0.00     0.000 C 
BRANCH   3   4
ATOM      4  C   UNL     1     -12.809   4.349   5.328  1.00  0.00    -0.000 C 
BRANCH   4   5
ATOM      5  C   UNL     1     -13.469   5.036   4.112  1.00  0.00    -0.000 C 
BRANCH   5   6
ATOM      6  C   UNL     1     -14.181   6.346   4.493  1.00  0.00    -0.000 C 
BRANCH   6   7
ATOM      7  C   UNL     1     -14.378   7.280   3.288  1.00  0.00    -0.000 C 
BRANCH   7   8
ATOM      8  C   UNL     1     -14.326   8.768   3.682  1.00  0.00    -0.000 C 
BRANCH   8   9
ATOM      9  C   UNL     1     -13.829   9.665   2.539  1.00  0.00    -0.000 C 
BRANCH   9  10
ATOM     10  C   UNL     1     -13.197  10.970   3.047  1.00  0.00    -0.000 C 
BRANCH  10  11
ATOM     11  C   UNL     1     -12.288  11.592   1.981  1.00  0.00    -0.003 C 
ATOM     12  C   UNL     1     -12.136  10.665   0.776  1.00  0.00     0.004 C 
ENDBRANCH  10  11
ENDBRANCH   9  10
ENDBRANCH   8   9
ENDBRANCH   7   8
ENDBRANCH   6   7
ENDBRANCH   5   6
ENDBRANCH   4   5
ENDBRANCH   3   4
ENDBRANCH   2   3
ENDBRANCH   1   2
BRANCH   1  13
ATOM     13  C   UNL     1     -11.893   3.836   9.010  1.00  0.00     0.000 C 
BRANCH  13  14
ATOM     14  C   UNL     1     -11.933   5.373   8.993  1.00  0.00     0.000 C 
BRANCH  14  15
ATOM     15  C   UNL     1     -13.332   5.929   8.672  1.00  0.00     0.000 C 
BRANCH  15  16
ATOM     16  C   UNL     1     -13.281   7.332   8.046  1.00  0.00     0.000 C 
BRANCH  16  17
ATOM     17  C   UNL     1     -12.003   7.568   7.225  1.00  0.00     0.000 C 
BRANCH  17  18
ATOM     18  C   UNL     1     -12.116   8.849   6.384  1.00  0.00     0.000 C 
BRANCH  18  19
ATOM     19  C   UNL     1     -11.063   9.902   6.767  1.00  0.00     0.000 C 
BRANCH  19  20
ATOM     20  C   UNL     1     -10.369  10.518   5.538  1.00  0.00     0.006 C 
BRANCH  20  21
ATOM     21  C   UNL     1      -8.895  10.845   5.810  1.00  0.00     0.053 C 
BRANCH  21  22
ATOM     22  C   UNL     1      -8.071   9.606   5.998  1.00  0.00     0.041 C 
ATOM     23  O   UNL     1      -7.132   9.592   6.836  1.00  0.00    -0.550 OA
ATOM     24  O   UNL     1      -8.334   8.472   5.238  1.00  0.00    -0.550 OA
ENDBRANCH  21  22
ENDBRANCH  20  21
ENDBRANCH  19  20
ENDBRANCH  18  19
ENDBRANCH  17  18
ENDBRANCH  16  17
ENDBRANCH  15  16
ENDBRANCH  14  15
ENDBRANCH  13  14
ENDBRANCH   1  13
TORSDOF 20
ENDMDL
MODEL 9
REMARK VINA RESULT:    -4.615     15.387     18.594
REMARK INTER + INTRA:         -12.243
REMARK INTER:                  -9.222
REMARK INTRA:                  -3.021
REMARK UNBOUND:                -2.233
REMARK SMILES CCCCCCCCCCCCCCCCCCCCCC(=O)[O-]
REMARK SMILES IDX 12 1 11 2 10 3 9 4 8 5 7 6 6 7 5 8 4 9 3 10 2 11 1 12 13 13
REMARK SMILES IDX 14 14 15 15 16 16 17 17 18 18 19 19 20 20 21 21 22 22 23 23
REMARK SMILES IDX 24 24
REMARK H PARENT
REMARK Flexibility Score: inf
ROOT
ATOM      1  C   UNL     1     -11.379   4.302   8.836  1.00  0.00     0.000 C 
ENDROOT
BRANCH   1   2
ATOM      2  C   UNL     1     -12.804   4.862   9.005  1.00  0.00     0.000 C 
BRANCH   2   3
ATOM      3  C   UNL     1     -12.929   6.388   8.829  1.00  0.00     0.000 C 
BRANCH   3   4
ATOM      4  C   UNL     1     -13.787   6.845   7.633  1.00  0.00    -0.000 C 
BRANCH   4   5
ATOM      5  C   UNL     1     -13.616   8.337   7.272  1.00  0.00    -0.000 C 
BRANCH   5   6
ATOM      6  C   UNL     1     -12.149   8.795   7.348  1.00  0.00    -0.000 C 
BRANCH   6   7
ATOM      7  C   UNL     1     -11.745   9.674   6.153  1.00  0.00    -0.000 C 
BRANCH   7   8
ATOM      8  C   UNL     1     -10.235   9.977   6.129  1.00  0.00    -0.000 C 
BRANCH   8   9
ATOM      9  C   UNL     1      -9.379   8.704   6.054  1.00  0.00    -0.000 C 
BRANCH   9  10
ATOM     10  C   UNL     1      -8.047   8.933   5.322  1.00  0.00    -0.000 C 
BRANCH  10  11
ATOM     11  C   UNL     1      -7.070   9.728   6.196  1.00  0.00    -0.003 C 
ATOM     12  C   UNL     1      -6.398  10.845   5.400  1.00  0.00     0.004 C 
ENDBRANCH  10  11
ENDBRANCH   9  10
ENDBRANCH   8   9
ENDBRANCH   7   8
ENDBRANCH   6   7
ENDBRANCH   5   6
ENDBRANCH   4   5
ENDBRANCH   3   4
ENDBRANCH   2   3
ENDBRANCH   1   2
BRANCH   1  13
ATOM     13  C   UNL     1     -10.377   5.358   8.338  1.00  0.00     0.000 C 
BRANCH  13  14
ATOM     14  C   UNL     1      -9.854   5.053   6.925  1.00  0.00     0.000 C 
BRANCH  14  15
ATOM     15  C   UNL     1     -10.876   5.392   5.825  1.00  0.00     0.000 C 
BRANCH  15  16
ATOM     16  C   UNL     1     -11.662   4.159   5.349  1.00  0.00     0.000 C 
BRANCH  16  17
ATOM     17  C   UNL     1     -13.170   4.426   5.231  1.00  0.00     0.000 C 
BRANCH  17  18
ATOM     18  C   UNL     1     -13.523   5.002   3.851  1.00  0.00     0.000 C 
BRANCH  18  19
ATOM     19  C   UNL     1     -14.618   6.080   3.922  1.00  0.00     0.000 C 
BRANCH  19  20
ATOM     20  C   UNL     1     -14.362   7.248   2.954  1.00  0.00     0.006 C 
BRANCH  20  21
ATOM     21  C   UNL     1     -14.374   8.606   3.669  1.00  0.00     0.053 C 
BRANCH  21  22
ATOM     22  C   UNL     1     -13.969   9.724   2.756  1.00  0.00     0.041 C 
ATOM     23  O   UNL     1     -13.852  10.895   3.203  1.00  0.00    -0.550 OA
ATOM     24  O   UNL     1     -13.734   9.474   1.409  1.00  0.00    -0.550 OA
ENDBRANCH  21  22
ENDBRANCH  20  21
ENDBRANCH  19  20
ENDBRANCH  18  19
ENDBRANCH  17  18
ENDBRANCH  16  17
ENDBRANCH  15  16
ENDBRANCH  14  15
ENDBRANCH  13  14
ENDBRANCH   1  13
TORSDOF 20
ENDMDL
