MODEL 1
REMARK VINA RESULT:    -6.418      0.000      0.000
REMARK INTER + INTRA:          -6.981
REMARK INTER:                  -6.981
REMARK INTRA:                   0.000
REMARK UNBOUND:                 0.000
REMARK SMILES Cc1cc(O)c2c(c1)C(=O)c1cc(O)cc(O)c1C2=O
REMARK SMILES IDX 1 1 2 2 8 3 7 4 6 5 4 6 3 7 19 8 20 9 18 10 11 11 9 12 10 13
REMARK SMILES IDX 12 14 13 15 15 16 16 17 5 18 17 20 14 22
REMARK H PARENT 5 19 17 21 14 23
REMARK Flexibility Score: inf
ROOT
ATOM      1  C   UNL     1       6.020 -21.493   3.851  1.00  0.00     0.044 C 
ATOM      2  C   UNL     1       5.982 -20.364   4.838  1.00  0.00    -0.047 A 
ATOM      3  C   UNL     1       5.920 -19.039   4.392  1.00  0.00     0.016 A 
ATOM      4  C   UNL     1       5.919 -17.972   5.307  1.00  0.00     0.038 A 
ATOM      5  C   UNL     1       6.001 -18.235   6.691  1.00  0.00     0.076 A 
ATOM      6  C   UNL     1       6.076 -19.575   7.137  1.00  0.00     0.127 A 
ATOM      7  C   UNL     1       6.074 -20.624   6.210  1.00  0.00     0.050 A 
ATOM      8  C   UNL     1       6.039 -17.095   7.643  1.00  0.00     0.201 C 
ATOM      9  O   UNL     1       6.466 -17.278   8.814  1.00  0.00    -0.288 OA
ATOM     10  C   UNL     1       5.682 -15.723   7.184  1.00  0.00     0.076 A 
ATOM     11  C   UNL     1       5.667 -15.464   5.792  1.00  0.00     0.041 A 
ATOM     12  C   UNL     1       5.836 -16.574   4.826  1.00  0.00     0.194 C 
ATOM     13  O   UNL     1       5.893 -16.331   3.589  1.00  0.00    -0.289 OA
ATOM     14  C   UNL     1       5.480 -14.151   5.327  1.00  0.00     0.059 A 
ATOM     15  C   UNL     1       5.293 -13.099   6.226  1.00  0.00     0.120 A 
ATOM     16  C   UNL     1       5.260 -13.356   7.596  1.00  0.00     0.093 A 
ATOM     17  C   UNL     1       5.415 -14.656   8.085  1.00  0.00     0.131 A 
ENDROOT
BRANCH   6  18
ATOM     18  O   UNL     1       6.146 -19.868   8.500  1.00  0.00    -0.507 OA
ATOM     19  H   UNL     1       6.866 -20.471   8.879  1.00  0.00     0.293 HD
ENDBRANCH   6  18
BRANCH  17  20
ATOM     20  O   UNL     1       5.262 -14.842   9.460  1.00  0.00    -0.507 OA
ATOM     21  H   UNL     1       6.014 -14.744  10.127  1.00  0.00     0.293 HD
ENDBRANCH  17  20
BRANCH  15  22
ATOM     22  O   UNL     1       5.124 -11.793   5.769  1.00  0.00    -0.508 OA
ATOM     23  H   UNL     1       5.876 -11.116   5.811  1.00  0.00     0.293 HD
ENDBRANCH  15  22
TORSDOF 3
ENDMDL
MODEL 2
REMARK VINA RESULT:    -6.264      2.034      3.790
REMARK INTER + INTRA:          -6.813
REMARK INTER:                  -6.813
REMARK INTRA:                   0.000
REMARK UNBOUND:                 0.000
REMARK SMILES Cc1cc(O)c2c(c1)C(=O)c1cc(O)cc(O)c1C2=O
REMARK SMILES IDX 1 1 2 2 8 3 7 4 6 5 4 6 3 7 19 8 20 9 18 10 11 11 9 12 10 13
REMARK SMILES IDX 12 14 13 15 15 16 16 17 5 18 17 20 14 22
REMARK H PARENT 5 19 17 21 14 23
REMARK Flexibility Score: inf
ROOT
ATOM      1  C   UNL     1       5.833 -20.150   7.683  1.00  0.00     0.044 C 
ATOM      2  C   UNL     1       5.774 -18.709   7.270  1.00  0.00    -0.047 A 
ATOM      3  C   UNL     1       4.987 -17.801   7.987  1.00  0.00     0.016 A 
ATOM      4  C   UNL     1       4.898 -16.456   7.588  1.00  0.00     0.038 A 
ATOM      5  C   UNL     1       5.592 -16.018   6.441  1.00  0.00     0.076 A 
ATOM      6  C   UNL     1       6.376 -16.941   5.711  1.00  0.00     0.127 A 
ATOM      7  C   UNL     1       6.454 -18.276   6.126  1.00  0.00     0.050 A 
ATOM      8  C   UNL     1       5.456 -14.602   6.010  1.00  0.00     0.201 C 
ATOM      9  O   UNL     1       5.755 -14.281   4.829  1.00  0.00    -0.288 OA
ATOM     10  C   UNL     1       4.863 -13.592   6.931  1.00  0.00     0.076 A 
ATOM     11  C   UNL     1       4.116 -14.053   8.041  1.00  0.00     0.041 A 
ATOM     12  C   UNL     1       4.077 -15.499   8.363  1.00  0.00     0.194 C 
ATOM     13  O   UNL     1       3.354 -15.915   9.311  1.00  0.00    -0.289 OA
ATOM     14  C   UNL     1       3.420 -13.135   8.847  1.00  0.00     0.059 A 
ATOM     15  C   UNL     1       3.471 -11.767   8.571  1.00  0.00     0.120 A 
ATOM     16  C   UNL     1       4.243 -11.304   7.507  1.00  0.00     0.093 A 
ATOM     17  C   UNL     1       4.967 -12.192   6.706  1.00  0.00     0.131 A 
ENDROOT
BRANCH   6  18
ATOM     18  O   UNL     1       7.084 -16.535   4.579  1.00  0.00    -0.507 OA
ATOM     19  H   UNL     1       8.067 -16.294   4.623  1.00  0.00     0.293 HD
ENDBRANCH   6  18
BRANCH  17  20
ATOM     20  O   UNL     1       5.798 -11.637   5.731  1.00  0.00    -0.507 OA
ATOM     21  H   UNL     1       6.537 -12.147   5.266  1.00  0.00     0.293 HD
ENDBRANCH  17  20
BRANCH  15  22
ATOM     22  O   UNL     1       2.769 -10.856   9.357  1.00  0.00    -0.508 OA
ATOM     23  H   UNL     1       3.219 -10.036   9.747  1.00  0.00     0.293 HD
ENDBRANCH  15  22
TORSDOF 3
ENDMDL
MODEL 3
REMARK VINA RESULT:    -6.261      2.644      3.474
REMARK INTER + INTRA:          -6.810
REMARK INTER:                  -6.810
REMARK INTRA:                   0.000
REMARK UNBOUND:                 0.000
REMARK SMILES Cc1cc(O)c2c(c1)C(=O)c1cc(O)cc(O)c1C2=O
REMARK SMILES IDX 1 1 2 2 8 3 7 4 6 5 4 6 3 7 19 8 20 9 18 10 11 11 9 12 10 13
REMARK SMILES IDX 12 14 13 15 15 16 16 17 5 18 17 20 14 22
REMARK H PARENT 5 19 17 21 14 23
REMARK Flexibility Score: inf
ROOT
ATOM      1  C   UNL     1       6.495 -20.884   7.335  1.00  0.00     0.044 C 
ATOM      2  C   UNL     1       5.576 -19.697   7.324  1.00  0.00    -0.047 A 
ATOM      3  C   UNL     1       5.988 -18.481   7.880  1.00  0.00     0.016 A 
ATOM      4  C   UNL     1       5.122 -17.373   7.906  1.00  0.00     0.038 A 
ATOM      5  C   UNL     1       3.817 -17.492   7.386  1.00  0.00     0.076 A 
ATOM      6  C   UNL     1       3.400 -18.726   6.837  1.00  0.00     0.127 A 
ATOM      7  C   UNL     1       4.277 -19.818   6.818  1.00  0.00     0.050 A 
ATOM      8  C   UNL     1       2.901 -16.323   7.457  1.00  0.00     0.201 C 
ATOM      9  O   UNL     1       1.659 -16.500   7.341  1.00  0.00    -0.288 OA
ATOM     10  C   UNL     1       3.437 -14.970   7.777  1.00  0.00     0.076 A 
ATOM     11  C   UNL     1       4.724 -14.878   8.358  1.00  0.00     0.041 A 
ATOM     12  C   UNL     1       5.574 -16.086   8.481  1.00  0.00     0.194 C 
ATOM     13  O   UNL     1       6.691 -16.015   9.062  1.00  0.00    -0.289 OA
ATOM     14  C   UNL     1       5.202 -13.635   8.808  1.00  0.00     0.059 A 
ATOM     15  C   UNL     1       4.423 -12.484   8.673  1.00  0.00     0.120 A 
ATOM     16  C   UNL     1       3.173 -12.561   8.059  1.00  0.00     0.093 A 
ATOM     17  C   UNL     1       2.685 -13.780   7.578  1.00  0.00     0.131 A 
ENDROOT
BRANCH   6  18
ATOM     18  O   UNL     1       2.118 -18.871   6.303  1.00  0.00    -0.507 OA
ATOM     19  H   UNL     1       1.918 -18.664   5.332  1.00  0.00     0.293 HD
ENDBRANCH   6  18
BRANCH  17  20
ATOM     20  O   UNL     1       1.475 -13.750   6.882  1.00  0.00    -0.507 OA
ATOM     21  H   UNL     1       0.574 -13.644   7.327  1.00  0.00     0.293 HD
ENDBRANCH  17  20
BRANCH  15  22
ATOM     22  O   UNL     1       4.886 -11.253   9.133  1.00  0.00    -0.508 OA
ATOM     23  H   UNL     1       4.248 -10.508   9.387  1.00  0.00     0.293 HD
ENDBRANCH  15  22
TORSDOF 3
ENDMDL
MODEL 4
REMARK VINA RESULT:    -6.235      1.440      6.348
REMARK INTER + INTRA:          -6.782
REMARK INTER:                  -6.782
REMARK INTRA:                   0.000
REMARK UNBOUND:                 0.000
REMARK SMILES Cc1cc(O)c2c(c1)C(=O)c1cc(O)cc(O)c1C2=O
REMARK SMILES IDX 1 1 2 2 8 3 7 4 6 5 4 6 3 7 19 8 20 9 18 10 11 11 9 12 10 13
REMARK SMILES IDX 12 14 13 15 15 16 16 17 5 18 17 20 14 22
REMARK H PARENT 5 19 17 21 14 23
REMARK Flexibility Score: inf
ROOT
ATOM      1  C   UNL     1       5.253 -12.770   8.125  1.00  0.00     0.044 C 
ATOM      2  C   UNL     1       5.404 -14.008   7.290  1.00  0.00    -0.047 A 
ATOM      3  C   UNL     1       5.606 -15.250   7.902  1.00  0.00     0.016 A 
ATOM      4  C   UNL     1       5.783 -16.411   7.129  1.00  0.00     0.038 A 
ATOM      5  C   UNL     1       5.777 -16.323   5.721  1.00  0.00     0.076 A 
ATOM      6  C   UNL     1       5.585 -15.064   5.106  1.00  0.00     0.127 A 
ATOM      7  C   UNL     1       5.409 -13.919   5.894  1.00  0.00     0.050 A 
ATOM      8  C   UNL     1       6.005 -17.553   4.919  1.00  0.00     0.201 C 
ATOM      9  O   UNL     1       6.359 -17.451   3.713  1.00  0.00    -0.288 OA
ATOM     10  C   UNL     1       5.927 -18.894   5.564  1.00  0.00     0.076 A 
ATOM     11  C   UNL     1       5.999 -18.964   6.975  1.00  0.00     0.041 A 
ATOM     12  C   UNL     1       5.980 -17.723   7.785  1.00  0.00     0.194 C 
ATOM     13  O   UNL     1       6.115 -17.785   9.038  1.00  0.00    -0.289 OA
ATOM     14  C   UNL     1       6.077 -20.215   7.611  1.00  0.00     0.059 A 
ATOM     15  C   UNL     1       6.069 -21.394   6.862  1.00  0.00     0.120 A 
ATOM     16  C   UNL     1       5.951 -21.332   5.474  1.00  0.00     0.093 A 
ATOM     17  C   UNL     1       5.844 -20.101   4.819  1.00  0.00     0.131 A 
ENDROOT
BRANCH   6  18
ATOM     18  O   UNL     1       5.562 -14.947   3.716  1.00  0.00    -0.507 OA
ATOM     19  H   UNL     1       5.458 -15.755   3.114  1.00  0.00     0.293 HD
ENDBRANCH   6  18
BRANCH  17  20
ATOM     20  O   UNL     1       5.622 -20.132   3.440  1.00  0.00    -0.507 OA
ATOM     21  H   UNL     1       6.144 -20.714   2.800  1.00  0.00     0.293 HD
ENDBRANCH  17  20
BRANCH  15  22
ATOM     22  O   UNL     1       6.163 -22.635   7.487  1.00  0.00    -0.508 OA
ATOM     23  H   UNL     1       5.386 -23.286   7.492  1.00  0.00     0.293 HD
ENDBRANCH  15  22
TORSDOF 3
ENDMDL
MODEL 5
REMARK VINA RESULT:    -6.076      1.235      5.501
REMARK INTER + INTRA:          -6.608
REMARK INTER:                  -6.608
REMARK INTRA:                   0.000
REMARK UNBOUND:                 0.000
REMARK SMILES Cc1cc(O)c2c(c1)C(=O)c1cc(O)cc(O)c1C2=O
REMARK SMILES IDX 1 1 2 2 8 3 7 4 6 5 4 6 3 7 19 8 20 9 18 10 11 11 9 12 10 13
REMARK SMILES IDX 12 14 13 15 15 16 16 17 5 18 17 20 14 22
REMARK H PARENT 5 19 17 21 14 23
REMARK Flexibility Score: inf
ROOT
ATOM      1  C   UNL     1       5.335 -11.322   5.873  1.00  0.00     0.044 C 
ATOM      2  C   UNL     1       5.388 -12.751   6.327  1.00  0.00    -0.047 A 
ATOM      3  C   UNL     1       5.400 -13.789   5.389  1.00  0.00     0.016 A 
ATOM      4  C   UNL     1       5.415 -15.132   5.804  1.00  0.00     0.038 A 
ATOM      5  C   UNL     1       5.398 -15.441   7.180  1.00  0.00     0.076 A 
ATOM      6  C   UNL     1       5.374 -14.389   8.125  1.00  0.00     0.127 A 
ATOM      7  C   UNL     1       5.360 -13.057   7.692  1.00  0.00     0.050 A 
ATOM      8  C   UNL     1       5.375 -16.865   7.602  1.00  0.00     0.201 C 
ATOM      9  O   UNL     1       5.002 -17.162   8.769  1.00  0.00    -0.288 OA
ATOM     10  C   UNL     1       5.679 -17.943   6.619  1.00  0.00     0.076 A 
ATOM     11  C   UNL     1       5.629 -17.627   5.240  1.00  0.00     0.041 A 
ATOM     12  C   UNL     1       5.445 -16.223   4.804  1.00  0.00     0.194 C 
ATOM     13  O   UNL     1       5.330 -15.954   3.577  1.00  0.00    -0.289 OA
ATOM     14  C   UNL     1       5.765 -18.648   4.283  1.00  0.00     0.059 A 
ATOM     15  C   UNL     1       5.966 -19.971   4.680  1.00  0.00     0.120 A 
ATOM     16  C   UNL     1       6.064 -20.281   6.035  1.00  0.00     0.093 A 
ATOM     17  C   UNL     1       5.959 -19.281   7.008  1.00  0.00     0.131 A 
ENDROOT
BRANCH   6  18
ATOM     18  O   UNL     1       5.368 -14.662   9.494  1.00  0.00    -0.507 OA
ATOM     19  H   UNL     1       5.632 -15.570   9.858  1.00  0.00     0.293 HD
ENDBRANCH   6  18
BRANCH  17  20
ATOM     20  O   UNL     1       6.176 -19.659   8.335  1.00  0.00    -0.507 OA
ATOM     21  H   UNL     1       5.977 -19.065   9.127  1.00  0.00     0.293 HD
ENDBRANCH  17  20
BRANCH  15  22
ATOM     22  O   UNL     1       6.085 -20.988   3.734  1.00  0.00    -0.508 OA
ATOM     23  H   UNL     1       5.367 -21.695   3.623  1.00  0.00     0.293 HD
ENDBRANCH  15  22
TORSDOF 3
ENDMDL
MODEL 6
REMARK VINA RESULT:    -6.000      1.955      6.590
REMARK INTER + INTRA:          -6.526
REMARK INTER:                  -6.526
REMARK INTRA:                   0.000
REMARK UNBOUND:                 0.000
REMARK SMILES Cc1cc(O)c2c(c1)C(=O)c1cc(O)cc(O)c1C2=O
REMARK SMILES IDX 1 1 2 2 8 3 7 4 6 5 4 6 3 7 19 8 20 9 18 10 11 11 9 12 10 13
REMARK SMILES IDX 12 14 13 15 15 16 16 17 5 18 17 20 14 22
REMARK H PARENT 5 19 17 21 14 23
REMARK Flexibility Score: inf
ROOT
ATOM      1  C   UNL     1       4.723 -15.507   9.244  1.00  0.00     0.044 C 
ATOM      2  C   UNL     1       5.082 -16.189   7.956  1.00  0.00    -0.047 A 
ATOM      3  C   UNL     1       5.263 -17.576   7.919  1.00  0.00     0.016 A 
ATOM      4  C   UNL     1       5.634 -18.221   6.726  1.00  0.00     0.038 A 
ATOM      5  C   UNL     1       5.846 -17.462   5.556  1.00  0.00     0.076 A 
ATOM      6  C   UNL     1       5.674 -16.059   5.600  1.00  0.00     0.127 A 
ATOM      7  C   UNL     1       5.303 -15.435   6.798  1.00  0.00     0.050 A 
ATOM      8  C   UNL     1       6.275 -18.154   4.313  1.00  0.00     0.201 C 
ATOM      9  O   UNL     1       6.809 -17.489   3.385  1.00  0.00    -0.288 OA
ATOM     10  C   UNL     1       6.181 -19.637   4.210  1.00  0.00     0.076 A 
ATOM     11  C   UNL     1       6.032 -20.384   5.403  1.00  0.00     0.041 A 
ATOM     12  C   UNL     1       5.806 -19.691   6.693  1.00  0.00     0.194 C 
ATOM     13  O   UNL     1       5.744 -20.355   7.764  1.00  0.00    -0.289 OA
ATOM     14  C   UNL     1       6.087 -21.788   5.361  1.00  0.00     0.059 A 
ATOM     15  C   UNL     1       6.273 -22.456   4.149  1.00  0.00     0.120 A 
ATOM     16  C   UNL     1       6.373 -21.727   2.965  1.00  0.00     0.093 A 
ATOM     17  C   UNL     1       6.294 -20.331   2.974  1.00  0.00     0.131 A 
ENDROOT
BRANCH   6  18
ATOM     18  O   UNL     1       5.865 -15.282   4.457  1.00  0.00    -0.507 OA
ATOM     19  H   UNL     1       5.654 -14.292   4.443  1.00  0.00     0.293 HD
ENDBRANCH   6  18
BRANCH  17  20
ATOM     20  O   UNL     1       6.295 -19.685   1.736  1.00  0.00    -0.507 OA
ATOM     21  H   UNL     1       5.932 -18.753   1.589  1.00  0.00     0.293 HD
ENDBRANCH  17  20
BRANCH  15  22
ATOM     22  O   UNL     1       6.344 -23.846   4.106  1.00  0.00    -0.508 OA
ATOM     23  H   UNL     1       6.569 -24.339   3.249  1.00  0.00     0.293 HD
ENDBRANCH  15  22
TORSDOF 3
ENDMDL
MODEL 7
REMARK VINA RESULT:    -5.879      1.797      5.691
REMARK INTER + INTRA:          -6.395
REMARK INTER:                  -6.395
REMARK INTRA:                   0.000
REMARK UNBOUND:                 0.000
REMARK SMILES Cc1cc(O)c2c(c1)C(=O)c1cc(O)cc(O)c1C2=O
REMARK SMILES IDX 1 1 2 2 8 3 7 4 6 5 4 6 3 7 19 8 20 9 18 10 11 11 9 12 10 13
REMARK SMILES IDX 12 14 13 15 15 16 16 17 5 18 17 20 14 22
REMARK H PARENT 5 19 17 21 14 23
REMARK Flexibility Score: inf
ROOT
ATOM      1  C   UNL     1       5.234 -13.278   7.411  1.00  0.00     0.044 C 
ATOM      2  C   UNL     1       5.469 -14.760   7.413  1.00  0.00    -0.047 A 
ATOM      3  C   UNL     1       5.029 -15.545   6.342  1.00  0.00     0.016 A 
ATOM      4  C   UNL     1       5.214 -16.940   6.350  1.00  0.00     0.038 A 
ATOM      5  C   UNL     1       5.829 -17.559   7.458  1.00  0.00     0.076 A 
ATOM      6  C   UNL     1       6.260 -16.763   8.544  1.00  0.00     0.127 A 
ATOM      7  C   UNL     1       6.070 -15.376   8.517  1.00  0.00     0.050 A 
ATOM      8  C   UNL     1       5.981 -19.037   7.468  1.00  0.00     0.201 C 
ATOM      9  O   UNL     1       6.184 -19.633   8.560  1.00  0.00    -0.288 OA
ATOM     10  C   UNL     1       5.780 -19.820   6.216  1.00  0.00     0.076 A 
ATOM     11  C   UNL     1       5.103 -19.200   5.139  1.00  0.00     0.041 A 
ATOM     12  C   UNL     1       4.761 -17.760   5.204  1.00  0.00     0.194 C 
ATOM     13  O   UNL     1       4.096 -17.227   4.273  1.00  0.00    -0.289 OA
ATOM     14  C   UNL     1       4.766 -19.951   4.000  1.00  0.00     0.059 A 
ATOM     15  C   UNL     1       5.106 -21.302   3.913  1.00  0.00     0.120 A 
ATOM     16  C   UNL     1       5.815 -21.906   4.951  1.00  0.00     0.093 A 
ATOM     17  C   UNL     1       6.187 -21.176   6.084  1.00  0.00     0.131 A 
ENDROOT
BRANCH   6  18
ATOM     18  O   UNL     1       6.884 -17.345   9.649  1.00  0.00    -0.507 OA
ATOM     19  H   UNL     1       6.552 -17.187  10.593  1.00  0.00     0.293 HD
ENDBRANCH   6  18
BRANCH  17  20
ATOM     20  O   UNL     1       6.986 -21.826   7.027  1.00  0.00    -0.507 OA
ATOM     21  H   UNL     1       7.876 -22.252   6.810  1.00  0.00     0.293 HD
ENDBRANCH  17  20
BRANCH  15  22
ATOM     22  O   UNL     1       4.759 -22.054   2.793  1.00  0.00    -0.508 OA
ATOM     23  H   UNL     1       5.424 -22.673   2.343  1.00  0.00     0.293 HD
ENDBRANCH  15  22
TORSDOF 3
ENDMDL
MODEL 8
REMARK VINA RESULT:    -5.844      2.494      6.223
REMARK INTER + INTRA:          -6.357
REMARK INTER:                  -6.357
REMARK INTRA:                   0.000
REMARK UNBOUND:                 0.000
REMARK SMILES Cc1cc(O)c2c(c1)C(=O)c1cc(O)cc(O)c1C2=O
REMARK SMILES IDX 1 1 2 2 8 3 7 4 6 5 4 6 3 7 19 8 20 9 18 10 11 11 9 12 10 13
REMARK SMILES IDX 12 14 13 15 15 16 16 17 5 18 17 20 14 22
REMARK H PARENT 5 19 17 21 14 23
REMARK Flexibility Score: inf
ROOT
ATOM      1  C   UNL     1       2.020 -11.565   8.314  1.00  0.00     0.044 C 
ATOM      2  C   UNL     1       2.893 -12.784   8.253  1.00  0.00    -0.047 A 
ATOM      3  C   UNL     1       2.345 -14.027   7.919  1.00  0.00     0.016 A 
ATOM      4  C   UNL     1       3.148 -15.182   7.894  1.00  0.00     0.038 A 
ATOM      5  C   UNL     1       4.516 -15.092   8.227  1.00  0.00     0.076 A 
ATOM      6  C   UNL     1       5.062 -13.836   8.576  1.00  0.00     0.127 A 
ATOM      7  C   UNL     1       4.248 -12.697   8.595  1.00  0.00     0.050 A 
ATOM      8  C   UNL     1       5.341 -16.328   8.233  1.00  0.00     0.201 C 
ATOM      9  O   UNL     1       6.435 -16.341   8.858  1.00  0.00    -0.288 OA
ATOM     10  C   UNL     1       4.826 -17.576   7.602  1.00  0.00     0.076 A 
ATOM     11  C   UNL     1       3.440 -17.670   7.334  1.00  0.00     0.041 A 
ATOM     12  C   UNL     1       2.563 -16.490   7.522  1.00  0.00     0.194 C 
ATOM     13  O   UNL     1       1.317 -16.595   7.350  1.00  0.00    -0.289 OA
ATOM     14  C   UNL     1       2.896 -18.882   6.877  1.00  0.00     0.059 A 
ATOM     15  C   UNL     1       3.714 -19.994   6.669  1.00  0.00     0.120 A 
ATOM     16  C   UNL     1       5.087 -19.894   6.886  1.00  0.00     0.093 A 
ATOM     17  C   UNL     1       5.659 -18.692   7.315  1.00  0.00     0.131 A 
ENDROOT
BRANCH   6  18
ATOM     18  O   UNL     1       6.414 -13.713   8.899  1.00  0.00    -0.507 OA
ATOM     19  H   UNL     1       7.005 -14.524   9.042  1.00  0.00     0.293 HD
ENDBRANCH   6  18
BRANCH  17  20
ATOM     20  O   UNL     1       7.052 -18.645   7.404  1.00  0.00    -0.507 OA
ATOM     21  H   UNL     1       7.668 -19.257   6.887  1.00  0.00     0.293 HD
ENDBRANCH  17  20
BRANCH  15  22
ATOM     22  O   UNL     1       3.176 -21.203   6.231  1.00  0.00    -0.508 OA
ATOM     23  H   UNL     1       2.427 -21.663   6.736  1.00  0.00     0.293 HD
ENDBRANCH  15  22
TORSDOF 3
ENDMDL
MODEL 9
REMARK VINA RESULT:    -5.721      2.536      6.580
REMARK INTER + INTRA:          -6.222
REMARK INTER:                  -6.222
REMARK INTRA:                   0.000
REMARK UNBOUND:                 0.000
REMARK SMILES Cc1cc(O)c2c(c1)C(=O)c1cc(O)cc(O)c1C2=O
REMARK SMILES IDX 1 1 2 2 8 3 7 4 6 5 4 6 3 7 19 8 20 9 18 10 11 11 9 12 10 13
REMARK SMILES IDX 12 14 13 15 15 16 16 17 5 18 17 20 14 22
REMARK H PARENT 5 19 17 21 14 23
REMARK Flexibility Score: inf
ROOT
ATOM      1  C   UNL     1      -0.063 -12.459   9.317  1.00  0.00     0.044 C 
ATOM      2  C   UNL     1       1.128 -12.976   8.563  1.00  0.00    -0.047 A 
ATOM      3  C   UNL     1       1.709 -14.199   8.915  1.00  0.00     0.016 A 
ATOM      4  C   UNL     1       2.845 -14.675   8.237  1.00  0.00     0.038 A 
ATOM      5  C   UNL     1       3.420 -13.905   7.205  1.00  0.00     0.076 A 
ATOM      6  C   UNL     1       2.837 -12.663   6.861  1.00  0.00     0.127 A 
ATOM      7  C   UNL     1       1.704 -12.206   7.546  1.00  0.00     0.050 A 
ATOM      8  C   UNL     1       4.644 -14.404   6.526  1.00  0.00     0.201 C 
ATOM      9  O   UNL     1       5.367 -13.600   5.878  1.00  0.00    -0.288 OA
ATOM     10  C   UNL     1       5.076 -15.819   6.704  1.00  0.00     0.076 A 
ATOM     11  C   UNL     1       4.533 -16.555   7.785  1.00  0.00     0.041 A 
ATOM     12  C   UNL     1       3.443 -15.979   8.606  1.00  0.00     0.194 C 
ATOM     13  O   UNL     1       3.010 -16.607   9.611  1.00  0.00    -0.289 OA
ATOM     14  C   UNL     1       5.025 -17.840   8.072  1.00  0.00     0.059 A 
ATOM     15  C   UNL     1       6.034 -18.406   7.291  1.00  0.00     0.120 A 
ATOM     16  C   UNL     1       6.538 -17.705   6.197  1.00  0.00     0.093 A 
ATOM     17  C   UNL     1       6.049 -16.436   5.871  1.00  0.00     0.131 A 
ENDROOT
BRANCH   6  18
ATOM     18  O   UNL     1       3.376 -11.884   5.837  1.00  0.00    -0.507 OA
ATOM     19  H   UNL     1       2.854 -11.126   5.412  1.00  0.00     0.293 HD
ENDBRANCH   6  18
BRANCH  17  20
ATOM     20  O   UNL     1       6.530 -15.849   4.699  1.00  0.00    -0.507 OA
ATOM     21  H   UNL     1       7.304 -16.218   4.164  1.00  0.00     0.293 HD
ENDBRANCH  17  20
BRANCH  15  22
ATOM     22  O   UNL     1       6.534 -19.673   7.583  1.00  0.00    -0.508 OA
ATOM     23  H   UNL     1       5.919 -20.468   7.718  1.00  0.00     0.293 HD
ENDBRANCH  15  22
TORSDOF 3
ENDMDL
