MODEL 1
REMARK VINA RESULT:    -3.447      0.000      0.000
REMARK INTER + INTRA:          -8.836
REMARK INTER:                  -6.470
REMARK INTRA:                  -2.365
REMARK UNBOUND:                -2.365
REMARK SMILES O=C([O-])CCCCCCCCCCCCCCC(=O)[O-]
REMARK SMILES IDX 10 1 9 2 8 3 7 4 6 5 5 6 4 7 2 8 1 9 3 10 11 11 12 12 13 13
REMARK SMILES IDX 14 14 15 15 16 16 17 17 18 18 19 19 20 20
REMARK H PARENT
REMARK Flexibility Score: inf
ROOT
ATOM      1  C   UNL     1      -6.198  -3.496   7.238  1.00  0.00     0.000 C 
ENDROOT
BRANCH   1   2
ATOM      2  C   UNL     1      -5.231  -4.687   7.162  1.00  0.00     0.000 C 
BRANCH   2   3
ATOM      3  C   UNL     1      -4.642  -5.050   8.536  1.00  0.00     0.000 C 
BRANCH   3   4
ATOM      4  C   UNL     1      -5.339  -6.255   9.193  1.00  0.00     0.000 C 
BRANCH   4   5
ATOM      5  C   UNL     1      -5.445  -7.517   8.310  1.00  0.00     0.000 C 
BRANCH   5   6
ATOM      6  C   UNL     1      -4.128  -8.284   8.099  1.00  0.00     0.006 C 
BRANCH   6   7
ATOM      7  C   UNL     1      -3.803  -8.516   6.618  1.00  0.00     0.053 C 
BRANCH   7   8
ATOM      8  C   UNL     1      -2.648  -7.664   6.196  1.00  0.00     0.041 C 
ATOM      9  O   UNL     1      -2.834  -6.672   5.443  1.00  0.00    -0.550 OA
ATOM     10  O   UNL     1      -1.372  -7.935   6.674  1.00  0.00    -0.550 OA
ENDBRANCH   7   8
ENDBRANCH   6   7
ENDBRANCH   5   6
ENDBRANCH   4   5
ENDBRANCH   3   4
ENDBRANCH   2   3
ENDBRANCH   1   2
BRANCH   1  11
ATOM     11  C   UNL     1      -6.108  -2.737   8.572  1.00  0.00     0.000 C 
BRANCH  11  12
ATOM     12  C   UNL     1      -7.443  -2.719   9.339  1.00  0.00     0.000 C 
BRANCH  12  13
ATOM     13  C   UNL     1      -8.553  -3.592   8.725  1.00  0.00     0.000 C 
BRANCH  13  14
ATOM     14  C   UNL     1      -8.791  -4.896   9.508  1.00  0.00     0.000 C 
BRANCH  14  15
ATOM     15  C   UNL     1      -8.991  -6.114   8.589  1.00  0.00     0.000 C 
BRANCH  15  16
ATOM     16  C   UNL     1      -9.676  -5.803   7.241  1.00  0.00     0.006 C 
BRANCH  16  17
ATOM     17  C   UNL     1      -8.771  -6.018   6.015  1.00  0.00     0.053 C 
BRANCH  17  18
ATOM     18  C   UNL     1      -8.860  -4.899   5.023  1.00  0.00     0.041 C 
ATOM     19  O   UNL     1      -7.989  -4.778   4.123  1.00  0.00    -0.550 OA
ATOM     20  O   UNL     1      -9.894  -3.975   5.110  1.00  0.00    -0.550 OA
ENDBRANCH  17  18
ENDBRANCH  16  17
ENDBRANCH  15  16
ENDBRANCH  14  15
ENDBRANCH  13  14
ENDBRANCH  12  13
ENDBRANCH  11  12
ENDBRANCH   1  11
TORSDOF 15
ENDMDL
MODEL 2
REMARK VINA RESULT:    -3.329      1.203      5.611
REMARK INTER + INTRA:          -8.613
REMARK INTER:                  -6.545
REMARK INTRA:                  -2.068
REMARK UNBOUND:                -2.365
REMARK SMILES O=C([O-])CCCCCCCCCCCCCCC(=O)[O-]
REMARK SMILES IDX 10 1 9 2 8 3 7 4 6 5 5 6 4 7 2 8 1 9 3 10 11 11 12 12 13 13
REMARK SMILES IDX 14 14 15 15 16 16 17 17 18 18 19 19 20 20
REMARK H PARENT
REMARK Flexibility Score: inf
ROOT
ATOM      1  C   UNL     1      -5.231  -5.093   7.633  1.00  0.00     0.000 C 
ENDROOT
BRANCH   1   2
ATOM      2  C   UNL     1      -5.865  -3.733   7.305  1.00  0.00     0.000 C 
BRANCH   2   3
ATOM      3  C   UNL     1      -6.486  -3.064   8.543  1.00  0.00     0.000 C 
BRANCH   3   4
ATOM      4  C   UNL     1      -7.728  -3.804   9.071  1.00  0.00     0.000 C 
BRANCH   4   5
ATOM      5  C   UNL     1      -9.057  -3.439   8.376  1.00  0.00     0.000 C 
BRANCH   5   6
ATOM      6  C   UNL     1      -9.626  -4.519   7.438  1.00  0.00     0.006 C 
BRANCH   6   7
ATOM      7  C   UNL     1      -9.543  -4.128   5.958  1.00  0.00     0.053 C 
BRANCH   7   8
ATOM      8  C   UNL     1      -8.611  -5.042   5.227  1.00  0.00     0.041 C 
ATOM      9  O   UNL     1      -8.238  -4.763   4.056  1.00  0.00    -0.550 OA
ATOM     10  O   UNL     1      -8.113  -6.175   5.855  1.00  0.00    -0.550 OA
ENDBRANCH   7   8
ENDBRANCH   6   7
ENDBRANCH   5   6
ENDBRANCH   4   5
ENDBRANCH   3   4
ENDBRANCH   2   3
ENDBRANCH   1   2
BRANCH   1  11
ATOM     11  C   UNL     1      -4.404  -5.070   8.929  1.00  0.00     0.000 C 
BRANCH  11  12
ATOM     12  C   UNL     1      -4.824  -6.167   9.924  1.00  0.00     0.000 C 
BRANCH  12  13
ATOM     13  C   UNL     1      -5.787  -7.224   9.353  1.00  0.00     0.000 C 
BRANCH  13  14
ATOM     14  C   UNL     1      -5.157  -8.626   9.270  1.00  0.00     0.000 C 
BRANCH  14  15
ATOM     15  C   UNL     1      -3.638  -8.612   9.515  1.00  0.00     0.000 C 
BRANCH  15  16
ATOM     16  C   UNL     1      -2.783  -9.026   8.298  1.00  0.00     0.006 C 
BRANCH  16  17
ATOM     17  C   UNL     1      -2.316  -7.843   7.430  1.00  0.00     0.053 C 
BRANCH  17  18
ATOM     18  C   UNL     1      -3.103  -7.704   6.164  1.00  0.00     0.041 C 
ATOM     19  O   UNL     1      -4.090  -8.454   5.944  1.00  0.00    -0.550 OA
ATOM     20  O   UNL     1      -2.731  -6.760   5.215  1.00  0.00    -0.550 OA
ENDBRANCH  17  18
ENDBRANCH  16  17
ENDBRANCH  15  16
ENDBRANCH  14  15
ENDBRANCH  13  14
ENDBRANCH  12  13
ENDBRANCH  11  12
ENDBRANCH   1  11
TORSDOF 15
ENDMDL
MODEL 3
REMARK VINA RESULT:    -3.257     19.155     20.938
REMARK INTER + INTRA:          -8.479
REMARK INTER:                  -7.354
REMARK INTRA:                  -1.124
REMARK UNBOUND:                -2.365
REMARK SMILES O=C([O-])CCCCCCCCCCCCCCC(=O)[O-]
REMARK SMILES IDX 10 1 9 2 8 3 7 4 6 5 5 6 4 7 2 8 1 9 3 10 11 11 12 12 13 13
REMARK SMILES IDX 14 14 15 15 16 16 17 17 18 18 19 19 20 20
REMARK H PARENT
REMARK Flexibility Score: inf
ROOT
ATOM      1  C   UNL     1       7.838   6.733  -3.639  1.00  0.00     0.000 C 
ENDROOT
BRANCH   1   2
ATOM      2  C   UNL     1       6.504   7.240  -3.070  1.00  0.00     0.000 C 
BRANCH   2   3
ATOM      3  C   UNL     1       6.511   8.760  -2.830  1.00  0.00     0.000 C 
BRANCH   3   4
ATOM      4  C   UNL     1       5.164   9.296  -2.314  1.00  0.00     0.000 C 
BRANCH   4   5
ATOM      5  C   UNL     1       5.143   9.706  -0.826  1.00  0.00     0.000 C 
BRANCH   5   6
ATOM      6  C   UNL     1       6.522   9.779  -0.145  1.00  0.00     0.006 C 
BRANCH   6   7
ATOM      7  C   UNL     1       6.658   8.805   1.032  1.00  0.00     0.053 C 
BRANCH   7   8
ATOM      8  C   UNL     1       7.412   7.582   0.614  1.00  0.00     0.041 C 
ATOM      9  O   UNL     1       8.440   7.685  -0.104  1.00  0.00    -0.550 OA
ATOM     10  O   UNL     1       7.008   6.331   1.061  1.00  0.00    -0.550 OA
ENDBRANCH   7   8
ENDBRANCH   6   7
ENDBRANCH   5   6
ENDBRANCH   4   5
ENDBRANCH   3   4
ENDBRANCH   2   3
ENDBRANCH   1   2
BRANCH   1  11
ATOM     11  C   UNL     1       7.774   6.447  -5.148  1.00  0.00     0.000 C 
BRANCH  11  12
ATOM     12  C   UNL     1       6.359   6.074  -5.625  1.00  0.00     0.000 C 
BRANCH  12  13
ATOM     13  C   UNL     1       6.267   5.646  -7.102  1.00  0.00     0.000 C 
BRANCH  13  14
ATOM     14  C   UNL     1       5.644   4.250  -7.283  1.00  0.00     0.000 C 
BRANCH  14  15
ATOM     15  C   UNL     1       4.824   3.801  -6.061  1.00  0.00     0.000 C 
BRANCH  15  16
ATOM     16  C   UNL     1       4.853   2.281  -5.787  1.00  0.00     0.006 C 
BRANCH  16  17
ATOM     17  C   UNL     1       5.772   1.491  -6.736  1.00  0.00     0.053 C 
BRANCH  17  18
ATOM     18  C   UNL     1       6.017   0.088  -6.274  1.00  0.00     0.041 C 
ATOM     19  O   UNL     1       6.601  -0.127  -5.179  1.00  0.00    -0.550 OA
ATOM     20  O   UNL     1       5.621  -0.983  -7.065  1.00  0.00    -0.550 OA
ENDBRANCH  17  18
ENDBRANCH  16  17
ENDBRANCH  15  16
ENDBRANCH  14  15
ENDBRANCH  13  14
ENDBRANCH  12  13
ENDBRANCH  11  12
ENDBRANCH   1  11
TORSDOF 15
ENDMDL
MODEL 4
REMARK VINA RESULT:    -3.100      1.046      5.553
REMARK INTER + INTRA:          -8.184
REMARK INTER:                  -6.165
REMARK INTRA:                  -2.019
REMARK UNBOUND:                -2.365
REMARK SMILES O=C([O-])CCCCCCCCCCCCCCC(=O)[O-]
REMARK SMILES IDX 10 1 9 2 8 3 7 4 6 5 5 6 4 7 2 8 1 9 3 10 11 11 12 12 13 13
REMARK SMILES IDX 14 14 15 15 16 16 17 17 18 18 19 19 20 20
REMARK H PARENT
REMARK Flexibility Score: inf
ROOT
ATOM      1  C   UNL     1      -6.067  -2.860   8.976  1.00  0.00     0.000 C 
ENDROOT
BRANCH   1   2
ATOM      2  C   UNL     1      -7.367  -3.313   9.658  1.00  0.00     0.000 C 
BRANCH   2   3
ATOM      3  C   UNL     1      -8.537  -3.430   8.665  1.00  0.00     0.000 C 
BRANCH   3   4
ATOM      4  C   UNL     1      -9.043  -4.874   8.496  1.00  0.00     0.000 C 
BRANCH   4   5
ATOM      5  C   UNL     1      -9.856  -5.142   7.211  1.00  0.00     0.000 C 
BRANCH   5   6
ATOM      6  C   UNL     1      -9.609  -4.151   6.059  1.00  0.00     0.006 C 
BRANCH   6   7
ATOM      7  C   UNL     1      -8.597  -4.671   5.031  1.00  0.00     0.053 C 
BRANCH   7   8
ATOM      8  C   UNL     1      -9.093  -5.935   4.402  1.00  0.00     0.041 C 
ATOM      9  O   UNL     1     -10.038  -5.901   3.571  1.00  0.00    -0.550 OA
ATOM     10  O   UNL     1      -8.478  -7.145   4.696  1.00  0.00    -0.550 OA
ENDBRANCH   7   8
ENDBRANCH   6   7
ENDBRANCH   5   6
ENDBRANCH   4   5
ENDBRANCH   3   4
ENDBRANCH   2   3
ENDBRANCH   1   2
BRANCH   1  11
ATOM     11  C   UNL     1      -6.037  -3.180   7.473  1.00  0.00     0.000 C 
BRANCH  11  12
ATOM     12  C   UNL     1      -5.407  -4.552   7.168  1.00  0.00     0.000 C 
BRANCH  12  13
ATOM     13  C   UNL     1      -4.537  -5.129   8.300  1.00  0.00     0.000 C 
BRANCH  13  14
ATOM     14  C   UNL     1      -5.063  -6.475   8.831  1.00  0.00     0.000 C 
BRANCH  14  15
ATOM     15  C   UNL     1      -5.866  -7.259   7.779  1.00  0.00     0.000 C 
BRANCH  15  16
ATOM     16  C   UNL     1      -5.030  -8.232   6.920  1.00  0.00     0.006 C 
BRANCH  16  17
ATOM     17  C   UNL     1      -3.565  -8.364   7.371  1.00  0.00     0.053 C 
BRANCH  17  18
ATOM     18  C   UNL     1      -2.593  -7.889   6.335  1.00  0.00     0.041 C 
ATOM     19  O   UNL     1      -1.433  -8.376   6.281  1.00  0.00    -0.550 OA
ATOM     20  O   UNL     1      -2.962  -6.889   5.444  1.00  0.00    -0.550 OA
ENDBRANCH  17  18
ENDBRANCH  16  17
ENDBRANCH  15  16
ENDBRANCH  14  15
ENDBRANCH  13  14
ENDBRANCH  12  13
ENDBRANCH  11  12
ENDBRANCH   1  11
TORSDOF 15
ENDMDL
MODEL 5
REMARK VINA RESULT:    -3.094      1.745      6.390
REMARK INTER + INTRA:          -8.172
REMARK INTER:                  -6.493
REMARK INTRA:                  -1.679
REMARK UNBOUND:                -2.365
REMARK SMILES O=C([O-])CCCCCCCCCCCCCCC(=O)[O-]
REMARK SMILES IDX 10 1 9 2 8 3 7 4 6 5 5 6 4 7 2 8 1 9 3 10 11 11 12 12 13 13
REMARK SMILES IDX 14 14 15 15 16 16 17 17 18 18 19 19 20 20
REMARK H PARENT
REMARK Flexibility Score: inf
ROOT
ATOM      1  C   UNL     1      -5.093  -6.868   7.996  1.00  0.00     0.000 C 
ENDROOT
BRANCH   1   2
ATOM      2  C   UNL     1      -4.185  -5.704   8.423  1.00  0.00     0.000 C 
BRANCH   2   3
ATOM      3  C   UNL     1      -4.984  -4.438   8.777  1.00  0.00     0.000 C 
BRANCH   3   4
ATOM      4  C   UNL     1      -6.494  -4.699   8.925  1.00  0.00     0.000 C 
BRANCH   4   5
ATOM      5  C   UNL     1      -7.410  -3.744   8.130  1.00  0.00     0.000 C 
BRANCH   5   6
ATOM      6  C   UNL     1      -8.805  -4.300   7.793  1.00  0.00     0.006 C 
BRANCH   6   7
ATOM      7  C   UNL     1      -9.184  -4.106   6.320  1.00  0.00     0.053 C 
BRANCH   7   8
ATOM      8  C   UNL     1      -8.462  -5.095   5.460  1.00  0.00     0.041 C 
ATOM      9  O   UNL     1      -8.114  -6.210   5.930  1.00  0.00    -0.550 OA
ATOM     10  O   UNL     1      -8.218  -4.806   4.124  1.00  0.00    -0.550 OA
ENDBRANCH   7   8
ENDBRANCH   6   7
ENDBRANCH   5   6
ENDBRANCH   4   5
ENDBRANCH   3   4
ENDBRANCH   2   3
ENDBRANCH   1   2
BRANCH   1  11
ATOM     11  C   UNL     1      -4.702  -8.203   8.651  1.00  0.00     0.000 C 
BRANCH  11  12
ATOM     12  C   UNL     1      -3.846  -8.018   9.917  1.00  0.00     0.000 C 
BRANCH  12  13
ATOM     13  C   UNL     1      -2.476  -8.721   9.879  1.00  0.00     0.000 C 
BRANCH  13  14
ATOM     14  C   UNL     1      -1.344  -7.800   9.390  1.00  0.00     0.000 C 
BRANCH  14  15
ATOM     15  C   UNL     1      -0.766  -8.235   8.032  1.00  0.00     0.000 C 
BRANCH  15  16
ATOM     16  C   UNL     1      -1.501  -9.419   7.366  1.00  0.00     0.006 C 
BRANCH  16  17
ATOM     17  C   UNL     1      -1.697  -9.260   5.848  1.00  0.00     0.053 C 
BRANCH  17  18
ATOM     18  C   UNL     1      -2.872  -8.398   5.502  1.00  0.00     0.041 C 
ATOM     19  O   UNL     1      -4.010  -8.911   5.337  1.00  0.00    -0.550 OA
ATOM     20  O   UNL     1      -2.704  -7.028   5.336  1.00  0.00    -0.550 OA
ENDBRANCH  17  18
ENDBRANCH  16  17
ENDBRANCH  15  16
ENDBRANCH  14  15
ENDBRANCH  13  14
ENDBRANCH  12  13
ENDBRANCH  11  12
ENDBRANCH   1  11
TORSDOF 15
ENDMDL
MODEL 6
REMARK VINA RESULT:    -3.053     19.192     20.974
REMARK INTER + INTRA:          -8.096
REMARK INTER:                  -6.758
REMARK INTRA:                  -1.338
REMARK UNBOUND:                -2.365
REMARK SMILES O=C([O-])CCCCCCCCCCCCCCC(=O)[O-]
REMARK SMILES IDX 10 1 9 2 8 3 7 4 6 5 5 6 4 7 2 8 1 9 3 10 11 11 12 12 13 13
REMARK SMILES IDX 14 14 15 15 16 16 17 17 18 18 19 19 20 20
REMARK H PARENT
REMARK Flexibility Score: inf
ROOT
ATOM      1  C   UNL     1       5.202   4.204  -6.047  1.00  0.00     0.000 C 
ENDROOT
BRANCH   1   2
ATOM      2  C   UNL     1       4.275   3.400  -6.971  1.00  0.00     0.000 C 
BRANCH   2   3
ATOM      3  C   UNL     1       4.905   3.142  -8.350  1.00  0.00     0.000 C 
BRANCH   3   4
ATOM      4  C   UNL     1       5.663   1.804  -8.427  1.00  0.00     0.000 C 
BRANCH   4   5
ATOM      5  C   UNL     1       7.138   1.854  -7.976  1.00  0.00     0.000 C 
BRANCH   5   6
ATOM      6  C   UNL     1       7.485   0.971  -6.765  1.00  0.00     0.006 C 
BRANCH   6   7
ATOM      7  C   UNL     1       6.245   0.387  -6.078  1.00  0.00     0.053 C 
BRANCH   7   8
ATOM      8  C   UNL     1       6.250  -1.107  -6.172  1.00  0.00     0.041 C 
ATOM      9  O   UNL     1       6.944  -1.790  -5.373  1.00  0.00    -0.550 OA
ATOM     10  O   UNL     1       5.449  -1.747  -7.108  1.00  0.00    -0.550 OA
ENDBRANCH   7   8
ENDBRANCH   6   7
ENDBRANCH   5   6
ENDBRANCH   4   5
ENDBRANCH   3   4
ENDBRANCH   2   3
ENDBRANCH   1   2
BRANCH   1  11
ATOM     11  C   UNL     1       5.955   5.324  -6.783  1.00  0.00     0.000 C 
BRANCH  11  12
ATOM     12  C   UNL     1       7.299   5.675  -6.120  1.00  0.00     0.000 C 
BRANCH  12  13
ATOM     13  C   UNL     1       7.285   6.959  -5.270  1.00  0.00     0.000 C 
BRANCH  13  14
ATOM     14  C   UNL     1       6.848   6.709  -3.815  1.00  0.00     0.000 C 
BRANCH  14  15
ATOM     15  C   UNL     1       5.893   7.793  -3.285  1.00  0.00     0.000 C 
BRANCH  15  16
ATOM     16  C   UNL     1       6.567   9.142  -2.953  1.00  0.00     0.006 C 
BRANCH  16  17
ATOM     17  C   UNL     1       7.309   9.155  -1.605  1.00  0.00     0.053 C 
BRANCH  17  18
ATOM     18  C   UNL     1       6.521   8.520  -0.501  1.00  0.00     0.041 C 
ATOM     19  O   UNL     1       5.588   9.153   0.059  1.00  0.00    -0.550 OA
ATOM     20  O   UNL     1       6.835   7.236  -0.074  1.00  0.00    -0.550 OA
ENDBRANCH  17  18
ENDBRANCH  16  17
ENDBRANCH  15  16
ENDBRANCH  14  15
ENDBRANCH  13  14
ENDBRANCH  12  13
ENDBRANCH  11  12
ENDBRANCH   1  11
TORSDOF 15
ENDMDL
MODEL 7
REMARK VINA RESULT:    -3.042      2.043      6.071
REMARK INTER + INTRA:          -8.075
REMARK INTER:                  -6.401
REMARK INTRA:                  -1.674
REMARK UNBOUND:                -2.365
REMARK SMILES O=C([O-])CCCCCCCCCCCCCCC(=O)[O-]
REMARK SMILES IDX 10 1 9 2 8 3 7 4 6 5 5 6 4 7 2 8 1 9 3 10 11 11 12 12 13 13
REMARK SMILES IDX 14 14 15 15 16 16 17 17 18 18 19 19 20 20
REMARK H PARENT
REMARK Flexibility Score: inf
ROOT
ATOM      1  C   UNL     1      -8.998  -7.497   3.533  1.00  0.00     0.000 C 
ENDROOT
BRANCH   1   2
ATOM      2  C   UNL     1      -9.782  -6.440   4.325  1.00  0.00     0.000 C 
BRANCH   2   3
ATOM      3  C   UNL     1      -9.118  -5.053   4.265  1.00  0.00     0.000 C 
BRANCH   3   4
ATOM      4  C   UNL     1      -9.577  -4.114   5.395  1.00  0.00     0.000 C 
BRANCH   4   5
ATOM      5  C   UNL     1      -9.493  -4.705   6.818  1.00  0.00     0.000 C 
BRANCH   5   6
ATOM      6  C   UNL     1      -8.501  -4.003   7.763  1.00  0.00     0.006 C 
BRANCH   6   7
ATOM      7  C   UNL     1      -7.107  -4.641   7.745  1.00  0.00     0.053 C 
BRANCH   7   8
ATOM      8  C   UNL     1      -6.126  -3.737   7.067  1.00  0.00     0.041 C 
ATOM      9  O   UNL     1      -5.849  -2.615   7.565  1.00  0.00    -0.550 OA
ATOM     10  O   UNL     1      -5.480  -4.155   5.911  1.00  0.00    -0.550 OA
ENDBRANCH   7   8
ENDBRANCH   6   7
ENDBRANCH   5   6
ENDBRANCH   4   5
ENDBRANCH   3   4
ENDBRANCH   2   3
ENDBRANCH   1   2
BRANCH   1  11
ATOM     11  C   UNL     1      -8.532  -8.674   4.406  1.00  0.00     0.000 C 
BRANCH  11  12
ATOM     12  C   UNL     1      -8.802  -8.449   5.905  1.00  0.00     0.000 C 
BRANCH  12  13
ATOM     13  C   UNL     1      -7.567  -8.042   6.730  1.00  0.00     0.000 C 
BRANCH  13  14
ATOM     14  C   UNL     1      -6.714  -9.246   7.166  1.00  0.00     0.000 C 
BRANCH  14  15
ATOM     15  C   UNL     1      -5.207  -8.935   7.180  1.00  0.00     0.000 C 
BRANCH  15  16
ATOM     16  C   UNL     1      -4.852  -7.471   7.519  1.00  0.00     0.006 C 
BRANCH  16  17
ATOM     17  C   UNL     1      -3.342  -7.206   7.649  1.00  0.00     0.053 C 
BRANCH  17  18
ATOM     18  C   UNL     1      -2.599  -7.435   6.369  1.00  0.00     0.041 C 
ATOM     19  O   UNL     1      -2.940  -6.828   5.320  1.00  0.00    -0.550 OA
ATOM     20  O   UNL     1      -1.544  -8.338   6.330  1.00  0.00    -0.550 OA
ENDBRANCH  17  18
ENDBRANCH  16  17
ENDBRANCH  15  16
ENDBRANCH  14  15
ENDBRANCH  13  14
ENDBRANCH  12  13
ENDBRANCH  11  12
ENDBRANCH   1  11
TORSDOF 15
ENDMDL
MODEL 8
REMARK VINA RESULT:    -3.038     19.260     21.048
REMARK INTER + INTRA:          -8.068
REMARK INTER:                  -6.906
REMARK INTRA:                  -1.161
REMARK UNBOUND:                -2.365
REMARK SMILES O=C([O-])CCCCCCCCCCCCCCC(=O)[O-]
REMARK SMILES IDX 10 1 9 2 8 3 7 4 6 5 5 6 4 7 2 8 1 9 3 10 11 11 12 12 13 13
REMARK SMILES IDX 14 14 15 15 16 16 17 17 18 18 19 19 20 20
REMARK H PARENT
REMARK Flexibility Score: inf
ROOT
ATOM      1  C   UNL     1       6.362   5.474  -6.738  1.00  0.00     0.000 C 
ENDROOT
BRANCH   1   2
ATOM      2  C   UNL     1       6.481   6.733  -5.865  1.00  0.00     0.000 C 
BRANCH   2   3
ATOM      3  C   UNL     1       6.378   6.415  -4.363  1.00  0.00     0.000 C 
BRANCH   3   4
ATOM      4  C   UNL     1       6.964   7.523  -3.469  1.00  0.00     0.000 C 
BRANCH   4   5
ATOM      5  C   UNL     1       6.088   7.933  -2.267  1.00  0.00     0.000 C 
BRANCH   5   6
ATOM      6  C   UNL     1       6.682   9.029  -1.364  1.00  0.00     0.006 C 
BRANCH   6   7
ATOM      7  C   UNL     1       6.613   8.676   0.126  1.00  0.00     0.053 C 
BRANCH   7   8
ATOM      8  C   UNL     1       7.470   7.486   0.422  1.00  0.00     0.041 C 
ATOM      9  O   UNL     1       6.982   6.483   1.008  1.00  0.00    -0.550 OA
ATOM     10  O   UNL     1       8.795   7.462   0.007  1.00  0.00    -0.550 OA
ENDBRANCH   7   8
ENDBRANCH   6   7
ENDBRANCH   5   6
ENDBRANCH   4   5
ENDBRANCH   3   4
ENDBRANCH   2   3
ENDBRANCH   1   2
BRANCH   1  11
ATOM     11  C   UNL     1       5.527   4.366  -6.076  1.00  0.00     0.000 C 
BRANCH  11  12
ATOM     12  C   UNL     1       4.476   3.762  -7.026  1.00  0.00     0.000 C 
BRANCH  12  13
ATOM     13  C   UNL     1       4.995   3.434  -8.438  1.00  0.00     0.000 C 
BRANCH  13  14
ATOM     14  C   UNL     1       5.279   1.934  -8.638  1.00  0.00     0.000 C 
BRANCH  14  15
ATOM     15  C   UNL     1       6.764   1.578  -8.448  1.00  0.00     0.000 C 
BRANCH  15  16
ATOM     16  C   UNL     1       7.157   1.194  -7.006  1.00  0.00     0.006 C 
BRANCH  16  17
ATOM     17  C   UNL     1       6.065   0.420  -6.245  1.00  0.00     0.053 C 
BRANCH  17  18
ATOM     18  C   UNL     1       6.239  -1.065  -6.329  1.00  0.00     0.041 C 
ATOM     19  O   UNL     1       7.198  -1.627  -5.739  1.00  0.00    -0.550 OA
ATOM     20  O   UNL     1       5.352  -1.826  -7.081  1.00  0.00    -0.550 OA
ENDBRANCH  17  18
ENDBRANCH  16  17
ENDBRANCH  15  16
ENDBRANCH  14  15
ENDBRANCH  13  14
ENDBRANCH  12  13
ENDBRANCH  11  12
ENDBRANCH   1  11
TORSDOF 15
ENDMDL
MODEL 9
REMARK VINA RESULT:    -3.036     19.883     21.489
REMARK INTER + INTRA:          -8.064
REMARK INTER:                  -6.263
REMARK INTRA:                  -1.801
REMARK UNBOUND:                -2.365
REMARK SMILES O=C([O-])CCCCCCCCCCCCCCC(=O)[O-]
REMARK SMILES IDX 10 1 9 2 8 3 7 4 6 5 5 6 4 7 2 8 1 9 3 10 11 11 12 12 13 13
REMARK SMILES IDX 14 14 15 15 16 16 17 17 18 18 19 19 20 20
REMARK H PARENT
REMARK Flexibility Score: inf
ROOT
ATOM      1  C   UNL     1       6.383   7.244  -2.891  1.00  0.00     0.000 C 
ENDROOT
BRANCH   1   2
ATOM      2  C   UNL     1       5.688   8.277  -3.791  1.00  0.00     0.000 C 
BRANCH   2   3
ATOM      3  C   UNL     1       4.937   9.347  -2.979  1.00  0.00     0.000 C 
BRANCH   3   4
ATOM      4  C   UNL     1       5.785   9.950  -1.845  1.00  0.00     0.000 C 
BRANCH   4   5
ATOM      5  C   UNL     1       5.147   9.888  -0.441  1.00  0.00     0.000 C 
BRANCH   5   6
ATOM      6  C   UNL     1       6.019   9.242   0.650  1.00  0.00     0.006 C 
BRANCH   6   7
ATOM      7  C   UNL     1       7.475   9.044   0.210  1.00  0.00     0.053 C 
BRANCH   7   8
ATOM      8  C   UNL     1       7.919   7.642   0.486  1.00  0.00     0.041 C 
ATOM      9  O   UNL     1       9.141   7.341   0.424  1.00  0.00    -0.550 OA
ATOM     10  O   UNL     1       6.991   6.680   0.860  1.00  0.00    -0.550 OA
ENDBRANCH   7   8
ENDBRANCH   6   7
ENDBRANCH   5   6
ENDBRANCH   4   5
ENDBRANCH   3   4
ENDBRANCH   2   3
ENDBRANCH   1   2
BRANCH   1  11
ATOM     11  C   UNL     1       7.845   6.989  -3.292  1.00  0.00     0.000 C 
BRANCH  11  12
ATOM     12  C   UNL     1       8.293   7.846  -4.490  1.00  0.00     0.000 C 
BRANCH  12  13
ATOM     13  C   UNL     1       8.740   7.045  -5.727  1.00  0.00     0.000 C 
BRANCH  13  14
ATOM     14  C   UNL     1       7.566   6.650  -6.640  1.00  0.00     0.000 C 
BRANCH  14  15
ATOM     15  C   UNL     1       7.163   5.173  -6.488  1.00  0.00     0.000 C 
BRANCH  15  16
ATOM     16  C   UNL     1       5.688   4.942  -6.095  1.00  0.00     0.006 C 
BRANCH  16  17
ATOM     17  C   UNL     1       4.937   3.972  -7.025  1.00  0.00     0.053 C 
BRANCH  17  18
ATOM     18  C   UNL     1       5.350   2.546  -6.832  1.00  0.00     0.041 C 
ATOM     19  O   UNL     1       6.021   1.954  -7.718  1.00  0.00    -0.550 OA
ATOM     20  O   UNL     1       4.972   1.862  -5.683  1.00  0.00    -0.550 OA
ENDBRANCH  17  18
ENDBRANCH  16  17
ENDBRANCH  15  16
ENDBRANCH  14  15
ENDBRANCH  13  14
ENDBRANCH  12  13
ENDBRANCH  11  12
ENDBRANCH   1  11
TORSDOF 15
ENDMDL
