MODEL 1
REMARK VINA RESULT:    -5.702      0.000      0.000
REMARK INTER + INTRA:          -6.223
REMARK INTER:                  -6.036
REMARK INTRA:                  -0.187
REMARK UNBOUND:                -0.187
REMARK SMILES CC1=CC[C@@H](C(C)C)C=C1
REMARK SMILES IDX 1 1 2 2 3 3 4 4 5 5 9 6 10 7 6 8 7 9 8 10
REMARK H PARENT
REMARK Flexibility Score: inf
ROOT
ATOM      1  C   UNL     1     134.885 139.791 123.848  1.00  0.00     0.044 C 
ATOM      2  C   UNL     1     135.776 138.601 123.655  1.00  0.00    -0.055 C 
ATOM      3  C   UNL     1     135.271 137.360 123.719  1.00  0.00    -0.023 C 
ATOM      4  C   UNL     1     136.122 136.162 123.380  1.00  0.00     0.035 C 
ATOM      5  C   UNL     1     137.596 136.396 123.796  1.00  0.00     0.018 C 
ATOM      6  C   UNL     1     138.058 137.764 123.343  1.00  0.00    -0.023 C 
ATOM      7  C   UNL     1     137.207 138.797 123.329  1.00  0.00    -0.001 C 
ENDROOT
BRANCH   5   8
ATOM      8  C   UNL     1     138.572 135.278 123.327  1.00  0.00    -0.010 C 
ATOM      9  C   UNL     1     138.320 134.875 121.867  1.00  0.00     0.008 C 
ATOM     10  C   UNL     1     140.055 135.630 123.533  1.00  0.00     0.008 C 
ENDBRANCH   5   8
TORSDOF 1
ENDMDL
MODEL 2
REMARK VINA RESULT:    -5.664      1.156      1.763
REMARK INTER + INTRA:          -6.182
REMARK INTER:                  -5.990
REMARK INTRA:                  -0.191
REMARK UNBOUND:                -0.187
REMARK SMILES CC1=CC[C@@H](C(C)C)C=C1
REMARK SMILES IDX 1 1 2 2 3 3 4 4 5 5 9 6 10 7 6 8 7 9 8 10
REMARK H PARENT
REMARK Flexibility Score: inf
ROOT
ATOM      1  C   UNL     1     134.893 139.340 123.416  1.00  0.00     0.044 C 
ATOM      2  C   UNL     1     135.969 138.304 123.540  1.00  0.00    -0.055 C 
ATOM      3  C   UNL     1     136.726 137.984 122.479  1.00  0.00    -0.023 C 
ATOM      4  C   UNL     1     137.906 137.057 122.625  1.00  0.00     0.035 C 
ATOM      5  C   UNL     1     137.633 135.979 123.704  1.00  0.00     0.018 C 
ATOM      6  C   UNL     1     137.056 136.620 124.949  1.00  0.00    -0.023 C 
ATOM      7  C   UNL     1     136.241 137.676 124.853  1.00  0.00    -0.001 C 
ENDROOT
BRANCH   5   8
ATOM      8  C   UNL     1     138.864 135.088 124.036  1.00  0.00    -0.010 C 
ATOM      9  C   UNL     1     140.148 135.621 123.383  1.00  0.00     0.008 C 
ATOM     10  C   UNL     1     139.083 134.879 125.545  1.00  0.00     0.008 C 
ENDBRANCH   5   8
TORSDOF 1
ENDMDL
MODEL 3
REMARK VINA RESULT:    -5.370      1.148      4.347
REMARK INTER + INTRA:          -5.871
REMARK INTER:                  -5.682
REMARK INTRA:                  -0.189
REMARK UNBOUND:                -0.187
REMARK SMILES CC1=CC[C@@H](C(C)C)C=C1
REMARK SMILES IDX 1 1 2 2 3 3 4 4 5 5 9 6 10 7 6 8 7 9 8 10
REMARK H PARENT
REMARK Flexibility Score: inf
ROOT
ATOM      1  C   UNL     1     139.711 134.890 122.743  1.00  0.00     0.044 C 
ATOM      2  C   UNL     1     138.632 135.836 123.179  1.00  0.00    -0.055 C 
ATOM      3  C   UNL     1     138.097 135.732 124.406  1.00  0.00    -0.023 C 
ATOM      4  C   UNL     1     137.123 136.765 124.912  1.00  0.00     0.035 C 
ATOM      5  C   UNL     1     136.251 137.316 123.756  1.00  0.00     0.018 C 
ATOM      6  C   UNL     1     137.118 137.661 122.564  1.00  0.00    -0.023 C 
ATOM      7  C   UNL     1     138.201 136.930 122.279  1.00  0.00    -0.001 C 
ENDROOT
BRANCH   5   8
ATOM      8  C   UNL     1     135.338 138.509 124.164  1.00  0.00    -0.010 C 
ATOM      9  C   UNL     1     135.997 139.395 125.230  1.00  0.00     0.008 C 
ATOM     10  C   UNL     1     134.875 139.365 122.972  1.00  0.00     0.008 C 
ENDBRANCH   5   8
TORSDOF 1
ENDMDL
MODEL 4
REMARK VINA RESULT:    -5.297     13.813     16.438
REMARK INTER + INTRA:          -5.794
REMARK INTER:                  -5.625
REMARK INTRA:                  -0.169
REMARK UNBOUND:                -0.187
REMARK SMILES CC1=CC[C@@H](C(C)C)C=C1
REMARK SMILES IDX 1 1 2 2 3 3 4 4 5 5 9 6 10 7 6 8 7 9 8 10
REMARK H PARENT
REMARK Flexibility Score: inf
ROOT
ATOM      1  C   UNL     1     150.609 134.875 124.172  1.00  0.00     0.044 C 
ATOM      2  C   UNL     1     151.799 135.749 123.910  1.00  0.00    -0.055 C 
ATOM      3  C   UNL     1     153.041 135.277 124.106  1.00  0.00    -0.023 C 
ATOM      4  C   UNL     1     154.246 136.090 123.706  1.00  0.00     0.035 C 
ATOM      5  C   UNL     1     153.979 137.604 123.895  1.00  0.00     0.018 C 
ATOM      6  C   UNL     1     152.631 137.975 123.315  1.00  0.00    -0.023 C 
ATOM      7  C   UNL     1     151.608 137.116 123.374  1.00  0.00    -0.001 C 
ENDROOT
BRANCH   5   8
ATOM      8  C   UNL     1     155.111 138.520 123.345  1.00  0.00    -0.010 C 
ATOM      9  C   UNL     1     155.125 138.553 121.810  1.00  0.00     0.008 C 
ATOM     10  C   UNL     1     155.070 139.952 123.907  1.00  0.00     0.008 C 
ENDBRANCH   5   8
TORSDOF 1
ENDMDL
MODEL 5
REMARK VINA RESULT:    -5.224      1.217      4.495
REMARK INTER + INTRA:          -5.716
REMARK INTER:                  -5.594
REMARK INTRA:                  -0.122
REMARK UNBOUND:                -0.187
REMARK SMILES CC1=CC[C@@H](C(C)C)C=C1
REMARK SMILES IDX 1 1 2 2 3 3 4 4 5 5 9 6 10 7 6 8 7 9 8 10
REMARK H PARENT
REMARK Flexibility Score: inf
ROOT
ATOM      1  C   UNL     1     140.078 134.933 123.104  1.00  0.00     0.044 C 
ATOM      2  C   UNL     1     138.900 135.838 123.312  1.00  0.00    -0.055 C 
ATOM      3  C   UNL     1     138.390 136.531 122.282  1.00  0.00    -0.023 C 
ATOM      4  C   UNL     1     137.119 137.325 122.442  1.00  0.00     0.035 C 
ATOM      5  C   UNL     1     137.011 137.915 123.872  1.00  0.00     0.018 C 
ATOM      6  C   UNL     1     137.337 136.854 124.901  1.00  0.00    -0.023 C 
ATOM      7  C   UNL     1     138.258 135.919 124.644  1.00  0.00    -0.001 C 
ENDROOT
BRANCH   5   8
ATOM      8  C   UNL     1     135.649 138.605 124.172  1.00  0.00    -0.010 C 
ATOM      9  C   UNL     1     135.814 139.812 125.106  1.00  0.00     0.008 C 
ATOM     10  C   UNL     1     134.875 139.014 122.906  1.00  0.00     0.008 C 
ENDBRANCH   5   8
TORSDOF 1
ENDMDL
MODEL 6
REMARK VINA RESULT:    -4.400     14.292     16.260
REMARK INTER + INTRA:          -4.844
REMARK INTER:                  -4.656
REMARK INTRA:                  -0.188
REMARK UNBOUND:                -0.187
REMARK SMILES CC1=CC[C@@H](C(C)C)C=C1
REMARK SMILES IDX 1 1 2 2 3 3 4 4 5 5 9 6 10 7 6 8 7 9 8 10
REMARK H PARENT
REMARK Flexibility Score: inf
ROOT
ATOM      1  C   UNL     1     155.125 140.258 123.741  1.00  0.00     0.044 C 
ATOM      2  C   UNL     1     154.331 139.000 123.933  1.00  0.00    -0.055 C 
ATOM      3  C   UNL     1     154.529 138.235 125.018  1.00  0.00    -0.023 C 
ATOM      4  C   UNL     1     153.638 137.053 125.300  1.00  0.00     0.035 C 
ATOM      5  C   UNL     1     153.174 136.382 123.983  1.00  0.00     0.018 C 
ATOM      6  C   UNL     1     152.697 137.432 123.001  1.00  0.00    -0.023 C 
ATOM      7  C   UNL     1     153.280 138.634 122.957  1.00  0.00    -0.001 C 
ENDROOT
BRANCH   5   8
ATOM      8  C   UNL     1     152.115 135.259 124.181  1.00  0.00    -0.010 C 
ATOM      9  C   UNL     1     151.106 135.614 125.283  1.00  0.00     0.008 C 
ATOM     10  C   UNL     1     151.376 134.875 122.887  1.00  0.00     0.008 C 
ENDBRANCH   5   8
TORSDOF 1
ENDMDL
MODEL 7
REMARK VINA RESULT:    -4.386     14.942     16.180
REMARK INTER + INTRA:          -4.829
REMARK INTER:                  -4.638
REMARK INTRA:                  -0.191
REMARK UNBOUND:                -0.187
REMARK SMILES CC1=CC[C@@H](C(C)C)C=C1
REMARK SMILES IDX 1 1 2 2 3 3 4 4 5 5 9 6 10 7 6 8 7 9 8 10
REMARK H PARENT
REMARK Flexibility Score: inf
ROOT
ATOM      1  C   UNL     1     137.951 152.868 120.135  1.00  0.00     0.044 C 
ATOM      2  C   UNL     1     137.167 152.808 121.412  1.00  0.00    -0.055 C 
ATOM      3  C   UNL     1     136.043 152.077 121.482  1.00  0.00    -0.023 C 
ATOM      4  C   UNL     1     135.328 151.887 122.795  1.00  0.00     0.035 C 
ATOM      5  C   UNL     1     135.461 153.148 123.686  1.00  0.00     0.018 C 
ATOM      6  C   UNL     1     136.897 153.627 123.705  1.00  0.00    -0.023 C 
ATOM      7  C   UNL     1     137.667 153.505 122.619  1.00  0.00    -0.001 C 
ENDROOT
BRANCH   5   8
ATOM      8  C   UNL     1     134.897 152.970 125.125  1.00  0.00    -0.010 C 
ATOM      9  C   UNL     1     134.877 151.496 125.553  1.00  0.00     0.008 C 
ATOM     10  C   UNL     1     135.625 153.821 126.180  1.00  0.00     0.008 C 
ENDBRANCH   5   8
TORSDOF 1
ENDMDL
MODEL 8
REMARK VINA RESULT:    -4.244      1.860      3.153
REMARK INTER + INTRA:          -4.679
REMARK INTER:                  -4.488
REMARK INTRA:                  -0.191
REMARK UNBOUND:                -0.187
REMARK SMILES CC1=CC[C@@H](C(C)C)C=C1
REMARK SMILES IDX 1 1 2 2 3 3 4 4 5 5 9 6 10 7 6 8 7 9 8 10
REMARK H PARENT
REMARK Flexibility Score: inf
ROOT
ATOM      1  C   UNL     1     137.866 138.249 120.176  1.00  0.00     0.044 C 
ATOM      2  C   UNL     1     137.878 137.422 121.427  1.00  0.00    -0.055 C 
ATOM      3  C   UNL     1     138.621 136.307 121.494  1.00  0.00    -0.023 C 
ATOM      4  C   UNL     1     138.760 135.550 122.790  1.00  0.00     0.035 C 
ATOM      5  C   UNL     1     137.456 135.635 123.623  1.00  0.00     0.018 C 
ATOM      6  C   UNL     1     136.957 137.064 123.668  1.00  0.00    -0.023 C 
ATOM      7  C   UNL     1     137.118 137.872 122.615  1.00  0.00    -0.001 C 
ENDROOT
BRANCH   5   8
ATOM      8  C   UNL     1     137.575 135.025 125.050  1.00  0.00    -0.010 C 
ATOM      9  C   UNL     1     139.039 134.875 125.488  1.00  0.00     0.008 C 
ATOM     10  C   UNL     1     136.777 135.795 126.116  1.00  0.00     0.008 C 
ENDBRANCH   5   8
TORSDOF 1
ENDMDL
