MODEL 1
REMARK VINA RESULT:    -3.028      0.000      0.000
REMARK INTER + INTRA:          -4.322
REMARK INTER:                  -4.089
REMARK INTRA:                  -0.233
REMARK UNBOUND:                -0.233
REMARK SMILES CCCCCCCC(=O)[O-]
REMARK SMILES IDX 5 1 6 2 7 3 8 4 9 5 10 6 4 7 3 8 2 9 1 10
REMARK H PARENT
REMARK Flexibility Score: inf
ROOT
ATOM      1  C   UNL     1       8.456  -3.004  -1.980  1.00  0.00     0.000 C 
ENDROOT
BRANCH   1   2
ATOM      2  C   UNL     1       8.884  -2.728  -0.527  1.00  0.00     0.006 C 
BRANCH   2   3
ATOM      3  C   UNL     1       9.029  -3.997   0.333  1.00  0.00     0.053 C 
BRANCH   3   4
ATOM      4  C   UNL     1       8.539  -3.800   1.735  1.00  0.00     0.041 C 
ATOM      5  O   UNL     1       8.720  -2.700   2.320  1.00  0.00    -0.550 OA
ATOM      6  O   UNL     1       7.850  -4.818   2.383  1.00  0.00    -0.550 OA
ENDBRANCH   3   4
ENDBRANCH   2   3
ENDBRANCH   1   2
BRANCH   1   7
ATOM      7  C   UNL     1       7.632  -1.862  -2.591  1.00  0.00     0.000 C 
BRANCH   7   8
ATOM      8  C   UNL     1       7.889  -0.542  -1.854  1.00  0.00    -0.000 C 
BRANCH   8   9
ATOM      9  C   UNL     1       7.252   0.637  -2.599  1.00  0.00    -0.003 C 
ATOM     10  C   UNL     1       6.440   0.159  -3.798  1.00  0.00     0.004 C 
ENDBRANCH   8   9
ENDBRANCH   7   8
ENDBRANCH   1   7
TORSDOF 6
ENDMDL
MODEL 2
REMARK VINA RESULT:    -2.995      0.872      1.263
REMARK INTER + INTRA:          -4.278
REMARK INTER:                  -4.018
REMARK INTRA:                  -0.260
REMARK UNBOUND:                -0.233
REMARK SMILES CCCCCCCC(=O)[O-]
REMARK SMILES IDX 5 1 6 2 7 3 8 4 9 5 10 6 4 7 3 8 2 9 1 10
REMARK H PARENT
REMARK Flexibility Score: inf
ROOT
ATOM      1  C   UNL     1       8.471  -3.663  -1.736  1.00  0.00     0.000 C 
ENDROOT
BRANCH   1   2
ATOM      2  C   UNL     1       8.973  -4.171  -0.372  1.00  0.00     0.006 C 
BRANCH   2   3
ATOM      3  C   UNL     1       9.049  -3.081   0.711  1.00  0.00     0.053 C 
BRANCH   3   4
ATOM      4  C   UNL     1       8.747  -3.609   2.081  1.00  0.00     0.041 C 
ATOM      5  O   UNL     1       9.347  -3.142   3.085  1.00  0.00    -0.550 OA
ATOM      6  O   UNL     1       7.779  -4.590   2.254  1.00  0.00    -0.550 OA
ENDBRANCH   3   4
ENDBRANCH   2   3
ENDBRANCH   1   2
BRANCH   1   7
ATOM      7  C   UNL     1       8.243  -2.145  -1.766  1.00  0.00     0.000 C 
BRANCH   7   8
ATOM      8  C   UNL     1       7.384  -1.741  -2.971  1.00  0.00    -0.000 C 
BRANCH   8   9
ATOM      9  C   UNL     1       7.071  -0.241  -2.945  1.00  0.00    -0.003 C 
ATOM     10  C   UNL     1       7.865   0.470  -1.854  1.00  0.00     0.004 C 
ENDBRANCH   8   9
ENDBRANCH   7   8
ENDBRANCH   1   7
TORSDOF 6
ENDMDL
MODEL 3
REMARK VINA RESULT:    -2.956      0.902      1.202
REMARK INTER + INTRA:          -4.226
REMARK INTER:                  -3.965
REMARK INTRA:                  -0.261
REMARK UNBOUND:                -0.233
REMARK SMILES CCCCCCCC(=O)[O-]
REMARK SMILES IDX 5 1 6 2 7 3 8 4 9 5 10 6 4 7 3 8 2 9 1 10
REMARK H PARENT
REMARK Flexibility Score: inf
ROOT
ATOM      1  C   UNL     1       8.696  -1.184  -0.827  1.00  0.00     0.000 C 
ENDROOT
BRANCH   1   2
ATOM      2  C   UNL     1       9.019  -1.707   0.585  1.00  0.00     0.006 C 
BRANCH   2   3
ATOM      3  C   UNL     1       8.987  -3.241   0.705  1.00  0.00     0.053 C 
BRANCH   3   4
ATOM      4  C   UNL     1       8.705  -3.702   2.103  1.00  0.00     0.041 C 
ATOM      5  O   UNL     1       9.292  -3.162   3.078  1.00  0.00    -0.550 OA
ATOM      6  O   UNL     1       7.769  -4.703   2.333  1.00  0.00    -0.550 OA
ENDBRANCH   3   4
ENDBRANCH   2   3
ENDBRANCH   1   2
BRANCH   1   7
ATOM      7  C   UNL     1       8.399  -2.307  -1.831  1.00  0.00     0.000 C 
BRANCH   7   8
ATOM      8  C   UNL     1       7.385  -1.849  -2.886  1.00  0.00    -0.000 C 
BRANCH   8   9
ATOM      9  C   UNL     1       7.188  -0.329  -2.837  1.00  0.00    -0.003 C 
ATOM     10  C   UNL     1       6.299   0.149  -3.981  1.00  0.00     0.004 C 
ENDBRANCH   8   9
ENDBRANCH   7   8
ENDBRANCH   1   7
TORSDOF 6
ENDMDL
MODEL 4
REMARK VINA RESULT:    -2.916      4.004      5.574
REMARK INTER + INTRA:          -4.171
REMARK INTER:                  -3.922
REMARK INTRA:                  -0.249
REMARK UNBOUND:                -0.233
REMARK SMILES CCCCCCCC(=O)[O-]
REMARK SMILES IDX 5 1 6 2 7 3 8 4 9 5 10 6 4 7 3 8 2 9 1 10
REMARK H PARENT
REMARK Flexibility Score: inf
ROOT
ATOM      1  C   UNL     1       8.789   0.843  -0.162  1.00  0.00     0.000 C 
ENDROOT
BRANCH   1   2
ATOM      2  C   UNL     1       8.185   2.167  -0.665  1.00  0.00     0.006 C 
BRANCH   2   3
ATOM      3  C   UNL     1       8.384   3.350   0.299  1.00  0.00     0.053 C 
BRANCH   3   4
ATOM      4  C   UNL     1       7.097   3.820   0.906  1.00  0.00     0.041 C 
ATOM      5  O   UNL     1       6.199   4.318   0.177  1.00  0.00    -0.550 OA
ATOM      6  O   UNL     1       6.874   3.676   2.269  1.00  0.00    -0.550 OA
ENDBRANCH   3   4
ENDBRANCH   2   3
ENDBRANCH   1   2
BRANCH   1   7
ATOM      7  C   UNL     1       8.568  -0.326  -1.133  1.00  0.00     0.000 C 
BRANCH   7   8
ATOM      8  C   UNL     1       7.642   0.082  -2.285  1.00  0.00    -0.000 C 
BRANCH   8   9
ATOM      9  C   UNL     1       7.172  -1.144  -3.076  1.00  0.00    -0.003 C 
ATOM     10  C   UNL     1       7.796  -2.424  -2.529  1.00  0.00     0.004 C 
ENDBRANCH   8   9
ENDBRANCH   7   8
ENDBRANCH   1   7
TORSDOF 6
ENDMDL
MODEL 5
REMARK VINA RESULT:    -2.911      1.159      1.883
REMARK INTER + INTRA:          -4.164
REMARK INTER:                  -3.992
REMARK INTRA:                  -0.172
REMARK UNBOUND:                -0.233
REMARK SMILES CCCCCCCC(=O)[O-]
REMARK SMILES IDX 5 1 6 2 7 3 8 4 9 5 10 6 4 7 3 8 2 9 1 10
REMARK H PARENT
REMARK Flexibility Score: inf
ROOT
ATOM      1  C   UNL     1       8.651  -3.488  -1.305  1.00  0.00     0.000 C 
ENDROOT
BRANCH   1   2
ATOM      2  C   UNL     1       9.112  -3.573   0.162  1.00  0.00     0.006 C 
BRANCH   2   3
ATOM      3  C   UNL     1       9.539  -4.984   0.602  1.00  0.00     0.053 C 
BRANCH   3   4
ATOM      4  C   UNL     1       8.545  -5.625   1.523  1.00  0.00     0.041 C 
ATOM      5  O   UNL     1       8.386  -6.874   1.512  1.00  0.00    -0.550 OA
ATOM      6  O   UNL     1       7.822  -4.847   2.419  1.00  0.00    -0.550 OA
ENDBRANCH   3   4
ENDBRANCH   2   3
ENDBRANCH   1   2
BRANCH   1   7
ATOM      7  C   UNL     1       8.356  -2.053  -1.761  1.00  0.00     0.000 C 
BRANCH   7   8
ATOM      8  C   UNL     1       7.455  -2.043  -3.002  1.00  0.00    -0.000 C 
BRANCH   8   9
ATOM      9  C   UNL     1       6.899  -0.640  -3.269  1.00  0.00    -0.003 C 
ATOM     10  C   UNL     1       7.452   0.371  -2.269  1.00  0.00     0.004 C 
ENDBRANCH   8   9
ENDBRANCH   7   8
ENDBRANCH   1   7
TORSDOF 6
ENDMDL
MODEL 6
REMARK VINA RESULT:    -2.724      3.410      5.143
REMARK INTER + INTRA:          -3.913
REMARK INTER:                  -3.670
REMARK INTRA:                  -0.243
REMARK UNBOUND:                -0.233
REMARK SMILES CCCCCCCC(=O)[O-]
REMARK SMILES IDX 5 1 6 2 7 3 8 4 9 5 10 6 4 7 3 8 2 9 1 10
REMARK H PARENT
REMARK Flexibility Score: inf
ROOT
ATOM      1  C   UNL     1       7.550   1.398  -1.998  1.00  0.00     0.000 C 
ENDROOT
BRANCH   1   2
ATOM      2  C   UNL     1       8.342   1.743  -0.723  1.00  0.00     0.006 C 
BRANCH   2   3
ATOM      3  C   UNL     1       8.056   3.151  -0.173  1.00  0.00     0.053 C 
BRANCH   3   4
ATOM      4  C   UNL     1       7.595   3.129   1.253  1.00  0.00     0.041 C 
ATOM      5  O   UNL     1       6.817   4.022   1.680  1.00  0.00    -0.550 OA
ATOM      6  O   UNL     1       7.993   2.102   2.100  1.00  0.00    -0.550 OA
ENDBRANCH   3   4
ENDBRANCH   2   3
ENDBRANCH   1   2
BRANCH   1   7
ATOM      7  C   UNL     1       7.656  -0.083  -2.390  1.00  0.00     0.000 C 
BRANCH   7   8
ATOM      8  C   UNL     1       8.398  -0.885  -1.314  1.00  0.00    -0.000 C 
BRANCH   8   9
ATOM      9  C   UNL     1       8.444  -2.375  -1.671  1.00  0.00    -0.003 C 
ATOM     10  C   UNL     1       7.602  -2.671  -2.909  1.00  0.00     0.004 C 
ENDBRANCH   8   9
ENDBRANCH   7   8
ENDBRANCH   1   7
TORSDOF 6
ENDMDL
MODEL 7
REMARK VINA RESULT:    -2.679      1.681      2.932
REMARK INTER + INTRA:          -3.852
REMARK INTER:                  -3.599
REMARK INTRA:                  -0.253
REMARK UNBOUND:                -0.233
REMARK SMILES CCCCCCCC(=O)[O-]
REMARK SMILES IDX 5 1 6 2 7 3 8 4 9 5 10 6 4 7 3 8 2 9 1 10
REMARK H PARENT
REMARK Flexibility Score: inf
ROOT
ATOM      1  C   UNL     1       7.985  -0.032  -1.744  1.00  0.00     0.000 C 
ENDROOT
BRANCH   1   2
ATOM      2  C   UNL     1       8.824  -0.067  -0.453  1.00  0.00     0.006 C 
BRANCH   2   3
ATOM      3  C   UNL     1       8.942  -1.466   0.176  1.00  0.00     0.053 C 
BRANCH   3   4
ATOM      4  C   UNL     1       8.768  -1.444   1.665  1.00  0.00     0.041 C 
ATOM      5  O   UNL     1       8.804  -2.517   2.322  1.00  0.00    -0.550 OA
ATOM      6  O   UNL     1       8.601  -0.236   2.330  1.00  0.00    -0.550 OA
ENDBRANCH   3   4
ENDBRANCH   2   3
ENDBRANCH   1   2
BRANCH   1   7
ATOM      7  C   UNL     1       7.842  -1.409  -2.407  1.00  0.00     0.000 C 
BRANCH   7   8
ATOM      8  C   UNL     1       6.924  -1.337  -3.633  1.00  0.00    -0.000 C 
BRANCH   8   9
ATOM      9  C   UNL     1       6.675  -2.732  -4.217  1.00  0.00    -0.003 C 
ATOM     10  C   UNL     1       7.442  -3.799  -3.442  1.00  0.00     0.004 C 
ENDBRANCH   8   9
ENDBRANCH   7   8
ENDBRANCH   1   7
TORSDOF 6
ENDMDL
MODEL 8
REMARK VINA RESULT:    -2.610      1.645      2.166
REMARK INTER + INTRA:          -3.758
REMARK INTER:                  -3.527
REMARK INTRA:                  -0.231
REMARK UNBOUND:                -0.233
REMARK SMILES CCCCCCCC(=O)[O-]
REMARK SMILES IDX 5 1 6 2 7 3 8 4 9 5 10 6 4 7 3 8 2 9 1 10
REMARK H PARENT
REMARK Flexibility Score: inf
ROOT
ATOM      1  C   UNL     1       7.279  -1.833  -3.243  1.00  0.00     0.000 C 
ENDROOT
BRANCH   1   2
ATOM      2  C   UNL     1       8.203  -2.087  -2.037  1.00  0.00     0.006 C 
BRANCH   2   3
ATOM      3  C   UNL     1       8.513  -3.574  -1.790  1.00  0.00     0.053 C 
BRANCH   3   4
ATOM      4  C   UNL     1       9.328  -3.793  -0.552  1.00  0.00     0.041 C 
ATOM      5  O   UNL     1      10.585  -3.738  -0.603  1.00  0.00    -0.550 OA
ATOM      6  O   UNL     1       8.700  -4.023   0.666  1.00  0.00    -0.550 OA
ENDBRANCH   3   4
ENDBRANCH   2   3
ENDBRANCH   1   2
BRANCH   1   7
ATOM      7  C   UNL     1       6.850  -0.365  -3.374  1.00  0.00     0.000 C 
BRANCH   7   8
ATOM      8  C   UNL     1       7.431   0.482  -2.235  1.00  0.00    -0.000 C 
BRANCH   8   9
ATOM      9  C   UNL     1       7.251   1.978  -2.514  1.00  0.00    -0.003 C 
ATOM     10  C   UNL     1       6.074   2.226  -3.453  1.00  0.00     0.004 C 
ENDBRANCH   8   9
ENDBRANCH   7   8
ENDBRANCH   1   7
TORSDOF 6
ENDMDL
MODEL 9
REMARK VINA RESULT:    -2.498      1.514      2.414
REMARK INTER + INTRA:          -3.607
REMARK INTER:                  -3.111
REMARK INTRA:                  -0.496
REMARK UNBOUND:                -0.233
REMARK SMILES CCCCCCCC(=O)[O-]
REMARK SMILES IDX 5 1 6 2 7 3 8 4 9 5 10 6 4 7 3 8 2 9 1 10
REMARK H PARENT
REMARK Flexibility Score: inf
ROOT
ATOM      1  C   UNL     1       9.982  -0.907   0.245  1.00  0.00     0.000 C 
ENDROOT
BRANCH   1   2
ATOM      2  C   UNL     1      10.035  -2.364   0.742  1.00  0.00     0.006 C 
BRANCH   2   3
ATOM      3  C   UNL     1       8.816  -2.782   1.582  1.00  0.00     0.053 C 
BRANCH   3   4
ATOM      4  C   UNL     1       8.562  -4.258   1.533  1.00  0.00     0.041 C 
ATOM      5  O   UNL     1       7.795  -4.797   2.374  1.00  0.00    -0.550 OA
ATOM      6  O   UNL     1       9.142  -5.033   0.536  1.00  0.00    -0.550 OA
ENDBRANCH   3   4
ENDBRANCH   2   3
ENDBRANCH   1   2
BRANCH   1   7
ATOM      7  C   UNL     1       8.655  -0.554  -0.442  1.00  0.00     0.000 C 
BRANCH   7   8
ATOM      8  C   UNL     1       8.743  -0.772  -1.957  1.00  0.00    -0.000 C 
BRANCH   8   9
ATOM      9  C   UNL     1       7.645  -1.725  -2.441  1.00  0.00    -0.003 C 
ATOM     10  C   UNL     1       8.115  -3.176  -2.400  1.00  0.00     0.004 C 
ENDBRANCH   8   9
ENDBRANCH   7   8
ENDBRANCH   1   7
TORSDOF 6
ENDMDL
