MODEL 1
REMARK VINA RESULT:    -4.131      0.000      0.000
REMARK INTER + INTRA:          -4.712
REMARK INTER:                  -4.614
REMARK INTRA:                  -0.098
REMARK UNBOUND:                -0.098
REMARK SMILES O=C([O-])c1ccccc1C(=O)[O-]
REMARK SMILES IDX 4 1 9 2 5 3 8 4 6 5 7 6 2 7 1 8 3 9 10 10 11 11 12 12
REMARK H PARENT
REMARK Flexibility Score: inf
ROOT
ATOM      1  C   UNL     1      -2.295  37.487  17.551  1.00  0.00     0.006 A 
ATOM      2  C   UNL     1      -2.970  37.378  18.798  1.00  0.00     0.006 A 
ATOM      3  C   UNL     1      -0.934  37.848  17.537  1.00  0.00     0.010 A 
ATOM      4  C   UNL     1      -2.275  37.695  19.982  1.00  0.00     0.010 A 
ATOM      5  C   UNL     1      -0.260  38.135  18.725  1.00  0.00     0.001 A 
ATOM      6  C   UNL     1      -0.932  38.071  19.943  1.00  0.00     0.001 A 
ENDROOT
BRANCH   1   7
ATOM      7  C   UNL     1      -2.985  37.310  16.252  1.00  0.00     0.072 C 
ATOM      8  O   UNL     1      -3.129  36.159  15.763  1.00  0.00    -0.545 OA
ATOM      9  O   UNL     1      -3.424  38.412  15.527  1.00  0.00    -0.545 OA
ENDBRANCH   1   7
BRANCH   2  10
ATOM     10  C   UNL     1      -4.356  36.872  18.915  1.00  0.00     0.072 C 
ATOM     11  O   UNL     1      -5.260  37.604  19.398  1.00  0.00    -0.545 OA
ATOM     12  O   UNL     1      -4.666  35.565  18.556  1.00  0.00    -0.545 OA
ENDBRANCH   2  10
TORSDOF 2
ENDMDL
MODEL 2
REMARK VINA RESULT:    -4.113      0.084      3.153
REMARK INTER + INTRA:          -4.692
REMARK INTER:                  -4.577
REMARK INTRA:                  -0.115
REMARK UNBOUND:                -0.098
REMARK SMILES O=C([O-])c1ccccc1C(=O)[O-]
REMARK SMILES IDX 4 1 9 2 5 3 8 4 6 5 7 6 2 7 1 8 3 9 10 10 11 11 12 12
REMARK H PARENT
REMARK Flexibility Score: inf
ROOT
ATOM      1  C   UNL     1      -2.926  37.440  18.817  1.00  0.00     0.006 A 
ATOM      2  C   UNL     1      -2.275  37.526  17.556  1.00  0.00     0.006 A 
ATOM      3  C   UNL     1      -2.203  37.754  19.984  1.00  0.00     0.010 A 
ATOM      4  C   UNL     1      -0.908  37.862  17.513  1.00  0.00     0.010 A 
ATOM      5  C   UNL     1      -0.855  38.106  19.915  1.00  0.00     0.001 A 
ATOM      6  C   UNL     1      -0.206  38.148  18.684  1.00  0.00     0.001 A 
ENDROOT
BRANCH   1   7
ATOM      7  C   UNL     1      -4.320  36.959  18.965  1.00  0.00     0.072 C 
ATOM      8  O   UNL     1      -5.206  37.721  19.434  1.00  0.00    -0.545 OA
ATOM      9  O   UNL     1      -4.654  35.647  18.651  1.00  0.00    -0.545 OA
ENDBRANCH   1   7
BRANCH   2  10
ATOM     10  C   UNL     1      -2.992  37.350  16.273  1.00  0.00     0.072 C 
ATOM     11  O   UNL     1      -3.169  36.197  15.798  1.00  0.00    -0.545 OA
ATOM     12  O   UNL     1      -3.424  38.452  15.544  1.00  0.00    -0.545 OA
ENDBRANCH   2  10
TORSDOF 2
ENDMDL
MODEL 3
REMARK VINA RESULT:    -4.038      2.099      3.077
REMARK INTER + INTRA:          -4.609
REMARK INTER:                  -4.722
REMARK INTRA:                   0.113
REMARK UNBOUND:                -0.098
REMARK SMILES O=C([O-])c1ccccc1C(=O)[O-]
REMARK SMILES IDX 4 1 9 2 5 3 8 4 6 5 7 6 2 7 1 8 3 9 10 10 11 11 12 12
REMARK H PARENT
REMARK Flexibility Score: inf
ROOT
ATOM      1  C   UNL     1      -3.847  36.345  18.794  1.00  0.00     0.006 A 
ATOM      2  C   UNL     1      -3.291  36.727  20.046  1.00  0.00     0.006 A 
ATOM      3  C   UNL     1      -3.383  36.968  17.619  1.00  0.00     0.010 A 
ATOM      4  C   UNL     1      -2.336  37.761  20.083  1.00  0.00     0.010 A 
ATOM      5  C   UNL     1      -2.420  37.974  17.678  1.00  0.00     0.001 A 
ATOM      6  C   UNL     1      -1.906  38.379  18.908  1.00  0.00     0.001 A 
ENDROOT
BRANCH   1   7
ATOM      7  C   UNL     1      -4.955  35.368  18.677  1.00  0.00     0.072 C 
ATOM      8  O   UNL     1      -4.870  34.408  17.867  1.00  0.00    -0.545 OA
ATOM      9  O   UNL     1      -6.125  35.532  19.410  1.00  0.00    -0.545 OA
ENDBRANCH   1   7
BRANCH   2  10
ATOM     10  C   UNL     1      -3.617  36.030  21.310  1.00  0.00     0.072 C 
ATOM     11  O   UNL     1      -2.861  35.124  21.749  1.00  0.00    -0.545 OA
ATOM     12  O   UNL     1      -4.792  36.318  21.996  1.00  0.00    -0.545 OA
ENDBRANCH   2  10
TORSDOF 2
ENDMDL
MODEL 4
REMARK VINA RESULT:    -4.017      2.150      3.584
REMARK INTER + INTRA:          -4.584
REMARK INTER:                  -4.612
REMARK INTRA:                   0.027
REMARK UNBOUND:                -0.098
REMARK SMILES O=C([O-])c1ccccc1C(=O)[O-]
REMARK SMILES IDX 4 1 9 2 5 3 8 4 6 5 7 6 2 7 1 8 3 9 10 10 11 11 12 12
REMARK H PARENT
REMARK Flexibility Score: inf
ROOT
ATOM      1  C   UNL     1      -3.362  36.773  19.931  1.00  0.00     0.006 A 
ATOM      2  C   UNL     1      -3.897  36.343  18.685  1.00  0.00     0.006 A 
ATOM      3  C   UNL     1      -2.369  37.771  19.943  1.00  0.00     0.010 A 
ATOM      4  C   UNL     1      -3.374  36.883  17.494  1.00  0.00     0.010 A 
ATOM      5  C   UNL     1      -1.883  38.308  18.751  1.00  0.00     0.001 A 
ATOM      6  C   UNL     1      -2.375  37.856  17.529  1.00  0.00     0.001 A 
ENDROOT
BRANCH   1   7
ATOM      7  C   UNL     1      -3.752  36.158  21.222  1.00  0.00     0.072 C 
ATOM      8  O   UNL     1      -3.087  35.198  21.693  1.00  0.00    -0.545 OA
ATOM      9  O   UNL     1      -4.890  36.587  21.895  1.00  0.00    -0.545 OA
ENDBRANCH   1   7
BRANCH   2  10
ATOM     10  C   UNL     1      -5.036  35.403  18.587  1.00  0.00     0.072 C 
ATOM     11  O   UNL     1      -6.125  35.664  19.164  1.00  0.00    -0.545 OA
ATOM     12  O   UNL     1      -4.903  34.194  17.913  1.00  0.00    -0.545 OA
ENDBRANCH   2  10
TORSDOF 2
ENDMDL
MODEL 5
REMARK VINA RESULT:    -3.998      2.157      3.963
REMARK INTER + INTRA:          -4.564
REMARK INTER:                  -4.489
REMARK INTRA:                  -0.074
REMARK UNBOUND:                -0.098
REMARK SMILES O=C([O-])c1ccccc1C(=O)[O-]
REMARK SMILES IDX 4 1 9 2 5 3 8 4 6 5 7 6 2 7 1 8 3 9 10 10 11 11 12 12
REMARK H PARENT
REMARK Flexibility Score: inf
ROOT
ATOM      1  C   UNL     1      -3.126  37.094  18.162  1.00  0.00     0.006 A 
ATOM      2  C   UNL     1      -1.842  37.660  17.932  1.00  0.00     0.006 A 
ATOM      3  C   UNL     1      -3.757  36.381  17.125  1.00  0.00     0.010 A 
ATOM      4  C   UNL     1      -1.264  37.545  16.653  1.00  0.00     0.010 A 
ATOM      5  C   UNL     1      -3.155  36.261  15.873  1.00  0.00     0.001 A 
ATOM      6  C   UNL     1      -1.917  36.852  15.633  1.00  0.00     0.001 A 
ENDROOT
BRANCH   1   7
ATOM      7  C   UNL     1      -3.868  37.288  19.430  1.00  0.00     0.072 C 
ATOM      8  O   UNL     1      -4.609  38.294  19.584  1.00  0.00    -0.545 OA
ATOM      9  O   UNL     1      -3.707  36.400  20.488  1.00  0.00    -0.545 OA
ENDBRANCH   1   7
BRANCH   2  10
ATOM     10  C   UNL     1      -1.048  38.303  19.003  1.00  0.00     0.072 C 
ATOM     11  O   UNL     1      -0.613  39.475  18.854  1.00  0.00    -0.545 OA
ATOM     12  O   UNL     1      -0.717  37.603  20.158  1.00  0.00    -0.545 OA
ENDBRANCH   2  10
TORSDOF 2
ENDMDL
MODEL 6
REMARK VINA RESULT:    -3.980      2.126      3.258
REMARK INTER + INTRA:          -4.544
REMARK INTER:                  -4.470
REMARK INTRA:                  -0.074
REMARK UNBOUND:                -0.098
REMARK SMILES O=C([O-])c1ccccc1C(=O)[O-]
REMARK SMILES IDX 4 1 9 2 5 3 8 4 6 5 7 6 2 7 1 8 3 9 10 10 11 11 12 12
REMARK H PARENT
REMARK Flexibility Score: inf
ROOT
ATOM      1  C   UNL     1      -1.883  37.669  17.918  1.00  0.00     0.006 A 
ATOM      2  C   UNL     1      -3.167  37.092  18.128  1.00  0.00     0.006 A 
ATOM      3  C   UNL     1      -1.281  37.558  16.651  1.00  0.00     0.010 A 
ATOM      4  C   UNL     1      -3.773  36.373  17.080  1.00  0.00     0.010 A 
ATOM      5  C   UNL     1      -1.911  36.859  15.620  1.00  0.00     0.001 A 
ATOM      6  C   UNL     1      -3.148  36.258  15.838  1.00  0.00     0.001 A 
ENDROOT
BRANCH   1   7
ATOM      7  C   UNL     1      -1.114  38.320  19.004  1.00  0.00     0.072 C 
ATOM      8  O   UNL     1      -0.665  39.487  18.851  1.00  0.00    -0.545 OA
ATOM      9  O   UNL     1      -0.822  37.633  20.177  1.00  0.00    -0.545 OA
ENDBRANCH   1   7
BRANCH   2  10
ATOM     10  C   UNL     1      -3.931  37.280  19.382  1.00  0.00     0.072 C 
ATOM     11  O   UNL     1      -4.638  38.310  19.546  1.00  0.00    -0.545 OA
ATOM     12  O   UNL     1      -3.830  36.360  20.419  1.00  0.00    -0.545 OA
ENDBRANCH   2  10
TORSDOF 2
ENDMDL
MODEL 7
REMARK VINA RESULT:    -3.799      2.119      3.296
REMARK INTER + INTRA:          -4.341
REMARK INTER:                  -4.328
REMARK INTRA:                  -0.013
REMARK UNBOUND:                -0.098
REMARK SMILES O=C([O-])c1ccccc1C(=O)[O-]
REMARK SMILES IDX 4 1 9 2 5 3 8 4 6 5 7 6 2 7 1 8 3 9 10 10 11 11 12 12
REMARK H PARENT
REMARK Flexibility Score: inf
ROOT
ATOM      1  C   UNL     1      -3.183  37.024  18.075  1.00  0.00     0.006 A 
ATOM      2  C   UNL     1      -2.509  37.375  19.277  1.00  0.00     0.006 A 
ATOM      3  C   UNL     1      -4.426  36.368  18.153  1.00  0.00     0.010 A 
ATOM      4  C   UNL     1      -3.074  37.002  20.512  1.00  0.00     0.010 A 
ATOM      5  C   UNL     1      -4.978  36.029  19.388  1.00  0.00     0.001 A 
ATOM      6  C   UNL     1      -4.298  36.334  20.565  1.00  0.00     0.001 A 
ENDROOT
BRANCH   1   7
ATOM      7  C   UNL     1      -2.594  37.251  16.735  1.00  0.00     0.072 C 
ATOM      8  O   UNL     1      -3.009  38.195  16.012  1.00  0.00    -0.545 OA
ATOM      9  O   UNL     1      -1.625  36.391  16.231  1.00  0.00    -0.545 OA
ENDBRANCH   1   7
BRANCH   2  10
ATOM     10  C   UNL     1      -1.270  38.185  19.291  1.00  0.00     0.072 C 
ATOM     11  O   UNL     1      -1.225  39.285  18.679  1.00  0.00    -0.545 OA
ATOM     12  O   UNL     1      -0.122  37.717  19.921  1.00  0.00    -0.545 OA
ENDBRANCH   2  10
TORSDOF 2
ENDMDL
MODEL 8
REMARK VINA RESULT:    -3.791      2.119      3.840
REMARK INTER + INTRA:          -4.333
REMARK INTER:                  -4.325
REMARK INTRA:                  -0.008
REMARK UNBOUND:                -0.098
REMARK SMILES O=C([O-])c1ccccc1C(=O)[O-]
REMARK SMILES IDX 4 1 9 2 5 3 8 4 6 5 7 6 2 7 1 8 3 9 10 10 11 11 12 12
REMARK H PARENT
REMARK Flexibility Score: inf
ROOT
ATOM      1  C   UNL     1      -2.487  37.390  19.267  1.00  0.00     0.006 A 
ATOM      2  C   UNL     1      -3.152  37.017  18.066  1.00  0.00     0.006 A 
ATOM      3  C   UNL     1      -3.069  37.055  20.505  1.00  0.00     0.010 A 
ATOM      4  C   UNL     1      -4.405  36.378  18.148  1.00  0.00     0.010 A 
ATOM      5  C   UNL     1      -4.300  36.402  20.561  1.00  0.00     0.001 A 
ATOM      6  C   UNL     1      -4.973  36.075  19.386  1.00  0.00     0.001 A 
ENDROOT
BRANCH   1   7
ATOM      7  C   UNL     1      -1.238  38.187  19.273  1.00  0.00     0.072 C 
ATOM      8  O   UNL     1      -1.173  39.267  18.630  1.00  0.00    -0.545 OA
ATOM      9  O   UNL     1      -0.105  37.724  19.933  1.00  0.00    -0.545 OA
ENDBRANCH   1   7
BRANCH   2  10
ATOM     10  C   UNL     1      -2.548  37.204  16.728  1.00  0.00     0.072 C 
ATOM     11  O   UNL     1      -2.929  38.147  15.986  1.00  0.00    -0.545 OA
ATOM     12  O   UNL     1      -1.602  36.306  16.245  1.00  0.00    -0.545 OA
ENDBRANCH   2  10
TORSDOF 2
ENDMDL
MODEL 9
REMARK VINA RESULT:    -3.582      2.242      4.731
REMARK INTER + INTRA:          -4.099
REMARK INTER:                  -4.104
REMARK INTRA:                   0.006
REMARK UNBOUND:                -0.098
REMARK SMILES O=C([O-])c1ccccc1C(=O)[O-]
REMARK SMILES IDX 4 1 9 2 5 3 8 4 6 5 7 6 2 7 1 8 3 9 10 10 11 11 12 12
REMARK H PARENT
REMARK Flexibility Score: inf
ROOT
ATOM      1  C   UNL     1      -5.102  36.792  19.915  1.00  0.00     0.006 A 
ATOM      2  C   UNL     1      -4.055  36.713  18.955  1.00  0.00     0.006 A 
ATOM      3  C   UNL     1      -6.079  35.779  19.948  1.00  0.00     0.010 A 
ATOM      4  C   UNL     1      -4.059  35.657  18.024  1.00  0.00     0.010 A 
ATOM      5  C   UNL     1      -6.050  34.730  19.029  1.00  0.00     0.001 A 
ATOM      6  C   UNL     1      -5.050  34.675  18.061  1.00  0.00     0.001 A 
ENDROOT
BRANCH   1   7
ATOM      7  C   UNL     1      -5.253  37.941  20.838  1.00  0.00     0.072 C 
ATOM      8  O   UNL     1      -5.275  37.754  22.084  1.00  0.00    -0.545 OA
ATOM      9  O   UNL     1      -5.438  39.227  20.345  1.00  0.00    -0.545 OA
ENDBRANCH   1   7
BRANCH   2  10
ATOM     10  C   UNL     1      -2.913  37.655  18.940  1.00  0.00     0.072 C 
ATOM     11  O   UNL     1      -2.598  38.253  17.878  1.00  0.00    -0.545 OA
ATOM     12  O   UNL     1      -2.133  37.843  20.076  1.00  0.00    -0.545 OA
ENDBRANCH   2  10
TORSDOF 2
ENDMDL
