MODEL 1
REMARK VINA RESULT:    -4.654      0.000      0.000
REMARK INTER + INTRA:         -14.068
REMARK INTER:                 -10.639
REMARK INTRA:                  -3.429
REMARK UNBOUND:                -3.429
REMARK SMILES CCCCCCCCCCCCCCCCCCCCCCCC(=O)[O-]
REMARK SMILES IDX 13 1 14 2 15 3 16 4 17 5 18 6 19 7 20 8 21 9 22 10 23 11
REMARK SMILES IDX 24 12 25 13 26 14 12 15 11 16 10 17 9 18 8 19 7 20 6 21 5 22
REMARK SMILES IDX 4 23 3 24 2 25 1 26
REMARK H PARENT
REMARK Flexibility Score: inf
ROOT
ATOM      1  C   UNL     1      13.947  33.519  56.392  1.00  0.00     0.000 C 
ENDROOT
BRANCH   1   2
ATOM      2  C   UNL     1      12.419  33.580  56.246  1.00  0.00     0.000 C 
BRANCH   2   3
ATOM      3  C   UNL     1      11.967  33.970  54.829  1.00  0.00     0.000 C 
BRANCH   3   4
ATOM      4  C   UNL     1      13.155  33.989  53.860  1.00  0.00     0.000 C 
BRANCH   4   5
ATOM      5  C   UNL     1      12.711  33.616  52.437  1.00  0.00     0.000 C 
BRANCH   5   6
ATOM      6  C   UNL     1      13.622  32.551  51.790  1.00  0.00     0.000 C 
BRANCH   6   7
ATOM      7  C   UNL     1      14.975  32.367  52.505  1.00  0.00     0.000 C 
BRANCH   7   8
ATOM      8  C   UNL     1      15.788  31.135  52.065  1.00  0.00     0.000 C 
BRANCH   8   9
ATOM      9  C   UNL     1      15.104  30.247  51.007  1.00  0.00     0.000 C 
BRANCH   9  10
ATOM     10  C   UNL     1      14.722  28.860  51.551  1.00  0.00     0.006 C 
BRANCH  10  11
ATOM     11  C   UNL     1      15.232  27.724  50.652  1.00  0.00     0.053 C 
BRANCH  11  12
ATOM     12  C   UNL     1      14.352  26.514  50.731  1.00  0.00     0.041 C 
ATOM     13  O   UNL     1      14.597  25.505  50.018  1.00  0.00    -0.550 OA
ATOM     14  O   UNL     1      13.282  26.489  51.615  1.00  0.00    -0.550 OA
ENDBRANCH  11  12
ENDBRANCH  10  11
ENDBRANCH   9  10
ENDBRANCH   8   9
ENDBRANCH   7   8
ENDBRANCH   6   7
ENDBRANCH   5   6
ENDBRANCH   4   5
ENDBRANCH   3   4
ENDBRANCH   2   3
ENDBRANCH   1   2
BRANCH   1  15
ATOM     15  C   UNL     1      14.434  32.195  57.004  1.00  0.00     0.000 C 
BRANCH  15  16
ATOM     16  C   UNL     1      15.967  32.078  57.014  1.00  0.00     0.000 C 
BRANCH  16  17
ATOM     17  C   UNL     1      16.477  30.638  56.784  1.00  0.00     0.000 C 
BRANCH  17  18
ATOM     18  C   UNL     1      15.771  29.953  55.599  1.00  0.00    -0.000 C 
BRANCH  18  19
ATOM     19  C   UNL     1      16.421  28.601  55.231  1.00  0.00    -0.000 C 
BRANCH  19  20
ATOM     20  C   UNL     1      15.423  27.428  55.156  1.00  0.00    -0.000 C 
BRANCH  20  21
ATOM     21  C   UNL     1      15.783  26.332  54.138  1.00  0.00    -0.000 C 
BRANCH  21  22
ATOM     22  C   UNL     1      17.295  26.071  54.047  1.00  0.00    -0.000 C 
BRANCH  22  23
ATOM     23  C   UNL     1      17.794  25.980  52.595  1.00  0.00    -0.000 C 
BRANCH  23  24
ATOM     24  C   UNL     1      18.952  26.952  52.278  1.00  0.00    -0.000 C 
BRANCH  24  25
ATOM     25  C   UNL     1      18.489  28.412  52.127  1.00  0.00    -0.003 C 
ATOM     26  C   UNL     1      19.219  29.356  53.082  1.00  0.00     0.004 C 
ENDBRANCH  24  25
ENDBRANCH  23  24
ENDBRANCH  22  23
ENDBRANCH  21  22
ENDBRANCH  20  21
ENDBRANCH  19  20
ENDBRANCH  18  19
ENDBRANCH  17  18
ENDBRANCH  16  17
ENDBRANCH  15  16
ENDBRANCH   1  15
TORSDOF 22
ENDMDL
MODEL 2
REMARK VINA RESULT:    -4.631      3.001      6.357
REMARK INTER + INTRA:         -14.016
REMARK INTER:                 -10.137
REMARK INTRA:                  -3.879
REMARK UNBOUND:                -3.429
REMARK SMILES CCCCCCCCCCCCCCCCCCCCCCCC(=O)[O-]
REMARK SMILES IDX 13 1 14 2 15 3 16 4 17 5 18 6 19 7 20 8 21 9 22 10 23 11
REMARK SMILES IDX 24 12 25 13 26 14 12 15 11 16 10 17 9 18 8 19 7 20 6 21 5 22
REMARK SMILES IDX 4 23 3 24 2 25 1 26
REMARK H PARENT
REMARK Flexibility Score: inf
ROOT
ATOM      1  C   UNL     1      16.081  27.193  48.653  1.00  0.00     0.000 C 
ENDROOT
BRANCH   1   2
ATOM      2  C   UNL     1      15.747  28.381  49.567  1.00  0.00     0.000 C 
BRANCH   2   3
ATOM      3  C   UNL     1      14.883  29.447  48.874  1.00  0.00     0.000 C 
BRANCH   3   4
ATOM      4  C   UNL     1      14.616  30.632  49.810  1.00  0.00     0.000 C 
BRANCH   4   5
ATOM      5  C   UNL     1      14.901  30.255  51.271  1.00  0.00     0.000 C 
BRANCH   5   6
ATOM      6  C   UNL     1      15.458  31.436  52.093  1.00  0.00     0.000 C 
BRANCH   6   7
ATOM      7  C   UNL     1      16.589  31.045  53.064  1.00  0.00     0.000 C 
BRANCH   7   8
ATOM      8  C   UNL     1      16.699  29.539  53.373  1.00  0.00     0.000 C 
BRANCH   8   9
ATOM      9  C   UNL     1      16.859  29.191  54.865  1.00  0.00     0.000 C 
BRANCH   9  10
ATOM     10  C   UNL     1      15.780  29.842  55.747  1.00  0.00     0.006 C 
BRANCH  10  11
ATOM     11  C   UNL     1      16.384  30.743  56.834  1.00  0.00     0.053 C 
BRANCH  11  12
ATOM     12  C   UNL     1      15.789  32.118  56.811  1.00  0.00     0.041 C 
ATOM     13  O   UNL     1      16.092  32.955  57.703  1.00  0.00    -0.550 OA
ATOM     14  O   UNL     1      14.926  32.486  55.788  1.00  0.00    -0.550 OA
ENDBRANCH  11  12
ENDBRANCH  10  11
ENDBRANCH   9  10
ENDBRANCH   8   9
ENDBRANCH   7   8
ENDBRANCH   6   7
ENDBRANCH   5   6
ENDBRANCH   4   5
ENDBRANCH   3   4
ENDBRANCH   2   3
ENDBRANCH   1   2
BRANCH   1  15
ATOM     15  C   UNL     1      16.896  26.102  49.368  1.00  0.00     0.000 C 
BRANCH  15  16
ATOM     16  C   UNL     1      16.098  24.802  49.563  1.00  0.00     0.000 C 
BRANCH  16  17
ATOM     17  C   UNL     1      14.568  25.001  49.490  1.00  0.00     0.000 C 
BRANCH  17  18
ATOM     18  C   UNL     1      13.875  24.684  50.829  1.00  0.00    -0.000 C 
BRANCH  18  19
ATOM     19  C   UNL     1      13.465  25.961  51.593  1.00  0.00    -0.000 C 
BRANCH  19  20
ATOM     20  C   UNL     1      14.639  26.675  52.294  1.00  0.00    -0.000 C 
BRANCH  20  21
ATOM     21  C   UNL     1      15.004  26.120  53.681  1.00  0.00    -0.000 C 
BRANCH  21  22
ATOM     22  C   UNL     1      16.098  25.040  53.626  1.00  0.00    -0.000 C 
BRANCH  22  23
ATOM     23  C   UNL     1      17.493  25.593  53.964  1.00  0.00    -0.000 C 
BRANCH  23  24
ATOM     24  C   UNL     1      18.394  25.794  52.725  1.00  0.00    -0.000 C 
BRANCH  24  25
ATOM     25  C   UNL     1      19.369  26.976  52.875  1.00  0.00    -0.003 C 
ATOM     26  C   UNL     1      19.485  27.801  51.593  1.00  0.00     0.004 C 
ENDBRANCH  24  25
ENDBRANCH  23  24
ENDBRANCH  22  23
ENDBRANCH  21  22
ENDBRANCH  20  21
ENDBRANCH  19  20
ENDBRANCH  18  19
ENDBRANCH  17  18
ENDBRANCH  16  17
ENDBRANCH  15  16
ENDBRANCH   1  15
TORSDOF 22
ENDMDL
MODEL 3
REMARK VINA RESULT:    -4.569      3.001      5.755
REMARK INTER + INTRA:         -13.874
REMARK INTER:                  -9.662
REMARK INTRA:                  -4.213
REMARK UNBOUND:                -3.429
REMARK SMILES CCCCCCCCCCCCCCCCCCCCCCCC(=O)[O-]
REMARK SMILES IDX 13 1 14 2 15 3 16 4 17 5 18 6 19 7 20 8 21 9 22 10 23 11
REMARK SMILES IDX 24 12 25 13 26 14 12 15 11 16 10 17 9 18 8 19 7 20 6 21 5 22
REMARK SMILES IDX 4 23 3 24 2 25 1 26
REMARK H PARENT
REMARK Flexibility Score: inf
ROOT
ATOM      1  C   UNL     1      15.017  26.174  53.871  1.00  0.00     0.000 C 
ENDROOT
BRANCH   1   2
ATOM      2  C   UNL     1      16.112  25.158  53.514  1.00  0.00     0.000 C 
BRANCH   2   3
ATOM      3  C   UNL     1      15.602  24.018  52.617  1.00  0.00     0.000 C 
BRANCH   3   4
ATOM      4  C   UNL     1      14.451  24.495  51.723  1.00  0.00     0.000 C 
BRANCH   4   5
ATOM      5  C   UNL     1      14.917  24.664  50.269  1.00  0.00     0.000 C 
BRANCH   5   6
ATOM      6  C   UNL     1      14.074  25.695  49.490  1.00  0.00     0.000 C 
BRANCH   6   7
ATOM      7  C   UNL     1      14.810  27.019  49.205  1.00  0.00     0.000 C 
BRANCH   7   8
ATOM      8  C   UNL     1      16.220  27.132  49.817  1.00  0.00     0.000 C 
BRANCH   8   9
ATOM      9  C   UNL     1      16.324  28.059  51.043  1.00  0.00     0.000 C 
BRANCH   9  10
ATOM     10  C   UNL     1      15.040  28.868  51.290  1.00  0.00     0.006 C 
BRANCH  10  11
ATOM     11  C   UNL     1      15.326  30.361  51.505  1.00  0.00     0.053 C 
BRANCH  11  12
ATOM     12  C   UNL     1      15.096  31.157  50.257  1.00  0.00     0.041 C 
ATOM     13  O   UNL     1      15.396  32.380  50.221  1.00  0.00    -0.550 OA
ATOM     14  O   UNL     1      14.580  30.542  49.124  1.00  0.00    -0.550 OA
ENDBRANCH  11  12
ENDBRANCH  10  11
ENDBRANCH   9  10
ENDBRANCH   8   9
ENDBRANCH   7   8
ENDBRANCH   6   7
ENDBRANCH   5   6
ENDBRANCH   4   5
ENDBRANCH   3   4
ENDBRANCH   2   3
ENDBRANCH   1   2
BRANCH   1  15
ATOM     15  C   UNL     1      15.378  27.032  55.095  1.00  0.00     0.000 C 
BRANCH  15  16
ATOM     16  C   UNL     1      16.473  28.068  54.788  1.00  0.00     0.000 C 
BRANCH  16  17
ATOM     17  C   UNL     1      16.158  29.478  55.334  1.00  0.00     0.000 C 
BRANCH  17  18
ATOM     18  C   UNL     1      17.026  30.566  54.673  1.00  0.00    -0.000 C 
BRANCH  18  19
ATOM     19  C   UNL     1      18.531  30.229  54.728  1.00  0.00    -0.000 C 
BRANCH  19  20
ATOM     20  C   UNL     1      19.298  30.581  53.437  1.00  0.00    -0.000 C 
BRANCH  20  21
ATOM     21  C   UNL     1      19.555  29.398  52.489  1.00  0.00    -0.000 C 
BRANCH  21  22
ATOM     22  C   UNL     1      19.415  28.032  53.182  1.00  0.00    -0.000 C 
BRANCH  22  23
ATOM     23  C   UNL     1      20.668  27.154  53.019  1.00  0.00    -0.000 C 
BRANCH  23  24
ATOM     24  C   UNL     1      20.575  26.157  51.843  1.00  0.00    -0.000 C 
BRANCH  24  25
ATOM     25  C   UNL     1      19.487  25.087  52.046  1.00  0.00    -0.003 C 
ATOM     26  C   UNL     1      18.802  24.698  50.735  1.00  0.00     0.004 C 
ENDBRANCH  24  25
ENDBRANCH  23  24
ENDBRANCH  22  23
ENDBRANCH  21  22
ENDBRANCH  20  21
ENDBRANCH  19  20
ENDBRANCH  18  19
ENDBRANCH  17  18
ENDBRANCH  16  17
ENDBRANCH  15  16
ENDBRANCH   1  15
TORSDOF 22
ENDMDL
MODEL 4
REMARK VINA RESULT:    -4.530      3.074      7.115
REMARK INTER + INTRA:         -13.786
REMARK INTER:                  -9.183
REMARK INTRA:                  -4.602
REMARK UNBOUND:                -3.429
REMARK SMILES CCCCCCCCCCCCCCCCCCCCCCCC(=O)[O-]
REMARK SMILES IDX 13 1 14 2 15 3 16 4 17 5 18 6 19 7 20 8 21 9 22 10 23 11
REMARK SMILES IDX 24 12 25 13 26 14 12 15 11 16 10 17 9 18 8 19 7 20 6 21 5 22
REMARK SMILES IDX 4 23 3 24 2 25 1 26
REMARK H PARENT
REMARK Flexibility Score: inf
ROOT
ATOM      1  C   UNL     1      16.418  26.713  48.203  1.00  0.00     0.000 C 
ENDROOT
BRANCH   1   2
ATOM      2  C   UNL     1      15.492  25.531  47.877  1.00  0.00     0.000 C 
BRANCH   2   3
ATOM      3  C   UNL     1      14.115  25.645  48.551  1.00  0.00     0.000 C 
BRANCH   3   4
ATOM      4  C   UNL     1      14.042  24.768  49.806  1.00  0.00     0.000 C 
BRANCH   4   5
ATOM      5  C   UNL     1      13.762  25.617  51.056  1.00  0.00     0.000 C 
BRANCH   5   6
ATOM      6  C   UNL     1      15.017  25.819  51.931  1.00  0.00     0.000 C 
BRANCH   6   7
ATOM      7  C   UNL     1      15.575  27.255  51.904  1.00  0.00     0.000 C 
BRANCH   7   8
ATOM      8  C   UNL     1      14.564  28.346  51.500  1.00  0.00     0.000 C 
BRANCH   8   9
ATOM      9  C   UNL     1      15.049  29.305  50.395  1.00  0.00     0.000 C 
BRANCH   9  10
ATOM     10  C   UNL     1      15.388  30.706  50.931  1.00  0.00     0.006 C 
BRANCH  10  11
ATOM     11  C   UNL     1      14.140  31.586  51.087  1.00  0.00     0.053 C 
BRANCH  11  12
ATOM     12  C   UNL     1      14.473  32.925  51.670  1.00  0.00     0.041 C 
ATOM     13  O   UNL     1      13.937  33.300  52.747  1.00  0.00    -0.550 OA
ATOM     14  O   UNL     1      15.399  33.747  51.042  1.00  0.00    -0.550 OA
ENDBRANCH  11  12
ENDBRANCH  10  11
ENDBRANCH   9  10
ENDBRANCH   8   9
ENDBRANCH   7   8
ENDBRANCH   6   7
ENDBRANCH   5   6
ENDBRANCH   4   5
ENDBRANCH   3   4
ENDBRANCH   2   3
ENDBRANCH   1   2
BRANCH   1  15
ATOM     15  C   UNL     1      17.595  26.314  49.110  1.00  0.00     0.000 C 
BRANCH  15  16
ATOM     16  C   UNL     1      17.799  24.792  49.177  1.00  0.00     0.000 C 
BRANCH  16  17
ATOM     17  C   UNL     1      18.118  24.275  50.597  1.00  0.00     0.000 C 
BRANCH  17  18
ATOM     18  C   UNL     1      19.174  25.141  51.309  1.00  0.00    -0.000 C 
BRANCH  18  19
ATOM     19  C   UNL     1      18.831  25.382  52.794  1.00  0.00    -0.000 C 
BRANCH  19  20
ATOM     20  C   UNL     1      19.040  26.839  53.255  1.00  0.00    -0.000 C 
BRANCH  20  21
ATOM     21  C   UNL     1      19.103  27.878  52.123  1.00  0.00    -0.000 C 
BRANCH  21  22
ATOM     22  C   UNL     1      18.622  29.271  52.560  1.00  0.00    -0.000 C 
BRANCH  22  23
ATOM     23  C   UNL     1      18.213  29.319  54.043  1.00  0.00    -0.000 C 
BRANCH  23  24
ATOM     24  C   UNL     1      16.725  29.670  54.262  1.00  0.00    -0.000 C 
BRANCH  24  25
ATOM     25  C   UNL     1      16.124  28.991  55.506  1.00  0.00    -0.003 C 
ATOM     26  C   UNL     1      15.992  27.478  55.335  1.00  0.00     0.004 C 
ENDBRANCH  24  25
ENDBRANCH  23  24
ENDBRANCH  22  23
ENDBRANCH  21  22
ENDBRANCH  20  21
ENDBRANCH  19  20
ENDBRANCH  18  19
ENDBRANCH  17  18
ENDBRANCH  16  17
ENDBRANCH  15  16
ENDBRANCH   1  15
TORSDOF 22
ENDMDL
MODEL 5
REMARK VINA RESULT:    -4.524      3.209      8.243
REMARK INTER + INTRA:         -13.772
REMARK INTER:                 -10.607
REMARK INTRA:                  -3.165
REMARK UNBOUND:                -3.429
REMARK SMILES CCCCCCCCCCCCCCCCCCCCCCCC(=O)[O-]
REMARK SMILES IDX 13 1 14 2 15 3 16 4 17 5 18 6 19 7 20 8 21 9 22 10 23 11
REMARK SMILES IDX 24 12 25 13 26 14 12 15 11 16 10 17 9 18 8 19 7 20 6 21 5 22
REMARK SMILES IDX 4 23 3 24 2 25 1 26
REMARK H PARENT
REMARK Flexibility Score: inf
ROOT
ATOM      1  C   UNL     1      18.142  24.672  49.405  1.00  0.00     0.000 C 
ENDROOT
BRANCH   1   2
ATOM      2  C   UNL     1      18.224  26.194  49.596  1.00  0.00     0.000 C 
BRANCH   2   3
ATOM      3  C   UNL     1      18.162  26.617  51.073  1.00  0.00     0.000 C 
BRANCH   3   4
ATOM      4  C   UNL     1      18.047  25.394  51.990  1.00  0.00     0.000 C 
BRANCH   4   5
ATOM      5  C   UNL     1      17.850  25.819  53.453  1.00  0.00     0.000 C 
BRANCH   5   6
ATOM      6  C   UNL     1      16.410  25.579  53.954  1.00  0.00     0.000 C 
BRANCH   6   7
ATOM      7  C   UNL     1      15.813  26.766  54.735  1.00  0.00     0.000 C 
BRANCH   7   8
ATOM      8  C   UNL     1      16.625  28.073  54.667  1.00  0.00     0.000 C 
BRANCH   8   9
ATOM      9  C   UNL     1      15.822  29.354  54.964  1.00  0.00     0.000 C 
BRANCH   9  10
ATOM     10  C   UNL     1      16.682  30.466  55.586  1.00  0.00     0.006 C 
BRANCH  10  11
ATOM     11  C   UNL     1      16.288  30.760  57.041  1.00  0.00     0.053 C 
BRANCH  11  12
ATOM     12  C   UNL     1      15.836  32.176  57.220  1.00  0.00     0.041 C 
ATOM     13  O   UNL     1      16.680  33.092  57.413  1.00  0.00    -0.550 OA
ATOM     14  O   UNL     1      14.486  32.491  57.143  1.00  0.00    -0.550 OA
ENDBRANCH  11  12
ENDBRANCH  10  11
ENDBRANCH   9  10
ENDBRANCH   8   9
ENDBRANCH   7   8
ENDBRANCH   6   7
ENDBRANCH   5   6
ENDBRANCH   4   5
ENDBRANCH   3   4
ENDBRANCH   2   3
ENDBRANCH   1   2
BRANCH   1  15
ATOM     15  C   UNL     1      17.361  24.273  48.142  1.00  0.00     0.000 C 
BRANCH  15  16
ATOM     16  C   UNL     1      16.636  25.464  47.494  1.00  0.00     0.000 C 
BRANCH  16  17
ATOM     17  C   UNL     1      15.206  25.130  47.015  1.00  0.00     0.000 C 
BRANCH  17  18
ATOM     18  C   UNL     1      14.157  25.337  48.124  1.00  0.00    -0.000 C 
BRANCH  18  19
ATOM     19  C   UNL     1      14.457  26.580  48.990  1.00  0.00    -0.000 C 
BRANCH  19  20
ATOM     20  C   UNL     1      14.426  26.306  50.507  1.00  0.00    -0.000 C 
BRANCH  20  21
ATOM     21  C   UNL     1      14.587  27.550  51.397  1.00  0.00    -0.000 C 
BRANCH  21  22
ATOM     22  C   UNL     1      15.159  28.759  50.639  1.00  0.00    -0.000 C 
BRANCH  22  23
ATOM     23  C   UNL     1      14.723  30.101  51.251  1.00  0.00    -0.000 C 
BRANCH  23  24
ATOM     24  C   UNL     1      15.076  31.324  50.374  1.00  0.00    -0.000 C 
BRANCH  24  25
ATOM     25  C   UNL     1      15.173  32.633  51.178  1.00  0.00    -0.003 C 
ATOM     26  C   UNL     1      16.117  33.645  50.530  1.00  0.00     0.004 C 
ENDBRANCH  24  25
ENDBRANCH  23  24
ENDBRANCH  22  23
ENDBRANCH  21  22
ENDBRANCH  20  21
ENDBRANCH  19  20
ENDBRANCH  18  19
ENDBRANCH  17  18
ENDBRANCH  16  17
ENDBRANCH  15  16
ENDBRANCH   1  15
TORSDOF 22
ENDMDL
MODEL 6
REMARK VINA RESULT:    -4.501      2.980      7.067
REMARK INTER + INTRA:         -13.718
REMARK INTER:                  -9.704
REMARK INTRA:                  -4.014
REMARK UNBOUND:                -3.429
REMARK SMILES CCCCCCCCCCCCCCCCCCCCCCCC(=O)[O-]
REMARK SMILES IDX 13 1 14 2 15 3 16 4 17 5 18 6 19 7 20 8 21 9 22 10 23 11
REMARK SMILES IDX 24 12 25 13 26 14 12 15 11 16 10 17 9 18 8 19 7 20 6 21 5 22
REMARK SMILES IDX 4 23 3 24 2 25 1 26
REMARK H PARENT
REMARK Flexibility Score: inf
ROOT
ATOM      1  C   UNL     1      16.906  26.474  54.039  1.00  0.00     0.000 C 
ENDROOT
BRANCH   1   2
ATOM      2  C   UNL     1      18.084  25.572  53.642  1.00  0.00     0.000 C 
BRANCH   2   3
ATOM      3  C   UNL     1      18.924  26.153  52.494  1.00  0.00     0.000 C 
BRANCH   3   4
ATOM      4  C   UNL     1      18.698  27.664  52.357  1.00  0.00     0.000 C 
BRANCH   4   5
ATOM      5  C   UNL     1      19.939  28.357  51.775  1.00  0.00     0.000 C 
BRANCH   5   6
ATOM      6  C   UNL     1      21.144  28.329  52.740  1.00  0.00     0.000 C 
BRANCH   6   7
ATOM      7  C   UNL     1      20.965  29.212  53.990  1.00  0.00     0.000 C 
BRANCH   7   8
ATOM      8  C   UNL     1      20.050  30.438  53.804  1.00  0.00     0.000 C 
BRANCH   8   9
ATOM      9  C   UNL     1      18.924  30.573  54.847  1.00  0.00     0.000 C 
BRANCH   9  10
ATOM     10  C   UNL     1      17.522  30.564  54.215  1.00  0.00     0.006 C 
BRANCH  10  11
ATOM     11  C   UNL     1      16.473  29.927  55.138  1.00  0.00     0.053 C 
BRANCH  11  12
ATOM     12  C   UNL     1      16.083  30.846  56.254  1.00  0.00     0.041 C 
ATOM     13  O   UNL     1      16.525  30.655  57.418  1.00  0.00    -0.550 OA
ATOM     14  O   UNL     1      15.256  31.933  56.003  1.00  0.00    -0.550 OA
ENDBRANCH  11  12
ENDBRANCH  10  11
ENDBRANCH   9  10
ENDBRANCH   8   9
ENDBRANCH   7   8
ENDBRANCH   6   7
ENDBRANCH   5   6
ENDBRANCH   4   5
ENDBRANCH   3   4
ENDBRANCH   2   3
ENDBRANCH   1   2
BRANCH   1  15
ATOM     15  C   UNL     1      15.552  25.748  53.974  1.00  0.00     0.000 C 
BRANCH  15  16
ATOM     16  C   UNL     1      15.653  24.370  53.298  1.00  0.00     0.000 C 
BRANCH  16  17
ATOM     17  C   UNL     1      14.518  24.095  52.287  1.00  0.00     0.000 C 
BRANCH  17  18
ATOM     18  C   UNL     1      15.051  23.875  50.858  1.00  0.00    -0.000 C 
BRANCH  18  19
ATOM     19  C   UNL     1      16.193  24.851  50.502  1.00  0.00    -0.000 C 
BRANCH  19  20
ATOM     20  C   UNL     1      15.792  25.936  49.481  1.00  0.00    -0.000 C 
BRANCH  20  21
ATOM     21  C   UNL     1      15.877  27.381  49.999  1.00  0.00    -0.000 C 
BRANCH  21  22
ATOM     22  C   UNL     1      14.813  27.701  51.062  1.00  0.00    -0.000 C 
BRANCH  22  23
ATOM     23  C   UNL     1      15.128  28.986  51.847  1.00  0.00    -0.000 C 
BRANCH  23  24
ATOM     24  C   UNL     1      14.388  30.233  51.313  1.00  0.00    -0.000 C 
BRANCH  24  25
ATOM     25  C   UNL     1      15.338  31.393  50.965  1.00  0.00    -0.003 C 
ATOM     26  C   UNL     1      15.334  32.489  52.031  1.00  0.00     0.004 C 
ENDBRANCH  24  25
ENDBRANCH  23  24
ENDBRANCH  22  23
ENDBRANCH  21  22
ENDBRANCH  20  21
ENDBRANCH  19  20
ENDBRANCH  18  19
ENDBRANCH  17  18
ENDBRANCH  16  17
ENDBRANCH  15  16
ENDBRANCH   1  15
TORSDOF 22
ENDMDL
MODEL 7
REMARK VINA RESULT:    -4.486      3.070      5.950
REMARK INTER + INTRA:         -13.685
REMARK INTER:                  -9.998
REMARK INTRA:                  -3.687
REMARK UNBOUND:                -3.429
REMARK SMILES CCCCCCCCCCCCCCCCCCCCCCCC(=O)[O-]
REMARK SMILES IDX 13 1 14 2 15 3 16 4 17 5 18 6 19 7 20 8 21 9 22 10 23 11
REMARK SMILES IDX 24 12 25 13 26 14 12 15 11 16 10 17 9 18 8 19 7 20 6 21 5 22
REMARK SMILES IDX 4 23 3 24 2 25 1 26
REMARK H PARENT
REMARK Flexibility Score: inf
ROOT
ATOM      1  C   UNL     1      15.643  25.148  52.844  1.00  0.00     0.000 C 
ENDROOT
BRANCH   1   2
ATOM      2  C   UNL     1      14.419  26.025  52.540  1.00  0.00     0.000 C 
BRANCH   2   3
ATOM      3  C   UNL     1      13.436  25.365  51.559  1.00  0.00     0.000 C 
BRANCH   3   4
ATOM      4  C   UNL     1      14.143  24.969  50.257  1.00  0.00     0.000 C 
BRANCH   4   5
ATOM      5  C   UNL     1      13.974  26.057  49.186  1.00  0.00     0.000 C 
BRANCH   5   6
ATOM      6  C   UNL     1      15.286  26.356  48.429  1.00  0.00     0.000 C 
BRANCH   6   7
ATOM      7  C   UNL     1      16.021  27.616  48.925  1.00  0.00     0.000 C 
BRANCH   7   8
ATOM      8  C   UNL     1      15.201  28.534  49.853  1.00  0.00     0.000 C 
BRANCH   8   9
ATOM      9  C   UNL     1      15.982  29.117  51.046  1.00  0.00     0.000 C 
BRANCH   9  10
ATOM     10  C   UNL     1      15.274  30.320  51.691  1.00  0.00     0.006 C 
BRANCH  10  11
ATOM     11  C   UNL     1      14.944  31.416  50.668  1.00  0.00     0.053 C 
BRANCH  11  12
ATOM     12  C   UNL     1      15.274  32.781  51.189  1.00  0.00     0.041 C 
ATOM     13  O   UNL     1      14.360  33.534  51.619  1.00  0.00    -0.550 OA
ATOM     14  O   UNL     1      16.593  33.211  51.230  1.00  0.00    -0.550 OA
ENDBRANCH  11  12
ENDBRANCH  10  11
ENDBRANCH   9  10
ENDBRANCH   8   9
ENDBRANCH   7   8
ENDBRANCH   6   7
ENDBRANCH   5   6
ENDBRANCH   4   5
ENDBRANCH   3   4
ENDBRANCH   2   3
ENDBRANCH   1   2
BRANCH   1  15
ATOM     15  C   UNL     1      16.658  25.842  53.768  1.00  0.00     0.000 C 
BRANCH  15  16
ATOM     16  C   UNL     1      16.005  26.901  54.672  1.00  0.00     0.000 C 
BRANCH  16  17
ATOM     17  C   UNL     1      16.634  28.304  54.530  1.00  0.00     0.000 C 
BRANCH  17  18
ATOM     18  C   UNL     1      16.158  29.271  55.631  1.00  0.00    -0.000 C 
BRANCH  18  19
ATOM     19  C   UNL     1      16.669  30.710  55.409  1.00  0.00    -0.000 C 
BRANCH  19  20
ATOM     20  C   UNL     1      18.052  30.985  56.035  1.00  0.00    -0.000 C 
BRANCH  20  21
ATOM     21  C   UNL     1      19.161  31.344  55.031  1.00  0.00    -0.000 C 
BRANCH  21  22
ATOM     22  C   UNL     1      18.795  30.989  53.580  1.00  0.00    -0.000 C 
BRANCH  22  23
ATOM     23  C   UNL     1      19.880  30.150  52.884  1.00  0.00    -0.000 C 
BRANCH  23  24
ATOM     24  C   UNL     1      20.333  28.922  53.705  1.00  0.00    -0.000 C 
BRANCH  24  25
ATOM     25  C   UNL     1      19.859  27.587  53.103  1.00  0.00    -0.003 C 
ATOM     26  C   UNL     1      19.311  27.751  51.685  1.00  0.00     0.004 C 
ENDBRANCH  24  25
ENDBRANCH  23  24
ENDBRANCH  22  23
ENDBRANCH  21  22
ENDBRANCH  20  21
ENDBRANCH  19  20
ENDBRANCH  18  19
ENDBRANCH  17  18
ENDBRANCH  16  17
ENDBRANCH  15  16
ENDBRANCH   1  15
TORSDOF 22
ENDMDL
MODEL 8
REMARK VINA RESULT:    -4.462      3.599      6.180
REMARK INTER + INTRA:         -13.630
REMARK INTER:                  -9.536
REMARK INTRA:                  -4.094
REMARK UNBOUND:                -3.429
REMARK SMILES CCCCCCCCCCCCCCCCCCCCCCCC(=O)[O-]
REMARK SMILES IDX 13 1 14 2 15 3 16 4 17 5 18 6 19 7 20 8 21 9 22 10 23 11
REMARK SMILES IDX 24 12 25 13 26 14 12 15 11 16 10 17 9 18 8 19 7 20 6 21 5 22
REMARK SMILES IDX 4 23 3 24 2 25 1 26
REMARK H PARENT
REMARK Flexibility Score: inf
ROOT
ATOM      1  C   UNL     1      15.162  25.052  53.123  1.00  0.00     0.000 C 
ENDROOT
BRANCH   1   2
ATOM      2  C   UNL     1      14.239  26.124  52.526  1.00  0.00     0.000 C 
BRANCH   2   3
ATOM      3  C   UNL     1      13.363  25.590  51.381  1.00  0.00     0.000 C 
BRANCH   3   4
ATOM      4  C   UNL     1      14.204  24.813  50.361  1.00  0.00     0.000 C 
BRANCH   4   5
ATOM      5  C   UNL     1      14.746  25.747  49.268  1.00  0.00     0.000 C 
BRANCH   5   6
ATOM      6  C   UNL     1      16.250  26.052  49.437  1.00  0.00     0.000 C 
BRANCH   6   7
ATOM      7  C   UNL     1      16.543  27.426  50.069  1.00  0.00     0.000 C 
BRANCH   7   8
ATOM      8  C   UNL     1      15.455  28.496  49.852  1.00  0.00     0.000 C 
BRANCH   8   9
ATOM      9  C   UNL     1      15.232  29.448  51.042  1.00  0.00     0.000 C 
BRANCH   9  10
ATOM     10  C   UNL     1      15.116  30.920  50.613  1.00  0.00     0.006 C 
BRANCH  10  11
ATOM     11  C   UNL     1      15.581  31.884  51.715  1.00  0.00     0.053 C 
BRANCH  11  12
ATOM     12  C   UNL     1      15.490  33.314  51.278  1.00  0.00     0.041 C 
ATOM     13  O   UNL     1      14.584  34.061  51.733  1.00  0.00    -0.550 OA
ATOM     14  O   UNL     1      16.426  33.832  50.392  1.00  0.00    -0.550 OA
ENDBRANCH  11  12
ENDBRANCH  10  11
ENDBRANCH   9  10
ENDBRANCH   8   9
ENDBRANCH   7   8
ENDBRANCH   6   7
ENDBRANCH   5   6
ENDBRANCH   4   5
ENDBRANCH   3   4
ENDBRANCH   2   3
ENDBRANCH   1   2
BRANCH   1  15
ATOM     15  C   UNL     1      16.304  25.650  53.963  1.00  0.00     0.000 C 
BRANCH  15  16
ATOM     16  C   UNL     1      16.278  27.188  53.983  1.00  0.00     0.000 C 
BRANCH  16  17
ATOM     17  C   UNL     1      17.618  27.831  53.563  1.00  0.00     0.000 C 
BRANCH  17  18
ATOM     18  C   UNL     1      17.642  29.349  53.824  1.00  0.00    -0.000 C 
BRANCH  18  19
ATOM     19  C   UNL     1      18.939  30.012  53.312  1.00  0.00    -0.000 C 
BRANCH  19  20
ATOM     20  C   UNL     1      20.185  29.686  54.160  1.00  0.00    -0.000 C 
BRANCH  20  21
ATOM     21  C   UNL     1      21.336  29.012  53.395  1.00  0.00    -0.000 C 
BRANCH  21  22
ATOM     22  C   UNL     1      20.950  28.611  51.962  1.00  0.00    -0.000 C 
BRANCH  22  23
ATOM     23  C   UNL     1      21.180  27.116  51.683  1.00  0.00    -0.000 C 
BRANCH  23  24
ATOM     24  C   UNL     1      19.934  26.392  51.125  1.00  0.00    -0.000 C 
BRANCH  24  25
ATOM     25  C   UNL     1      19.516  25.176  51.971  1.00  0.00    -0.003 C 
ATOM     26  C   UNL     1      20.221  25.141  53.327  1.00  0.00     0.004 C 
ENDBRANCH  24  25
ENDBRANCH  23  24
ENDBRANCH  22  23
ENDBRANCH  21  22
ENDBRANCH  20  21
ENDBRANCH  19  20
ENDBRANCH  18  19
ENDBRANCH  17  18
ENDBRANCH  16  17
ENDBRANCH  15  16
ENDBRANCH   1  15
TORSDOF 22
ENDMDL
MODEL 9
REMARK VINA RESULT:    -4.420      3.998      7.701
REMARK INTER + INTRA:         -13.533
REMARK INTER:                  -9.103
REMARK INTRA:                  -4.430
REMARK UNBOUND:                -3.429
REMARK SMILES CCCCCCCCCCCCCCCCCCCCCCCC(=O)[O-]
REMARK SMILES IDX 13 1 14 2 15 3 16 4 17 5 18 6 19 7 20 8 21 9 22 10 23 11
REMARK SMILES IDX 24 12 25 13 26 14 12 15 11 16 10 17 9 18 8 19 7 20 6 21 5 22
REMARK SMILES IDX 4 23 3 24 2 25 1 26
REMARK H PARENT
REMARK Flexibility Score: inf
ROOT
ATOM      1  C   UNL     1      18.879  27.669  52.931  1.00  0.00     0.000 C 
ENDROOT
BRANCH   1   2
ATOM      2  C   UNL     1      18.729  26.827  51.655  1.00  0.00     0.000 C 
BRANCH   2   3
ATOM      3  C   UNL     1      19.245  25.388  51.822  1.00  0.00     0.000 C 
BRANCH   3   4
ATOM      4  C   UNL     1      20.405  25.333  52.823  1.00  0.00     0.000 C 
BRANCH   4   5
ATOM      5  C   UNL     1      21.617  24.606  52.222  1.00  0.00     0.000 C 
BRANCH   5   6
ATOM      6  C   UNL     1      22.004  25.143  50.828  1.00  0.00     0.000 C 
BRANCH   6   7
ATOM      7  C   UNL     1      22.638  26.548  50.853  1.00  0.00     0.000 C 
BRANCH   7   8
ATOM      8  C   UNL     1      21.867  27.632  50.075  1.00  0.00     0.000 C 
BRANCH   8   9
ATOM      9  C   UNL     1      21.768  28.995  50.786  1.00  0.00     0.000 C 
BRANCH   9  10
ATOM     10  C   UNL     1      22.708  29.105  51.998  1.00  0.00     0.006 C 
BRANCH  10  11
ATOM     11  C   UNL     1      21.938  29.216  53.322  1.00  0.00     0.053 C 
BRANCH  11  12
ATOM     12  C   UNL     1      22.680  30.038  54.330  1.00  0.00     0.041 C 
ATOM     13  O   UNL     1      22.070  30.898  55.020  1.00  0.00    -0.550 OA
ATOM     14  O   UNL     1      24.039  29.834  54.531  1.00  0.00    -0.550 OA
ENDBRANCH  11  12
ENDBRANCH  10  11
ENDBRANCH   9  10
ENDBRANCH   8   9
ENDBRANCH   7   8
ENDBRANCH   6   7
ENDBRANCH   5   6
ENDBRANCH   4   5
ENDBRANCH   3   4
ENDBRANCH   2   3
ENDBRANCH   1   2
BRANCH   1  15
ATOM     15  C   UNL     1      18.064  28.972  52.884  1.00  0.00     0.000 C 
BRANCH  15  16
ATOM     16  C   UNL     1      17.724  29.508  54.284  1.00  0.00     0.000 C 
BRANCH  16  17
ATOM     17  C   UNL     1      16.277  29.199  54.728  1.00  0.00     0.000 C 
BRANCH  17  18
ATOM     18  C   UNL     1      16.154  27.817  55.395  1.00  0.00    -0.000 C 
BRANCH  18  19
ATOM     19  C   UNL     1      15.261  26.852  54.585  1.00  0.00    -0.000 C 
BRANCH  19  20
ATOM     20  C   UNL     1      16.016  25.638  54.006  1.00  0.00    -0.000 C 
BRANCH  20  21
ATOM     21  C   UNL     1      15.559  25.194  52.607  1.00  0.00    -0.000 C 
BRANCH  21  22
ATOM     22  C   UNL     1      14.718  26.260  51.884  1.00  0.00    -0.000 C 
BRANCH  22  23
ATOM     23  C   UNL     1      15.335  26.690  50.542  1.00  0.00    -0.000 C 
BRANCH  23  24
ATOM     24  C   UNL     1      15.204  28.204  50.260  1.00  0.00    -0.000 C 
BRANCH  24  25
ATOM     25  C   UNL     1      14.643  28.993  51.456  1.00  0.00    -0.003 C 
ATOM     26  C   UNL     1      15.028  30.471  51.410  1.00  0.00     0.004 C 
ENDBRANCH  24  25
ENDBRANCH  23  24
ENDBRANCH  22  23
ENDBRANCH  21  22
ENDBRANCH  20  21
ENDBRANCH  19  20
ENDBRANCH  18  19
ENDBRANCH  17  18
ENDBRANCH  16  17
ENDBRANCH  15  16
ENDBRANCH   1  15
TORSDOF 22
ENDMDL
