MODEL 1
REMARK VINA RESULT:     8.380      0.000      0.000
REMARK INTER + INTRA:          12.917
REMARK INTER:                  12.789
REMARK INTRA:                   0.128
REMARK UNBOUND:                 0.128
REMARK SMILES CC(=O)CCC=C(C)CCC=C(C)CCC=C(C)C
REMARK SMILES IDX 10 1 11 2 12 3 13 4 14 5 15 6 16 7 18 8 17 9 19 10 9 11 7 12
REMARK SMILES IDX 6 13 8 14 5 15 4 16 2 17 3 18 1 19
REMARK H PARENT
REMARK Flexibility Score: inf
ROOT
ATOM      1  C   UNL     1      10.425  13.865  -1.166  1.00  0.00     0.032 C 
ENDROOT
BRANCH   1   2
ATOM      2  C   UNL     1      10.314  14.840  -2.316  1.00  0.00    -0.028 C 
ATOM      3  C   UNL     1      10.634  14.550  -3.599  1.00  0.00    -0.077 C 
ATOM      4  C   UNL     1      11.115  13.175  -4.008  1.00  0.00     0.039 C 
BRANCH   3   5
ATOM      5  C   UNL     1      10.588  15.648  -4.644  1.00  0.00     0.034 C 
BRANCH   5   6
ATOM      6  C   UNL     1      11.847  15.673  -5.525  1.00  0.00     0.032 C 
BRANCH   6   7
ATOM      7  C   UNL     1      12.406  17.066  -5.679  1.00  0.00    -0.028 C 
ATOM      8  C   UNL     1      13.945  18.819  -6.451  1.00  0.00     0.039 C 
ATOM      9  C   UNL     1      13.483  17.385  -6.433  1.00  0.00    -0.080 C 
ATOM     10  C   UNL     1      14.209  16.357  -7.270  1.00  0.00     0.039 C 
ENDBRANCH   6   7
ENDBRANCH   5   6
ENDBRANCH   3   5
ENDBRANCH   1   2
BRANCH   1  11
ATOM     11  C   UNL     1      11.852  13.784  -0.599  1.00  0.00     0.034 C 
BRANCH  11  12
ATOM     12  C   UNL     1      11.853  13.504   0.893  1.00  0.00    -0.077 C 
ATOM     13  C   UNL     1      10.778  13.719   1.685  1.00  0.00    -0.028 C 
ATOM     14  C   UNL     1      13.101  12.948   1.526  1.00  0.00     0.039 C 
BRANCH  13  15
ATOM     15  C   UNL     1       9.490  14.376   1.242  1.00  0.00     0.035 C 
BRANCH  15  16
ATOM     16  C   UNL     1       9.138  15.582   2.125  1.00  0.00     0.079 C 
BRANCH  16  17
ATOM     17  C   UNL     1       9.723  16.862   1.585  1.00  0.00     0.130 C 
ATOM     18  O   UNL     1       8.977  17.748   1.196  1.00  0.00    -0.300 OA
ATOM     19  C   UNL     1      11.206  17.073   1.518  1.00  0.00     0.087 C 
ENDBRANCH  16  17
ENDBRANCH  15  16
ENDBRANCH  13  15
ENDBRANCH  11  12
ENDBRANCH   1  11
TORSDOF 9
ENDMDL
MODEL 2
REMARK VINA RESULT:     8.793      0.946      1.423
REMARK INTER + INTRA:          13.547
REMARK INTER:                  13.638
REMARK INTRA:                  -0.092
REMARK UNBOUND:                 0.128
REMARK SMILES CC(=O)CCC=C(C)CCC=C(C)CCC=C(C)C
REMARK SMILES IDX 10 1 11 2 12 3 13 4 14 5 15 6 16 7 18 8 17 9 19 10 9 11 7 12
REMARK SMILES IDX 6 13 8 14 5 15 4 16 2 17 3 18 1 19
REMARK H PARENT
REMARK Flexibility Score: inf
ROOT
ATOM      1  C   UNL     1      11.947  14.526  -0.798  1.00  0.00     0.032 C 
ENDROOT
BRANCH   1   2
ATOM      2  C   UNL     1      11.882  14.587  -2.307  1.00  0.00    -0.028 C 
ATOM      3  C   UNL     1      10.736  14.530  -3.027  1.00  0.00    -0.077 C 
ATOM      4  C   UNL     1       9.382  14.428  -2.361  1.00  0.00     0.039 C 
BRANCH   3   5
ATOM      5  C   UNL     1      10.810  14.487  -4.541  1.00  0.00     0.034 C 
BRANCH   5   6
ATOM      6  C   UNL     1      10.934  15.887  -5.162  1.00  0.00     0.032 C 
BRANCH   6   7
ATOM      7  C   UNL     1      12.346  16.192  -5.601  1.00  0.00    -0.028 C 
ATOM      8  C   UNL     1      14.209  17.538  -6.469  1.00  0.00     0.039 C 
ATOM      9  C   UNL     1      12.776  17.403  -6.022  1.00  0.00    -0.080 C 
ATOM     10  C   UNL     1      11.876  18.617  -6.030  1.00  0.00     0.039 C 
ENDBRANCH   6   7
ENDBRANCH   5   6
ENDBRANCH   3   5
ENDBRANCH   1   2
BRANCH   1  11
ATOM     11  C   UNL     1      11.018  13.450  -0.212  1.00  0.00     0.034 C 
BRANCH  11  12
ATOM     12  C   UNL     1      10.953  13.523   1.303  1.00  0.00    -0.077 C 
ATOM     13  C   UNL     1       9.878  13.995   1.973  1.00  0.00    -0.028 C 
ATOM     14  C   UNL     1      12.131  13.036   2.104  1.00  0.00     0.039 C 
BRANCH  13  15
ATOM     15  C   UNL     1       8.663  14.627   1.332  1.00  0.00     0.035 C 
BRANCH  15  16
ATOM     16  C   UNL     1       8.176  15.848   2.125  1.00  0.00     0.079 C 
BRANCH  16  17
ATOM     17  C   UNL     1       9.003  17.074   1.832  1.00  0.00     0.130 C 
ATOM     18  O   UNL     1       8.448  18.150   1.668  1.00  0.00    -0.300 OA
ATOM     19  C   UNL     1      10.498  17.000   1.741  1.00  0.00     0.087 C 
ENDBRANCH  16  17
ENDBRANCH  15  16
ENDBRANCH  13  15
ENDBRANCH  11  12
ENDBRANCH   1  11
TORSDOF 9
ENDMDL
MODEL 3
REMARK VINA RESULT:    11.177      6.676     12.260
REMARK INTER + INTRA:          17.185
REMARK INTER:                  18.154
REMARK INTRA:                  -0.969
REMARK UNBOUND:                 0.128
REMARK SMILES CC(=O)CCC=C(C)CCC=C(C)CCC=C(C)C
REMARK SMILES IDX 10 1 11 2 12 3 13 4 14 5 15 6 16 7 18 8 17 9 19 10 9 11 7 12
REMARK SMILES IDX 6 13 8 14 5 15 4 16 2 17 3 18 1 19
REMARK H PARENT
REMARK Flexibility Score: inf
ROOT
ATOM      1  C   UNL     1      15.630  14.393 -12.824  1.00  0.00     0.032 C 
ENDROOT
BRANCH   1   2
ATOM      2  C   UNL     1      15.083  15.314 -11.758  1.00  0.00    -0.028 C 
ATOM      3  C   UNL     1      14.568  14.898 -10.577  1.00  0.00    -0.077 C 
ATOM      4  C   UNL     1      14.525  13.435 -10.199  1.00  0.00     0.039 C 
BRANCH   3   5
ATOM      5  C   UNL     1      13.944  15.914  -9.638  1.00  0.00     0.034 C 
BRANCH   5   6
ATOM      6  C   UNL     1      14.620  15.927  -8.257  1.00  0.00     0.032 C 
BRANCH   6   7
ATOM      7  C   UNL     1      13.626  16.124  -7.139  1.00  0.00    -0.028 C 
ATOM      8  C   UNL     1      12.426  17.315  -5.356  1.00  0.00     0.039 C 
ATOM      9  C   UNL     1      13.429  17.289  -6.481  1.00  0.00    -0.080 C 
ATOM     10  C   UNL     1      14.158  18.558  -6.858  1.00  0.00     0.039 C 
ENDBRANCH   6   7
ENDBRANCH   5   6
ENDBRANCH   3   5
ENDBRANCH   1   2
BRANCH   1  11
ATOM     11  C   UNL     1      16.567  15.117 -13.803  1.00  0.00     0.034 C 
BRANCH  11  12
ATOM     12  C   UNL     1      17.978  15.236 -13.254  1.00  0.00    -0.077 C 
ATOM     13  C   UNL     1      18.494  16.397 -12.792  1.00  0.00    -0.028 C 
ATOM     14  C   UNL     1      18.844  14.005 -13.205  1.00  0.00     0.039 C 
BRANCH  13  15
ATOM     15  C   UNL     1      17.812  17.744 -12.871  1.00  0.00     0.035 C 
BRANCH  15  16
ATOM     16  C   UNL     1      18.529  18.792 -12.009  1.00  0.00     0.079 C 
BRANCH  16  17
ATOM     17  C   UNL     1      18.420  20.175 -12.601  1.00  0.00     0.130 C 
ATOM     18  O   UNL     1      17.500  20.433 -13.363  1.00  0.00    -0.300 OA
ATOM     19  C   UNL     1      19.419  21.244 -12.271  1.00  0.00     0.087 C 
ENDBRANCH  16  17
ENDBRANCH  15  16
ENDBRANCH  13  15
ENDBRANCH  11  12
ENDBRANCH   1  11
TORSDOF 9
ENDMDL
