MODEL 1
REMARK VINA RESULT:    -4.326      0.000      0.000
REMARK INTER + INTRA:          -6.142
REMARK INTER:                  -5.338
REMARK INTRA:                  -0.805
REMARK UNBOUND:                -0.805
REMARK SMILES CCCCCc1ccccc1
REMARK SMILES IDX 4 1 3 2 2 3 1 4 5 5 6 6 7 7 11 8 8 9 10 10 9 11
REMARK H PARENT
REMARK Flexibility Score: inf
ROOT
ATOM      1  C   UNL     1      57.989 -12.487 133.053  1.00  0.00     0.005 C 
ENDROOT
BRANCH   1   2
ATOM      2  C   UNL     1      57.883 -13.783 133.882  1.00  0.00     0.000 C 
BRANCH   2   3
ATOM      3  C   UNL     1      57.467 -13.578 135.349  1.00  0.00    -0.003 C 
ATOM      4  C   UNL     1      56.186 -14.328 135.717  1.00  0.00     0.004 C 
ENDBRANCH   2   3
ENDBRANCH   1   2
BRANCH   1   5
ATOM      5  C   UNL     1      56.923 -12.347 131.952  1.00  0.00     0.035 C 
BRANCH   5   6
ATOM      6  C   UNL     1      55.526 -12.544 132.483  1.00  0.00    -0.048 A 
ATOM      7  C   UNL     1      54.849 -13.755 132.257  1.00  0.00     0.004 A 
ATOM      8  C   UNL     1      54.875 -11.513 133.183  1.00  0.00     0.004 A 
ATOM      9  C   UNL     1      53.544 -13.931 132.729  1.00  0.00     0.000 A 
ATOM     10  C   UNL     1      53.572 -11.694 133.653  1.00  0.00     0.000 A 
ATOM     11  C   UNL     1      52.906 -12.903 133.426  1.00  0.00     0.000 A 
ENDBRANCH   5   6
ENDBRANCH   1   5
TORSDOF 4
ENDMDL
MODEL 2
REMARK VINA RESULT:    -4.308      3.602      6.273
REMARK INTER + INTRA:          -6.121
REMARK INTER:                  -5.272
REMARK INTRA:                  -0.849
REMARK UNBOUND:                -0.805
REMARK SMILES CCCCCc1ccccc1
REMARK SMILES IDX 4 1 3 2 2 3 1 4 5 5 6 6 7 7 11 8 8 9 10 10 9 11
REMARK H PARENT
REMARK Flexibility Score: inf
ROOT
ATOM      1  C   UNL     1      48.825 -15.755 132.780  1.00  0.00     0.005 C 
ENDROOT
BRANCH   1   2
ATOM      2  C   UNL     1      49.015 -14.566 133.743  1.00  0.00     0.000 C 
BRANCH   2   3
ATOM      3  C   UNL     1      49.377 -14.956 135.187  1.00  0.00    -0.003 C 
ATOM      4  C   UNL     1      50.728 -14.397 135.635  1.00  0.00     0.004 C 
ENDBRANCH   2   3
ENDBRANCH   1   2
BRANCH   1   5
ATOM      5  C   UNL     1      49.920 -15.884 131.707  1.00  0.00     0.035 C 
BRANCH   5   6
ATOM      6  C   UNL     1      51.304 -15.901 132.302  1.00  0.00    -0.048 A 
ATOM      7  C   UNL     1      51.772 -17.047 132.968  1.00  0.00     0.004 A 
ATOM      8  C   UNL     1      52.129 -14.766 132.225  1.00  0.00     0.004 A 
ATOM      9  C   UNL     1      53.047 -17.057 133.542  1.00  0.00     0.000 A 
ATOM     10  C   UNL     1      53.403 -14.781 132.799  1.00  0.00     0.000 A 
ATOM     11  C   UNL     1      53.863 -15.926 133.457  1.00  0.00     0.000 A 
ENDBRANCH   5   6
ENDBRANCH   1   5
TORSDOF 4
ENDMDL
MODEL 3
REMARK VINA RESULT:    -4.169      1.157      3.888
REMARK INTER + INTRA:          -5.948
REMARK INTER:                  -5.087
REMARK INTRA:                  -0.862
REMARK UNBOUND:                -0.805
REMARK SMILES CCCCCc1ccccc1
REMARK SMILES IDX 4 1 3 2 2 3 1 4 5 5 6 6 7 7 11 8 8 9 10 10 9 11
REMARK H PARENT
REMARK Flexibility Score: inf
ROOT
ATOM      1  C   UNL     1      53.171 -12.878 133.651  1.00  0.00     0.005 C 
ENDROOT
BRANCH   1   2
ATOM      2  C   UNL     1      53.693 -11.427 133.658  1.00  0.00     0.000 C 
BRANCH   2   3
ATOM      3  C   UNL     1      54.499 -11.036 134.910  1.00  0.00    -0.003 C 
ATOM      4  C   UNL     1      55.918 -10.568 134.584  1.00  0.00     0.004 C 
ENDBRANCH   2   3
ENDBRANCH   1   2
BRANCH   1   5
ATOM      5  C   UNL     1      53.855 -13.794 132.621  1.00  0.00     0.035 C 
BRANCH   5   6
ATOM      6  C   UNL     1      55.358 -13.729 132.709  1.00  0.00    -0.048 A 
ATOM      7  C   UNL     1      56.030 -14.337 133.783  1.00  0.00     0.004 A 
ATOM      8  C   UNL     1      56.101 -13.038 131.736  1.00  0.00     0.004 A 
ATOM      9  C   UNL     1      57.423 -14.259 133.878  1.00  0.00     0.000 A 
ATOM     10  C   UNL     1      57.493 -12.962 131.835  1.00  0.00     0.000 A 
ATOM     11  C   UNL     1      58.154 -13.573 132.905  1.00  0.00     0.000 A 
ENDBRANCH   5   6
ENDBRANCH   1   5
TORSDOF 4
ENDMDL
MODEL 4
REMARK VINA RESULT:    -4.123      1.545      4.744
REMARK INTER + INTRA:          -5.892
REMARK INTER:                  -5.609
REMARK INTRA:                  -0.283
REMARK UNBOUND:                -0.805
REMARK SMILES CCCCCc1ccccc1
REMARK SMILES IDX 4 1 3 2 2 3 1 4 5 5 6 6 7 7 11 8 8 9 10 10 9 11
REMARK H PARENT
REMARK Flexibility Score: inf
ROOT
ATOM      1  C   UNL     1      53.154 -14.426 132.577  1.00  0.00     0.005 C 
ENDROOT
BRANCH   1   2
ATOM      2  C   UNL     1      52.140 -13.549 133.337  1.00  0.00     0.000 C 
BRANCH   2   3
ATOM      3  C   UNL     1      51.101 -14.329 134.161  1.00  0.00    -0.003 C 
ATOM      4  C   UNL     1      49.693 -14.257 133.571  1.00  0.00     0.004 C 
ENDBRANCH   2   3
ENDBRANCH   1   2
BRANCH   1   5
ATOM      5  C   UNL     1      54.340 -14.911 133.429  1.00  0.00     0.035 C 
BRANCH   5   6
ATOM      6  C   UNL     1      55.620 -14.194 133.087  1.00  0.00    -0.048 A 
ATOM      7  C   UNL     1      55.636 -13.221 132.073  1.00  0.00     0.004 A 
ATOM      8  C   UNL     1      56.817 -14.509 133.755  1.00  0.00     0.004 A 
ATOM      9  C   UNL     1      56.828 -12.571 131.738  1.00  0.00     0.000 A 
ATOM     10  C   UNL     1      58.006 -13.857 133.417  1.00  0.00     0.000 A 
ATOM     11  C   UNL     1      58.011 -12.887 132.409  1.00  0.00     0.000 A 
ENDBRANCH   5   6
ENDBRANCH   1   5
TORSDOF 4
ENDMDL
MODEL 5
REMARK VINA RESULT:    -4.103      3.619      5.321
REMARK INTER + INTRA:          -5.868
REMARK INTER:                  -5.023
REMARK INTRA:                  -0.845
REMARK UNBOUND:                -0.805
REMARK SMILES CCCCCc1ccccc1
REMARK SMILES IDX 4 1 3 2 2 3 1 4 5 5 6 6 7 7 11 8 8 9 10 10 9 11
REMARK H PARENT
REMARK Flexibility Score: inf
ROOT
ATOM      1  C   UNL     1      53.784 -15.563 133.544  1.00  0.00     0.005 C 
ENDROOT
BRANCH   1   2
ATOM      2  C   UNL     1      53.333 -17.037 133.501  1.00  0.00     0.000 C 
BRANCH   2   3
ATOM      3  C   UNL     1      52.605 -17.528 134.765  1.00  0.00    -0.003 C 
ATOM      4  C   UNL     1      51.180 -18.006 134.486  1.00  0.00     0.004 C 
ENDBRANCH   2   3
ENDBRANCH   1   2
BRANCH   1   5
ATOM      5  C   UNL     1      53.033 -14.640 132.569  1.00  0.00     0.035 C 
BRANCH   5   6
ATOM      6  C   UNL     1      51.539 -14.816 132.653  1.00  0.00    -0.048 A 
ATOM      7  C   UNL     1      50.825 -14.284 133.740  1.00  0.00     0.004 A 
ATOM      8  C   UNL     1      50.848 -15.536 131.662  1.00  0.00     0.004 A 
ATOM      9  C   UNL     1      49.442 -14.466 133.831  1.00  0.00     0.000 A 
ATOM     10  C   UNL     1      49.465 -15.715 131.758  1.00  0.00     0.000 A 
ATOM     11  C   UNL     1      48.762 -15.179 132.841  1.00  0.00     0.000 A 
ENDBRANCH   5   6
ENDBRANCH   1   5
TORSDOF 4
ENDMDL
MODEL 6
REMARK VINA RESULT:    -4.099      5.906      8.154
REMARK INTER + INTRA:          -5.862
REMARK INTER:                  -5.216
REMARK INTRA:                  -0.646
REMARK UNBOUND:                -0.805
REMARK SMILES CCCCCc1ccccc1
REMARK SMILES IDX 4 1 3 2 2 3 1 4 5 5 6 6 7 7 11 8 8 9 10 10 9 11
REMARK H PARENT
REMARK Flexibility Score: inf
ROOT
ATOM      1  C   UNL     1      48.955 -14.647 133.194  1.00  0.00     0.005 C 
ENDROOT
BRANCH   1   2
ATOM      2  C   UNL     1      50.352 -14.209 133.680  1.00  0.00     0.000 C 
BRANCH   2   3
ATOM      3  C   UNL     1      50.628 -14.471 135.171  1.00  0.00    -0.003 C 
ATOM      4  C   UNL     1      49.374 -14.867 135.950  1.00  0.00     0.004 C 
ENDBRANCH   2   3
ENDBRANCH   1   2
BRANCH   1   5
ATOM      5  C   UNL     1      48.956 -15.906 132.309  1.00  0.00     0.035 C 
BRANCH   5   6
ATOM      6  C   UNL     1      48.626 -17.152 133.090  1.00  0.00    -0.048 A 
ATOM      7  C   UNL     1      47.313 -17.651 133.103  1.00  0.00     0.004 A 
ATOM      8  C   UNL     1      49.619 -17.812 133.836  1.00  0.00     0.004 A 
ATOM      9  C   UNL     1      47.000 -18.794 133.846  1.00  0.00     0.000 A 
ATOM     10  C   UNL     1      49.302 -18.954 134.577  1.00  0.00     0.000 A 
ATOM     11  C   UNL     1      47.993 -19.445 134.581  1.00  0.00     0.000 A 
ENDBRANCH   5   6
ENDBRANCH   1   5
TORSDOF 4
ENDMDL
MODEL 7
REMARK VINA RESULT:    -4.087      1.490      4.312
REMARK INTER + INTRA:          -5.847
REMARK INTER:                  -5.063
REMARK INTRA:                  -0.785
REMARK UNBOUND:                -0.805
REMARK SMILES CCCCCc1ccccc1
REMARK SMILES IDX 4 1 3 2 2 3 1 4 5 5 6 6 7 7 11 8 8 9 10 10 9 11
REMARK H PARENT
REMARK Flexibility Score: inf
ROOT
ATOM      1  C   UNL     1      55.722 -14.502 133.696  1.00  0.00     0.005 C 
ENDROOT
BRANCH   1   2
ATOM      2  C   UNL     1      55.009 -13.679 132.605  1.00  0.00     0.000 C 
BRANCH   2   3
ATOM      3  C   UNL     1      53.883 -12.765 133.119  1.00  0.00    -0.003 C 
ATOM      4  C   UNL     1      54.379 -11.378 133.528  1.00  0.00     0.004 C 
ENDBRANCH   2   3
ENDBRANCH   1   2
BRANCH   1   5
ATOM      5  C   UNL     1      57.258 -14.412 133.658  1.00  0.00     0.035 C 
BRANCH   5   6
ATOM      6  C   UNL     1      57.756 -13.024 133.964  1.00  0.00    -0.048 A 
ATOM      7  C   UNL     1      57.438 -12.413 135.190  1.00  0.00     0.004 A 
ATOM      8  C   UNL     1      58.518 -12.313 133.020  1.00  0.00     0.004 A 
ATOM      9  C   UNL     1      57.880 -11.116 135.466  1.00  0.00     0.000 A 
ATOM     10  C   UNL     1      58.958 -11.017 133.301  1.00  0.00     0.000 A 
ATOM     11  C   UNL     1      58.640 -10.418 134.524  1.00  0.00     0.000 A 
ENDBRANCH   5   6
ENDBRANCH   1   5
TORSDOF 4
ENDMDL
MODEL 8
REMARK VINA RESULT:    -4.052      1.105      4.080
REMARK INTER + INTRA:          -5.804
REMARK INTER:                  -4.934
REMARK INTRA:                  -0.871
REMARK UNBOUND:                -0.805
REMARK SMILES CCCCCc1ccccc1
REMARK SMILES IDX 4 1 3 2 2 3 1 4 5 5 6 6 7 7 11 8 8 9 10 10 9 11
REMARK H PARENT
REMARK Flexibility Score: inf
ROOT
ATOM      1  C   UNL     1      54.257 -11.095 134.826  1.00  0.00     0.005 C 
ENDROOT
BRANCH   1   2
ATOM      2  C   UNL     1      53.560 -11.516 133.517  1.00  0.00     0.000 C 
BRANCH   2   3
ATOM      3  C   UNL     1      53.063 -12.972 133.488  1.00  0.00    -0.003 C 
ATOM      4  C   UNL     1      53.967 -13.896 132.673  1.00  0.00     0.004 C 
ENDBRANCH   2   3
ENDBRANCH   1   2
BRANCH   1   5
ATOM      5  C   UNL     1      55.737 -10.704 134.661  1.00  0.00     0.035 C 
BRANCH   5   6
ATOM      6  C   UNL     1      56.569 -11.837 134.119  1.00  0.00    -0.048 A 
ATOM      7  C   UNL     1      56.830 -12.966 134.915  1.00  0.00     0.004 A 
ATOM      8  C   UNL     1      57.117 -11.767 132.826  1.00  0.00     0.004 A 
ATOM      9  C   UNL     1      57.622 -14.008 134.422  1.00  0.00     0.000 A 
ATOM     10  C   UNL     1      57.907 -12.811 132.338  1.00  0.00     0.000 A 
ATOM     11  C   UNL     1      58.159 -13.932 133.135  1.00  0.00     0.000 A 
ENDBRANCH   5   6
ENDBRANCH   1   5
TORSDOF 4
ENDMDL
MODEL 9
REMARK VINA RESULT:    -4.048      3.948      5.917
REMARK INTER + INTRA:          -5.800
REMARK INTER:                  -4.882
REMARK INTRA:                  -0.918
REMARK UNBOUND:                -0.805
REMARK SMILES CCCCCc1ccccc1
REMARK SMILES IDX 4 1 3 2 2 3 1 4 5 5 6 6 7 7 11 8 8 9 10 10 9 11
REMARK H PARENT
REMARK Flexibility Score: inf
ROOT
ATOM      1  C   UNL     1      52.782 -17.434 134.633  1.00  0.00     0.005 C 
ENDROOT
BRANCH   1   2
ATOM      2  C   UNL     1      53.497 -16.817 133.414  1.00  0.00     0.000 C 
BRANCH   2   3
ATOM      3  C   UNL     1      53.809 -15.315 133.541  1.00  0.00    -0.003 C 
ATOM      4  C   UNL     1      52.960 -14.448 132.613  1.00  0.00     0.004 C 
ENDBRANCH   2   3
ENDBRANCH   1   2
BRANCH   1   5
ATOM      5  C   UNL     1      51.355 -17.934 134.347  1.00  0.00     0.035 C 
BRANCH   5   6
ATOM      6  C   UNL     1      50.448 -16.829 133.870  1.00  0.00    -0.048 A 
ATOM      7  C   UNL     1      49.932 -16.852 132.563  1.00  0.00     0.004 A 
ATOM      8  C   UNL     1      50.130 -15.752 134.716  1.00  0.00     0.004 A 
ATOM      9  C   UNL     1      49.109 -15.816 132.112  1.00  0.00     0.000 A 
ATOM     10  C   UNL     1      49.306 -14.718 134.260  1.00  0.00     0.000 A 
ATOM     11  C   UNL     1      48.795 -14.751 132.959  1.00  0.00     0.000 A 
ENDBRANCH   5   6
ENDBRANCH   1   5
TORSDOF 4
ENDMDL
