MODEL 1
REMARK VINA RESULT:    -3.198      0.000      0.000
REMARK INTER + INTRA:          -3.791
REMARK INTER:                  -3.572
REMARK INTRA:                  -0.220
REMARK UNBOUND:                -0.220
REMARK SMILES O=C([O-])c1ccccc1C(=O)[O-]
REMARK SMILES IDX 4 1 9 2 5 3 8 4 6 5 7 6 2 7 1 8 3 9 10 10 11 11 12 12
REMARK H PARENT
REMARK Flexibility Score: inf
ROOT
ATOM      1  C   UNL     1      40.867  17.034   5.651  1.00  0.00     0.006 A 
ATOM      2  C   UNL     1      41.968  17.794   5.169  1.00  0.00     0.006 A 
ATOM      3  C   UNL     1      40.088  16.301   4.736  1.00  0.00     0.010 A 
ATOM      4  C   UNL     1      42.288  17.743   3.799  1.00  0.00     0.010 A 
ATOM      5  C   UNL     1      40.410  16.282   3.378  1.00  0.00     0.001 A 
ATOM      6  C   UNL     1      41.515  16.992   2.913  1.00  0.00     0.001 A 
ENDROOT
BRANCH   1   7
ATOM      7  C   UNL     1      40.547  16.918   7.093  1.00  0.00     0.072 C 
ATOM      8  O   UNL     1      39.671  17.663   7.609  1.00  0.00    -0.545 OA
ATOM      9  O   UNL     1      41.157  15.948   7.879  1.00  0.00    -0.545 OA
ENDBRANCH   1   7
BRANCH   2  10
ATOM     10  C   UNL     1      42.753  18.701   6.037  1.00  0.00     0.072 C 
ATOM     11  O   UNL     1      43.865  18.331   6.501  1.00  0.00    -0.545 OA
ATOM     12  O   UNL     1      42.308  19.992   6.300  1.00  0.00    -0.545 OA
ENDBRANCH   2  10
TORSDOF 2
ENDMDL
MODEL 2
REMARK VINA RESULT:    -3.192      0.058      3.172
REMARK INTER + INTRA:          -3.785
REMARK INTER:                  -3.565
REMARK INTRA:                  -0.220
REMARK UNBOUND:                -0.220
REMARK SMILES O=C([O-])c1ccccc1C(=O)[O-]
REMARK SMILES IDX 4 1 9 2 5 3 8 4 6 5 7 6 2 7 1 8 3 9 10 10 11 11 12 12
REMARK H PARENT
REMARK Flexibility Score: inf
ROOT
ATOM      1  C   UNL     1      41.992  17.833   5.187  1.00  0.00     0.006 A 
ATOM      2  C   UNL     1      40.907  17.051   5.671  1.00  0.00     0.006 A 
ATOM      3  C   UNL     1      42.306  17.794   3.816  1.00  0.00     0.010 A 
ATOM      4  C   UNL     1      40.138  16.308   4.756  1.00  0.00     0.010 A 
ATOM      5  C   UNL     1      41.543  17.033   2.929  1.00  0.00     0.001 A 
ATOM      6  C   UNL     1      40.453  16.301   3.397  1.00  0.00     0.001 A 
ENDROOT
BRANCH   1   7
ATOM      7  C   UNL     1      42.764  18.752   6.056  1.00  0.00     0.072 C 
ATOM      8  O   UNL     1      43.884  18.400   6.513  1.00  0.00    -0.545 OA
ATOM      9  O   UNL     1      42.296  20.033   6.326  1.00  0.00    -0.545 OA
ENDBRANCH   1   7
BRANCH   2  10
ATOM     10  C   UNL     1      40.595  16.924   7.113  1.00  0.00     0.072 C 
ATOM     11  O   UNL     1      39.693  17.635   7.632  1.00  0.00    -0.545 OA
ATOM     12  O   UNL     1      41.244  15.977   7.898  1.00  0.00    -0.545 OA
ENDBRANCH   2  10
TORSDOF 2
ENDMDL
MODEL 3
REMARK VINA RESULT:    -3.181      3.326      5.586
REMARK INTER + INTRA:          -3.773
REMARK INTER:                  -3.558
REMARK INTRA:                  -0.215
REMARK UNBOUND:                -0.220
REMARK SMILES O=C([O-])c1ccccc1C(=O)[O-]
REMARK SMILES IDX 4 1 9 2 5 3 8 4 6 5 7 6 2 7 1 8 3 9 10 10 11 11 12 12
REMARK H PARENT
REMARK Flexibility Score: inf
ROOT
ATOM      1  C   UNL     1      43.920  20.988   7.498  1.00  0.00     0.006 A 
ATOM      2  C   UNL     1      44.308  19.624   7.385  1.00  0.00     0.006 A 
ATOM      3  C   UNL     1      44.876  21.943   7.889  1.00  0.00     0.010 A 
ATOM      4  C   UNL     1      45.654  19.276   7.607  1.00  0.00     0.010 A 
ATOM      5  C   UNL     1      46.201  21.572   8.125  1.00  0.00     0.001 A 
ATOM      6  C   UNL     1      46.591  20.243   7.972  1.00  0.00     0.001 A 
ENDROOT
BRANCH   1   7
ATOM      7  C   UNL     1      42.560  21.462   7.147  1.00  0.00     0.072 C 
ATOM      8  O   UNL     1      41.692  21.617   8.046  1.00  0.00    -0.545 OA
ATOM      9  O   UNL     1      42.245  21.803   5.837  1.00  0.00    -0.545 OA
ENDBRANCH   1   7
BRANCH   2  10
ATOM     10  C   UNL     1      43.340  18.537   7.118  1.00  0.00     0.072 C 
ATOM     11  O   UNL     1      43.307  17.981   5.987  1.00  0.00    -0.545 OA
ATOM     12  O   UNL     1      42.500  18.071   8.123  1.00  0.00    -0.545 OA
ENDBRANCH   2  10
TORSDOF 2
ENDMDL
MODEL 4
REMARK VINA RESULT:    -3.167      1.774      2.637
REMARK INTER + INTRA:          -3.757
REMARK INTER:                  -3.538
REMARK INTRA:                  -0.219
REMARK UNBOUND:                -0.220
REMARK SMILES O=C([O-])c1ccccc1C(=O)[O-]
REMARK SMILES IDX 4 1 9 2 5 3 8 4 6 5 7 6 2 7 1 8 3 9 10 10 11 11 12 12
REMARK H PARENT
REMARK Flexibility Score: inf
ROOT
ATOM      1  C   UNL     1      40.528  17.471   5.923  1.00  0.00     0.006 A 
ATOM      2  C   UNL     1      40.860  17.125   4.584  1.00  0.00     0.006 A 
ATOM      3  C   UNL     1      39.249  17.151   6.416  1.00  0.00     0.010 A 
ATOM      4  C   UNL     1      39.924  16.414   3.809  1.00  0.00     0.010 A 
ATOM      5  C   UNL     1      38.329  16.465   5.623  1.00  0.00     0.001 A 
ATOM      6  C   UNL     1      38.671  16.087   4.326  1.00  0.00     0.001 A 
ENDROOT
BRANCH   1   7
ATOM      7  C   UNL     1      41.501  18.093   6.851  1.00  0.00     0.072 C 
ATOM      8  O   UNL     1      42.333  17.377   7.470  1.00  0.00    -0.545 OA
ATOM      9  O   UNL     1      41.553  19.473   7.003  1.00  0.00    -0.545 OA
ENDBRANCH   1   7
BRANCH   2  10
ATOM     10  C   UNL     1      42.125  17.546   3.941  1.00  0.00     0.072 C 
ATOM     11  O   UNL     1      43.046  16.709   3.743  1.00  0.00    -0.545 OA
ATOM     12  O   UNL     1      42.291  18.850   3.488  1.00  0.00    -0.545 OA
ENDBRANCH   2  10
TORSDOF 2
ENDMDL
MODEL 5
REMARK VINA RESULT:    -3.166      2.087      3.437
REMARK INTER + INTRA:          -3.756
REMARK INTER:                  -3.601
REMARK INTRA:                  -0.155
REMARK UNBOUND:                -0.220
REMARK SMILES O=C([O-])c1ccccc1C(=O)[O-]
REMARK SMILES IDX 4 1 9 2 5 3 8 4 6 5 7 6 2 7 1 8 3 9 10 10 11 11 12 12
REMARK H PARENT
REMARK Flexibility Score: inf
ROOT
ATOM      1  C   UNL     1      41.538  17.727   5.562  1.00  0.00     0.006 A 
ATOM      2  C   UNL     1      41.816  18.489   6.730  1.00  0.00     0.006 A 
ATOM      3  C   UNL     1      40.404  16.894   5.541  1.00  0.00     0.010 A 
ATOM      4  C   UNL     1      40.915  18.437   7.810  1.00  0.00     0.010 A 
ATOM      5  C   UNL     1      39.535  16.842   6.632  1.00  0.00     0.001 A 
ATOM      6  C   UNL     1      39.784  17.622   7.760  1.00  0.00     0.001 A 
ENDROOT
BRANCH   1   7
ATOM      7  C   UNL     1      42.355  17.829   4.330  1.00  0.00     0.072 C 
ATOM      8  O   UNL     1      43.070  16.859   3.962  1.00  0.00    -0.545 OA
ATOM      9  O   UNL     1      42.294  18.965   3.531  1.00  0.00    -0.545 OA
ENDBRANCH   1   7
BRANCH   2  10
ATOM     10  C   UNL     1      43.057  19.279   6.892  1.00  0.00     0.072 C 
ATOM     11  O   UNL     1      43.000  20.532   7.013  1.00  0.00    -0.545 OA
ATOM     12  O   UNL     1      44.294  18.649   6.976  1.00  0.00    -0.545 OA
ENDBRANCH   2  10
TORSDOF 2
ENDMDL
MODEL 6
REMARK VINA RESULT:    -3.159      2.131      3.427
REMARK INTER + INTRA:          -3.748
REMARK INTER:                  -3.570
REMARK INTRA:                  -0.178
REMARK UNBOUND:                -0.220
REMARK SMILES O=C([O-])c1ccccc1C(=O)[O-]
REMARK SMILES IDX 4 1 9 2 5 3 8 4 6 5 7 6 2 7 1 8 3 9 10 10 11 11 12 12
REMARK H PARENT
REMARK Flexibility Score: inf
ROOT
ATOM      1  C   UNL     1      41.881  18.512   6.809  1.00  0.00     0.006 A 
ATOM      2  C   UNL     1      41.542  17.791   5.631  1.00  0.00     0.006 A 
ATOM      3  C   UNL     1      41.017  18.458   7.918  1.00  0.00     0.010 A 
ATOM      4  C   UNL     1      40.383  16.992   5.628  1.00  0.00     0.010 A 
ATOM      5  C   UNL     1      39.861  17.676   7.885  1.00  0.00     0.001 A 
ATOM      6  C   UNL     1      39.552  16.936   6.747  1.00  0.00     0.001 A 
ENDROOT
BRANCH   1   7
ATOM      7  C   UNL     1      43.151  19.263   6.947  1.00  0.00     0.072 C 
ATOM      8  O   UNL     1      43.139  20.520   7.022  1.00  0.00    -0.545 OA
ATOM      9  O   UNL     1      44.363  18.591   7.061  1.00  0.00    -0.545 OA
ENDBRANCH   1   7
BRANCH   2  10
ATOM     10  C   UNL     1      42.317  17.903   4.375  1.00  0.00     0.072 C 
ATOM     11  O   UNL     1      42.999  16.927   3.961  1.00  0.00    -0.545 OA
ATOM     12  O   UNL     1      42.255  19.058   3.602  1.00  0.00    -0.545 OA
ENDBRANCH   2  10
TORSDOF 2
ENDMDL
MODEL 7
REMARK VINA RESULT:    -3.157      1.778      3.166
REMARK INTER + INTRA:          -3.745
REMARK INTER:                  -3.526
REMARK INTRA:                  -0.219
REMARK UNBOUND:                -0.220
REMARK SMILES O=C([O-])c1ccccc1C(=O)[O-]
REMARK SMILES IDX 4 1 9 2 5 3 8 4 6 5 7 6 2 7 1 8 3 9 10 10 11 11 12 12
REMARK H PARENT
REMARK Flexibility Score: inf
ROOT
ATOM      1  C   UNL     1      40.858  17.120   4.598  1.00  0.00     0.006 A 
ATOM      2  C   UNL     1      40.555  17.470   5.942  1.00  0.00     0.006 A 
ATOM      3  C   UNL     1      39.902  16.417   3.841  1.00  0.00     0.010 A 
ATOM      4  C   UNL     1      39.284  17.160   6.460  1.00  0.00     0.010 A 
ATOM      5  C   UNL     1      38.655  16.101   4.382  1.00  0.00     0.001 A 
ATOM      6  C   UNL     1      38.343  16.482   5.685  1.00  0.00     0.001 A 
ENDROOT
BRANCH   1   7
ATOM      7  C   UNL     1      42.115  17.531   3.930  1.00  0.00     0.072 C 
ATOM      8  O   UNL     1      43.014  16.680   3.692  1.00  0.00    -0.545 OA
ATOM      9  O   UNL     1      42.294  18.841   3.500  1.00  0.00    -0.545 OA
ENDBRANCH   1   7
BRANCH   2  10
ATOM     10  C   UNL     1      41.550  18.083   6.851  1.00  0.00     0.072 C 
ATOM     11  O   UNL     1      42.350  17.356   7.500  1.00  0.00    -0.545 OA
ATOM     12  O   UNL     1      41.661  19.465   6.955  1.00  0.00    -0.545 OA
ENDBRANCH   2  10
TORSDOF 2
ENDMDL
MODEL 8
REMARK VINA RESULT:    -3.083      2.894      4.209
REMARK INTER + INTRA:          -3.663
REMARK INTER:                  -3.634
REMARK INTRA:                  -0.030
REMARK UNBOUND:                -0.220
REMARK SMILES O=C([O-])c1ccccc1C(=O)[O-]
REMARK SMILES IDX 4 1 9 2 5 3 8 4 6 5 7 6 2 7 1 8 3 9 10 10 11 11 12 12
REMARK H PARENT
REMARK Flexibility Score: inf
ROOT
ATOM      1  C   UNL     1      38.502  16.996   5.725  1.00  0.00     0.006 A 
ATOM      2  C   UNL     1      39.891  17.083   5.432  1.00  0.00     0.006 A 
ATOM      3  C   UNL     1      38.083  17.000   7.069  1.00  0.00     0.010 A 
ATOM      4  C   UNL     1      40.805  17.235   6.492  1.00  0.00     0.010 A 
ATOM      5  C   UNL     1      39.009  17.130   8.105  1.00  0.00     0.001 A 
ATOM      6  C   UNL     1      40.366  17.260   7.816  1.00  0.00     0.001 A 
ENDROOT
BRANCH   1   7
ATOM      7  C   UNL     1      37.463  16.976   4.668  1.00  0.00     0.072 C 
ATOM      8  O   UNL     1      36.861  15.903   4.392  1.00  0.00    -0.545 OA
ATOM      9  O   UNL     1      37.093  18.145   4.015  1.00  0.00    -0.545 OA
ENDBRANCH   1   7
BRANCH   2  10
ATOM     10  C   UNL     1      40.428  16.945   4.060  1.00  0.00     0.072 C 
ATOM     11  O   UNL     1      41.279  17.767   3.626  1.00  0.00    -0.545 OA
ATOM     12  O   UNL     1      40.052  15.875   3.255  1.00  0.00    -0.545 OA
ENDBRANCH   2  10
TORSDOF 2
ENDMDL
MODEL 9
REMARK VINA RESULT:    -3.056      1.430      3.244
REMARK INTER + INTRA:          -3.633
REMARK INTER:                  -3.447
REMARK INTRA:                  -0.186
REMARK UNBOUND:                -0.220
REMARK SMILES O=C([O-])c1ccccc1C(=O)[O-]
REMARK SMILES IDX 4 1 9 2 5 3 8 4 6 5 7 6 2 7 1 8 3 9 10 10 11 11 12 12
REMARK H PARENT
REMARK Flexibility Score: inf
ROOT
ATOM      1  C   UNL     1      41.363  17.383   5.580  1.00  0.00     0.006 A 
ATOM      2  C   UNL     1      40.149  16.977   4.960  1.00  0.00     0.006 A 
ATOM      3  C   UNL     1      42.559  17.333   4.841  1.00  0.00     0.010 A 
ATOM      4  C   UNL     1      40.167  16.596   3.606  1.00  0.00     0.010 A 
ATOM      5  C   UNL     1      42.557  16.931   3.505  1.00  0.00     0.001 A 
ATOM      6  C   UNL     1      41.361  16.575   2.885  1.00  0.00     0.001 A 
ENDROOT
BRANCH   1   7
ATOM      7  C   UNL     1      41.412  17.931   6.956  1.00  0.00     0.072 C 
ATOM      8  O   UNL     1      41.679  17.177   7.929  1.00  0.00    -0.545 OA
ATOM      9  O   UNL     1      41.231  19.290   7.184  1.00  0.00    -0.545 OA
ENDBRANCH   1   7
BRANCH   2  10
ATOM     10  C   UNL     1      38.873  16.864   5.702  1.00  0.00     0.072 C 
ATOM     11  O   UNL     1      37.910  17.630   5.427  1.00  0.00    -0.545 OA
ATOM     12  O   UNL     1      38.695  15.875   6.663  1.00  0.00    -0.545 OA
ENDBRANCH   2  10
TORSDOF 2
ENDMDL
