MODEL 1
REMARK VINA RESULT:    -4.375      0.000      0.000
REMARK INTER + INTRA:         -10.482
REMARK INTER:                  -7.955
REMARK INTRA:                  -2.526
REMARK UNBOUND:                -2.526
REMARK SMILES CCCCCCCCCCCCCC[C@@H](C)C(=O)[O-]
REMARK SMILES IDX 9 1 10 2 11 3 12 4 13 5 14 6 15 7 16 8 17 9 18 10 19 11 8 12
REMARK SMILES IDX 7 13 6 14 5 15 4 16 3 17 2 18 1 19
REMARK H PARENT
REMARK Flexibility Score: inf
ROOT
ATOM      1  C   UNL     1      15.378   2.974   0.534  1.00  0.00     0.000 C 
ENDROOT
BRANCH   1   2
ATOM      2  C   UNL     1      14.534   3.237   1.794  1.00  0.00     0.000 C 
BRANCH   2   3
ATOM      3  C   UNL     1      13.394   2.226   2.033  1.00  0.00     0.000 C 
BRANCH   3   4
ATOM      4  C   UNL     1      12.002   2.680   1.550  1.00  0.00     0.000 C 
BRANCH   4   5
ATOM      5  C   UNL     1      11.830   4.203   1.401  1.00  0.00     0.001 C 
BRANCH   5   6
ATOM      6  C   UNL     1      10.385   4.608   1.063  1.00  0.00     0.009 C 
BRANCH   6   7
ATOM      7  C   UNL     1      10.101   4.561  -0.455  1.00  0.00     0.032 C 
ATOM      8  C   UNL     1       9.241   3.351  -0.843  1.00  0.00     0.014 C 
BRANCH   7   9
ATOM      9  C   UNL     1       9.409   5.827  -0.885  1.00  0.00     0.044 C 
ATOM     10  O   UNL     1       8.905   6.595  -0.024  1.00  0.00    -0.550 OA
ATOM     11  O   UNL     1       9.330   6.164  -2.232  1.00  0.00    -0.550 OA
ENDBRANCH   7   9
ENDBRANCH   6   7
ENDBRANCH   5   6
ENDBRANCH   4   5
ENDBRANCH   3   4
ENDBRANCH   2   3
ENDBRANCH   1   2
BRANCH   1  12
ATOM     12  C   UNL     1      15.280   4.113  -0.496  1.00  0.00     0.000 C 
BRANCH  12  13
ATOM     13  C   UNL     1      14.773   3.627  -1.863  1.00  0.00    -0.000 C 
BRANCH  13  14
ATOM     14  C   UNL     1      13.281   3.255  -1.841  1.00  0.00    -0.000 C 
BRANCH  14  15
ATOM     15  C   UNL     1      13.018   1.856  -2.435  1.00  0.00    -0.000 C 
BRANCH  15  16
ATOM     16  C   UNL     1      12.965   0.738  -1.379  1.00  0.00    -0.000 C 
BRANCH  16  17
ATOM     17  C   UNL     1      14.284  -0.046  -1.274  1.00  0.00    -0.000 C 
BRANCH  17  18
ATOM     18  C   UNL     1      15.150   0.082  -2.538  1.00  0.00    -0.003 C 
ATOM     19  C   UNL     1      16.531   0.669  -2.250  1.00  0.00     0.004 C 
ENDBRANCH  17  18
ENDBRANCH  16  17
ENDBRANCH  15  16
ENDBRANCH  14  15
ENDBRANCH  13  14
ENDBRANCH  12  13
ENDBRANCH   1  12
TORSDOF 14
ENDMDL
MODEL 2
REMARK VINA RESULT:    -4.279      3.128      5.788
REMARK INTER + INTRA:         -10.308
REMARK INTER:                  -8.386
REMARK INTRA:                  -1.922
REMARK UNBOUND:                -2.526
REMARK SMILES CCCCCCCCCCCCCC[C@@H](C)C(=O)[O-]
REMARK SMILES IDX 9 1 10 2 11 3 12 4 13 5 14 6 15 7 16 8 17 9 18 10 19 11 8 12
REMARK SMILES IDX 7 13 6 14 5 15 4 16 3 17 2 18 1 19
REMARK H PARENT
REMARK Flexibility Score: inf
ROOT
ATOM      1  C   UNL     1      11.373   4.320   1.478  1.00  0.00     0.000 C 
ENDROOT
BRANCH   1   2
ATOM      2  C   UNL     1      11.474   3.422   0.232  1.00  0.00     0.000 C 
BRANCH   2   3
ATOM      3  C   UNL     1      11.165   1.931   0.480  1.00  0.00     0.000 C 
BRANCH   3   4
ATOM      4  C   UNL     1      12.081   0.938  -0.262  1.00  0.00     0.000 C 
BRANCH   4   5
ATOM      5  C   UNL     1      11.971   0.975  -1.798  1.00  0.00     0.001 C 
BRANCH   5   6
ATOM      6  C   UNL     1      13.208   1.597  -2.468  1.00  0.00     0.009 C 
BRANCH   6   7
ATOM      7  C   UNL     1      14.529   1.110  -1.831  1.00  0.00     0.032 C 
ATOM      8  C   UNL     1      15.243   0.072  -2.707  1.00  0.00     0.014 C 
BRANCH   7   9
ATOM      9  C   UNL     1      15.444   2.281  -1.593  1.00  0.00     0.044 C 
ATOM     10  O   UNL     1      15.081   3.442  -1.918  1.00  0.00    -0.550 OA
ATOM     11  O   UNL     1      16.691   2.093  -1.006  1.00  0.00    -0.550 OA
ENDBRANCH   7   9
ENDBRANCH   6   7
ENDBRANCH   5   6
ENDBRANCH   4   5
ENDBRANCH   3   4
ENDBRANCH   2   3
ENDBRANCH   1   2
BRANCH   1  12
ATOM     12  C   UNL     1      12.726   4.513   2.183  1.00  0.00     0.000 C 
BRANCH  12  13
ATOM     13  C   UNL     1      13.918   4.311   1.235  1.00  0.00    -0.000 C 
BRANCH  13  14
ATOM     14  C   UNL     1      15.021   3.434   1.852  1.00  0.00    -0.000 C 
BRANCH  14  15
ATOM     15  C   UNL     1      14.504   2.037   2.250  1.00  0.00    -0.000 C 
BRANCH  15  16
ATOM     16  C   UNL     1      15.075   1.525   3.584  1.00  0.00    -0.000 C 
BRANCH  16  17
ATOM     17  C   UNL     1      14.151   1.814   4.779  1.00  0.00    -0.000 C 
BRANCH  17  18
ATOM     18  C   UNL     1      14.873   1.682   6.129  1.00  0.00    -0.003 C 
ATOM     19  C   UNL     1      16.312   2.196   6.082  1.00  0.00     0.004 C 
ENDBRANCH  17  18
ENDBRANCH  16  17
ENDBRANCH  15  16
ENDBRANCH  14  15
ENDBRANCH  13  14
ENDBRANCH  12  13
ENDBRANCH   1  12
TORSDOF 14
ENDMDL
MODEL 3
REMARK VINA RESULT:    -4.275      1.071      2.141
REMARK INTER + INTRA:         -10.299
REMARK INTER:                  -8.296
REMARK INTRA:                  -2.004
REMARK UNBOUND:                -2.526
REMARK SMILES CCCCCCCCCCCCCC[C@@H](C)C(=O)[O-]
REMARK SMILES IDX 9 1 10 2 11 3 12 4 13 5 14 6 15 7 16 8 17 9 18 10 19 11 8 12
REMARK SMILES IDX 7 13 6 14 5 15 4 16 3 17 2 18 1 19
REMARK H PARENT
REMARK Flexibility Score: inf
ROOT
ATOM      1  C   UNL     1      14.945   3.127   1.144  1.00  0.00     0.000 C 
ENDROOT
BRANCH   1   2
ATOM      2  C   UNL     1      13.452   3.191   1.513  1.00  0.00     0.000 C 
BRANCH   2   3
ATOM      3  C   UNL     1      12.937   4.595   1.891  1.00  0.00     0.000 C 
BRANCH   3   4
ATOM      4  C   UNL     1      11.433   4.829   1.649  1.00  0.00     0.000 C 
BRANCH   4   5
ATOM      5  C   UNL     1      10.726   3.730   0.834  1.00  0.00     0.001 C 
BRANCH   5   6
ATOM      6  C   UNL     1      10.551   4.108  -0.647  1.00  0.00     0.009 C 
BRANCH   6   7
ATOM      7  C   UNL     1       9.091   4.476  -0.991  1.00  0.00     0.032 C 
ATOM      8  C   UNL     1       8.107   3.993   0.082  1.00  0.00     0.014 C 
BRANCH   7   9
ATOM      9  C   UNL     1       8.964   5.967  -1.154  1.00  0.00     0.044 C 
ATOM     10  O   UNL     1       9.047   6.721  -0.150  1.00  0.00    -0.550 OA
ATOM     11  O   UNL     1       8.763   6.524  -2.413  1.00  0.00    -0.550 OA
ENDBRANCH   7   9
ENDBRANCH   6   7
ENDBRANCH   5   6
ENDBRANCH   4   5
ENDBRANCH   3   4
ENDBRANCH   2   3
ENDBRANCH   1   2
BRANCH   1  12
ATOM     12  C   UNL     1      15.302   4.029  -0.049  1.00  0.00     0.000 C 
BRANCH  12  13
ATOM     13  C   UNL     1      15.289   3.269  -1.385  1.00  0.00    -0.000 C 
BRANCH  13  14
ATOM     14  C   UNL     1      16.304   2.114  -1.416  1.00  0.00    -0.000 C 
BRANCH  14  15
ATOM     15  C   UNL     1      15.689   0.809  -1.960  1.00  0.00    -0.000 C 
BRANCH  15  16
ATOM     16  C   UNL     1      14.156   0.858  -2.089  1.00  0.00    -0.000 C 
BRANCH  16  17
ATOM     17  C   UNL     1      13.439   0.019  -1.017  1.00  0.00    -0.000 C 
BRANCH  17  18
ATOM     18  C   UNL     1      12.029   0.545  -0.702  1.00  0.00    -0.003 C 
ATOM     19  C   UNL     1      11.171   0.721  -1.954  1.00  0.00     0.004 C 
ENDBRANCH  17  18
ENDBRANCH  16  17
ENDBRANCH  15  16
ENDBRANCH  14  15
ENDBRANCH  13  14
ENDBRANCH  12  13
ENDBRANCH   1  12
TORSDOF 14
ENDMDL
MODEL 4
REMARK VINA RESULT:    -4.269      3.590      6.277
REMARK INTER + INTRA:         -10.289
REMARK INTER:                  -8.269
REMARK INTRA:                  -2.020
REMARK UNBOUND:                -2.526
REMARK SMILES CCCCCCCCCCCCCC[C@@H](C)C(=O)[O-]
REMARK SMILES IDX 9 1 10 2 11 3 12 4 13 5 14 6 15 7 16 8 17 9 18 10 19 11 8 12
REMARK SMILES IDX 7 13 6 14 5 15 4 16 3 17 2 18 1 19
REMARK H PARENT
REMARK Flexibility Score: inf
ROOT
ATOM      1  C   UNL     1      13.413   3.682   1.812  1.00  0.00     0.000 C 
ENDROOT
BRANCH   1   2
ATOM      2  C   UNL     1      12.433   2.586   1.356  1.00  0.00     0.000 C 
BRANCH   2   3
ATOM      3  C   UNL     1      11.807   2.815  -0.035  1.00  0.00     0.000 C 
BRANCH   3   4
ATOM      4  C   UNL     1      11.952   1.639  -1.022  1.00  0.00     0.000 C 
BRANCH   4   5
ATOM      5  C   UNL     1      13.264   0.844  -0.896  1.00  0.00     0.001 C 
BRANCH   5   6
ATOM      6  C   UNL     1      14.354   1.337  -1.864  1.00  0.00     0.009 C 
BRANCH   6   7
ATOM      7  C   UNL     1      15.539   2.000  -1.127  1.00  0.00     0.032 C 
ATOM      8  C   UNL     1      16.893   1.546  -1.689  1.00  0.00     0.014 C 
BRANCH   7   9
ATOM      9  C   UNL     1      15.430   3.498  -1.228  1.00  0.00     0.044 C 
ATOM     10  O   UNL     1      16.063   4.232  -0.424  1.00  0.00    -0.550 OA
ATOM     11  O   UNL     1      14.640   4.084  -2.212  1.00  0.00    -0.550 OA
ENDBRANCH   7   9
ENDBRANCH   6   7
ENDBRANCH   5   6
ENDBRANCH   4   5
ENDBRANCH   3   4
ENDBRANCH   2   3
ENDBRANCH   1   2
BRANCH   1  12
ATOM     12  C   UNL     1      14.613   3.119   2.591  1.00  0.00     0.000 C 
BRANCH  12  13
ATOM     13  C   UNL     1      14.679   1.584   2.542  1.00  0.00    -0.000 C 
BRANCH  13  14
ATOM     14  C   UNL     1      15.039   0.965   3.904  1.00  0.00    -0.000 C 
BRANCH  14  15
ATOM     15  C   UNL     1      14.235   1.591   5.061  1.00  0.00    -0.000 C 
BRANCH  15  16
ATOM     16  C   UNL     1      15.081   1.880   6.314  1.00  0.00    -0.000 C 
BRANCH  16  17
ATOM     17  C   UNL     1      16.541   2.229   5.980  1.00  0.00    -0.000 C 
BRANCH  17  18
ATOM     18  C   UNL     1      17.547   1.425   6.819  1.00  0.00    -0.003 C 
ATOM     19  C   UNL     1      17.307  -0.083   6.743  1.00  0.00     0.004 C 
ENDBRANCH  17  18
ENDBRANCH  16  17
ENDBRANCH  15  16
ENDBRANCH  14  15
ENDBRANCH  13  14
ENDBRANCH  12  13
ENDBRANCH   1  12
TORSDOF 14
ENDMDL
MODEL 5
REMARK VINA RESULT:    -4.260      4.458      6.464
REMARK INTER + INTRA:         -10.273
REMARK INTER:                  -8.124
REMARK INTRA:                  -2.149
REMARK UNBOUND:                -2.526
REMARK SMILES CCCCCCCCCCCCCC[C@@H](C)C(=O)[O-]
REMARK SMILES IDX 9 1 10 2 11 3 12 4 13 5 14 6 15 7 16 8 17 9 18 10 19 11 8 12
REMARK SMILES IDX 7 13 6 14 5 15 4 16 3 17 2 18 1 19
REMARK H PARENT
REMARK Flexibility Score: inf
ROOT
ATOM      1  C   UNL     1      15.002   3.220  -1.506  1.00  0.00     0.000 C 
ENDROOT
BRANCH   1   2
ATOM      2  C   UNL     1      15.327   3.701  -0.080  1.00  0.00     0.000 C 
BRANCH   2   3
ATOM      3  C   UNL     1      15.377   2.585   0.984  1.00  0.00     0.000 C 
BRANCH   3   4
ATOM      4  C   UNL     1      14.974   3.017   2.408  1.00  0.00     0.000 C 
BRANCH   4   5
ATOM      5  C   UNL     1      14.345   1.908   3.270  1.00  0.00     0.001 C 
BRANCH   5   6
ATOM      6  C   UNL     1      15.356   1.250   4.225  1.00  0.00     0.009 C 
BRANCH   6   7
ATOM      7  C   UNL     1      15.304   1.856   5.644  1.00  0.00     0.032 C 
ATOM      8  C   UNL     1      13.894   1.795   6.245  1.00  0.00     0.014 C 
BRANCH   7   9
ATOM      9  C   UNL     1      16.266   1.129   6.546  1.00  0.00     0.044 C 
ATOM     10  O   UNL     1      17.313   1.703   6.945  1.00  0.00    -0.550 OA
ATOM     11  O   UNL     1      16.003  -0.175   6.953  1.00  0.00    -0.550 OA
ENDBRANCH   7   9
ENDBRANCH   6   7
ENDBRANCH   5   6
ENDBRANCH   4   5
ENDBRANCH   3   4
ENDBRANCH   2   3
ENDBRANCH   1   2
BRANCH   1  12
ATOM     12  C   UNL     1      15.474   1.781  -1.771  1.00  0.00     0.000 C 
BRANCH  12  13
ATOM     13  C   UNL     1      14.306   0.822  -2.054  1.00  0.00    -0.000 C 
BRANCH  13  14
ATOM     14  C   UNL     1      13.017   1.563  -2.450  1.00  0.00    -0.000 C 
BRANCH  14  15
ATOM     15  C   UNL     1      11.834   1.216  -1.524  1.00  0.00    -0.000 C 
BRANCH  15  16
ATOM     16  C   UNL     1      12.220   1.131  -0.036  1.00  0.00    -0.000 C 
BRANCH  16  17
ATOM     17  C   UNL     1      11.441   2.126   0.840  1.00  0.00    -0.000 C 
BRANCH  17  18
ATOM     18  C   UNL     1      11.631   3.583   0.390  1.00  0.00    -0.003 C 
ATOM     19  C   UNL     1      11.733   4.556   1.565  1.00  0.00     0.004 C 
ENDBRANCH  17  18
ENDBRANCH  16  17
ENDBRANCH  15  16
ENDBRANCH  14  15
ENDBRANCH  13  14
ENDBRANCH  12  13
ENDBRANCH   1  12
TORSDOF 14
ENDMDL
MODEL 6
REMARK VINA RESULT:    -4.257      2.054      4.471
REMARK INTER + INTRA:         -10.267
REMARK INTER:                  -8.156
REMARK INTRA:                  -2.110
REMARK UNBOUND:                -2.526
REMARK SMILES CCCCCCCCCCCCCC[C@@H](C)C(=O)[O-]
REMARK SMILES IDX 9 1 10 2 11 3 12 4 13 5 14 6 15 7 16 8 17 9 18 10 19 11 8 12
REMARK SMILES IDX 7 13 6 14 5 15 4 16 3 17 2 18 1 19
REMARK H PARENT
REMARK Flexibility Score: inf
ROOT
ATOM      1  C   UNL     1      14.895   3.812  -1.404  1.00  0.00     0.000 C 
ENDROOT
BRANCH   1   2
ATOM      2  C   UNL     1      14.649   2.323  -1.709  1.00  0.00     0.000 C 
BRANCH   2   3
ATOM      3  C   UNL     1      13.171   1.941  -1.928  1.00  0.00     0.000 C 
BRANCH   3   4
ATOM      4  C   UNL     1      12.553   1.053  -0.829  1.00  0.00     0.000 C 
BRANCH   4   5
ATOM      5  C   UNL     1      11.519   1.756   0.069  1.00  0.00     0.001 C 
BRANCH   5   6
ATOM      6  C   UNL     1      11.548   3.288  -0.076  1.00  0.00     0.009 C 
BRANCH   6   7
ATOM      7  C   UNL     1      10.880   4.004   1.118  1.00  0.00     0.032 C 
ATOM      8  C   UNL     1      11.880   4.853   1.914  1.00  0.00     0.014 C 
BRANCH   7   9
ATOM      9  C   UNL     1       9.758   4.880   0.627  1.00  0.00     0.044 C 
ATOM     10  O   UNL     1       9.193   5.683   1.414  1.00  0.00    -0.550 OA
ATOM     11  O   UNL     1       9.342   4.815  -0.699  1.00  0.00    -0.550 OA
ENDBRANCH   7   9
ENDBRANCH   6   7
ENDBRANCH   5   6
ENDBRANCH   4   5
ENDBRANCH   3   4
ENDBRANCH   2   3
ENDBRANCH   1   2
BRANCH   1  12
ATOM     12  C   UNL     1      15.264   4.064   0.067  1.00  0.00     0.000 C 
BRANCH  12  13
ATOM     13  C   UNL     1      15.420   2.761   0.866  1.00  0.00    -0.000 C 
BRANCH  13  14
ATOM     14  C   UNL     1      15.155   2.955   2.369  1.00  0.00    -0.000 C 
BRANCH  14  15
ATOM     15  C   UNL     1      13.976   2.097   2.871  1.00  0.00    -0.000 C 
BRANCH  15  16
ATOM     16  C   UNL     1      14.380   1.051   3.925  1.00  0.00    -0.000 C 
BRANCH  16  17
ATOM     17  C   UNL     1      15.609   1.475   4.747  1.00  0.00    -0.000 C 
BRANCH  17  18
ATOM     18  C   UNL     1      15.235   1.977   6.151  1.00  0.00    -0.003 C 
ATOM     19  C   UNL     1      13.789   1.658   6.527  1.00  0.00     0.004 C 
ENDBRANCH  17  18
ENDBRANCH  16  17
ENDBRANCH  15  16
ENDBRANCH  14  15
ENDBRANCH  13  14
ENDBRANCH  12  13
ENDBRANCH   1  12
TORSDOF 14
ENDMDL
MODEL 7
REMARK VINA RESULT:    -4.220      1.308      2.308
REMARK INTER + INTRA:         -10.201
REMARK INTER:                  -7.185
REMARK INTRA:                  -3.016
REMARK UNBOUND:                -2.526
REMARK SMILES CCCCCCCCCCCCCC[C@@H](C)C(=O)[O-]
REMARK SMILES IDX 9 1 10 2 11 3 12 4 13 5 14 6 15 7 16 8 17 9 18 10 19 11 8 12
REMARK SMILES IDX 7 13 6 14 5 15 4 16 3 17 2 18 1 19
REMARK H PARENT
REMARK Flexibility Score: inf
ROOT
ATOM      1  C   UNL     1      15.490   3.771   0.044  1.00  0.00     0.000 C 
ENDROOT
BRANCH   1   2
ATOM      2  C   UNL     1      15.060   2.689   1.050  1.00  0.00     0.000 C 
BRANCH   2   3
ATOM      3  C   UNL     1      13.862   3.074   1.943  1.00  0.00     0.000 C 
BRANCH   3   4
ATOM      4  C   UNL     1      13.474   4.566   1.913  1.00  0.00     0.000 C 
BRANCH   4   5
ATOM      5  C   UNL     1      11.987   4.844   1.624  1.00  0.00     0.001 C 
BRANCH   5   6
ATOM      6  C   UNL     1      11.272   3.644   0.979  1.00  0.00     0.009 C 
BRANCH   6   7
ATOM      7  C   UNL     1      10.367   4.063  -0.200  1.00  0.00     0.032 C 
ATOM      8  C   UNL     1       9.648   2.862  -0.829  1.00  0.00     0.014 C 
BRANCH   7   9
ATOM      9  C   UNL     1       9.350   5.069   0.267  1.00  0.00     0.044 C 
ATOM     10  O   UNL     1       8.457   4.729   1.088  1.00  0.00    -0.550 OA
ATOM     11  O   UNL     1       9.392   6.380  -0.194  1.00  0.00    -0.550 OA
ENDBRANCH   7   9
ENDBRANCH   6   7
ENDBRANCH   5   6
ENDBRANCH   4   5
ENDBRANCH   3   4
ENDBRANCH   2   3
ENDBRANCH   1   2
BRANCH   1  12
ATOM     12  C   UNL     1      15.285   3.340  -1.418  1.00  0.00     0.000 C 
BRANCH  12  13
ATOM     13  C   UNL     1      13.847   3.578  -1.905  1.00  0.00    -0.000 C 
BRANCH  13  14
ATOM     14  C   UNL     1      13.091   2.266  -2.177  1.00  0.00    -0.000 C 
BRANCH  14  15
ATOM     15  C   UNL     1      14.027   1.041  -2.177  1.00  0.00    -0.000 C 
BRANCH  15  16
ATOM     16  C   UNL     1      13.608  -0.055  -1.181  1.00  0.00    -0.000 C 
BRANCH  16  17
ATOM     17  C   UNL     1      12.314   0.290  -0.424  1.00  0.00    -0.000 C 
BRANCH  17  18
ATOM     18  C   UNL     1      12.369  -0.124   1.056  1.00  0.00    -0.003 C 
ATOM     19  C   UNL     1      11.045   0.111   1.783  1.00  0.00     0.004 C 
ENDBRANCH  17  18
ENDBRANCH  16  17
ENDBRANCH  15  16
ENDBRANCH  14  15
ENDBRANCH  13  14
ENDBRANCH  12  13
ENDBRANCH   1  12
TORSDOF 14
ENDMDL
MODEL 8
REMARK VINA RESULT:    -4.216      3.117      5.930
REMARK INTER + INTRA:         -10.192
REMARK INTER:                  -7.971
REMARK INTRA:                  -2.221
REMARK UNBOUND:                -2.526
REMARK SMILES CCCCCCCCCCCCCC[C@@H](C)C(=O)[O-]
REMARK SMILES IDX 9 1 10 2 11 3 12 4 13 5 14 6 15 7 16 8 17 9 18 10 19 11 8 12
REMARK SMILES IDX 7 13 6 14 5 15 4 16 3 17 2 18 1 19
REMARK H PARENT
REMARK Flexibility Score: inf
ROOT
ATOM      1  C   UNL     1      15.381   2.926   0.703  1.00  0.00     0.000 C 
ENDROOT
BRANCH   1   2
ATOM      2  C   UNL     1      15.139   4.137  -0.217  1.00  0.00     0.000 C 
BRANCH   2   3
ATOM      3  C   UNL     1      14.978   3.793  -1.712  1.00  0.00     0.000 C 
BRANCH   3   4
ATOM      4  C   UNL     1      13.523   3.714  -2.215  1.00  0.00     0.000 C 
BRANCH   4   5
ATOM      5  C   UNL     1      12.735   2.482  -1.731  1.00  0.00     0.001 C 
BRANCH   5   6
ATOM      6  C   UNL     1      13.147   1.190  -2.458  1.00  0.00     0.009 C 
BRANCH   6   7
ATOM      7  C   UNL     1      14.218   0.394  -1.680  1.00  0.00     0.032 C 
ATOM      8  C   UNL     1      13.684  -0.955  -1.181  1.00  0.00     0.014 C 
BRANCH   7   9
ATOM      9  C   UNL     1      15.421   0.165  -2.555  1.00  0.00     0.044 C 
ATOM     10  O   UNL     1      16.493   0.786  -2.329  1.00  0.00    -0.550 OA
ATOM     11  O   UNL     1      15.363  -0.737  -3.612  1.00  0.00    -0.550 OA
ENDBRANCH   7   9
ENDBRANCH   6   7
ENDBRANCH   5   6
ENDBRANCH   4   5
ENDBRANCH   3   4
ENDBRANCH   2   3
ENDBRANCH   1   2
BRANCH   1  12
ATOM     12  C   UNL     1      14.564   2.995   2.004  1.00  0.00     0.000 C 
BRANCH  12  13
ATOM     13  C   UNL     1      13.404   1.987   2.024  1.00  0.00    -0.000 C 
BRANCH  13  14
ATOM     14  C   UNL     1      12.068   2.617   1.594  1.00  0.00    -0.000 C 
BRANCH  14  15
ATOM     15  C   UNL     1      12.064   4.149   1.762  1.00  0.00    -0.000 C 
BRANCH  15  16
ATOM     16  C   UNL     1      10.846   4.836   1.118  1.00  0.00    -0.000 C 
BRANCH  16  17
ATOM     17  C   UNL     1       9.667   3.875   0.896  1.00  0.00    -0.000 C 
BRANCH  17  18
ATOM     18  C   UNL     1       9.306   3.715  -0.589  1.00  0.00    -0.003 C 
ATOM     19  C   UNL     1       9.561   4.986  -1.399  1.00  0.00     0.004 C 
ENDBRANCH  17  18
ENDBRANCH  16  17
ENDBRANCH  15  16
ENDBRANCH  14  15
ENDBRANCH  13  14
ENDBRANCH  12  13
ENDBRANCH   1  12
TORSDOF 14
ENDMDL
MODEL 9
REMARK VINA RESULT:    -4.136      1.493      3.652
REMARK INTER + INTRA:         -10.048
REMARK INTER:                  -7.951
REMARK INTRA:                  -2.097
REMARK UNBOUND:                -2.526
REMARK SMILES CCCCCCCCCCCCCC[C@@H](C)C(=O)[O-]
REMARK SMILES IDX 9 1 10 2 11 3 12 4 13 5 14 6 15 7 16 8 17 9 18 10 19 11 8 12
REMARK SMILES IDX 7 13 6 14 5 15 4 16 3 17 2 18 1 19
REMARK H PARENT
REMARK Flexibility Score: inf
ROOT
ATOM      1  C   UNL     1      14.901   0.314  -2.419  1.00  0.00     0.000 C 
ENDROOT
BRANCH   1   2
ATOM      2  C   UNL     1      13.519   0.812  -1.962  1.00  0.00     0.000 C 
BRANCH   2   3
ATOM      3  C   UNL     1      13.064   0.290  -0.584  1.00  0.00     0.000 C 
BRANCH   3   4
ATOM      4  C   UNL     1      11.984   1.139   0.117  1.00  0.00     0.000 C 
BRANCH   4   5
ATOM      5  C   UNL     1      11.650   2.470  -0.582  1.00  0.00     0.001 C 
BRANCH   5   6
ATOM      6  C   UNL     1      11.266   3.582   0.410  1.00  0.00     0.009 C 
BRANCH   6   7
ATOM      7  C   UNL     1      10.093   4.447  -0.101  1.00  0.00     0.032 C 
ATOM      8  C   UNL     1       8.997   3.599  -0.762  1.00  0.00     0.014 C 
BRANCH   7   9
ATOM      9  C   UNL     1       9.501   5.232   1.038  1.00  0.00     0.044 C 
ATOM     10  O   UNL     1       8.428   5.871   0.874  1.00  0.00    -0.550 OA
ATOM     11  O   UNL     1      10.126   5.252   2.281  1.00  0.00    -0.550 OA
ENDBRANCH   7   9
ENDBRANCH   6   7
ENDBRANCH   5   6
ENDBRANCH   4   5
ENDBRANCH   3   4
ENDBRANCH   2   3
ENDBRANCH   1   2
BRANCH   1  12
ATOM     12  C   UNL     1      16.057   1.125  -1.809  1.00  0.00     0.000 C 
BRANCH  12  13
ATOM     13  C   UNL     1      15.752   2.631  -1.750  1.00  0.00    -0.000 C 
BRANCH  13  14
ATOM     14  C   UNL     1      16.093   3.248  -0.383  1.00  0.00    -0.000 C 
BRANCH  14  15
ATOM     15  C   UNL     1      14.919   4.059   0.202  1.00  0.00    -0.000 C 
BRANCH  15  16
ATOM     16  C   UNL     1      14.632   3.746   1.682  1.00  0.00    -0.000 C 
BRANCH  16  17
ATOM     17  C   UNL     1      14.997   2.304   2.069  1.00  0.00    -0.000 C 
BRANCH  17  18
ATOM     18  C   UNL     1      14.356   1.868   3.397  1.00  0.00    -0.003 C 
ATOM     19  C   UNL     1      15.380   1.695   4.518  1.00  0.00     0.004 C 
ENDBRANCH  17  18
ENDBRANCH  16  17
ENDBRANCH  15  16
ENDBRANCH  14  15
ENDBRANCH  13  14
ENDBRANCH  12  13
ENDBRANCH   1  12
TORSDOF 14
ENDMDL
