MODEL 1
REMARK VINA RESULT:    -4.024      0.000      0.000
REMARK INTER + INTRA:          -4.742
REMARK INTER:                  -4.729
REMARK INTRA:                  -0.013
REMARK UNBOUND:                -0.013
REMARK SMILES [NH3+][C@H](CO)C(=O)[O-]
REMARK SMILES IDX 3 1 2 2 1 3 5 7 6 8 7 9 4 10
REMARK H PARENT 1 4 1 5 1 6 4 11
REMARK Flexibility Score: inf
ROOT
ATOM      1  C   UNL     1      30.783  50.758  -5.815  1.00  0.00     0.227 C 
ENDROOT
BRANCH   1   2
ATOM      2  C   UNL     1      29.919  49.546  -6.205  1.00  0.00     0.253 C 
BRANCH   2   3
ATOM      3  N   UNL     1      28.503  49.915  -6.332  1.00  0.00    -0.348 N 
ATOM      4  H   UNL     1      28.169  50.339  -5.436  1.00  0.00     0.345 HD
ATOM      5  H   UNL     1      27.914  49.078  -6.552  1.00  0.00     0.345 HD
ATOM      6  H   UNL     1      28.389  50.623  -7.093  1.00  0.00     0.345 HD
ENDBRANCH   2   3
BRANCH   2   7
ATOM      7  C   UNL     1      30.426  48.917  -7.477  1.00  0.00     0.102 C 
ATOM      8  O   UNL     1      31.262  47.977  -7.425  1.00  0.00    -0.544 OA
ATOM      9  O   UNL     1      30.007  49.392  -8.714  1.00  0.00    -0.544 OA
ENDBRANCH   2   7
ENDBRANCH   1   2
BRANCH   1  10
ATOM     10  O   UNL     1      31.225  50.666  -4.486  1.00  0.00    -0.390 OA
ATOM     11  H   UNL     1      30.440  50.850  -3.907  1.00  0.00     0.210 HD
ENDBRANCH   1  10
TORSDOF 4
ENDMDL
MODEL 2
REMARK VINA RESULT:    -3.645      1.597      1.663
REMARK INTER + INTRA:          -4.297
REMARK INTER:                  -4.065
REMARK INTRA:                  -0.231
REMARK UNBOUND:                -0.013
REMARK SMILES [NH3+][C@H](CO)C(=O)[O-]
REMARK SMILES IDX 3 1 2 2 1 3 5 7 6 8 7 9 4 10
REMARK H PARENT 1 4 1 5 1 6 4 11
REMARK Flexibility Score: inf
ROOT
ATOM      1  C   UNL     1      30.591  51.046  -7.009  1.00  0.00     0.227 C 
ENDROOT
BRANCH   1   2
ATOM      2  C   UNL     1      30.076  49.670  -6.550  1.00  0.00     0.253 C 
BRANCH   2   3
ATOM      3  N   UNL     1      28.608  49.631  -6.514  1.00  0.00    -0.348 N 
ATOM      4  H   UNL     1      28.243  50.534  -6.131  1.00  0.00     0.345 HD
ATOM      5  H   UNL     1      28.267  48.845  -5.913  1.00  0.00     0.345 HD
ATOM      6  H   UNL     1      28.234  49.510  -7.482  1.00  0.00     0.345 HD
ENDBRANCH   2   3
BRANCH   2   7
ATOM      7  C   UNL     1      30.620  48.576  -7.431  1.00  0.00     0.102 C 
ATOM      8  O   UNL     1      31.467  47.763  -6.976  1.00  0.00    -0.544 OA
ATOM      9  O   UNL     1      30.225  48.479  -8.760  1.00  0.00    -0.544 OA
ENDBRANCH   2   7
ENDBRANCH   1   2
BRANCH   1  10
ATOM     10  O   UNL     1      30.126  51.365  -8.295  1.00  0.00    -0.390 OA
ATOM     11  H   UNL     1      29.422  50.702  -8.519  1.00  0.00     0.210 HD
ENDBRANCH   1  10
TORSDOF 4
ENDMDL
MODEL 3
REMARK VINA RESULT:    -3.556      1.369      2.651
REMARK INTER + INTRA:          -4.192
REMARK INTER:                  -4.081
REMARK INTRA:                  -0.112
REMARK UNBOUND:                -0.013
REMARK SMILES [NH3+][C@H](CO)C(=O)[O-]
REMARK SMILES IDX 3 1 2 2 1 3 5 7 6 8 7 9 4 10
REMARK H PARENT 1 4 1 5 1 6 4 11
REMARK Flexibility Score: inf
ROOT
ATOM      1  C   UNL     1      30.675  48.667  -7.154  1.00  0.00     0.227 C 
ENDROOT
BRANCH   1   2
ATOM      2  C   UNL     1      29.905  49.968  -6.860  1.00  0.00     0.253 C 
BRANCH   2   3
ATOM      3  N   UNL     1      28.554  49.689  -6.355  1.00  0.00    -0.348 N 
ATOM      4  H   UNL     1      28.570  49.658  -5.310  1.00  0.00     0.345 HD
ATOM      5  H   UNL     1      28.199  48.774  -6.717  1.00  0.00     0.345 HD
ATOM      6  H   UNL     1      27.903  50.451  -6.651  1.00  0.00     0.345 HD
ENDBRANCH   2   3
BRANCH   2   7
ATOM      7  C   UNL     1      30.671  50.834  -5.894  1.00  0.00     0.102 C 
ATOM      8  O   UNL     1      30.859  50.445  -4.712  1.00  0.00    -0.544 OA
ATOM      9  O   UNL     1      31.139  52.083  -6.286  1.00  0.00    -0.544 OA
ENDBRANCH   2   7
ENDBRANCH   1   2
BRANCH   1  10
ATOM     10  O   UNL     1      31.662  48.426  -6.185  1.00  0.00    -0.390 OA
ATOM     11  H   UNL     1      32.540  48.572  -6.626  1.00  0.00     0.210 HD
ENDBRANCH   1  10
TORSDOF 4
ENDMDL
MODEL 4
REMARK VINA RESULT:    -3.455     11.170     11.552
REMARK INTER + INTRA:          -4.074
REMARK INTER:                  -4.067
REMARK INTRA:                  -0.007
REMARK UNBOUND:                -0.013
REMARK SMILES [NH3+][C@H](CO)C(=O)[O-]
REMARK SMILES IDX 3 1 2 2 1 3 5 7 6 8 7 9 4 10
REMARK H PARENT 1 4 1 5 1 6 4 11
REMARK Flexibility Score: inf
ROOT
ATOM      1  C   UNL     1      24.414  43.924   0.022  1.00  0.00     0.227 C 
ENDROOT
BRANCH   1   2
ATOM      2  C   UNL     1      23.091  43.905  -0.764  1.00  0.00     0.253 C 
BRANCH   2   3
ATOM      3  N   UNL     1      23.320  43.672  -2.195  1.00  0.00    -0.348 N 
ATOM      4  H   UNL     1      24.287  43.977  -2.450  1.00  0.00     0.345 HD
ATOM      5  H   UNL     1      22.632  44.202  -2.778  1.00  0.00     0.345 HD
ATOM      6  H   UNL     1      23.232  42.652  -2.406  1.00  0.00     0.345 HD
ENDBRANCH   2   3
BRANCH   2   7
ATOM      7  C   UNL     1      22.148  42.875  -0.197  1.00  0.00     0.102 C 
ATOM      8  O   UNL     1      20.915  43.121  -0.125  1.00  0.00    -0.544 OA
ATOM      9  O   UNL     1      22.634  41.666   0.288  1.00  0.00    -0.544 OA
ENDBRANCH   2   7
ENDBRANCH   1   2
BRANCH   1  10
ATOM     10  O   UNL     1      25.400  44.663  -0.652  1.00  0.00    -0.390 OA
ATOM     11  H   UNL     1      26.265  44.460  -0.209  1.00  0.00     0.210 HD
ENDBRANCH   1  10
TORSDOF 4
ENDMDL
MODEL 5
REMARK VINA RESULT:    -3.434     15.586     15.964
REMARK INTER + INTRA:          -4.049
REMARK INTER:                  -4.044
REMARK INTRA:                  -0.005
REMARK UNBOUND:                -0.013
REMARK SMILES [NH3+][C@H](CO)C(=O)[O-]
REMARK SMILES IDX 3 1 2 2 1 3 5 7 6 8 7 9 4 10
REMARK H PARENT 1 4 1 5 1 6 4 11
REMARK Flexibility Score: inf
ROOT
ATOM      1  C   UNL     1      24.722  38.263   3.019  1.00  0.00     0.227 C 
ENDROOT
BRANCH   1   2
ATOM      2  C   UNL     1      23.373  38.910   3.381  1.00  0.00     0.253 C 
BRANCH   2   3
ATOM      3  N   UNL     1      23.559  40.130   4.177  1.00  0.00    -0.348 N 
ATOM      4  H   UNL     1      23.267  39.952   5.165  1.00  0.00     0.345 HD
ATOM      5  H   UNL     1      22.991  40.920   3.792  1.00  0.00     0.345 HD
ATOM      6  H   UNL     1      24.568  40.401   4.177  1.00  0.00     0.345 HD
ENDBRANCH   2   3
BRANCH   2   7
ATOM      7  C   UNL     1      22.568  39.196   2.140  1.00  0.00     0.102 C 
ATOM      8  O   UNL     1      22.455  40.378   1.721  1.00  0.00    -0.544 OA
ATOM      9  O   UNL     1      21.913  38.168   1.472  1.00  0.00    -0.544 OA
ENDBRANCH   2   7
ENDBRANCH   1   2
BRANCH   1  10
ATOM     10  O   UNL     1      25.438  37.892   4.168  1.00  0.00    -0.390 OA
ATOM     11  H   UNL     1      26.104  37.212   3.885  1.00  0.00     0.210 HD
ENDBRANCH   1  10
TORSDOF 4
ENDMDL
MODEL 6
REMARK VINA RESULT:    -3.288     16.139     16.494
REMARK INTER + INTRA:          -3.877
REMARK INTER:                  -3.675
REMARK INTRA:                  -0.202
REMARK UNBOUND:                -0.013
REMARK SMILES [NH3+][C@H](CO)C(=O)[O-]
REMARK SMILES IDX 3 1 2 2 1 3 5 7 6 8 7 9 4 10
REMARK H PARENT 1 4 1 5 1 6 4 11
REMARK Flexibility Score: inf
ROOT
ATOM      1  C   UNL     1      24.370  38.562   2.726  1.00  0.00     0.227 C 
ENDROOT
BRANCH   1   2
ATOM      2  C   UNL     1      22.870  38.853   2.542  1.00  0.00     0.253 C 
BRANCH   2   3
ATOM      3  N   UNL     1      22.639  39.804   1.447  1.00  0.00    -0.348 N 
ATOM      4  H   UNL     1      23.416  39.732   0.750  1.00  0.00     0.345 HD
ATOM      5  H   UNL     1      22.593  40.786   1.805  1.00  0.00     0.345 HD
ATOM      6  H   UNL     1      21.742  39.573   0.962  1.00  0.00     0.345 HD
ENDBRANCH   2   3
BRANCH   2   7
ATOM      7  C   UNL     1      22.103  37.576   2.315  1.00  0.00     0.102 C 
ATOM      8  O   UNL     1      22.130  36.662   3.181  1.00  0.00    -0.544 OA
ATOM      9  O   UNL     1      21.394  37.379   1.135  1.00  0.00    -0.544 OA
ENDBRANCH   2   7
ENDBRANCH   1   2
BRANCH   1  10
ATOM     10  O   UNL     1      24.667  38.223   4.055  1.00  0.00    -0.390 OA
ATOM     11  H   UNL     1      25.613  37.922   4.072  1.00  0.00     0.210 HD
ENDBRANCH   1  10
TORSDOF 4
ENDMDL
MODEL 7
REMARK VINA RESULT:    -3.235     15.917     16.458
REMARK INTER + INTRA:          -3.815
REMARK INTER:                  -3.455
REMARK INTRA:                  -0.360
REMARK UNBOUND:                -0.013
REMARK SMILES [NH3+][C@H](CO)C(=O)[O-]
REMARK SMILES IDX 3 1 2 2 1 3 5 7 6 8 7 9 4 10
REMARK H PARENT 1 4 1 5 1 6 4 11
REMARK Flexibility Score: inf
ROOT
ATOM      1  C   UNL     1      22.142  37.508   2.225  1.00  0.00     0.227 C 
ENDROOT
BRANCH   1   2
ATOM      2  C   UNL     1      23.189  38.616   2.013  1.00  0.00     0.253 C 
BRANCH   2   3
ATOM      3  N   UNL     1      22.565  39.861   1.544  1.00  0.00    -0.348 N 
ATOM      4  H   UNL     1      22.146  40.370   2.356  1.00  0.00     0.345 HD
ATOM      5  H   UNL     1      21.814  39.665   0.842  1.00  0.00     0.345 HD
ATOM      6  H   UNL     1      23.289  40.477   1.109  1.00  0.00     0.345 HD
ENDBRANCH   2   3
BRANCH   2   7
ATOM      7  C   UNL     1      23.978  38.853   3.274  1.00  0.00     0.102 C 
ATOM      8  O   UNL     1      23.569  39.684   4.127  1.00  0.00    -0.544 OA
ATOM      9  O   UNL     1      25.180  38.189   3.488  1.00  0.00    -0.544 OA
ENDBRANCH   2   7
ENDBRANCH   1   2
BRANCH   1  10
ATOM     10  O   UNL     1      22.367  36.812   3.423  1.00  0.00    -0.390 OA
ATOM     11  H   UNL     1      22.812  35.958   3.180  1.00  0.00     0.210 HD
ENDBRANCH   1  10
TORSDOF 4
ENDMDL
MODEL 8
REMARK VINA RESULT:    -3.171     16.098     16.483
REMARK INTER + INTRA:          -3.740
REMARK INTER:                  -3.512
REMARK INTRA:                  -0.228
REMARK UNBOUND:                -0.013
REMARK SMILES [NH3+][C@H](CO)C(=O)[O-]
REMARK SMILES IDX 3 1 2 2 1 3 5 7 6 8 7 9 4 10
REMARK H PARENT 1 4 1 5 1 6 4 11
REMARK Flexibility Score: inf
ROOT
ATOM      1  C   UNL     1      22.868  39.926   2.431  1.00  0.00     0.227 C 
ENDROOT
BRANCH   1   2
ATOM      2  C   UNL     1      23.400  38.487   2.554  1.00  0.00     0.253 C 
BRANCH   2   3
ATOM      3  N   UNL     1      24.113  38.285   3.822  1.00  0.00    -0.348 N 
ATOM      4  H   UNL     1      23.543  37.673   4.451  1.00  0.00     0.345 HD
ATOM      5  H   UNL     1      24.289  39.197   4.304  1.00  0.00     0.345 HD
ATOM      6  H   UNL     1      25.027  37.810   3.642  1.00  0.00     0.345 HD
ENDBRANCH   2   3
BRANCH   2   7
ATOM      7  C   UNL     1      22.281  37.489   2.403  1.00  0.00     0.102 C 
ATOM      8  O   UNL     1      21.982  36.728   3.360  1.00  0.00    -0.544 OA
ATOM      9  O   UNL     1      21.599  37.373   1.197  1.00  0.00    -0.544 OA
ENDBRANCH   2   7
ENDBRANCH   1   2
BRANCH   1  10
ATOM     10  O   UNL     1      22.448  40.207   1.121  1.00  0.00    -0.390 OA
ATOM     11  H   UNL     1      22.016  41.100   1.143  1.00  0.00     0.210 HD
ENDBRANCH   1  10
TORSDOF 4
ENDMDL
MODEL 9
REMARK VINA RESULT:    -3.170     15.960     16.478
REMARK INTER + INTRA:          -3.739
REMARK INTER:                  -3.412
REMARK INTRA:                  -0.327
REMARK UNBOUND:                -0.013
REMARK SMILES [NH3+][C@H](CO)C(=O)[O-]
REMARK SMILES IDX 3 1 2 2 1 3 5 7 6 8 7 9 4 10
REMARK H PARENT 1 4 1 5 1 6 4 11
REMARK Flexibility Score: inf
ROOT
ATOM      1  C   UNL     1      22.122  38.436   1.620  1.00  0.00     0.227 C 
ENDROOT
BRANCH   1   2
ATOM      2  C   UNL     1      22.503  38.051   3.061  1.00  0.00     0.253 C 
BRANCH   2   3
ATOM      3  N   UNL     1      22.523  36.594   3.240  1.00  0.00    -0.348 N 
ATOM      4  H   UNL     1      22.946  36.360   4.168  1.00  0.00     0.345 HD
ATOM      5  H   UNL     1      23.080  36.130   2.486  1.00  0.00     0.345 HD
ATOM      6  H   UNL     1      21.546  36.222   3.222  1.00  0.00     0.345 HD
ENDBRANCH   2   3
BRANCH   2   7
ATOM      7  C   UNL     1      23.829  38.657   3.442  1.00  0.00     0.102 C 
ATOM      8  O   UNL     1      23.867  39.684   4.170  1.00  0.00    -0.544 OA
ATOM      9  O   UNL     1      25.016  38.114   2.963  1.00  0.00    -0.544 OA
ENDBRANCH   2   7
ENDBRANCH   1   2
BRANCH   1  10
ATOM     10  O   UNL     1      22.729  39.641   1.234  1.00  0.00    -0.390 OA
ATOM     11  H   UNL     1      22.084  40.368   1.438  1.00  0.00     0.210 HD
ENDBRANCH   1  10
TORSDOF 4
ENDMDL
