MODEL 1
REMARK VINA RESULT:    -6.135      0.000      0.000
REMARK INTER + INTRA:          -5.629
REMARK INTER:                  -6.493
REMARK INTRA:                   0.864
REMARK UNBOUND:                 0.864
REMARK SMILES CC1=C[C@@H]2C(=C(C)CC[C@H]2C(C)C)CC1
REMARK SMILES IDX 1 1 2 2 3 3 4 4 10 5 9 6 8 7 6 8 5 9 14 10 15 11 7 12 11 13
REMARK SMILES IDX 12 14 13 15
REMARK H PARENT
REMARK Flexibility Score: inf
ROOT
ATOM      1  C   UNL     1       3.605  11.086  10.878  1.00  0.00     0.039 C 
ATOM      2  C   UNL     1       3.824   9.986  11.879  1.00  0.00    -0.076 C 
ATOM      3  C   UNL     1       4.322   8.800  11.453  1.00  0.00    -0.020 C 
ATOM      4  C   UNL     1       4.509   7.615  12.383  1.00  0.00     0.041 C 
ATOM      5  C   UNL     1       5.612   6.638  11.876  1.00  0.00     0.003 C 
ATOM      6  C   UNL     1       6.986   7.234  12.248  1.00  0.00     0.009 C 
ATOM      7  C   UNL     1       7.134   7.373  13.764  1.00  0.00     0.031 C 
ATOM      8  C   UNL     1       5.964   8.101  14.394  1.00  0.00    -0.073 C 
ATOM      9  C   UNL     1       4.742   8.137  13.790  1.00  0.00    -0.064 C 
ATOM     10  C   UNL     1       3.627   9.044  14.256  1.00  0.00     0.036 C 
ATOM     11  C   UNL     1       3.605  10.289  13.358  1.00  0.00     0.035 C 
ATOM     12  C   UNL     1       6.191   8.729  15.748  1.00  0.00     0.039 C 
ENDROOT
BRANCH   5  13
ATOM     13  C   UNL     1       5.398   5.169  12.393  1.00  0.00    -0.013 C 
ATOM     14  C   UNL     1       3.924   4.875  12.737  1.00  0.00     0.007 C 
ATOM     15  C   UNL     1       6.251   4.875  13.646  1.00  0.00     0.007 C 
ENDBRANCH   5  13
TORSDOF 1
ENDMDL
