MODEL 1
REMARK VINA RESULT:    -5.058      0.000      0.000
REMARK INTER + INTRA:          -5.206
REMARK INTER:                  -5.206
REMARK INTRA:                   0.000
REMARK UNBOUND:                 0.000
REMARK SMILES Oc1ccc2[nH]ccc2c1
REMARK SMILES IDX 3 1 4 2 5 3 9 4 8 5 7 6 6 7 10 8 2 9 1 11
REMARK H PARENT 6 10 1 12
REMARK Flexibility Score: inf
ROOT
ATOM      1  C   UNL     1     -18.051  20.785  42.832  1.00  0.00     0.048 A 
ATOM      2  C   UNL     1     -17.982  20.041  41.640  1.00  0.00     0.030 A 
ATOM      3  C   UNL     1     -17.490  18.740  41.712  1.00  0.00     0.046 A 
ATOM      4  C   UNL     1     -17.081  18.189  42.898  1.00  0.00     0.003 A 
ATOM      5  C   UNL     1     -16.654  16.907  42.631  1.00  0.00     0.028 A 
ATOM      6  C   UNL     1     -16.830  16.743  41.260  1.00  0.00     0.083 A 
ATOM      7  N   UNL     1     -17.341  17.865  40.704  1.00  0.00    -0.361 N 
ATOM      8  C   UNL     1     -17.136  18.898  44.096  1.00  0.00     0.056 A 
ATOM      9  C   UNL     1     -17.630  20.219  44.058  1.00  0.00     0.116 A 
ATOM     10  H   UNL     1     -17.571  18.016  39.696  1.00  0.00     0.166 HD
ENDROOT
BRANCH   9  11
ATOM     11  O   UNL     1     -17.709  20.977  45.224  1.00  0.00    -0.508 OA
ATOM     12  H   UNL     1     -17.563  20.559  46.136  1.00  0.00     0.293 HD
ENDBRANCH   9  11
TORSDOF 1
ENDMDL
MODEL 2
REMARK VINA RESULT:    -4.980      2.655      4.083
REMARK INTER + INTRA:          -5.126
REMARK INTER:                  -5.126
REMARK INTRA:                   0.000
REMARK UNBOUND:                 0.000
REMARK SMILES Oc1ccc2[nH]ccc2c1
REMARK SMILES IDX 3 1 4 2 5 3 9 4 8 5 7 6 6 7 10 8 2 9 1 11
REMARK H PARENT 6 10 1 12
REMARK Flexibility Score: inf
ROOT
ATOM      1  C   UNL     1     -16.542  16.584  41.896  1.00  0.00     0.048 A 
ATOM      2  C   UNL     1     -16.551  16.944  43.256  1.00  0.00     0.030 A 
ATOM      3  C   UNL     1     -17.015  18.215  43.589  1.00  0.00     0.046 A 
ATOM      4  C   UNL     1     -17.450  19.096  42.634  1.00  0.00     0.003 A 
ATOM      5  C   UNL     1     -17.837  20.248  43.283  1.00  0.00     0.028 A 
ATOM      6  C   UNL     1     -17.609  19.999  44.633  1.00  0.00     0.083 A 
ATOM      7  N   UNL     1     -17.108  18.757  44.814  1.00  0.00    -0.361 N 
ATOM      8  C   UNL     1     -17.453  18.771  41.280  1.00  0.00     0.056 A 
ATOM      9  C   UNL     1     -16.990  17.491  40.908  1.00  0.00     0.116 A 
ATOM     10  H   UNL     1     -16.847  18.312  45.723  1.00  0.00     0.166 HD
ENDROOT
BRANCH   9  11
ATOM     11  O   UNL     1     -16.971  17.109  39.568  1.00  0.00    -0.508 OA
ATOM     12  H   UNL     1     -16.113  16.818  39.115  1.00  0.00     0.293 HD
ENDBRANCH   9  11
TORSDOF 1
ENDMDL
MODEL 3
REMARK VINA RESULT:    -4.602      1.417      2.140
REMARK INTER + INTRA:          -4.736
REMARK INTER:                  -4.736
REMARK INTRA:                   0.000
REMARK UNBOUND:                 0.000
REMARK SMILES Oc1ccc2[nH]ccc2c1
REMARK SMILES IDX 3 1 4 2 5 3 9 4 8 5 7 6 6 7 10 8 2 9 1 11
REMARK H PARENT 6 10 1 12
REMARK Flexibility Score: inf
ROOT
ATOM      1  C   UNL     1     -17.880  20.584  44.091  1.00  0.00     0.048 A 
ATOM      2  C   UNL     1     -17.360  19.308  44.371  1.00  0.00     0.030 A 
ATOM      3  C   UNL     1     -17.165  18.435  43.302  1.00  0.00     0.046 A 
ATOM      4  C   UNL     1     -17.467  18.795  42.015  1.00  0.00     0.003 A 
ATOM      5  C   UNL     1     -17.163  17.723  41.206  1.00  0.00     0.028 A 
ATOM      6  C   UNL     1     -16.681  16.742  42.067  1.00  0.00     0.083 A 
ATOM      7  N   UNL     1     -16.685  17.182  43.346  1.00  0.00    -0.361 N 
ATOM      8  C   UNL     1     -17.983  20.051  41.704  1.00  0.00     0.056 A 
ATOM      9  C   UNL     1     -18.192  20.959  42.763  1.00  0.00     0.116 A 
ATOM     10  H   UNL     1     -16.376  16.653  44.192  1.00  0.00     0.166 HD
ENDROOT
BRANCH   9  11
ATOM     11  O   UNL     1     -18.705  22.230  42.513  1.00  0.00    -0.508 OA
ATOM     12  H   UNL     1     -19.633  22.358  42.126  1.00  0.00     0.293 HD
ENDBRANCH   9  11
TORSDOF 1
ENDMDL
MODEL 4
REMARK VINA RESULT:    -4.266     14.281     15.054
REMARK INTER + INTRA:          -4.391
REMARK INTER:                  -4.391
REMARK INTRA:                   0.000
REMARK UNBOUND:                 0.000
REMARK SMILES Oc1ccc2[nH]ccc2c1
REMARK SMILES IDX 3 1 4 2 5 3 9 4 8 5 7 6 6 7 10 8 2 9 1 11
REMARK H PARENT 6 10 1 12
REMARK Flexibility Score: inf
ROOT
ATOM      1  C   UNL     1      -7.174  30.885  46.791  1.00  0.00     0.048 A 
ATOM      2  C   UNL     1      -6.140  30.006  47.163  1.00  0.00     0.030 A 
ATOM      3  C   UNL     1      -6.152  28.722  46.622  1.00  0.00     0.046 A 
ATOM      4  C   UNL     1      -7.132  28.315  45.755  1.00  0.00     0.003 A 
ATOM      5  C   UNL     1      -6.859  27.010  45.409  1.00  0.00     0.028 A 
ATOM      6  C   UNL     1      -5.697  26.685  46.102  1.00  0.00     0.083 A 
ATOM      7  N   UNL     1      -5.270  27.734  46.842  1.00  0.00    -0.361 N 
ATOM      8  C   UNL     1      -8.168  29.161  45.367  1.00  0.00     0.056 A 
ATOM      9  C   UNL     1      -8.186  30.468  45.897  1.00  0.00     0.116 A 
ATOM     10  H   UNL     1      -4.425  27.765  47.456  1.00  0.00     0.166 HD
ENDROOT
BRANCH   9  11
ATOM     11  O   UNL     1      -9.197  31.359  45.544  1.00  0.00    -0.508 OA
ATOM     12  H   UNL     1      -9.323  31.662  44.585  1.00  0.00     0.293 HD
ENDBRANCH   9  11
TORSDOF 1
ENDMDL
MODEL 5
REMARK VINA RESULT:    -4.238      3.503      4.290
REMARK INTER + INTRA:          -4.362
REMARK INTER:                  -4.362
REMARK INTRA:                   0.000
REMARK UNBOUND:                 0.000
REMARK SMILES Oc1ccc2[nH]ccc2c1
REMARK SMILES IDX 3 1 4 2 5 3 9 4 8 5 7 6 6 7 10 8 2 9 1 11
REMARK H PARENT 6 10 1 12
REMARK Flexibility Score: inf
ROOT
ATOM      1  C   UNL     1     -19.932  22.257  40.367  1.00  0.00     0.048 A 
ATOM      2  C   UNL     1     -18.681  22.304  41.007  1.00  0.00     0.030 A 
ATOM      3  C   UNL     1     -18.501  21.518  42.143  1.00  0.00     0.046 A 
ATOM      4  C   UNL     1     -19.502  20.720  42.632  1.00  0.00     0.003 A 
ATOM      5  C   UNL     1     -19.011  20.081  43.749  1.00  0.00     0.028 A 
ATOM      6  C   UNL     1     -17.703  20.537  43.884  1.00  0.00     0.083 A 
ATOM      7  N   UNL     1     -17.397  21.414  42.900  1.00  0.00    -0.361 N 
ATOM      8  C   UNL     1     -20.752  20.651  42.021  1.00  0.00     0.056 A 
ATOM      9  C   UNL     1     -20.967  21.435  40.868  1.00  0.00     0.116 A 
ATOM     10  H   UNL     1     -16.487  21.907  42.762  1.00  0.00     0.166 HD
ENDROOT
BRANCH   9  11
ATOM     11  O   UNL     1     -22.197  21.406  40.214  1.00  0.00    -0.508 OA
ATOM     12  H   UNL     1     -22.435  20.662  39.569  1.00  0.00     0.293 HD
ENDBRANCH   9  11
TORSDOF 1
ENDMDL
MODEL 6
REMARK VINA RESULT:    -4.046      2.821      3.975
REMARK INTER + INTRA:          -4.164
REMARK INTER:                  -4.164
REMARK INTRA:                   0.000
REMARK UNBOUND:                 0.000
REMARK SMILES Oc1ccc2[nH]ccc2c1
REMARK SMILES IDX 3 1 4 2 5 3 9 4 8 5 7 6 6 7 10 8 2 9 1 11
REMARK H PARENT 6 10 1 12
REMARK Flexibility Score: inf
ROOT
ATOM      1  C   UNL     1     -17.426  20.753  42.802  1.00  0.00     0.048 A 
ATOM      2  C   UNL     1     -17.701  21.487  41.633  1.00  0.00     0.030 A 
ATOM      3  C   UNL     1     -19.033  21.613  41.242  1.00  0.00     0.046 A 
ATOM      4  C   UNL     1     -20.051  21.046  41.963  1.00  0.00     0.003 A 
ATOM      5  C   UNL     1     -21.230  21.351  41.319  1.00  0.00     0.028 A 
ATOM      6  C   UNL     1     -20.855  22.106  40.212  1.00  0.00     0.083 A 
ATOM      7  N   UNL     1     -19.512  22.263  40.170  1.00  0.00    -0.361 N 
ATOM      8  C   UNL     1     -19.813  20.314  43.123  1.00  0.00     0.056 A 
ATOM      9  C   UNL     1     -18.475  20.168  43.547  1.00  0.00     0.116 A 
ATOM     10  H   UNL     1     -18.965  22.785  39.450  1.00  0.00     0.166 HD
ENDROOT
BRANCH   9  11
ATOM     11  O   UNL     1     -18.175  19.447  44.702  1.00  0.00    -0.508 OA
ATOM     12  H   UNL     1     -18.828  18.775  45.089  1.00  0.00     0.293 HD
ENDBRANCH   9  11
TORSDOF 1
ENDMDL
MODEL 7
REMARK VINA RESULT:    -4.027     14.538     15.536
REMARK INTER + INTRA:          -4.144
REMARK INTER:                  -4.144
REMARK INTRA:                   0.000
REMARK UNBOUND:                 0.000
REMARK SMILES Oc1ccc2[nH]ccc2c1
REMARK SMILES IDX 3 1 4 2 5 3 9 4 8 5 7 6 6 7 10 8 2 9 1 11
REMARK H PARENT 6 10 1 12
REMARK Flexibility Score: inf
ROOT
ATOM      1  C   UNL     1      -5.212  27.335  46.058  1.00  0.00     0.048 A 
ATOM      2  C   UNL     1      -5.059  28.488  46.849  1.00  0.00     0.030 A 
ATOM      3  C   UNL     1      -6.119  29.391  46.896  1.00  0.00     0.046 A 
ATOM      4  C   UNL     1      -7.279  29.176  46.199  1.00  0.00     0.003 A 
ATOM      5  C   UNL     1      -8.116  30.240  46.454  1.00  0.00     0.028 A 
ATOM      6  C   UNL     1      -7.400  31.067  47.315  1.00  0.00     0.083 A 
ATOM      7  N   UNL     1      -6.182  30.544  47.581  1.00  0.00    -0.361 N 
ATOM      8  C   UNL     1      -7.463  28.045  45.407  1.00  0.00     0.056 A 
ATOM      9  C   UNL     1      -6.408  27.110  45.338  1.00  0.00     0.116 A 
ATOM     10  H   UNL     1      -5.444  30.955  48.195  1.00  0.00     0.166 HD
ENDROOT
BRANCH   9  11
ATOM     11  O   UNL     1      -6.535  25.960  44.562  1.00  0.00    -0.508 OA
ATOM     12  H   UNL     1      -7.257  25.876  43.856  1.00  0.00     0.293 HD
ENDBRANCH   9  11
TORSDOF 1
ENDMDL
MODEL 8
REMARK VINA RESULT:    -3.959      3.454      5.018
REMARK INTER + INTRA:          -4.074
REMARK INTER:                  -4.074
REMARK INTRA:                   0.000
REMARK UNBOUND:                 0.000
REMARK SMILES Oc1ccc2[nH]ccc2c1
REMARK SMILES IDX 3 1 4 2 5 3 9 4 8 5 7 6 6 7 10 8 2 9 1 11
REMARK H PARENT 6 10 1 12
REMARK Flexibility Score: inf
ROOT
ATOM      1  C   UNL     1     -18.924  20.324  42.344  1.00  0.00     0.048 A 
ATOM      2  C   UNL     1     -18.057  21.147  41.602  1.00  0.00     0.030 A 
ATOM      3  C   UNL     1     -18.618  22.191  40.870  1.00  0.00     0.046 A 
ATOM      4  C   UNL     1     -19.969  22.420  40.862  1.00  0.00     0.003 A 
ATOM      5  C   UNL     1     -20.197  23.511  40.053  1.00  0.00     0.028 A 
ATOM      6  C   UNL     1     -18.939  23.896  39.599  1.00  0.00     0.083 A 
ATOM      7  N   UNL     1     -17.979  23.087  40.101  1.00  0.00    -0.361 N 
ATOM      8  C   UNL     1     -20.854  21.624  41.585  1.00  0.00     0.056 A 
ATOM      9  C   UNL     1     -20.318  20.558  42.338  1.00  0.00     0.116 A 
ATOM     10  H   UNL     1     -16.951  23.150  39.924  1.00  0.00     0.166 HD
ENDROOT
BRANCH   9  11
ATOM     11  O   UNL     1     -21.155  19.728  43.082  1.00  0.00    -0.508 OA
ATOM     12  H   UNL     1     -22.148  19.673  42.891  1.00  0.00     0.293 HD
ENDBRANCH   9  11
TORSDOF 1
ENDMDL
MODEL 9
REMARK VINA RESULT:    -3.895     14.492     15.225
REMARK INTER + INTRA:          -4.008
REMARK INTER:                  -4.008
REMARK INTRA:                   0.000
REMARK UNBOUND:                 0.000
REMARK SMILES Oc1ccc2[nH]ccc2c1
REMARK SMILES IDX 3 1 4 2 5 3 9 4 8 5 7 6 6 7 10 8 2 9 1 11
REMARK H PARENT 6 10 1 12
REMARK Flexibility Score: inf
ROOT
ATOM      1  C   UNL     1      -7.999  30.998  46.498  1.00  0.00     0.048 A 
ATOM      2  C   UNL     1      -8.357  29.873  45.732  1.00  0.00     0.030 A 
ATOM      3  C   UNL     1      -7.501  28.774  45.751  1.00  0.00     0.046 A 
ATOM      4  C   UNL     1      -6.345  28.774  46.487  1.00  0.00     0.003 A 
ATOM      5  C   UNL     1      -5.733  27.555  46.293  1.00  0.00     0.028 A 
ATOM      6  C   UNL     1      -6.572  26.861  45.426  1.00  0.00     0.083 A 
ATOM      7  N   UNL     1      -7.650  27.609  45.099  1.00  0.00    -0.361 N 
ATOM      8  C   UNL     1      -5.962  29.871  47.255  1.00  0.00     0.056 A 
ATOM      9  C   UNL     1      -6.807  31.001  47.258  1.00  0.00     0.116 A 
ATOM     10  H   UNL     1      -8.436  27.334  44.468  1.00  0.00     0.166 HD
ENDROOT
BRANCH   9  11
ATOM     11  O   UNL     1      -6.476  32.127  48.009  1.00  0.00    -0.508 OA
ATOM     12  H   UNL     1      -6.989  32.372  48.847  1.00  0.00     0.293 HD
ENDBRANCH   9  11
TORSDOF 1
ENDMDL
