MODEL 1
REMARK VINA RESULT:    -5.300      0.000      0.000
REMARK INTER + INTRA:          -5.455
REMARK INTER:                  -5.455
REMARK INTRA:                   0.000
REMARK UNBOUND:                 0.000
REMARK SMILES Oc1ccc2[nH]ccc2c1
REMARK SMILES IDX 3 1 4 2 5 3 9 4 8 5 7 6 6 7 10 8 2 9 1 11
REMARK H PARENT 6 10 1 12
REMARK Flexibility Score: inf
ROOT
ATOM      1  C   UNL     1      49.478 104.177  51.830  1.00  0.00     0.048 A 
ATOM      2  C   UNL     1      50.395 105.162  52.242  1.00  0.00     0.030 A 
ATOM      3  C   UNL     1      49.884 106.329  52.810  1.00  0.00     0.046 A 
ATOM      4  C   UNL     1      48.539 106.524  52.968  1.00  0.00     0.003 A 
ATOM      5  C   UNL     1      48.367 107.760  53.552  1.00  0.00     0.028 A 
ATOM      6  C   UNL     1      49.653 108.263  53.721  1.00  0.00     0.083 A 
ATOM      7  N   UNL     1      50.577 107.386  53.266  1.00  0.00    -0.361 N 
ATOM      8  C   UNL     1      47.604 105.569  52.572  1.00  0.00     0.056 A 
ATOM      9  C   UNL     1      48.087 104.377  51.992  1.00  0.00     0.116 A 
ATOM     10  H   UNL     1      51.614 107.508  53.271  1.00  0.00     0.166 HD
ENDROOT
BRANCH   9  11
ATOM     11  O   UNL     1      47.201 103.386  51.577  1.00  0.00    -0.508 OA
ATOM     12  H   UNL     1      47.021 102.566  52.143  1.00  0.00     0.293 HD
ENDBRANCH   9  11
TORSDOF 1
ENDMDL
MODEL 2
REMARK VINA RESULT:    -5.090     10.729     11.343
REMARK INTER + INTRA:          -5.239
REMARK INTER:                  -5.239
REMARK INTRA:                   0.000
REMARK UNBOUND:                 0.000
REMARK SMILES Oc1ccc2[nH]ccc2c1
REMARK SMILES IDX 3 1 4 2 5 3 9 4 8 5 7 6 6 7 10 8 2 9 1 11
REMARK H PARENT 6 10 1 12
REMARK Flexibility Score: inf
ROOT
ATOM      1  C   UNL     1      55.114 111.212  43.898  1.00  0.00     0.048 A 
ATOM      2  C   UNL     1      54.439 110.604  44.973  1.00  0.00     0.030 A 
ATOM      3  C   UNL     1      54.246 111.358  46.129  1.00  0.00     0.046 A 
ATOM      4  C   UNL     1      54.692 112.648  46.231  1.00  0.00     0.003 A 
ATOM      5  C   UNL     1      54.347 113.107  47.483  1.00  0.00     0.028 A 
ATOM      6  C   UNL     1      53.692 112.041  48.093  1.00  0.00     0.083 A 
ATOM      7  N   UNL     1      53.633 110.975  47.262  1.00  0.00    -0.361 N 
ATOM      8  C   UNL     1      55.362 113.280  45.185  1.00  0.00     0.056 A 
ATOM      9  C   UNL     1      55.576 112.545  44.000  1.00  0.00     0.116 A 
ATOM     10  H   UNL     1      53.199 110.046  47.463  1.00  0.00     0.166 HD
ENDROOT
BRANCH   9  11
ATOM     11  O   UNL     1      56.240 113.124  42.922  1.00  0.00    -0.508 OA
ATOM     12  H   UNL     1      56.186 114.118  42.739  1.00  0.00     0.293 HD
ENDBRANCH   9  11
TORSDOF 1
ENDMDL
MODEL 3
REMARK VINA RESULT:    -5.090     11.325     11.880
REMARK INTER + INTRA:          -5.239
REMARK INTER:                  -5.239
REMARK INTRA:                   0.000
REMARK UNBOUND:                 0.000
REMARK SMILES Oc1ccc2[nH]ccc2c1
REMARK SMILES IDX 3 1 4 2 5 3 9 4 8 5 7 6 6 7 10 8 2 9 1 11
REMARK H PARENT 6 10 1 12
REMARK Flexibility Score: inf
ROOT
ATOM      1  C   UNL     1      54.170 110.489  45.155  1.00  0.00     0.048 A 
ATOM      2  C   UNL     1      54.757 110.972  43.971  1.00  0.00     0.030 A 
ATOM      3  C   UNL     1      55.380 112.219  44.015  1.00  0.00     0.046 A 
ATOM      4  C   UNL     1      55.427 112.960  45.165  1.00  0.00     0.003 A 
ATOM      5  C   UNL     1      56.103 114.125  44.877  1.00  0.00     0.028 A 
ATOM      6  C   UNL     1      56.440 114.026  43.530  1.00  0.00     0.083 A 
ATOM      7  N   UNL     1      55.995 112.861  43.008  1.00  0.00    -0.361 N 
ATOM      8  C   UNL     1      54.856 112.511  46.354  1.00  0.00     0.056 A 
ATOM      9  C   UNL     1      54.217 111.253  46.345  1.00  0.00     0.116 A 
ATOM     10  H   UNL     1      56.110 112.530  42.024  1.00  0.00     0.166 HD
ENDROOT
BRANCH   9  11
ATOM     11  O   UNL     1      53.630 110.753  47.504  1.00  0.00    -0.508 OA
ATOM     12  H   UNL     1      53.241 109.819  47.538  1.00  0.00     0.293 HD
ENDBRANCH   9  11
TORSDOF 1
ENDMDL
MODEL 4
REMARK VINA RESULT:    -4.885     10.594     11.215
REMARK INTER + INTRA:          -5.028
REMARK INTER:                  -5.028
REMARK INTRA:                   0.000
REMARK UNBOUND:                 0.000
REMARK SMILES Oc1ccc2[nH]ccc2c1
REMARK SMILES IDX 3 1 4 2 5 3 9 4 8 5 7 6 6 7 10 8 2 9 1 11
REMARK H PARENT 6 10 1 12
REMARK Flexibility Score: inf
ROOT
ATOM      1  C   UNL     1      55.727 112.779  44.120  1.00  0.00     0.048 A 
ATOM      2  C   UNL     1      55.561 113.532  45.297  1.00  0.00     0.030 A 
ATOM      3  C   UNL     1      54.853 112.950  46.347  1.00  0.00     0.046 A 
ATOM      4  C   UNL     1      54.330 111.689  46.252  1.00  0.00     0.003 A 
ATOM      5  C   UNL     1      53.698 111.413  47.444  1.00  0.00     0.028 A 
ATOM      6  C   UNL     1      53.875 112.553  48.222  1.00  0.00     0.083 A 
ATOM      7  N   UNL     1      54.580 113.490  47.547  1.00  0.00    -0.361 N 
ATOM      8  C   UNL     1      54.477 110.915  45.102  1.00  0.00     0.056 A 
ATOM      9  C   UNL     1      55.188 111.475  44.019  1.00  0.00     0.116 A 
ATOM     10  H   UNL     1      54.856 114.437  47.892  1.00  0.00     0.166 HD
ENDROOT
BRANCH   9  11
ATOM     11  O   UNL     1      55.367 110.750  42.844  1.00  0.00    -0.508 OA
ATOM     12  H   UNL     1      55.490 111.211  41.951  1.00  0.00     0.293 HD
ENDBRANCH   9  11
TORSDOF 1
ENDMDL
MODEL 5
REMARK VINA RESULT:    -4.781     10.558     11.386
REMARK INTER + INTRA:          -4.920
REMARK INTER:                  -4.920
REMARK INTRA:                   0.000
REMARK UNBOUND:                 0.000
REMARK SMILES Oc1ccc2[nH]ccc2c1
REMARK SMILES IDX 3 1 4 2 5 3 9 4 8 5 7 6 6 7 10 8 2 9 1 11
REMARK H PARENT 6 10 1 12
REMARK Flexibility Score: inf
ROOT
ATOM      1  C   UNL     1      55.203 113.618  47.147  1.00  0.00     0.048 A 
ATOM      2  C   UNL     1      55.727 113.497  45.846  1.00  0.00     0.030 A 
ATOM      3  C   UNL     1      55.363 112.377  45.100  1.00  0.00     0.046 A 
ATOM      4  C   UNL     1      54.526 111.418  45.602  1.00  0.00     0.003 A 
ATOM      5  C   UNL     1      54.368 110.456  44.629  1.00  0.00     0.028 A 
ATOM      6  C   UNL     1      55.140 110.895  43.557  1.00  0.00     0.083 A 
ATOM      7  N   UNL     1      55.746 112.068  43.850  1.00  0.00    -0.361 N 
ATOM      8  C   UNL     1      53.990 111.507  46.886  1.00  0.00     0.056 A 
ATOM      9  C   UNL     1      54.338 112.628  47.668  1.00  0.00     0.116 A 
ATOM     10  H   UNL     1      56.380 112.619  43.228  1.00  0.00     0.166 HD
ENDROOT
BRANCH   9  11
ATOM     11  O   UNL     1      53.833 112.771  48.958  1.00  0.00    -0.508 OA
ATOM     12  H   UNL     1      54.312 113.329  49.655  1.00  0.00     0.293 HD
ENDBRANCH   9  11
TORSDOF 1
ENDMDL
MODEL 6
REMARK VINA RESULT:    -4.654      9.521     10.259
REMARK INTER + INTRA:          -4.790
REMARK INTER:                  -4.790
REMARK INTRA:                   0.000
REMARK UNBOUND:                 0.000
REMARK SMILES Oc1ccc2[nH]ccc2c1
REMARK SMILES IDX 3 1 4 2 5 3 9 4 8 5 7 6 6 7 10 8 2 9 1 11
REMARK H PARENT 6 10 1 12
REMARK Flexibility Score: inf
ROOT
ATOM      1  C   UNL     1      54.407 111.742  47.493  1.00  0.00     0.048 A 
ATOM      2  C   UNL     1      53.359 112.377  48.184  1.00  0.00     0.030 A 
ATOM      3  C   UNL     1      52.377 113.018  47.430  1.00  0.00     0.046 A 
ATOM      4  C   UNL     1      52.418 113.038  46.062  1.00  0.00     0.003 A 
ATOM      5  C   UNL     1      51.318 113.743  45.627  1.00  0.00     0.028 A 
ATOM      6  C   UNL     1      50.649 114.125  46.786  1.00  0.00     0.083 A 
ATOM      7  N   UNL     1      51.300 113.680  47.885  1.00  0.00    -0.361 N 
ATOM      8  C   UNL     1      53.442 112.419  45.347  1.00  0.00     0.056 A 
ATOM      9  C   UNL     1      54.452 111.761  46.080  1.00  0.00     0.116 A 
ATOM     10  H   UNL     1      51.019 113.823  48.881  1.00  0.00     0.166 HD
ENDROOT
BRANCH   9  11
ATOM     11  O   UNL     1      55.500 111.125  45.420  1.00  0.00    -0.508 OA
ATOM     12  H   UNL     1      55.848 110.224  45.725  1.00  0.00     0.293 HD
ENDBRANCH   9  11
TORSDOF 1
ENDMDL
MODEL 7
REMARK VINA RESULT:    -4.632      2.309      2.918
REMARK INTER + INTRA:          -4.767
REMARK INTER:                  -4.767
REMARK INTRA:                   0.000
REMARK UNBOUND:                 0.000
REMARK SMILES Oc1ccc2[nH]ccc2c1
REMARK SMILES IDX 3 1 4 2 5 3 9 4 8 5 7 6 6 7 10 8 2 9 1 11
REMARK H PARENT 6 10 1 12
REMARK Flexibility Score: inf
ROOT
ATOM      1  C   UNL     1      48.458 104.541  51.564  1.00  0.00     0.048 A 
ATOM      2  C   UNL     1      47.220 104.582  52.233  1.00  0.00     0.030 A 
ATOM      3  C   UNL     1      46.969 105.669  53.070  1.00  0.00     0.046 A 
ATOM      4  C   UNL     1      47.886 106.670  53.244  1.00  0.00     0.003 A 
ATOM      5  C   UNL     1      47.339 107.582  54.120  1.00  0.00     0.028 A 
ATOM      6  C   UNL     1      46.085 107.070  54.440  1.00  0.00     0.083 A 
ATOM      7  N   UNL     1      45.864 105.902  53.796  1.00  0.00    -0.361 N 
ATOM      8  C   UNL     1      49.120 106.661  52.596  1.00  0.00     0.056 A 
ATOM      9  C   UNL     1      49.407 105.574  51.743  1.00  0.00     0.116 A 
ATOM     10  H   UNL     1      45.007 105.306  53.854  1.00  0.00     0.166 HD
ENDROOT
BRANCH   9  11
ATOM     11  O   UNL     1      50.623 105.511  51.068  1.00  0.00    -0.508 OA
ATOM     12  H   UNL     1      50.812 104.788  50.384  1.00  0.00     0.293 HD
ENDBRANCH   9  11
TORSDOF 1
ENDMDL
MODEL 8
REMARK VINA RESULT:    -4.564      9.561     10.377
REMARK INTER + INTRA:          -4.698
REMARK INTER:                  -4.698
REMARK INTRA:                   0.000
REMARK UNBOUND:                 0.000
REMARK SMILES Oc1ccc2[nH]ccc2c1
REMARK SMILES IDX 3 1 4 2 5 3 9 4 8 5 7 6 6 7 10 8 2 9 1 11
REMARK H PARENT 6 10 1 12
REMARK Flexibility Score: inf
ROOT
ATOM      1  C   UNL     1      52.512 112.598  48.359  1.00  0.00     0.048 A 
ATOM      2  C   UNL     1      53.630 111.790  48.081  1.00  0.00     0.030 A 
ATOM      3  C   UNL     1      54.088 111.743  46.766  1.00  0.00     0.046 A 
ATOM      4  C   UNL     1      53.480 112.454  45.766  1.00  0.00     0.003 A 
ATOM      5  C   UNL     1      54.166 112.195  44.600  1.00  0.00     0.028 A 
ATOM      6  C   UNL     1      55.181 111.315  44.964  1.00  0.00     0.083 A 
ATOM      7  N   UNL     1      55.129 111.043  46.287  1.00  0.00    -0.361 N 
ATOM      8  C   UNL     1      52.372 113.263  46.007  1.00  0.00     0.056 A 
ATOM      9  C   UNL     1      51.882 113.333  47.328  1.00  0.00     0.116 A 
ATOM     10  H   UNL     1      55.770 110.416  46.824  1.00  0.00     0.166 HD
ENDROOT
BRANCH   9  11
ATOM     11  O   UNL     1      50.777 114.125  47.629  1.00  0.00    -0.508 OA
ATOM     12  H   UNL     1      49.835 113.825  47.408  1.00  0.00     0.293 HD
ENDBRANCH   9  11
TORSDOF 1
ENDMDL
MODEL 9
REMARK VINA RESULT:    -4.563      7.754      8.762
REMARK INTER + INTRA:          -4.697
REMARK INTER:                  -4.697
REMARK INTRA:                   0.000
REMARK UNBOUND:                 0.000
REMARK SMILES Oc1ccc2[nH]ccc2c1
REMARK SMILES IDX 3 1 4 2 5 3 9 4 8 5 7 6 6 7 10 8 2 9 1 11
REMARK H PARENT 6 10 1 12
REMARK Flexibility Score: inf
ROOT
ATOM      1  C   UNL     1      46.547 113.772  47.935  1.00  0.00     0.048 A 
ATOM      2  C   UNL     1      47.469 113.441  48.946  1.00  0.00     0.030 A 
ATOM      3  C   UNL     1      46.966 113.140  50.211  1.00  0.00     0.046 A 
ATOM      4  C   UNL     1      45.624 113.162  50.477  1.00  0.00     0.003 A 
ATOM      5  C   UNL     1      45.460 112.822  51.802  1.00  0.00     0.028 A 
ATOM      6  C   UNL     1      46.748 112.607  52.283  1.00  0.00     0.083 A 
ATOM      7  N   UNL     1      47.665 112.803  51.308  1.00  0.00    -0.361 N 
ATOM      8  C   UNL     1      44.684 113.485  49.500  1.00  0.00     0.056 A 
ATOM      9  C   UNL     1      45.159 113.795  48.207  1.00  0.00     0.116 A 
ATOM     10  H   UNL     1      48.702 112.709  51.394  1.00  0.00     0.166 HD
ENDROOT
BRANCH   9  11
ATOM     11  O   UNL     1      44.267 114.125  47.190  1.00  0.00    -0.508 OA
ATOM     12  H   UNL     1      43.795 115.020  47.170  1.00  0.00     0.293 HD
ENDBRANCH   9  11
TORSDOF 1
ENDMDL
