MODEL 1
REMARK VINA RESULT:    -4.320      0.000      0.000
REMARK INTER + INTRA:          -6.655
REMARK INTER:                  -6.087
REMARK INTRA:                  -0.568
REMARK UNBOUND:                -0.568
REMARK SMILES C=CCCCCCCC(=O)[O-]
REMARK SMILES IDX 6 1 7 2 8 3 9 4 10 5 11 6 5 7 4 8 3 9 2 10 1 11
REMARK H PARENT
REMARK Flexibility Score: inf
ROOT
ATOM      1  C   UNL     1      13.901 -15.722  29.933  1.00  0.00     0.000 C 
ENDROOT
BRANCH   1   2
ATOM      2  C   UNL     1      13.316 -14.369  29.503  1.00  0.00     0.006 C 
BRANCH   2   3
ATOM      3  C   UNL     1      11.896 -14.502  28.937  1.00  0.00     0.053 C 
BRANCH   3   4
ATOM      4  C   UNL     1      11.802 -13.972  27.539  1.00  0.00     0.041 C 
ATOM      5  O   UNL     1      11.570 -14.753  26.580  1.00  0.00    -0.550 OA
ATOM      6  O   UNL     1      11.935 -12.610  27.301  1.00  0.00    -0.550 OA
ENDBRANCH   3   4
ENDBRANCH   2   3
ENDBRANCH   1   2
BRANCH   1   7
ATOM      7  C   UNL     1      13.571 -16.021  31.403  1.00  0.00     0.000 C 
BRANCH   7   8
ATOM      8  C   UNL     1      12.865 -17.373  31.591  1.00  0.00     0.004 C 
BRANCH   8   9
ATOM      9  C   UNL     1      11.335 -17.259  31.504  1.00  0.00     0.027 C 
BRANCH   9  10
ATOM     10  C   UNL     1      10.850 -15.978  32.123  1.00  0.00    -0.035 C 
ATOM     11  C   UNL     1       9.721 -15.925  32.837  1.00  0.00     0.004 C 
ENDBRANCH   9  10
ENDBRANCH   8   9
ENDBRANCH   7   8
ENDBRANCH   1   7
TORSDOF 7
ENDMDL
MODEL 2
REMARK VINA RESULT:    -4.191      9.783     11.218
REMARK INTER + INTRA:          -6.473
REMARK INTER:                  -6.237
REMARK INTRA:                  -0.236
REMARK UNBOUND:                -0.568
REMARK SMILES C=CCCCCCCC(=O)[O-]
REMARK SMILES IDX 6 1 7 2 8 3 9 4 10 5 11 6 5 7 4 8 3 9 2 10 1 11
REMARK H PARENT
REMARK Flexibility Score: inf
ROOT
ATOM      1  C   UNL     1       6.803 -19.235  21.644  1.00  0.00     0.000 C 
ENDROOT
BRANCH   1   2
ATOM      2  C   UNL     1       6.708 -17.826  21.042  1.00  0.00     0.006 C 
BRANCH   2   3
ATOM      3  C   UNL     1       6.900 -16.729  22.097  1.00  0.00     0.053 C 
BRANCH   3   4
ATOM      4  C   UNL     1       6.443 -15.392  21.599  1.00  0.00     0.041 C 
ATOM      5  O   UNL     1       5.518 -15.315  20.747  1.00  0.00    -0.550 OA
ATOM      6  O   UNL     1       7.013 -14.229  22.102  1.00  0.00    -0.550 OA
ENDBRANCH   3   4
ENDBRANCH   2   3
ENDBRANCH   1   2
BRANCH   1   7
ATOM      7  C   UNL     1       7.690 -20.143  20.779  1.00  0.00     0.000 C 
BRANCH   7   8
ATOM      8  C   UNL     1       7.201 -21.601  20.752  1.00  0.00     0.004 C 
BRANCH   8   9
ATOM      9  C   UNL     1       8.355 -22.613  20.800  1.00  0.00     0.027 C 
BRANCH   9  10
ATOM     10  C   UNL     1       9.689 -21.918  20.778  1.00  0.00    -0.035 C 
ATOM     11  C   UNL     1      10.615 -22.202  19.856  1.00  0.00     0.004 C 
ENDBRANCH   9  10
ENDBRANCH   8   9
ENDBRANCH   7   8
ENDBRANCH   1   7
TORSDOF 7
ENDMDL
MODEL 3
REMARK VINA RESULT:    -4.056      4.612      6.584
REMARK INTER + INTRA:          -6.283
REMARK INTER:                  -5.754
REMARK INTRA:                  -0.528
REMARK UNBOUND:                -0.568
REMARK SMILES C=CCCCCCCC(=O)[O-]
REMARK SMILES IDX 6 1 7 2 8 3 9 4 10 5 11 6 5 7 4 8 3 9 2 10 1 11
REMARK H PARENT
REMARK Flexibility Score: inf
ROOT
ATOM      1  C   UNL     1       9.592 -18.326  32.199  1.00  0.00     0.000 C 
ENDROOT
BRANCH   1   2
ATOM      2  C   UNL     1      10.635 -19.439  32.370  1.00  0.00     0.006 C 
BRANCH   2   3
ATOM      3  C   UNL     1      10.090 -20.631  33.167  1.00  0.00     0.053 C 
BRANCH   3   4
ATOM      4  C   UNL     1       9.803 -21.807  32.284  1.00  0.00     0.041 C 
ATOM      5  O   UNL     1      10.053 -22.974  32.683  1.00  0.00    -0.550 OA
ATOM      6  O   UNL     1       9.226 -21.615  31.035  1.00  0.00    -0.550 OA
ENDBRANCH   3   4
ENDBRANCH   2   3
ENDBRANCH   1   2
BRANCH   1   7
ATOM      7  C   UNL     1       9.896 -17.140  33.126  1.00  0.00     0.000 C 
BRANCH   7   8
ATOM      8  C   UNL     1      10.001 -15.806  32.369  1.00  0.00     0.004 C 
BRANCH   8   9
ATOM      9  C   UNL     1      11.071 -15.834  31.267  1.00  0.00     0.027 C 
BRANCH   9  10
ATOM     10  C   UNL     1      12.450 -15.965  31.851  1.00  0.00    -0.035 C 
ATOM     11  C   UNL     1      13.258 -16.980  31.528  1.00  0.00     0.004 C 
ENDBRANCH   9  10
ENDBRANCH   8   9
ENDBRANCH   7   8
ENDBRANCH   1   7
TORSDOF 7
ENDMDL
MODEL 4
REMARK VINA RESULT:    -4.054      4.430      6.194
REMARK INTER + INTRA:          -6.281
REMARK INTER:                  -5.948
REMARK INTRA:                  -0.332
REMARK UNBOUND:                -0.568
REMARK SMILES C=CCCCCCCC(=O)[O-]
REMARK SMILES IDX 6 1 7 2 8 3 9 4 10 5 11 6 5 7 4 8 3 9 2 10 1 11
REMARK H PARENT
REMARK Flexibility Score: inf
ROOT
ATOM      1  C   UNL     1       9.991 -17.162  32.682  1.00  0.00     0.000 C 
ENDROOT
BRANCH   1   2
ATOM      2  C   UNL     1      10.950 -18.324  32.390  1.00  0.00     0.006 C 
BRANCH   2   3
ATOM      3  C   UNL     1      10.212 -19.583  31.917  1.00  0.00     0.053 C 
BRANCH   3   4
ATOM      4  C   UNL     1      10.219 -20.658  32.961  1.00  0.00     0.041 C 
ATOM      5  O   UNL     1      10.172 -21.870  32.623  1.00  0.00    -0.550 OA
ATOM      6  O   UNL     1      10.313 -20.321  34.306  1.00  0.00    -0.550 OA
ENDBRANCH   3   4
ENDBRANCH   2   3
ENDBRANCH   1   2
BRANCH   1   7
ATOM      7  C   UNL     1      10.509 -15.854  32.065  1.00  0.00     0.000 C 
BRANCH   7   8
ATOM      8  C   UNL     1      12.020 -15.888  31.782  1.00  0.00     0.004 C 
BRANCH   8   9
ATOM      9  C   UNL     1      12.342 -15.835  30.282  1.00  0.00     0.027 C 
BRANCH   9  10
ATOM     10  C   UNL     1      11.613 -14.705  29.609  1.00  0.00    -0.035 C 
ATOM     11  C   UNL     1      12.216 -13.908  28.720  1.00  0.00     0.004 C 
ENDBRANCH   9  10
ENDBRANCH   8   9
ENDBRANCH   7   8
ENDBRANCH   1   7
TORSDOF 7
ENDMDL
MODEL 5
REMARK VINA RESULT:    -4.047      1.500      2.135
REMARK INTER + INTRA:          -6.271
REMARK INTER:                  -5.689
REMARK INTRA:                  -0.582
REMARK UNBOUND:                -0.568
REMARK SMILES C=CCCCCCCC(=O)[O-]
REMARK SMILES IDX 6 1 7 2 8 3 9 4 10 5 11 6 5 7 4 8 3 9 2 10 1 11
REMARK H PARENT
REMARK Flexibility Score: inf
ROOT
ATOM      1  C   UNL     1      12.429 -14.449  29.816  1.00  0.00     0.000 C 
ENDROOT
BRANCH   1   2
ATOM      2  C   UNL     1      12.124 -14.755  28.343  1.00  0.00     0.006 C 
BRANCH   2   3
ATOM      3  C   UNL     1      13.079 -15.803  27.757  1.00  0.00     0.053 C 
BRANCH   3   4
ATOM      4  C   UNL     1      12.689 -16.193  26.364  1.00  0.00     0.041 C 
ATOM      5  O   UNL     1      13.141 -17.251  25.852  1.00  0.00    -0.550 OA
ATOM      6  O   UNL     1      11.799 -15.407  25.644  1.00  0.00    -0.550 OA
ENDBRANCH   3   4
ENDBRANCH   2   3
ENDBRANCH   1   2
BRANCH   1   7
ATOM      7  C   UNL     1      13.642 -15.255  30.305  1.00  0.00     0.000 C 
BRANCH   7   8
ATOM      8  C   UNL     1      13.385 -15.960  31.647  1.00  0.00     0.004 C 
BRANCH   8   9
ATOM      9  C   UNL     1      12.977 -17.430  31.475  1.00  0.00     0.027 C 
BRANCH   9  10
ATOM     10  C   UNL     1      11.499 -17.612  31.682  1.00  0.00    -0.035 C 
ATOM     11  C   UNL     1      10.745 -16.660  32.241  1.00  0.00     0.004 C 
ENDBRANCH   9  10
ENDBRANCH   8   9
ENDBRANCH   7   8
ENDBRANCH   1   7
TORSDOF 7
ENDMDL
MODEL 6
REMARK VINA RESULT:    -4.032      3.320      5.224
REMARK INTER + INTRA:          -6.250
REMARK INTER:                  -5.899
REMARK INTRA:                  -0.351
REMARK UNBOUND:                -0.568
REMARK SMILES C=CCCCCCCC(=O)[O-]
REMARK SMILES IDX 6 1 7 2 8 3 9 4 10 5 11 6 5 7 4 8 3 9 2 10 1 11
REMARK H PARENT
REMARK Flexibility Score: inf
ROOT
ATOM      1  C   UNL     1      13.381 -16.102  31.592  1.00  0.00     0.000 C 
ENDROOT
BRANCH   1   2
ATOM      2  C   UNL     1      12.739 -17.496  31.610  1.00  0.00     0.006 C 
BRANCH   2   3
ATOM      3  C   UNL     1      11.207 -17.431  31.570  1.00  0.00     0.053 C 
BRANCH   3   4
ATOM      4  C   UNL     1      10.584 -18.730  31.984  1.00  0.00     0.041 C 
ATOM      5  O   UNL     1      10.219 -19.563  31.113  1.00  0.00    -0.550 OA
ATOM      6  O   UNL     1      10.439 -19.034  33.331  1.00  0.00    -0.550 OA
ENDBRANCH   3   4
ENDBRANCH   2   3
ENDBRANCH   1   2
BRANCH   1   7
ATOM      7  C   UNL     1      14.048 -15.821  30.237  1.00  0.00     0.000 C 
BRANCH   7   8
ATOM      8  C   UNL     1      13.593 -14.490  29.617  1.00  0.00     0.004 C 
BRANCH   8   9
ATOM      9  C   UNL     1      12.132 -14.526  29.144  1.00  0.00     0.027 C 
BRANCH   9  10
ATOM     10  C   UNL     1      11.839 -13.397  28.195  1.00  0.00    -0.035 C 
ATOM     11  C   UNL     1      12.787 -12.533  27.816  1.00  0.00     0.004 C 
ENDBRANCH   9  10
ENDBRANCH   8   9
ENDBRANCH   7   8
ENDBRANCH   1   7
TORSDOF 7
ENDMDL
MODEL 7
REMARK VINA RESULT:    -4.026      2.823      5.143
REMARK INTER + INTRA:          -6.241
REMARK INTER:                  -5.840
REMARK INTRA:                  -0.400
REMARK UNBOUND:                -0.568
REMARK SMILES C=CCCCCCCC(=O)[O-]
REMARK SMILES IDX 6 1 7 2 8 3 9 4 10 5 11 6 5 7 4 8 3 9 2 10 1 11
REMARK H PARENT
REMARK Flexibility Score: inf
ROOT
ATOM      1  C   UNL     1      13.494 -15.221  29.781  1.00  0.00     0.000 C 
ENDROOT
BRANCH   1   2
ATOM      2  C   UNL     1      13.507 -15.614  31.265  1.00  0.00     0.006 C 
BRANCH   2   3
ATOM      3  C   UNL     1      13.283 -17.118  31.472  1.00  0.00     0.053 C 
BRANCH   3   4
ATOM      4  C   UNL     1      11.852 -17.430  31.782  1.00  0.00     0.041 C 
ATOM      5  O   UNL     1      11.436 -18.617  31.727  1.00  0.00    -0.550 OA
ATOM      6  O   UNL     1      10.985 -16.415  32.168  1.00  0.00    -0.550 OA
ENDBRANCH   3   4
ENDBRANCH   2   3
ENDBRANCH   1   2
BRANCH   1   7
ATOM      7  C   UNL     1      12.181 -14.514  29.412  1.00  0.00     0.000 C 
BRANCH   7   8
ATOM      8  C   UNL     1      12.409 -13.203  28.642  1.00  0.00     0.004 C 
BRANCH   8   9
ATOM      9  C   UNL     1      11.687 -13.180  27.287  1.00  0.00     0.027 C 
BRANCH   9  10
ATOM     10  C   UNL     1      11.590 -14.561  26.699  1.00  0.00    -0.035 C 
ATOM     11  C   UNL     1      12.365 -14.948  25.680  1.00  0.00     0.004 C 
ENDBRANCH   9  10
ENDBRANCH   8   9
ENDBRANCH   7   8
ENDBRANCH   1   7
TORSDOF 7
ENDMDL
MODEL 8
REMARK VINA RESULT:    -3.996     10.527     12.140
REMARK INTER + INTRA:          -6.200
REMARK INTER:                  -5.494
REMARK INTRA:                  -0.706
REMARK UNBOUND:                -0.568
REMARK SMILES C=CCCCCCCC(=O)[O-]
REMARK SMILES IDX 6 1 7 2 8 3 9 4 10 5 11 6 5 7 4 8 3 9 2 10 1 11
REMARK H PARENT
REMARK Flexibility Score: inf
ROOT
ATOM      1  C   UNL     1       4.801 -18.685  19.720  1.00  0.00     0.000 C 
ENDROOT
BRANCH   1   2
ATOM      2  C   UNL     1       6.332 -18.591  19.770  1.00  0.00     0.006 C 
BRANCH   2   3
ATOM      3  C   UNL     1       6.905 -19.123  21.090  1.00  0.00     0.053 C 
BRANCH   3   4
ATOM      4  C   UNL     1       7.724 -20.360  20.884  1.00  0.00     0.041 C 
ATOM      5  O   UNL     1       7.160 -21.466  20.669  1.00  0.00    -0.550 OA
ATOM      6  O   UNL     1       9.111 -20.287  20.892  1.00  0.00    -0.550 OA
ENDBRANCH   3   4
ENDBRANCH   2   3
ENDBRANCH   1   2
BRANCH   1   7
ATOM      7  C   UNL     1       4.173 -18.095  20.992  1.00  0.00     0.000 C 
BRANCH   7   8
ATOM      8  C   UNL     1       3.526 -16.721  20.752  1.00  0.00     0.004 C 
BRANCH   8   9
ATOM      9  C   UNL     1       4.189 -15.604  21.572  1.00  0.00     0.027 C 
BRANCH   9  10
ATOM     10  C   UNL     1       5.501 -15.191  20.966  1.00  0.00    -0.035 C 
ATOM     11  C   UNL     1       6.637 -15.202  21.672  1.00  0.00     0.004 C 
ENDBRANCH   9  10
ENDBRANCH   8   9
ENDBRANCH   7   8
ENDBRANCH   1   7
TORSDOF 7
ENDMDL
MODEL 9
REMARK VINA RESULT:    -3.959      8.996     10.948
REMARK INTER + INTRA:          -6.147
REMARK INTER:                  -5.637
REMARK INTRA:                  -0.510
REMARK UNBOUND:                -0.568
REMARK SMILES C=CCCCCCCC(=O)[O-]
REMARK SMILES IDX 6 1 7 2 8 3 9 4 10 5 11 6 5 7 4 8 3 9 2 10 1 11
REMARK H PARENT
REMARK Flexibility Score: inf
ROOT
ATOM      1  C   UNL     1       6.888 -17.932  20.586  1.00  0.00     0.000 C 
ENDROOT
BRANCH   1   2
ATOM      2  C   UNL     1       6.414 -17.124  21.802  1.00  0.00     0.006 C 
BRANCH   2   3
ATOM      3  C   UNL     1       7.257 -17.407  23.053  1.00  0.00     0.053 C 
BRANCH   3   4
ATOM      4  C   UNL     1       6.479 -18.158  24.090  1.00  0.00     0.041 C 
ATOM      5  O   UNL     1       5.301 -18.533  23.851  1.00  0.00    -0.550 OA
ATOM      6  O   UNL     1       7.067 -18.475  25.308  1.00  0.00    -0.550 OA
ENDBRANCH   3   4
ENDBRANCH   2   3
ENDBRANCH   1   2
BRANCH   1   7
ATOM      7  C   UNL     1       6.145 -19.273  20.492  1.00  0.00     0.000 C 
BRANCH   7   8
ATOM      8  C   UNL     1       7.050 -20.477  20.800  1.00  0.00     0.004 C 
BRANCH   8   9
ATOM      9  C   UNL     1       8.535 -20.094  20.887  1.00  0.00     0.027 C 
BRANCH   9  10
ATOM     10  C   UNL     1       9.417 -21.306  20.771  1.00  0.00    -0.035 C 
ATOM     11  C   UNL     1      10.686 -21.216  20.362  1.00  0.00     0.004 C 
ENDBRANCH   9  10
ENDBRANCH   8   9
ENDBRANCH   7   8
ENDBRANCH   1   7
TORSDOF 7
ENDMDL
