MODEL 1
REMARK VINA RESULT:    -7.054      0.000      0.000
REMARK INTER + INTRA:         -19.936
REMARK INTER:                 -16.744
REMARK INTRA:                  -3.192
REMARK UNBOUND:                -3.192
REMARK SMILES O=C(OC[C@@H]1O[C@@H](OC(=O)c2cc(O)c(O)c(O)c2)[C@@H](OC(=O)c2cc(O)c(O)c(O)c2)[C@H](OC(=O)c2cc(O)c(O)c(O)c2)[C@@H]1OC(=O)c1cc(O)c(O)c(O)c1)c1cc(O)c(O)c(O)c1
REMARK SMILES IDX 5 1 46 2 33 3 20 4 7 5 6 6 4 7 3 8 2 9 1 10 59 11 60 12
REMARK SMILES IDX 61 13 67 14 63 15 65 16 62 17 64 19 66 21 47 23 48 24 49 25
REMARK SMILES IDX 50 26 58 27 51 28 56 29 52 30 54 31 57 32 53 34 55 36 34 38
REMARK SMILES IDX 35 39 36 40 37 41 45 42 38 43 43 44 39 45 41 46 44 47 40 49
REMARK SMILES IDX 42 51 8 53 9 54 10 55 11 56 19 57 12 58 17 59 13 60 15 61
REMARK SMILES IDX 18 62 14 64 16 66 21 68 22 69 23 70 24 71 32 72 25 73 30 74
REMARK SMILES IDX 26 75 28 76 31 77 27 79 29 81
REMARK H PARENT 62 18 64 20 66 22 57 33 53 35 55 37 44 48 40 50 42 52 18 63
REMARK H PARENT 14 65 16 67 31 78 27 80 29 82
REMARK Flexibility Score: inf
ROOT
ATOM      1  C   UNL     1      17.985  27.553  30.386  1.00  0.00     0.205 C 
ATOM      2  C   UNL     1      18.160  26.576  29.203  1.00  0.00     0.254 C 
ATOM      3  C   UNL     1      19.607  26.673  28.677  1.00  0.00     0.267 C 
ATOM      4  C   UNL     1      19.963  28.140  28.376  1.00  0.00     0.290 C 
ATOM      5  C   UNL     1      19.629  29.026  29.590  1.00  0.00     0.357 C 
ATOM      6  O   UNL     1      18.272  28.882  29.979  1.00  0.00    -0.329 OA
ENDROOT
BRANCH   1   7
ATOM      7  C   UNL     1      16.554  27.493  30.946  1.00  0.00     0.269 C 
BRANCH   7   8
ATOM      8  O   UNL     1      16.481  28.144  32.213  1.00  0.00    -0.459 OA
BRANCH   8   9
ATOM      9  C   UNL     1      15.911  29.406  32.417  1.00  0.00     0.338 C 
ATOM     10  O   UNL     1      14.875  29.528  33.124  1.00  0.00    -0.246 OA
BRANCH   9  11
ATOM     11  C   UNL     1      16.552  30.601  31.825  1.00  0.00     0.067 A 
ATOM     12  C   UNL     1      16.136  31.077  30.575  1.00  0.00     0.066 A 
ATOM     13  C   UNL     1      16.743  32.194  29.997  1.00  0.00     0.162 A 
ATOM     14  C   UNL     1      17.585  31.268  32.499  1.00  0.00     0.066 A 
ATOM     15  C   UNL     1      17.786  32.857  30.668  1.00  0.00     0.200 A 
ATOM     16  C   UNL     1      18.205  32.390  31.939  1.00  0.00     0.162 A 
BRANCH  13  17
ATOM     17  O   UNL     1      16.307  32.624  28.742  1.00  0.00    -0.504 OA
ATOM     18  H   UNL     1      15.779  32.026  28.117  1.00  0.00     0.293 HD
ENDBRANCH  13  17
BRANCH  15  19
ATOM     19  O   UNL     1      18.382  33.958  30.046  1.00  0.00    -0.502 OA
ATOM     20  H   UNL     1      17.908  34.564  29.394  1.00  0.00     0.293 HD
ENDBRANCH  15  19
BRANCH  16  21
ATOM     21  O   UNL     1      19.217  33.010  32.677  1.00  0.00    -0.504 OA
ATOM     22  H   UNL     1      20.201  32.850  32.537  1.00  0.00     0.293 HD
ENDBRANCH  16  21
ENDBRANCH   9  11
ENDBRANCH   8   9
ENDBRANCH   7   8
ENDBRANCH   1   7
BRANCH   2  23
ATOM     23  O   UNL     1      17.243  26.919  28.163  1.00  0.00    -0.452 OA
BRANCH  23  24
ATOM     24  C   UNL     1      15.931  26.432  28.083  1.00  0.00     0.338 C 
ATOM     25  O   UNL     1      14.952  27.226  28.134  1.00  0.00    -0.246 OA
BRANCH  24  26
ATOM     26  C   UNL     1      15.702  24.980  27.936  1.00  0.00     0.067 A 
ATOM     27  C   UNL     1      15.629  24.391  26.661  1.00  0.00     0.066 A 
ATOM     28  C   UNL     1      15.563  24.171  29.073  1.00  0.00     0.066 A 
ATOM     29  C   UNL     1      15.421  23.016  26.523  1.00  0.00     0.162 A 
ATOM     30  C   UNL     1      15.348  22.796  28.944  1.00  0.00     0.162 A 
ATOM     31  C   UNL     1      15.274  22.212  27.667  1.00  0.00     0.200 A 
BRANCH  29  32
ATOM     32  O   UNL     1      15.384  22.462  25.243  1.00  0.00    -0.504 OA
ATOM     33  H   UNL     1      16.090  21.812  24.921  1.00  0.00     0.293 HD
ENDBRANCH  29  32
BRANCH  30  34
ATOM     34  O   UNL     1      15.199  22.002  30.083  1.00  0.00    -0.504 OA
ATOM     35  H   UNL     1      16.005  21.701  30.623  1.00  0.00     0.293 HD
ENDBRANCH  30  34
BRANCH  31  36
ATOM     36  O   UNL     1      15.066  20.840  27.522  1.00  0.00    -0.502 OA
ATOM     37  H   UNL     1      14.713  20.263  28.280  1.00  0.00     0.293 HD
ENDBRANCH  31  36
ENDBRANCH  24  26
ENDBRANCH  23  24
ENDBRANCH   2  23
BRANCH   3  38
ATOM     38  O   UNL     1      19.765  25.902  27.485  1.00  0.00    -0.450 OA
BRANCH  38  39
ATOM     39  C   UNL     1      20.539  24.741  27.390  1.00  0.00     0.338 C 
ATOM     40  O   UNL     1      21.351  24.444  28.308  1.00  0.00    -0.246 OA
BRANCH  39  41
ATOM     41  C   UNL     1      20.405  23.869  26.199  1.00  0.00     0.067 A 
ATOM     42  C   UNL     1      21.342  23.916  25.153  1.00  0.00     0.066 A 
ATOM     43  C   UNL     1      19.322  22.982  26.101  1.00  0.00     0.066 A 
ATOM     44  C   UNL     1      21.183  23.116  24.012  1.00  0.00     0.162 A 
ATOM     45  C   UNL     1      19.153  22.182  24.968  1.00  0.00     0.162 A 
ATOM     46  C   UNL     1      20.081  22.250  23.915  1.00  0.00     0.200 A 
BRANCH  44  47
ATOM     47  O   UNL     1      22.115  23.179  22.972  1.00  0.00    -0.504 OA
ATOM     48  H   UNL     1      23.112  23.251  23.149  1.00  0.00     0.293 HD
ENDBRANCH  44  47
BRANCH  45  49
ATOM     49  O   UNL     1      18.059  21.319  24.904  1.00  0.00    -0.504 OA
ATOM     50  H   UNL     1      17.141  21.637  24.623  1.00  0.00     0.293 HD
ENDBRANCH  45  49
BRANCH  46  51
ATOM     51  O   UNL     1      19.898  21.452  22.787  1.00  0.00    -0.502 OA
ATOM     52  H   UNL     1      19.440  21.790  21.947  1.00  0.00     0.293 HD
ENDBRANCH  46  51
ENDBRANCH  39  41
ENDBRANCH  38  39
ENDBRANCH   3  38
BRANCH   5  53
ATOM     53  O   UNL     1      20.501  28.738  30.685  1.00  0.00    -0.428 OA
BRANCH  53  54
ATOM     54  C   UNL     1      20.794  29.658  31.700  1.00  0.00     0.340 C 
ATOM     55  O   UNL     1      20.191  29.594  32.806  1.00  0.00    -0.246 OA
BRANCH  54  56
ATOM     56  C   UNL     1      21.792  30.722  31.452  1.00  0.00     0.067 A 
ATOM     57  C   UNL     1      21.567  31.680  30.450  1.00  0.00     0.066 A 
ATOM     58  C   UNL     1      22.965  30.794  32.221  1.00  0.00     0.066 A 
ATOM     59  C   UNL     1      22.507  32.693  30.210  1.00  0.00     0.162 A 
ATOM     60  C   UNL     1      23.904  31.808  31.992  1.00  0.00     0.162 A 
ATOM     61  C   UNL     1      23.681  32.756  30.980  1.00  0.00     0.200 A 
BRANCH  59  62
ATOM     62  O   UNL     1      22.280  33.637  29.212  1.00  0.00    -0.504 OA
ATOM     63  H   UNL     1      22.352  34.631  29.393  1.00  0.00     0.293 HD
ENDBRANCH  59  62
BRANCH  60  64
ATOM     64  O   UNL     1      25.064  31.857  32.766  1.00  0.00    -0.504 OA
ATOM     65  H   UNL     1      25.093  31.488  33.709  1.00  0.00     0.293 HD
ENDBRANCH  60  64
BRANCH  61  66
ATOM     66  O   UNL     1      24.633  33.755  30.755  1.00  0.00    -0.502 OA
ATOM     67  H   UNL     1      24.511  34.703  31.109  1.00  0.00     0.293 HD
ENDBRANCH  61  66
ENDBRANCH  54  56
ENDBRANCH  53  54
ENDBRANCH   5  53
BRANCH   4  68
ATOM     68  O   UNL     1      21.356  28.259  28.071  1.00  0.00    -0.448 OA
BRANCH  68  69
ATOM     69  C   UNL     1      22.375  27.743  28.885  1.00  0.00     0.339 C 
ATOM     70  O   UNL     1      22.100  26.904  29.785  1.00  0.00    -0.246 OA
BRANCH  69  71
ATOM     71  C   UNL     1      23.778  28.153  28.665  1.00  0.00     0.067 A 
ATOM     72  C   UNL     1      24.509  27.643  27.577  1.00  0.00     0.066 A 
ATOM     73  C   UNL     1      24.398  29.061  29.537  1.00  0.00     0.066 A 
ATOM     74  C   UNL     1      25.828  28.060  27.346  1.00  0.00     0.162 A 
ATOM     75  C   UNL     1      25.721  29.475  29.328  1.00  0.00     0.162 A 
ATOM     76  C   UNL     1      26.437  28.983  28.209  1.00  0.00     0.200 A 
BRANCH  74  77
ATOM     77  O   UNL     1      26.540  27.572  26.251  1.00  0.00    -0.504 OA
ATOM     78  H   UNL     1      27.501  27.278  26.336  1.00  0.00     0.293 HD
ENDBRANCH  74  77
BRANCH  75  79
ATOM     79  O   UNL     1      26.277  30.359  30.258  1.00  0.00    -0.504 OA
ATOM     80  H   UNL     1      27.265  30.447  30.432  1.00  0.00     0.293 HD
ENDBRANCH  75  79
BRANCH  76  81
ATOM     81  O   UNL     1      27.740  29.395  27.918  1.00  0.00    -0.502 OA
ATOM     82  H   UNL     1      28.201  29.203  27.046  1.00  0.00     0.293 HD
ENDBRANCH  76  81
ENDBRANCH  69  71
ENDBRANCH  68  69
ENDBRANCH   4  68
TORSDOF 31
ENDMDL
MODEL 2
REMARK VINA RESULT:    -6.943      1.436      9.036
REMARK INTER + INTRA:         -19.672
REMARK INTER:                 -16.220
REMARK INTRA:                  -3.452
REMARK UNBOUND:                -3.192
REMARK SMILES O=C(OC[C@@H]1O[C@@H](OC(=O)c2cc(O)c(O)c(O)c2)[C@@H](OC(=O)c2cc(O)c(O)c(O)c2)[C@H](OC(=O)c2cc(O)c(O)c(O)c2)[C@@H]1OC(=O)c1cc(O)c(O)c(O)c1)c1cc(O)c(O)c(O)c1
REMARK SMILES IDX 5 1 46 2 33 3 20 4 7 5 6 6 4 7 3 8 2 9 1 10 59 11 60 12
REMARK SMILES IDX 61 13 67 14 63 15 65 16 62 17 64 19 66 21 47 23 48 24 49 25
REMARK SMILES IDX 50 26 58 27 51 28 56 29 52 30 54 31 57 32 53 34 55 36 34 38
REMARK SMILES IDX 35 39 36 40 37 41 45 42 38 43 43 44 39 45 41 46 44 47 40 49
REMARK SMILES IDX 42 51 8 53 9 54 10 55 11 56 19 57 12 58 17 59 13 60 15 61
REMARK SMILES IDX 18 62 14 64 16 66 21 68 22 69 23 70 24 71 32 72 25 73 30 74
REMARK SMILES IDX 26 75 28 76 31 77 27 79 29 81
REMARK H PARENT 62 18 64 20 66 22 57 33 53 35 55 37 44 48 40 50 42 52 18 63
REMARK H PARENT 14 65 16 67 31 78 27 80 29 82
REMARK Flexibility Score: inf
ROOT
ATOM      1  C   UNL     1      17.596  26.623  27.557  1.00  0.00     0.205 C 
ATOM      2  C   UNL     1      17.907  27.924  28.330  1.00  0.00     0.254 C 
ATOM      3  C   UNL     1      19.424  28.005  28.591  1.00  0.00     0.267 C 
ATOM      4  C   UNL     1      19.916  26.709  29.261  1.00  0.00     0.290 C 
ATOM      5  C   UNL     1      19.437  25.485  28.461  1.00  0.00     0.357 C 
ATOM      6  O   UNL     1      18.028  25.491  28.296  1.00  0.00    -0.329 OA
ENDROOT
BRANCH   1   7
ATOM      7  C   UNL     1      16.090  26.495  27.272  1.00  0.00     0.269 C 
BRANCH   7   8
ATOM      8  O   UNL     1      15.518  25.445  28.050  1.00  0.00    -0.459 OA
BRANCH   8   9
ATOM      9  C   UNL     1      15.306  24.144  27.579  1.00  0.00     0.338 C 
ATOM     10  O   UNL     1      15.180  23.930  26.343  1.00  0.00    -0.246 OA
BRANCH   9  11
ATOM     11  C   UNL     1      15.265  23.018  28.537  1.00  0.00     0.067 A 
ATOM     12  C   UNL     1      15.272  23.265  29.917  1.00  0.00     0.066 A 
ATOM     13  C   UNL     1      15.251  22.211  30.832  1.00  0.00     0.162 A 
ATOM     14  C   UNL     1      15.225  21.692  28.082  1.00  0.00     0.066 A 
ATOM     15  C   UNL     1      15.222  20.880  30.376  1.00  0.00     0.200 A 
ATOM     16  C   UNL     1      15.200  20.621  28.983  1.00  0.00     0.162 A 
BRANCH  13  17
ATOM     17  O   UNL     1      15.277  22.503  32.197  1.00  0.00    -0.504 OA
ATOM     18  H   UNL     1      14.639  23.166  32.622  1.00  0.00     0.293 HD
ENDBRANCH  13  17
BRANCH  15  19
ATOM     19  O   UNL     1      15.222  19.853  31.324  1.00  0.00    -0.502 OA
ATOM     20  H   UNL     1      14.751  18.970  31.201  1.00  0.00     0.293 HD
ENDBRANCH  15  19
BRANCH  16  21
ATOM     21  O   UNL     1      15.147  19.328  28.455  1.00  0.00    -0.504 OA
ATOM     22  H   UNL     1      15.653  18.542  28.827  1.00  0.00     0.293 HD
ENDBRANCH  16  21
ENDBRANCH   9  11
ENDBRANCH   8   9
ENDBRANCH   7   8
ENDBRANCH   1   7
BRANCH   2  23
ATOM     23  O   UNL     1      17.201  27.920  29.571  1.00  0.00    -0.452 OA
BRANCH  23  24
ATOM     24  C   UNL     1      16.123  28.768  29.862  1.00  0.00     0.338 C 
ATOM     25  O   UNL     1      14.937  28.356  29.739  1.00  0.00    -0.246 OA
BRANCH  24  26
ATOM     26  C   UNL     1      16.385  30.148  30.317  1.00  0.00     0.067 A 
ATOM     27  C   UNL     1      17.080  30.388  31.515  1.00  0.00     0.066 A 
ATOM     28  C   UNL     1      15.949  31.237  29.549  1.00  0.00     0.066 A 
ATOM     29  C   UNL     1      17.336  31.695  31.940  1.00  0.00     0.162 A 
ATOM     30  C   UNL     1      16.194  32.548  29.969  1.00  0.00     0.162 A 
ATOM     31  C   UNL     1      16.888  32.782  31.169  1.00  0.00     0.200 A 
BRANCH  29  32
ATOM     32  O   UNL     1      18.053  31.896  33.120  1.00  0.00    -0.504 OA
ATOM     33  H   UNL     1      17.821  32.640  33.767  1.00  0.00     0.293 HD
ENDBRANCH  29  32
BRANCH  30  34
ATOM     34  O   UNL     1      15.745  33.624  29.201  1.00  0.00    -0.504 OA
ATOM     35  H   UNL     1      16.325  34.444  29.055  1.00  0.00     0.293 HD
ENDBRANCH  30  34
BRANCH  31  36
ATOM     36  O   UNL     1      17.146  34.084  31.600  1.00  0.00    -0.502 OA
ATOM     37  H   UNL     1      16.776  34.898  31.117  1.00  0.00     0.293 HD
ENDBRANCH  31  36
ENDBRANCH  24  26
ENDBRANCH  23  24
ENDBRANCH   2  23
BRANCH   3  38
ATOM     38  O   UNL     1      19.734  29.112  29.438  1.00  0.00    -0.450 OA
BRANCH  38  39
ATOM     39  C   UNL     1      19.841  30.437  29.003  1.00  0.00     0.338 C 
ATOM     40  O   UNL     1      19.265  30.804  27.942  1.00  0.00    -0.246 OA
BRANCH  39  41
ATOM     41  C   UNL     1      20.643  31.403  29.790  1.00  0.00     0.067 A 
ATOM     42  C   UNL     1      22.047  31.405  29.729  1.00  0.00     0.066 A 
ATOM     43  C   UNL     1      19.999  32.332  30.623  1.00  0.00     0.066 A 
ATOM     44  C   UNL     1      22.798  32.295  30.510  1.00  0.00     0.162 A 
ATOM     45  C   UNL     1      20.737  33.222  31.406  1.00  0.00     0.162 A 
ATOM     46  C   UNL     1      22.141  33.204  31.358  1.00  0.00     0.200 A 
BRANCH  44  47
ATOM     47  O   UNL     1      24.194  32.281  30.450  1.00  0.00    -0.504 OA
ATOM     48  H   UNL     1      24.762  32.023  31.250  1.00  0.00     0.293 HD
ENDBRANCH  44  47
BRANCH  45  49
ATOM     49  O   UNL     1      20.061  34.125  32.227  1.00  0.00    -0.504 OA
ATOM     50  H   UNL     1      20.249  34.194  33.218  1.00  0.00     0.293 HD
ENDBRANCH  45  49
BRANCH  46  51
ATOM     51  O   UNL     1      22.867  34.093  32.150  1.00  0.00    -0.502 OA
ATOM     52  H   UNL     1      22.493  34.988  32.448  1.00  0.00     0.293 HD
ENDBRANCH  46  51
ENDBRANCH  39  41
ENDBRANCH  38  39
ENDBRANCH   3  38
BRANCH   5  53
ATOM     53  O   UNL     1      20.093  25.418  27.193  1.00  0.00    -0.428 OA
BRANCH  53  54
ATOM     54  C   UNL     1      20.958  24.379  26.825  1.00  0.00     0.340 C 
ATOM     55  O   UNL     1      22.024  24.184  27.471  1.00  0.00    -0.246 OA
BRANCH  54  56
ATOM     56  C   UNL     1      20.625  23.533  25.658  1.00  0.00     0.067 A 
ATOM     57  C   UNL     1      21.486  23.493  24.548  1.00  0.00     0.066 A 
ATOM     58  C   UNL     1      19.457  22.754  25.649  1.00  0.00     0.066 A 
ATOM     59  C   UNL     1      21.180  22.693  23.438  1.00  0.00     0.162 A 
ATOM     60  C   UNL     1      19.150  21.945  24.547  1.00  0.00     0.162 A 
ATOM     61  C   UNL     1      20.006  21.918  23.435  1.00  0.00     0.200 A 
BRANCH  59  62
ATOM     62  O   UNL     1      22.035  22.662  22.340  1.00  0.00    -0.504 OA
ATOM     63  H   UNL     1      22.587  21.841  22.118  1.00  0.00     0.293 HD
ENDBRANCH  59  62
BRANCH  60  64
ATOM     64  O   UNL     1      17.982  21.183  24.560  1.00  0.00    -0.504 OA
ATOM     65  H   UNL     1      17.593  20.784  23.713  1.00  0.00     0.293 HD
ENDBRANCH  60  64
BRANCH  61  66
ATOM     66  O   UNL     1      19.680  21.117  22.338  1.00  0.00    -0.502 OA
ATOM     67  H   UNL     1      18.849  20.527  22.331  1.00  0.00     0.293 HD
ENDBRANCH  61  66
ENDBRANCH  54  56
ENDBRANCH  53  54
ENDBRANCH   5  53
BRANCH   4  68
ATOM     68  O   UNL     1      21.345  26.700  29.334  1.00  0.00    -0.448 OA
BRANCH  68  69
ATOM     69  C   UNL     1      22.096  27.713  29.948  1.00  0.00     0.339 C 
ATOM     70  O   UNL     1      21.666  28.274  30.992  1.00  0.00    -0.246 OA
BRANCH  69  71
ATOM     71  C   UNL     1      23.412  28.098  29.396  1.00  0.00     0.067 A 
ATOM     72  C   UNL     1      23.818  27.640  28.129  1.00  0.00     0.066 A 
ATOM     73  C   UNL     1      24.274  28.930  30.128  1.00  0.00     0.066 A 
ATOM     74  C   UNL     1      25.050  28.036  27.589  1.00  0.00     0.162 A 
ATOM     75  C   UNL     1      25.516  29.319  29.608  1.00  0.00     0.162 A 
ATOM     76  C   UNL     1      25.900  28.883  28.316  1.00  0.00     0.200 A 
BRANCH  74  77
ATOM     77  O   UNL     1      25.436  27.601  26.322  1.00  0.00    -0.504 OA
ATOM     78  H   UNL     1      25.866  26.700  26.182  1.00  0.00     0.293 HD
ENDBRANCH  74  77
BRANCH  75  79
ATOM     79  O   UNL     1      26.329  30.125  30.411  1.00  0.00    -0.504 OA
ATOM     80  H   UNL     1      26.860  30.910  30.069  1.00  0.00     0.293 HD
ENDBRANCH  75  79
BRANCH  76  81
ATOM     81  O   UNL     1      27.101  29.277  27.722  1.00  0.00    -0.502 OA
ATOM     82  H   UNL     1      27.166  29.632  26.784  1.00  0.00     0.293 HD
ENDBRANCH  76  81
ENDBRANCH  69  71
ENDBRANCH  68  69
ENDBRANCH   4  68
TORSDOF 31
ENDMDL
MODEL 3
REMARK VINA RESULT:    -6.170      1.414      7.739
REMARK INTER + INTRA:         -17.839
REMARK INTER:                 -15.293
REMARK INTRA:                  -2.545
REMARK UNBOUND:                -3.192
REMARK SMILES O=C(OC[C@@H]1O[C@@H](OC(=O)c2cc(O)c(O)c(O)c2)[C@@H](OC(=O)c2cc(O)c(O)c(O)c2)[C@H](OC(=O)c2cc(O)c(O)c(O)c2)[C@@H]1OC(=O)c1cc(O)c(O)c(O)c1)c1cc(O)c(O)c(O)c1
REMARK SMILES IDX 5 1 46 2 33 3 20 4 7 5 6 6 4 7 3 8 2 9 1 10 59 11 60 12
REMARK SMILES IDX 61 13 67 14 63 15 65 16 62 17 64 19 66 21 47 23 48 24 49 25
REMARK SMILES IDX 50 26 58 27 51 28 56 29 52 30 54 31 57 32 53 34 55 36 34 38
REMARK SMILES IDX 35 39 36 40 37 41 45 42 38 43 43 44 39 45 41 46 44 47 40 49
REMARK SMILES IDX 42 51 8 53 9 54 10 55 11 56 19 57 12 58 17 59 13 60 15 61
REMARK SMILES IDX 18 62 14 64 16 66 21 68 22 69 23 70 24 71 32 72 25 73 30 74
REMARK SMILES IDX 26 75 28 76 31 77 27 79 29 81
REMARK H PARENT 62 18 64 20 66 22 57 33 53 35 55 37 44 48 40 50 42 52 18 63
REMARK H PARENT 14 65 16 67 31 78 27 80 29 82
REMARK Flexibility Score: inf
ROOT
ATOM      1  C   UNL     1      18.296  25.445  28.092  1.00  0.00     0.205 C 
ATOM      2  C   UNL     1      19.830  25.621  28.053  1.00  0.00     0.254 C 
ATOM      3  C   UNL     1      20.196  27.008  28.619  1.00  0.00     0.267 C 
ATOM      4  C   UNL     1      19.390  28.103  27.897  1.00  0.00     0.290 C 
ATOM      5  C   UNL     1      17.892  27.749  27.900  1.00  0.00     0.357 C 
ATOM      6  O   UNL     1      17.661  26.467  27.338  1.00  0.00    -0.329 OA
ENDROOT
BRANCH   1   7
ATOM      7  C   UNL     1      17.882  24.073  27.534  1.00  0.00     0.269 C 
BRANCH   7   8
ATOM      8  O   UNL     1      16.666  24.177  26.795  1.00  0.00    -0.459 OA
BRANCH   8   9
ATOM      9  C   UNL     1      15.661  23.202  26.796  1.00  0.00     0.338 C 
ATOM     10  O   UNL     1      14.968  23.005  25.761  1.00  0.00    -0.246 OA
BRANCH   9  11
ATOM     11  C   UNL     1      15.441  22.381  28.006  1.00  0.00     0.067 A 
ATOM     12  C   UNL     1      15.244  22.996  29.249  1.00  0.00     0.066 A 
ATOM     13  C   UNL     1      15.051  22.232  30.402  1.00  0.00     0.162 A 
ATOM     14  C   UNL     1      15.432  20.980  27.929  1.00  0.00     0.066 A 
ATOM     15  C   UNL     1      15.054  20.828  30.328  1.00  0.00     0.200 A 
ATOM     16  C   UNL     1      15.238  20.197  29.072  1.00  0.00     0.162 A 
BRANCH  13  17
ATOM     17  O   UNL     1      14.876  22.888  31.623  1.00  0.00    -0.504 OA
ATOM     18  H   UNL     1      15.385  23.730  31.864  1.00  0.00     0.293 HD
ENDBRANCH  13  17
BRANCH  15  19
ATOM     19  O   UNL     1      14.878  20.099  31.508  1.00  0.00    -0.502 OA
ATOM     20  H   UNL     1      13.980  19.822  31.873  1.00  0.00     0.293 HD
ENDBRANCH  15  19
BRANCH  16  21
ATOM     21  O   UNL     1      15.229  18.808  28.915  1.00  0.00    -0.504 OA
ATOM     22  H   UNL     1      15.769  18.169  29.476  1.00  0.00     0.293 HD
ENDBRANCH  16  21
ENDBRANCH   9  11
ENDBRANCH   8   9
ENDBRANCH   7   8
ENDBRANCH   1   7
BRANCH   2  23
ATOM     23  O   UNL     1      20.287  25.513  26.704  1.00  0.00    -0.452 OA
BRANCH  23  24
ATOM     24  C   UNL     1      21.247  24.587  26.273  1.00  0.00     0.338 C 
ATOM     25  O   UNL     1      22.398  24.576  26.790  1.00  0.00    -0.246 OA
BRANCH  24  26
ATOM     26  C   UNL     1      20.901  23.621  25.212  1.00  0.00     0.067 A 
ATOM     27  C   UNL     1      19.745  22.827  25.313  1.00  0.00     0.066 A 
ATOM     28  C   UNL     1      21.723  23.492  24.082  1.00  0.00     0.066 A 
ATOM     29  C   UNL     1      19.414  21.919  24.303  1.00  0.00     0.162 A 
ATOM     30  C   UNL     1      21.403  22.582  23.070  1.00  0.00     0.162 A 
ATOM     31  C   UNL     1      20.247  21.790  23.178  1.00  0.00     0.200 A 
BRANCH  29  32
ATOM     32  O   UNL     1      18.244  21.169  24.424  1.00  0.00    -0.504 OA
ATOM     33  H   UNL     1      18.011  20.674  25.277  1.00  0.00     0.293 HD
ENDBRANCH  29  32
BRANCH  30  34
ATOM     34  O   UNL     1      22.235  22.455  21.956  1.00  0.00    -0.504 OA
ATOM     35  H   UNL     1      22.094  23.024  21.128  1.00  0.00     0.293 HD
ENDBRANCH  30  34
BRANCH  31  36
ATOM     36  O   UNL     1      19.910  20.881  22.174  1.00  0.00    -0.502 OA
ATOM     37  H   UNL     1      20.308  20.933  21.241  1.00  0.00     0.293 HD
ENDBRANCH  31  36
ENDBRANCH  24  26
ENDBRANCH  23  24
ENDBRANCH   2  23
BRANCH   3  38
ATOM     38  O   UNL     1      21.589  27.271  28.456  1.00  0.00    -0.450 OA
BRANCH  38  39
ATOM     39  C   UNL     1      22.447  27.668  29.487  1.00  0.00     0.338 C 
ATOM     40  O   UNL     1      22.079  27.569  30.690  1.00  0.00    -0.246 OA
BRANCH  39  41
ATOM     41  C   UNL     1      23.784  28.212  29.157  1.00  0.00     0.067 A 
ATOM     42  C   UNL     1      24.337  29.280  29.885  1.00  0.00     0.066 A 
ATOM     43  C   UNL     1      24.519  27.665  28.093  1.00  0.00     0.066 A 
ATOM     44  C   UNL     1      25.586  29.815  29.538  1.00  0.00     0.162 A 
ATOM     45  C   UNL     1      25.763  28.192  27.738  1.00  0.00     0.162 A 
ATOM     46  C   UNL     1      26.300  29.273  28.456  1.00  0.00     0.200 A 
BRANCH  44  47
ATOM     47  O   UNL     1      26.121  30.884  30.263  1.00  0.00    -0.504 OA
ATOM     48  H   UNL     1      27.018  31.295  30.027  1.00  0.00     0.293 HD
ENDBRANCH  44  47
BRANCH  45  49
ATOM     49  O   UNL     1      26.459  27.626  26.669  1.00  0.00    -0.504 OA
ATOM     50  H   UNL     1      26.125  27.691  25.717  1.00  0.00     0.293 HD
ENDBRANCH  45  49
BRANCH  46  51
ATOM     51  O   UNL     1      27.540  29.794  28.087  1.00  0.00    -0.502 OA
ATOM     52  H   UNL     1      27.824  29.891  27.118  1.00  0.00     0.293 HD
ENDBRANCH  46  51
ENDBRANCH  39  41
ENDBRANCH  38  39
ENDBRANCH   3  38
BRANCH   5  53
ATOM     53  O   UNL     1      17.355  27.824  29.223  1.00  0.00    -0.428 OA
BRANCH  53  54
ATOM     54  C   UNL     1      16.113  28.401  29.519  1.00  0.00     0.340 C 
ATOM     55  O   UNL     1      15.049  27.758  29.310  1.00  0.00    -0.246 OA
BRANCH  54  56
ATOM     56  C   UNL     1      16.061  29.782  30.051  1.00  0.00     0.067 A 
ATOM     57  C   UNL     1      16.498  30.858  29.261  1.00  0.00     0.066 A 
ATOM     58  C   UNL     1      15.564  30.032  31.340  1.00  0.00     0.066 A 
ATOM     59  C   UNL     1      16.449  32.169  29.756  1.00  0.00     0.162 A 
ATOM     60  C   UNL     1      15.506  31.341  31.837  1.00  0.00     0.162 A 
ATOM     61  C   UNL     1      15.955  32.413  31.049  1.00  0.00     0.200 A 
BRANCH  59  62
ATOM     62  O   UNL     1      16.888  33.231  28.970  1.00  0.00    -0.504 OA
ATOM     63  H   UNL     1      16.321  34.059  28.829  1.00  0.00     0.293 HD
ENDBRANCH  59  62
BRANCH  60  64
ATOM     64  O   UNL     1      15.012  31.565  33.123  1.00  0.00    -0.504 OA
ATOM     65  H   UNL     1      15.447  32.226  33.756  1.00  0.00     0.293 HD
ENDBRANCH  60  64
BRANCH  61  66
ATOM     66  O   UNL     1      15.902  33.711  31.563  1.00  0.00    -0.502 OA
ATOM     67  H   UNL     1      16.509  34.013  32.324  1.00  0.00     0.293 HD
ENDBRANCH  61  66
ENDBRANCH  54  56
ENDBRANCH  53  54
ENDBRANCH   5  53
BRANCH   4  68
ATOM     68  O   UNL     1      19.581  29.366  28.542  1.00  0.00    -0.448 OA
BRANCH  68  69
ATOM     69  C   UNL     1      19.645  29.523  29.935  1.00  0.00     0.339 C 
ATOM     70  O   UNL     1      19.211  28.614  30.693  1.00  0.00    -0.246 OA
BRANCH  69  71
ATOM     71  C   UNL     1      20.259  30.735  30.515  1.00  0.00     0.067 A 
ATOM     72  C   UNL     1      19.585  31.476  31.503  1.00  0.00     0.066 A 
ATOM     73  C   UNL     1      21.528  31.162  30.091  1.00  0.00     0.066 A 
ATOM     74  C   UNL     1      20.184  32.604  32.080  1.00  0.00     0.162 A 
ATOM     75  C   UNL     1      22.132  32.297  30.647  1.00  0.00     0.162 A 
ATOM     76  C   UNL     1      21.460  33.016  31.668  1.00  0.00     0.200 A 
BRANCH  74  77
ATOM     77  O   UNL     1      19.523  33.320  33.079  1.00  0.00    -0.504 OA
ATOM     78  H   UNL     1      20.014  33.677  33.884  1.00  0.00     0.293 HD
ENDBRANCH  74  77
BRANCH  75  79
ATOM     79  O   UNL     1      23.383  32.674  30.151  1.00  0.00    -0.504 OA
ATOM     80  H   UNL     1      24.167  32.048  30.060  1.00  0.00     0.293 HD
ENDBRANCH  75  79
BRANCH  76  81
ATOM     81  O   UNL     1      22.030  34.125  32.297  1.00  0.00    -0.502 OA
ATOM     82  H   UNL     1      22.686  34.056  33.055  1.00  0.00     0.293 HD
ENDBRANCH  76  81
ENDBRANCH  69  71
ENDBRANCH  68  69
ENDBRANCH   4  68
TORSDOF 31
ENDMDL
MODEL 4
REMARK VINA RESULT:    -5.727      1.516      8.158
REMARK INTER + INTRA:         -16.787
REMARK INTER:                 -14.330
REMARK INTRA:                  -2.457
REMARK UNBOUND:                -3.192
REMARK SMILES O=C(OC[C@@H]1O[C@@H](OC(=O)c2cc(O)c(O)c(O)c2)[C@@H](OC(=O)c2cc(O)c(O)c(O)c2)[C@H](OC(=O)c2cc(O)c(O)c(O)c2)[C@@H]1OC(=O)c1cc(O)c(O)c(O)c1)c1cc(O)c(O)c(O)c1
REMARK SMILES IDX 5 1 46 2 33 3 20 4 7 5 6 6 4 7 3 8 2 9 1 10 59 11 60 12
REMARK SMILES IDX 61 13 67 14 63 15 65 16 62 17 64 19 66 21 47 23 48 24 49 25
REMARK SMILES IDX 50 26 58 27 51 28 56 29 52 30 54 31 57 32 53 34 55 36 34 38
REMARK SMILES IDX 35 39 36 40 37 41 45 42 38 43 43 44 39 45 41 46 44 47 40 49
REMARK SMILES IDX 42 51 8 53 9 54 10 55 11 56 19 57 12 58 17 59 13 60 15 61
REMARK SMILES IDX 18 62 14 64 16 66 21 68 22 69 23 70 24 71 32 72 25 73 30 74
REMARK SMILES IDX 26 75 28 76 31 77 27 79 29 81
REMARK H PARENT 62 18 64 20 66 22 57 33 53 35 55 37 44 48 40 50 42 52 18 63
REMARK H PARENT 14 65 16 67 31 78 27 80 29 82
REMARK Flexibility Score: inf
ROOT
ATOM      1  C   UNL     1      19.717  25.769  27.213  1.00  0.00     0.205 C 
ATOM      2  C   UNL     1      18.465  26.642  27.446  1.00  0.00     0.254 C 
ATOM      3  C   UNL     1      18.900  28.010  28.009  1.00  0.00     0.267 C 
ATOM      4  C   UNL     1      19.801  27.813  29.241  1.00  0.00     0.290 C 
ATOM      5  C   UNL     1      20.939  26.829  28.913  1.00  0.00     0.357 C 
ATOM      6  O   UNL     1      20.433  25.596  28.427  1.00  0.00    -0.329 OA
ENDROOT
BRANCH   1   7
ATOM      7  C   UNL     1      19.333  24.389  26.652  1.00  0.00     0.269 C 
BRANCH   7   8
ATOM      8  O   UNL     1      20.487  23.704  26.167  1.00  0.00    -0.459 OA
BRANCH   8   9
ATOM      9  C   UNL     1      21.258  24.135  25.081  1.00  0.00     0.338 C 
ATOM     10  O   UNL     1      21.747  25.297  25.071  1.00  0.00    -0.246 OA
BRANCH   9  11
ATOM     11  C   UNL     1      21.525  23.207  23.961  1.00  0.00     0.067 A 
ATOM     12  C   UNL     1      20.503  22.383  23.469  1.00  0.00     0.066 A 
ATOM     13  C   UNL     1      20.746  21.490  22.423  1.00  0.00     0.162 A 
ATOM     14  C   UNL     1      22.799  23.133  23.380  1.00  0.00     0.066 A 
ATOM     15  C   UNL     1      22.027  21.408  21.848  1.00  0.00     0.200 A 
ATOM     16  C   UNL     1      23.063  22.247  22.330  1.00  0.00     0.162 A 
BRANCH  13  17
ATOM     17  O   UNL     1      19.703  20.676  21.977  1.00  0.00    -0.504 OA
ATOM     18  H   UNL     1      18.873  20.505  22.533  1.00  0.00     0.293 HD
ENDBRANCH  13  17
BRANCH  15  19
ATOM     19  O   UNL     1      22.234  20.486  20.817  1.00  0.00    -0.502 OA
ATOM     20  H   UNL     1      21.626  19.705  20.626  1.00  0.00     0.293 HD
ENDBRANCH  15  19
BRANCH  16  21
ATOM     21  O   UNL     1      24.353  22.239  21.793  1.00  0.00    -0.504 OA
ATOM     22  H   UNL     1      24.588  22.576  20.874  1.00  0.00     0.293 HD
ENDBRANCH  16  21
ENDBRANCH   9  11
ENDBRANCH   8   9
ENDBRANCH   7   8
ENDBRANCH   1   7
BRANCH   2  23
ATOM     23  O   UNL     1      17.597  25.991  28.374  1.00  0.00    -0.452 OA
BRANCH  23  24
ATOM     24  C   UNL     1      16.268  25.644  28.093  1.00  0.00     0.338 C 
ATOM     25  O   UNL     1      15.390  26.540  27.957  1.00  0.00    -0.246 OA
BRANCH  24  26
ATOM     26  C   UNL     1      15.902  24.220  27.952  1.00  0.00     0.067 A 
ATOM     27  C   UNL     1      15.719  23.649  26.680  1.00  0.00     0.066 A 
ATOM     28  C   UNL     1      15.743  23.418  29.091  1.00  0.00     0.066 A 
ATOM     29  C   UNL     1      15.382  22.299  26.548  1.00  0.00     0.162 A 
ATOM     30  C   UNL     1      15.399  22.068  28.969  1.00  0.00     0.162 A 
ATOM     31  C   UNL     1      15.215  21.503  27.695  1.00  0.00     0.200 A 
BRANCH  29  32
ATOM     32  O   UNL     1      15.236  21.759  25.269  1.00  0.00    -0.504 OA
ATOM     33  H   UNL     1      14.985  22.332  24.472  1.00  0.00     0.293 HD
ENDBRANCH  29  32
BRANCH  30  34
ATOM     34  O   UNL     1      15.232  21.283  30.111  1.00  0.00    -0.504 OA
ATOM     35  H   UNL     1      15.973  21.192  30.799  1.00  0.00     0.293 HD
ENDBRANCH  30  34
BRANCH  31  36
ATOM     36  O   UNL     1      14.878  20.156  27.555  1.00  0.00    -0.502 OA
ATOM     37  H   UNL     1      14.801  19.709  26.647  1.00  0.00     0.293 HD
ENDBRANCH  31  36
ENDBRANCH  24  26
ENDBRANCH  23  24
ENDBRANCH   2  23
BRANCH   3  38
ATOM     38  O   UNL     1      17.763  28.789  28.384  1.00  0.00    -0.450 OA
BRANCH  38  39
ATOM     39  C   UNL     1      17.221  28.828  29.673  1.00  0.00     0.338 C 
ATOM     40  O   UNL     1      17.003  27.756  30.301  1.00  0.00    -0.246 OA
BRANCH  39  41
ATOM     41  C   UNL     1      16.896  30.135  30.290  1.00  0.00     0.067 A 
ATOM     42  C   UNL     1      17.450  31.330  29.798  1.00  0.00     0.066 A 
ATOM     43  C   UNL     1      16.026  30.193  31.390  1.00  0.00     0.066 A 
ATOM     44  C   UNL     1      17.168  32.558  30.415  1.00  0.00     0.162 A 
ATOM     45  C   UNL     1      15.741  31.410  32.013  1.00  0.00     0.162 A 
ATOM     46  C   UNL     1      16.315  32.598  31.531  1.00  0.00     0.200 A 
BRANCH  44  47
ATOM     47  O   UNL     1      17.733  33.739  29.925  1.00  0.00    -0.504 OA
ATOM     48  H   UNL     1      17.904  34.539  30.524  1.00  0.00     0.293 HD
ENDBRANCH  44  47
BRANCH  45  49
ATOM     49  O   UNL     1      14.878  31.425  33.109  1.00  0.00    -0.504 OA
ATOM     50  H   UNL     1      15.219  31.382  34.061  1.00  0.00     0.293 HD
ENDBRANCH  45  49
BRANCH  46  51
ATOM     51  O   UNL     1      16.028  33.806  32.166  1.00  0.00    -0.502 OA
ATOM     52  H   UNL     1      15.645  34.605  31.671  1.00  0.00     0.293 HD
ENDBRANCH  46  51
ENDBRANCH  39  41
ENDBRANCH  38  39
ENDBRANCH   3  38
BRANCH   5  53
ATOM     53  O   UNL     1      21.855  27.403  27.978  1.00  0.00    -0.428 OA
BRANCH  53  54
ATOM     54  C   UNL     1      23.170  26.952  27.810  1.00  0.00     0.340 C 
ATOM     55  O   UNL     1      23.391  25.813  27.315  1.00  0.00    -0.246 OA
BRANCH  54  56
ATOM     56  C   UNL     1      24.295  27.809  28.246  1.00  0.00     0.067 A 
ATOM     57  C   UNL     1      24.376  28.241  29.580  1.00  0.00     0.066 A 
ATOM     58  C   UNL     1      25.297  28.190  27.338  1.00  0.00     0.066 A 
ATOM     59  C   UNL     1      25.440  29.051  30.003  1.00  0.00     0.162 A 
ATOM     60  C   UNL     1      26.366  28.993  27.756  1.00  0.00     0.162 A 
ATOM     61  C   UNL     1      26.437  29.432  29.088  1.00  0.00     0.200 A 
BRANCH  59  62
ATOM     62  O   UNL     1      25.511  29.479  31.325  1.00  0.00    -0.504 OA
ATOM     63  H   UNL     1      24.778  30.040  31.744  1.00  0.00     0.293 HD
ENDBRANCH  59  62
BRANCH  60  64
ATOM     64  O   UNL     1      27.347  29.361  26.836  1.00  0.00    -0.504 OA
ATOM     65  H   UNL     1      28.334  29.223  27.021  1.00  0.00     0.293 HD
ENDBRANCH  60  64
BRANCH  61  66
ATOM     66  O   UNL     1      27.503  30.242  29.487  1.00  0.00    -0.502 OA
ATOM     67  H   UNL     1      27.546  30.654  30.418  1.00  0.00     0.293 HD
ENDBRANCH  61  66
ENDBRANCH  54  56
ENDBRANCH  53  54
ENDBRANCH   5  53
BRANCH   4  68
ATOM     68  O   UNL     1      20.360  29.065  29.652  1.00  0.00    -0.448 OA
BRANCH  68  69
ATOM     69  C   UNL     1      20.268  29.562  30.961  1.00  0.00     0.339 C 
ATOM     70  O   UNL     1      19.550  28.971  31.811  1.00  0.00    -0.246 OA
BRANCH  69  71
ATOM     71  C   UNL     1      21.045  30.756  31.355  1.00  0.00     0.067 A 
ATOM     72  C   UNL     1      20.424  31.824  32.027  1.00  0.00     0.066 A 
ATOM     73  C   UNL     1      22.417  30.837  31.067  1.00  0.00     0.066 A 
ATOM     74  C   UNL     1      21.168  32.939  32.435  1.00  0.00     0.162 A 
ATOM     75  C   UNL     1      23.170  31.954  31.454  1.00  0.00     0.162 A 
ATOM     76  C   UNL     1      22.543  33.008  32.163  1.00  0.00     0.200 A 
BRANCH  74  77
ATOM     77  O   UNL     1      20.553  33.984  33.125  1.00  0.00    -0.504 OA
ATOM     78  H   UNL     1      20.627  34.939  32.810  1.00  0.00     0.293 HD
ENDBRANCH  74  77
BRANCH  75  79
ATOM     79  O   UNL     1      24.524  31.973  31.105  1.00  0.00    -0.504 OA
ATOM     80  H   UNL     1      24.865  31.894  30.160  1.00  0.00     0.293 HD
ENDBRANCH  75  79
BRANCH  76  81
ATOM     81  O   UNL     1      23.249  34.124  32.619  1.00  0.00    -0.502 OA
ATOM     82  H   UNL     1      23.327  34.981  32.100  1.00  0.00     0.293 HD
ENDBRANCH  76  81
ENDBRANCH  69  71
ENDBRANCH  68  69
ENDBRANCH   4  68
TORSDOF 31
ENDMDL
MODEL 5
REMARK VINA RESULT:    -5.300      1.424      7.702
REMARK INTER + INTRA:         -15.773
REMARK INTER:                 -13.550
REMARK INTRA:                  -2.222
REMARK UNBOUND:                -3.192
REMARK SMILES O=C(OC[C@@H]1O[C@@H](OC(=O)c2cc(O)c(O)c(O)c2)[C@@H](OC(=O)c2cc(O)c(O)c(O)c2)[C@H](OC(=O)c2cc(O)c(O)c(O)c2)[C@@H]1OC(=O)c1cc(O)c(O)c(O)c1)c1cc(O)c(O)c(O)c1
REMARK SMILES IDX 5 1 46 2 33 3 20 4 7 5 6 6 4 7 3 8 2 9 1 10 59 11 60 12
REMARK SMILES IDX 61 13 67 14 63 15 65 16 62 17 64 19 66 21 47 23 48 24 49 25
REMARK SMILES IDX 50 26 58 27 51 28 56 29 52 30 54 31 57 32 53 34 55 36 34 38
REMARK SMILES IDX 35 39 36 40 37 41 45 42 38 43 43 44 39 45 41 46 44 47 40 49
REMARK SMILES IDX 42 51 8 53 9 54 10 55 11 56 19 57 12 58 17 59 13 60 15 61
REMARK SMILES IDX 18 62 14 64 16 66 21 68 22 69 23 70 24 71 32 72 25 73 30 74
REMARK SMILES IDX 26 75 28 76 31 77 27 79 29 81
REMARK H PARENT 62 18 64 20 66 22 57 33 53 35 55 37 44 48 40 50 42 52 18 63
REMARK H PARENT 14 65 16 67 31 78 27 80 29 82
REMARK Flexibility Score: inf
ROOT
ATOM      1  C   UNL     1      18.429  25.328  28.018  1.00  0.00     0.205 C 
ATOM      2  C   UNL     1      19.966  25.466  27.974  1.00  0.00     0.254 C 
ATOM      3  C   UNL     1      20.366  26.847  28.532  1.00  0.00     0.267 C 
ATOM      4  C   UNL     1      19.585  27.957  27.806  1.00  0.00     0.290 C 
ATOM      5  C   UNL     1      18.079  27.639  27.815  1.00  0.00     0.357 C 
ATOM      6  O   UNL     1      17.816  26.360  27.260  1.00  0.00    -0.329 OA
ENDROOT
BRANCH   1   7
ATOM      7  C   UNL     1      17.980  23.963  27.468  1.00  0.00     0.269 C 
BRANCH   7   8
ATOM      8  O   UNL     1      16.753  24.088  26.751  1.00  0.00    -0.459 OA
BRANCH   8   9
ATOM      9  C   UNL     1      15.700  23.169  26.829  1.00  0.00     0.338 C 
ATOM     10  O   UNL     1      14.941  22.988  25.840  1.00  0.00    -0.246 OA
BRANCH   9  11
ATOM     11  C   UNL     1      15.506  22.385  28.069  1.00  0.00     0.067 A 
ATOM     12  C   UNL     1      15.440  20.986  28.015  1.00  0.00     0.066 A 
ATOM     13  C   UNL     1      15.240  20.235  29.175  1.00  0.00     0.162 A 
ATOM     14  C   UNL     1      15.377  23.026  29.310  1.00  0.00     0.066 A 
ATOM     15  C   UNL     1      15.100  20.879  30.418  1.00  0.00     0.200 A 
ATOM     16  C   UNL     1      15.178  22.292  30.484  1.00  0.00     0.162 A 
BRANCH  13  17
ATOM     17  O   UNL     1      15.164  18.844  29.072  1.00  0.00    -0.504 OA
ATOM     18  H   UNL     1      14.283  18.355  28.973  1.00  0.00     0.293 HD
ENDBRANCH  13  17
BRANCH  15  19
ATOM     19  O   UNL     1      14.879  20.092  31.553  1.00  0.00    -0.502 OA
ATOM     20  H   UNL     1      14.819  20.457  32.491  1.00  0.00     0.293 HD
ENDBRANCH  15  19
BRANCH  16  21
ATOM     21  O   UNL     1      15.072  23.001  31.684  1.00  0.00    -0.504 OA
ATOM     22  H   UNL     1      15.782  23.019  32.397  1.00  0.00     0.293 HD
ENDBRANCH  16  21
ENDBRANCH   9  11
ENDBRANCH   8   9
ENDBRANCH   7   8
ENDBRANCH   1   7
BRANCH   2  23
ATOM     23  O   UNL     1      20.417  25.341  26.625  1.00  0.00    -0.452 OA
BRANCH  23  24
ATOM     24  C   UNL     1      21.297  24.344  26.183  1.00  0.00     0.338 C 
ATOM     25  O   UNL     1      22.433  24.213  26.718  1.00  0.00    -0.246 OA
BRANCH  24  26
ATOM     26  C   UNL     1      20.886  23.443  25.087  1.00  0.00     0.067 A 
ATOM     27  C   UNL     1      21.616  23.395  23.886  1.00  0.00     0.066 A 
ATOM     28  C   UNL     1      19.763  22.616  25.239  1.00  0.00     0.066 A 
ATOM     29  C   UNL     1      21.232  22.535  22.854  1.00  0.00     0.162 A 
ATOM     30  C   UNL     1      19.367  21.758  24.209  1.00  0.00     0.162 A 
ATOM     31  C   UNL     1      20.100  21.715  23.010  1.00  0.00     0.200 A 
BRANCH  29  32
ATOM     32  O   UNL     1      21.997  22.492  21.687  1.00  0.00    -0.504 OA
ATOM     33  H   UNL     1      21.875  23.168  20.943  1.00  0.00     0.293 HD
ENDBRANCH  29  32
BRANCH  30  34
ATOM     34  O   UNL     1      18.241  20.949  24.368  1.00  0.00    -0.504 OA
ATOM     35  H   UNL     1      17.360  21.180  23.919  1.00  0.00     0.293 HD
ENDBRANCH  30  34
BRANCH  31  36
ATOM     36  O   UNL     1      19.721  20.860  21.974  1.00  0.00    -0.502 OA
ATOM     37  H   UNL     1      19.805  21.123  20.996  1.00  0.00     0.293 HD
ENDBRANCH  31  36
ENDBRANCH  24  26
ENDBRANCH  23  24
ENDBRANCH   2  23
BRANCH   3  38
ATOM     38  O   UNL     1      21.765  27.076  28.364  1.00  0.00    -0.450 OA
BRANCH  38  39
ATOM     39  C   UNL     1      22.627  27.498  29.382  1.00  0.00     0.338 C 
ATOM     40  O   UNL     1      22.294  27.361  30.591  1.00  0.00    -0.246 OA
BRANCH  39  41
ATOM     41  C   UNL     1      23.927  28.116  29.029  1.00  0.00     0.067 A 
ATOM     42  C   UNL     1      24.699  27.627  27.962  1.00  0.00     0.066 A 
ATOM     43  C   UNL     1      24.409  29.203  29.774  1.00  0.00     0.066 A 
ATOM     44  C   UNL     1      25.947  28.192  27.662  1.00  0.00     0.162 A 
ATOM     45  C   UNL     1      25.652  29.772  29.486  1.00  0.00     0.162 A 
ATOM     46  C   UNL     1      26.430  29.265  28.432  1.00  0.00     0.200 A 
BRANCH  44  47
ATOM     47  O   UNL     1      26.712  27.691  26.605  1.00  0.00    -0.504 OA
ATOM     48  H   UNL     1      26.900  26.699  26.503  1.00  0.00     0.293 HD
ENDBRANCH  44  47
BRANCH  45  49
ATOM     49  O   UNL     1      26.101  30.847  30.254  1.00  0.00    -0.504 OA
ATOM     50  H   UNL     1      26.663  31.590  29.860  1.00  0.00     0.293 HD
ENDBRANCH  45  49
BRANCH  46  51
ATOM     51  O   UNL     1      27.672  29.837  28.158  1.00  0.00    -0.502 OA
ATOM     52  H   UNL     1      27.840  30.408  27.336  1.00  0.00     0.293 HD
ENDBRANCH  46  51
ENDBRANCH  39  41
ENDBRANCH  38  39
ENDBRANCH   3  38
BRANCH   5  53
ATOM     53  O   UNL     1      17.547  27.734  29.138  1.00  0.00    -0.428 OA
BRANCH  53  54
ATOM     54  C   UNL     1      16.260  28.211  29.419  1.00  0.00     0.340 C 
ATOM     55  O   UNL     1      15.251  27.500  29.160  1.00  0.00    -0.246 OA
BRANCH  54  56
ATOM     56  C   UNL     1      16.094  29.564  29.994  1.00  0.00     0.067 A 
ATOM     57  C   UNL     1      15.565  29.720  31.286  1.00  0.00     0.066 A 
ATOM     58  C   UNL     1      16.474  30.702  29.264  1.00  0.00     0.066 A 
ATOM     59  C   UNL     1      15.407  30.999  31.840  1.00  0.00     0.162 A 
ATOM     60  C   UNL     1      16.325  31.982  29.816  1.00  0.00     0.162 A 
ATOM     61  C   UNL     1      15.784  32.135  31.102  1.00  0.00     0.200 A 
BRANCH  59  62
ATOM     62  O   UNL     1      14.877  31.148  33.119  1.00  0.00    -0.504 OA
ATOM     63  H   UNL     1      15.308  30.715  33.927  1.00  0.00     0.293 HD
ENDBRANCH  59  62
BRANCH  60  64
ATOM     64  O   UNL     1      16.706  33.097  29.070  1.00  0.00    -0.504 OA
ATOM     65  H   UNL     1      16.173  33.412  28.267  1.00  0.00     0.293 HD
ENDBRANCH  60  64
BRANCH  61  66
ATOM     66  O   UNL     1      15.631  33.418  31.633  1.00  0.00    -0.502 OA
ATOM     67  H   UNL     1      15.496  34.234  31.038  1.00  0.00     0.293 HD
ENDBRANCH  61  66
ENDBRANCH  54  56
ENDBRANCH  53  54
ENDBRANCH   5  53
BRANCH   4  68
ATOM     68  O   UNL     1      19.808  29.219  28.444  1.00  0.00    -0.448 OA
BRANCH  68  69
ATOM     69  C   UNL     1      19.808  29.394  29.836  1.00  0.00     0.339 C 
ATOM     70  O   UNL     1      19.369  28.482  30.587  1.00  0.00    -0.246 OA
BRANCH  69  71
ATOM     71  C   UNL     1      20.361  30.631  30.426  1.00  0.00     0.067 A 
ATOM     72  C   UNL     1      19.510  31.684  30.808  1.00  0.00     0.066 A 
ATOM     73  C   UNL     1      21.745  30.770  30.617  1.00  0.00     0.066 A 
ATOM     74  C   UNL     1      20.031  32.841  31.403  1.00  0.00     0.162 A 
ATOM     75  C   UNL     1      22.282  31.928  31.195  1.00  0.00     0.162 A 
ATOM     76  C   UNL     1      21.413  32.968  31.611  1.00  0.00     0.200 A 
BRANCH  74  77
ATOM     77  O   UNL     1      19.181  33.871  31.805  1.00  0.00    -0.504 OA
ATOM     78  H   UNL     1      18.228  33.925  31.478  1.00  0.00     0.293 HD
ENDBRANCH  74  77
BRANCH  75  79
ATOM     79  O   UNL     1      23.672  32.002  31.324  1.00  0.00    -0.504 OA
ATOM     80  H   UNL     1      24.275  31.200  31.413  1.00  0.00     0.293 HD
ENDBRANCH  75  79
BRANCH  76  81
ATOM     81  O   UNL     1      21.881  34.124  32.238  1.00  0.00    -0.502 OA
ATOM     82  H   UNL     1      22.687  34.142  32.839  1.00  0.00     0.293 HD
ENDBRANCH  76  81
ENDBRANCH  69  71
ENDBRANCH  68  69
ENDBRANCH   4  68
TORSDOF 31
ENDMDL
MODEL 6
REMARK VINA RESULT:    -5.169      1.014      8.703
REMARK INTER + INTRA:         -15.462
REMARK INTER:                 -12.926
REMARK INTRA:                  -2.536
REMARK UNBOUND:                -3.192
REMARK SMILES O=C(OC[C@@H]1O[C@@H](OC(=O)c2cc(O)c(O)c(O)c2)[C@@H](OC(=O)c2cc(O)c(O)c(O)c2)[C@H](OC(=O)c2cc(O)c(O)c(O)c2)[C@@H]1OC(=O)c1cc(O)c(O)c(O)c1)c1cc(O)c(O)c(O)c1
REMARK SMILES IDX 5 1 46 2 33 3 20 4 7 5 6 6 4 7 3 8 2 9 1 10 59 11 60 12
REMARK SMILES IDX 61 13 67 14 63 15 65 16 62 17 64 19 66 21 47 23 48 24 49 25
REMARK SMILES IDX 50 26 58 27 51 28 56 29 52 30 54 31 57 32 53 34 55 36 34 38
REMARK SMILES IDX 35 39 36 40 37 41 45 42 38 43 43 44 39 45 41 46 44 47 40 49
REMARK SMILES IDX 42 51 8 53 9 54 10 55 11 56 19 57 12 58 17 59 13 60 15 61
REMARK SMILES IDX 18 62 14 64 16 66 21 68 22 69 23 70 24 71 32 72 25 73 30 74
REMARK SMILES IDX 26 75 28 76 31 77 27 79 29 81
REMARK H PARENT 62 18 64 20 66 22 57 33 53 35 55 37 44 48 40 50 42 52 18 63
REMARK H PARENT 14 65 16 67 31 78 27 80 29 82
REMARK Flexibility Score: inf
ROOT
ATOM      1  C   UNL     1      19.086  28.396  30.402  1.00  0.00     0.205 C 
ATOM      2  C   UNL     1      20.487  28.728  29.843  1.00  0.00     0.254 C 
ATOM      3  C   UNL     1      20.671  28.020  28.485  1.00  0.00     0.267 C 
ATOM      4  C   UNL     1      20.358  26.519  28.626  1.00  0.00     0.290 C 
ATOM      5  C   UNL     1      18.991  26.324  29.305  1.00  0.00     0.357 C 
ATOM      6  O   UNL     1      18.933  26.993  30.555  1.00  0.00    -0.329 OA
ENDROOT
BRANCH   1   7
ATOM      7  C   UNL     1      18.855  29.081  31.759  1.00  0.00     0.269 C 
BRANCH   7   8
ATOM      8  O   UNL     1      17.676  28.576  32.384  1.00  0.00    -0.459 OA
BRANCH   8   9
ATOM      9  C   UNL     1      16.425  29.201  32.323  1.00  0.00     0.338 C 
ATOM     10  O   UNL     1      15.429  28.684  32.896  1.00  0.00    -0.246 OA
BRANCH   9  11
ATOM     11  C   UNL     1      16.287  30.490  31.611  1.00  0.00     0.067 A 
ATOM     12  C   UNL     1      15.878  30.515  30.271  1.00  0.00     0.066 A 
ATOM     13  C   UNL     1      15.760  31.724  29.582  1.00  0.00     0.162 A 
ATOM     14  C   UNL     1      16.567  31.701  32.261  1.00  0.00     0.066 A 
ATOM     15  C   UNL     1      16.051  32.938  30.230  1.00  0.00     0.200 A 
ATOM     16  C   UNL     1      16.452  32.923  31.590  1.00  0.00     0.162 A 
BRANCH  13  17
ATOM     17  O   UNL     1      15.366  31.700  28.243  1.00  0.00    -0.504 OA
ATOM     18  H   UNL     1      15.870  31.173  27.538  1.00  0.00     0.293 HD
ENDBRANCH  13  17
BRANCH  15  19
ATOM     19  O   UNL     1      15.941  34.125  29.500  1.00  0.00    -0.502 OA
ATOM     20  H   UNL     1      16.580  34.900  29.580  1.00  0.00     0.293 HD
ENDBRANCH  15  19
BRANCH  16  21
ATOM     21  O   UNL     1      16.735  34.089  32.307  1.00  0.00    -0.504 OA
ATOM     22  H   UNL     1      16.674  34.168  33.309  1.00  0.00     0.293 HD
ENDBRANCH  16  21
ENDBRANCH   9  11
ENDBRANCH   8   9
ENDBRANCH   7   8
ENDBRANCH   1   7
BRANCH   2  23
ATOM     23  O   UNL     1      21.484  28.281  30.762  1.00  0.00    -0.452 OA
BRANCH  23  24
ATOM     24  C   UNL     1      21.971  29.052  31.826  1.00  0.00     0.338 C 
ATOM     25  O   UNL     1      21.887  28.627  33.011  1.00  0.00    -0.246 OA
BRANCH  24  26
ATOM     26  C   UNL     1      22.588  30.365  31.551  1.00  0.00     0.067 A 
ATOM     27  C   UNL     1      21.990  31.264  30.651  1.00  0.00     0.066 A 
ATOM     28  C   UNL     1      23.779  30.732  32.195  1.00  0.00     0.066 A 
ATOM     29  C   UNL     1      22.569  32.511  30.399  1.00  0.00     0.162 A 
ATOM     30  C   UNL     1      24.370  31.974  31.944  1.00  0.00     0.162 A 
ATOM     31  C   UNL     1      23.767  32.869  31.042  1.00  0.00     0.200 A 
BRANCH  29  32
ATOM     32  O   UNL     1      21.932  33.389  29.522  1.00  0.00    -0.504 OA
ATOM     33  H   UNL     1      22.180  34.370  29.473  1.00  0.00     0.293 HD
ENDBRANCH  29  32
BRANCH  30  34
ATOM     34  O   UNL     1      25.561  32.323  32.583  1.00  0.00    -0.504 OA
ATOM     35  H   UNL     1      26.452  31.951  32.272  1.00  0.00     0.293 HD
ENDBRANCH  30  34
BRANCH  31  36
ATOM     36  O   UNL     1      24.341  34.114  30.784  1.00  0.00    -0.502 OA
ATOM     37  H   UNL     1      25.054  34.245  30.072  1.00  0.00     0.293 HD
ENDBRANCH  31  36
ENDBRANCH  24  26
ENDBRANCH  23  24
ENDBRANCH   2  23
BRANCH   3  38
ATOM     38  O   UNL     1      22.008  28.174  28.011  1.00  0.00    -0.450 OA
BRANCH  38  39
ATOM     39  C   UNL     1      23.135  27.614  28.622  1.00  0.00     0.338 C 
ATOM     40  O   UNL     1      23.016  26.595  29.356  1.00  0.00    -0.246 OA
BRANCH  39  41
ATOM     41  C   UNL     1      24.465  28.231  28.408  1.00  0.00     0.067 A 
ATOM     42  C   UNL     1      25.349  27.738  27.433  1.00  0.00     0.066 A 
ATOM     43  C   UNL     1      24.863  29.324  29.193  1.00  0.00     0.066 A 
ATOM     44  C   UNL     1      26.621  28.303  27.267  1.00  0.00     0.162 A 
ATOM     45  C   UNL     1      26.129  29.894  29.037  1.00  0.00     0.162 A 
ATOM     46  C   UNL     1      27.016  29.382  28.076  1.00  0.00     0.200 A 
BRANCH  44  47
ATOM     47  O   UNL     1      27.497  27.797  26.301  1.00  0.00    -0.504 OA
ATOM     48  H   UNL     1      27.660  28.277  25.423  1.00  0.00     0.293 HD
ENDBRANCH  44  47
BRANCH  45  49
ATOM     49  O   UNL     1      26.491  30.974  29.842  1.00  0.00    -0.504 OA
ATOM     50  H   UNL     1      27.386  31.435  29.750  1.00  0.00     0.293 HD
ENDBRANCH  45  49
BRANCH  46  51
ATOM     51  O   UNL     1      28.280  29.954  27.935  1.00  0.00    -0.502 OA
ATOM     52  H   UNL     1      28.954  29.983  28.692  1.00  0.00     0.293 HD
ENDBRANCH  46  51
ENDBRANCH  39  41
ENDBRANCH  38  39
ENDBRANCH   3  38
BRANCH   5  53
ATOM     53  O   UNL     1      17.931  26.758  28.451  1.00  0.00    -0.428 OA
BRANCH  53  54
ATOM     54  C   UNL     1      16.586  26.431  28.663  1.00  0.00     0.340 C 
ATOM     55  O   UNL     1      15.764  27.322  29.014  1.00  0.00    -0.246 OA
BRANCH  54  56
ATOM     56  C   UNL     1      16.143  25.028  28.500  1.00  0.00     0.067 A 
ATOM     57  C   UNL     1      15.822  24.255  29.628  1.00  0.00     0.066 A 
ATOM     58  C   UNL     1      16.028  24.459  27.221  1.00  0.00     0.066 A 
ATOM     59  C   UNL     1      15.400  22.926  29.483  1.00  0.00     0.162 A 
ATOM     60  C   UNL     1      15.599  23.134  27.069  1.00  0.00     0.162 A 
ATOM     61  C   UNL     1      15.291  22.361  28.200  1.00  0.00     0.200 A 
BRANCH  59  62
ATOM     62  O   UNL     1      15.088  22.163  30.605  1.00  0.00    -0.504 OA
ATOM     63  H   UNL     1      15.809  21.747  31.183  1.00  0.00     0.293 HD
ENDBRANCH  59  62
BRANCH  60  64
ATOM     64  O   UNL     1      15.495  22.590  25.789  1.00  0.00    -0.504 OA
ATOM     65  H   UNL     1      16.286  22.156  25.326  1.00  0.00     0.293 HD
ENDBRANCH  60  64
BRANCH  61  66
ATOM     66  O   UNL     1      14.876  21.037  28.033  1.00  0.00    -0.502 OA
ATOM     67  H   UNL     1      14.853  20.592  27.116  1.00  0.00     0.293 HD
ENDBRANCH  61  66
ENDBRANCH  54  56
ENDBRANCH  53  54
ENDBRANCH   5  53
BRANCH   4  68
ATOM     68  O   UNL     1      20.342  25.894  27.338  1.00  0.00    -0.448 OA
BRANCH  68  69
ATOM     69  C   UNL     1      21.169  24.816  26.990  1.00  0.00     0.339 C 
ATOM     70  O   UNL     1      22.265  24.642  27.589  1.00  0.00    -0.246 OA
BRANCH  69  71
ATOM     71  C   UNL     1      20.739  23.858  25.950  1.00  0.00     0.067 A 
ATOM     72  C   UNL     1      19.590  23.069  26.134  1.00  0.00     0.066 A 
ATOM     73  C   UNL     1      21.472  23.728  24.759  1.00  0.00     0.066 A 
ATOM     74  C   UNL     1      19.161  22.189  25.131  1.00  0.00     0.162 A 
ATOM     75  C   UNL     1      21.064  22.840  23.754  1.00  0.00     0.162 A 
ATOM     76  C   UNL     1      19.884  22.075  23.935  1.00  0.00     0.200 A 
BRANCH  74  77
ATOM     77  O   UNL     1      18.006  21.428  25.308  1.00  0.00    -0.504 OA
ATOM     78  H   UNL     1      18.050  20.435  25.479  1.00  0.00     0.293 HD
ENDBRANCH  74  77
BRANCH  75  79
ATOM     79  O   UNL     1      21.863  22.745  22.611  1.00  0.00    -0.504 OA
ATOM     80  H   UNL     1      21.679  22.119  21.843  1.00  0.00     0.293 HD
ENDBRANCH  75  79
BRANCH  76  81
ATOM     81  O   UNL     1      19.399  21.211  22.951  1.00  0.00    -0.502 OA
ATOM     82  H   UNL     1      18.602  21.418  22.375  1.00  0.00     0.293 HD
ENDBRANCH  76  81
ENDBRANCH  69  71
ENDBRANCH  68  69
ENDBRANCH   4  68
TORSDOF 31
ENDMDL
MODEL 7
REMARK VINA RESULT:    -4.628      2.250      8.415
REMARK INTER + INTRA:         -14.179
REMARK INTER:                 -10.454
REMARK INTRA:                  -3.725
REMARK UNBOUND:                -3.192
REMARK SMILES O=C(OC[C@@H]1O[C@@H](OC(=O)c2cc(O)c(O)c(O)c2)[C@@H](OC(=O)c2cc(O)c(O)c(O)c2)[C@H](OC(=O)c2cc(O)c(O)c(O)c2)[C@@H]1OC(=O)c1cc(O)c(O)c(O)c1)c1cc(O)c(O)c(O)c1
REMARK SMILES IDX 5 1 46 2 33 3 20 4 7 5 6 6 4 7 3 8 2 9 1 10 59 11 60 12
REMARK SMILES IDX 61 13 67 14 63 15 65 16 62 17 64 19 66 21 47 23 48 24 49 25
REMARK SMILES IDX 50 26 58 27 51 28 56 29 52 30 54 31 57 32 53 34 55 36 34 38
REMARK SMILES IDX 35 39 36 40 37 41 45 42 38 43 43 44 39 45 41 46 44 47 40 49
REMARK SMILES IDX 42 51 8 53 9 54 10 55 11 56 19 57 12 58 17 59 13 60 15 61
REMARK SMILES IDX 18 62 14 64 16 66 21 68 22 69 23 70 24 71 32 72 25 73 30 74
REMARK SMILES IDX 26 75 28 76 31 77 27 79 29 81
REMARK H PARENT 62 18 64 20 66 22 57 33 53 35 55 37 44 48 40 50 42 52 18 63
REMARK H PARENT 14 65 16 67 31 78 27 80 29 82
REMARK Flexibility Score: inf
ROOT
ATOM      1  C   UNL     1      22.829  26.594  27.678  1.00  0.00     0.205 C 
ATOM      2  C   UNL     1      21.567  27.190  28.341  1.00  0.00     0.254 C 
ATOM      3  C   UNL     1      21.906  28.581  28.914  1.00  0.00     0.267 C 
ATOM      4  C   UNL     1      23.145  28.491  29.823  1.00  0.00     0.290 C 
ATOM      5  C   UNL     1      24.290  27.770  29.089  1.00  0.00     0.357 C 
ATOM      6  O   UNL     1      23.884  26.493  28.623  1.00  0.00    -0.329 OA
ENDROOT
BRANCH   1   7
ATOM      7  C   UNL     1      22.541  25.202  27.091  1.00  0.00     0.269 C 
BRANCH   7   8
ATOM      8  O   UNL     1      21.511  25.274  26.107  1.00  0.00    -0.459 OA
BRANCH   8   9
ATOM      9  C   UNL     1      20.875  24.157  25.553  1.00  0.00     0.338 C 
ATOM     10  O   UNL     1      19.773  23.759  26.018  1.00  0.00    -0.246 OA
BRANCH   9  11
ATOM     11  C   UNL     1      21.486  23.468  24.395  1.00  0.00     0.067 A 
ATOM     12  C   UNL     1      22.873  23.511  24.200  1.00  0.00     0.066 A 
ATOM     13  C   UNL     1      23.461  22.879  23.103  1.00  0.00     0.162 A 
ATOM     14  C   UNL     1      20.690  22.768  23.476  1.00  0.00     0.066 A 
ATOM     15  C   UNL     1      22.662  22.187  22.175  1.00  0.00     0.200 A 
ATOM     16  C   UNL     1      21.259  22.126  22.371  1.00  0.00     0.162 A 
BRANCH  13  17
ATOM     17  O   UNL     1      24.845  22.963  22.940  1.00  0.00    -0.504 OA
ATOM     18  H   UNL     1      25.280  23.667  22.355  1.00  0.00     0.293 HD
ENDBRANCH  13  17
BRANCH  15  19
ATOM     19  O   UNL     1      23.287  21.585  21.079  1.00  0.00    -0.502 OA
ATOM     20  H   UNL     1      23.345  22.002  20.163  1.00  0.00     0.293 HD
ENDBRANCH  15  19
BRANCH  16  21
ATOM     21  O   UNL     1      20.404  21.438  21.506  1.00  0.00    -0.504 OA
ATOM     22  H   UNL     1      20.603  20.535  21.110  1.00  0.00     0.293 HD
ENDBRANCH  16  21
ENDBRANCH   9  11
ENDBRANCH   8   9
ENDBRANCH   7   8
ENDBRANCH   1   7
BRANCH   2  23
ATOM     23  O   UNL     1      21.129  26.327  29.391  1.00  0.00    -0.452 OA
BRANCH  23  24
ATOM     24  C   UNL     1      19.970  25.541  29.327  1.00  0.00     0.338 C 
ATOM     25  O   UNL     1      20.052  24.282  29.350  1.00  0.00    -0.246 OA
BRANCH  24  26
ATOM     26  C   UNL     1      18.650  26.197  29.237  1.00  0.00     0.067 A 
ATOM     27  C   UNL     1      17.758  25.872  28.200  1.00  0.00     0.066 A 
ATOM     28  C   UNL     1      18.269  27.147  30.195  1.00  0.00     0.066 A 
ATOM     29  C   UNL     1      16.505  26.486  28.121  1.00  0.00     0.162 A 
ATOM     30  C   UNL     1      17.021  27.772  30.121  1.00  0.00     0.162 A 
ATOM     31  C   UNL     1      16.133  27.444  29.081  1.00  0.00     0.200 A 
BRANCH  29  32
ATOM     32  O   UNL     1      15.633  26.119  27.095  1.00  0.00    -0.504 OA
ATOM     33  H   UNL     1      14.965  26.770  26.702  1.00  0.00     0.293 HD
ENDBRANCH  29  32
BRANCH  30  34
ATOM     34  O   UNL     1      16.657  28.725  31.074  1.00  0.00    -0.504 OA
ATOM     35  H   UNL     1      15.695  28.817  31.384  1.00  0.00     0.293 HD
ENDBRANCH  30  34
BRANCH  31  36
ATOM     36  O   UNL     1      14.881  28.054  28.995  1.00  0.00    -0.502 OA
ATOM     37  H   UNL     1      14.689  28.809  28.342  1.00  0.00     0.293 HD
ENDBRANCH  31  36
ENDBRANCH  24  26
ENDBRANCH  23  24
ENDBRANCH   2  23
BRANCH   3  38
ATOM     38  O   UNL     1      20.811  29.098  29.671  1.00  0.00    -0.450 OA
BRANCH  38  39
ATOM     39  C   UNL     1      19.736  29.807  29.125  1.00  0.00     0.338 C 
ATOM     40  O   UNL     1      19.292  29.504  27.984  1.00  0.00    -0.246 OA
BRANCH  39  41
ATOM     41  C   UNL     1      19.129  30.919  29.893  1.00  0.00     0.067 A 
ATOM     42  C   UNL     1      19.687  31.356  31.107  1.00  0.00     0.066 A 
ATOM     43  C   UNL     1      17.971  31.550  29.413  1.00  0.00     0.066 A 
ATOM     44  C   UNL     1      19.082  32.382  31.847  1.00  0.00     0.162 A 
ATOM     45  C   UNL     1      17.358  32.572  30.144  1.00  0.00     0.162 A 
ATOM     46  C   UNL     1      17.908  32.989  31.367  1.00  0.00     0.200 A 
BRANCH  44  47
ATOM     47  O   UNL     1      19.639  32.800  33.058  1.00  0.00    -0.504 OA
ATOM     48  H   UNL     1      20.488  33.355  33.094  1.00  0.00     0.293 HD
ENDBRANCH  44  47
BRANCH  45  49
ATOM     49  O   UNL     1      16.203  33.169  29.637  1.00  0.00    -0.504 OA
ATOM     50  H   UNL     1      15.961  33.121  28.657  1.00  0.00     0.293 HD
ENDBRANCH  45  49
BRANCH  46  51
ATOM     51  O   UNL     1      17.284  34.005  32.090  1.00  0.00    -0.502 OA
ATOM     52  H   UNL     1      17.092  34.918  31.692  1.00  0.00     0.293 HD
ENDBRANCH  46  51
ENDBRANCH  39  41
ENDBRANCH  38  39
ENDBRANCH   3  38
BRANCH   5  53
ATOM     53  O   UNL     1      24.784  28.567  28.009  1.00  0.00    -0.428 OA
BRANCH  53  54
ATOM     54  C   UNL     1      26.114  28.534  27.571  1.00  0.00     0.340 C 
ATOM     55  O   UNL     1      26.488  27.652  26.751  1.00  0.00    -0.246 OA
BRANCH  54  56
ATOM     56  C   UNL     1      27.080  29.521  28.102  1.00  0.00     0.067 A 
ATOM     57  C   UNL     1      28.460  29.310  27.946  1.00  0.00     0.066 A 
ATOM     58  C   UNL     1      26.631  30.682  28.753  1.00  0.00     0.066 A 
ATOM     59  C   UNL     1      29.383  30.242  28.443  1.00  0.00     0.162 A 
ATOM     60  C   UNL     1      27.548  31.620  29.245  1.00  0.00     0.162 A 
ATOM     61  C   UNL     1      28.927  31.399  29.098  1.00  0.00     0.200 A 
BRANCH  59  62
ATOM     62  O   UNL     1      30.749  30.024  28.290  1.00  0.00    -0.504 OA
ATOM     63  H   UNL     1      31.156  29.805  27.388  1.00  0.00     0.293 HD
ENDBRANCH  59  62
BRANCH  60  64
ATOM     64  O   UNL     1      27.078  32.763  29.891  1.00  0.00    -0.504 OA
ATOM     65  H   UNL     1      27.190  33.688  29.492  1.00  0.00     0.293 HD
ENDBRANCH  60  64
BRANCH  61  66
ATOM     66  O   UNL     1      29.829  32.338  29.605  1.00  0.00    -0.502 OA
ATOM     67  H   UNL     1      30.189  32.279  30.557  1.00  0.00     0.293 HD
ENDBRANCH  61  66
ENDBRANCH  54  56
ENDBRANCH  53  54
ENDBRANCH   5  53
BRANCH   4  68
ATOM     68  O   UNL     1      23.576  29.801  30.204  1.00  0.00    -0.448 OA
BRANCH  68  69
ATOM     69  C   UNL     1      23.728  30.210  31.538  1.00  0.00     0.339 C 
ATOM     70  O   UNL     1      22.796  30.024  32.365  1.00  0.00    -0.246 OA
BRANCH  69  71
ATOM     71  C   UNL     1      24.998  30.821  31.984  1.00  0.00     0.067 A 
ATOM     72  C   UNL     1      26.175  30.055  32.054  1.00  0.00     0.066 A 
ATOM     73  C   UNL     1      25.045  32.178  32.341  1.00  0.00     0.066 A 
ATOM     74  C   UNL     1      27.387  30.645  32.442  1.00  0.00     0.162 A 
ATOM     75  C   UNL     1      26.245  32.777  32.746  1.00  0.00     0.162 A 
ATOM     76  C   UNL     1      27.434  32.006  32.778  1.00  0.00     0.200 A 
BRANCH  74  77
ATOM     77  O   UNL     1      28.557  29.887  32.484  1.00  0.00    -0.504 OA
ATOM     78  H   UNL     1      29.034  29.701  33.353  1.00  0.00     0.293 HD
ENDBRANCH  74  77
BRANCH  75  79
ATOM     79  O   UNL     1      26.205  34.125  33.114  1.00  0.00    -0.504 OA
ATOM     80  H   UNL     1      25.926  34.454  34.025  1.00  0.00     0.293 HD
ENDBRANCH  75  79
BRANCH  76  81
ATOM     81  O   UNL     1      28.670  32.556  33.125  1.00  0.00    -0.502 OA
ATOM     82  H   UNL     1      29.460  32.579  32.504  1.00  0.00     0.293 HD
ENDBRANCH  76  81
ENDBRANCH  69  71
ENDBRANCH  68  69
ENDBRANCH   4  68
TORSDOF 31
ENDMDL
