MODEL 1
REMARK VINA RESULT:    -4.049      0.000      0.000
REMARK INTER + INTRA:          -9.940
REMARK INTER:                  -7.364
REMARK INTRA:                  -2.576
REMARK UNBOUND:                -2.576
REMARK SMILES CCCCCC=CCC=CCCCCCCCC(=O)[O-]
REMARK SMILES IDX 11 1 12 2 13 3 14 4 15 5 16 6 17 7 18 8 19 9 20 10 10 11
REMARK SMILES IDX 9 12 8 13 7 14 6 15 5 16 4 17 3 18 2 19 1 20
REMARK H PARENT
REMARK Flexibility Score: inf
ROOT
ATOM      1  C   UNL     1      77.389 -73.912  -2.350  1.00  0.00     0.027 C 
ENDROOT
BRANCH   1   2
ATOM      2  C   UNL     1      77.517 -73.227  -3.714  1.00  0.00     0.004 C 
BRANCH   2   3
ATOM      3  C   UNL     1      76.259 -72.413  -4.044  1.00  0.00     0.000 C 
BRANCH   3   4
ATOM      4  C   UNL     1      75.011 -73.311  -4.043  1.00  0.00     0.000 C 
BRANCH   4   5
ATOM      5  C   UNL     1      73.901 -72.789  -3.118  1.00  0.00     0.000 C 
BRANCH   5   6
ATOM      6  C   UNL     1      74.396 -71.702  -2.148  1.00  0.00     0.006 C 
BRANCH   6   7
ATOM      7  C   UNL     1      74.090 -72.050  -0.685  1.00  0.00     0.053 C 
BRANCH   7   8
ATOM      8  C   UNL     1      73.336 -70.953   0.004  1.00  0.00     0.041 C 
ATOM      9  O   UNL     1      72.089 -71.038   0.152  1.00  0.00    -0.550 OA
ATOM     10  O   UNL     1      74.005 -69.824   0.457  1.00  0.00    -0.550 OA
ENDBRANCH   7   8
ENDBRANCH   6   7
ENDBRANCH   5   6
ENDBRANCH   4   5
ENDBRANCH   3   4
ENDBRANCH   2   3
ENDBRANCH   1   2
BRANCH   1  11
ATOM     11  C   UNL     1      77.613 -75.394  -2.473  1.00  0.00    -0.031 C 
ATOM     12  C   UNL     1      78.610 -76.007  -1.816  1.00  0.00    -0.027 C 
BRANCH  12  13
ATOM     13  C   UNL     1      78.865 -77.480  -1.954  1.00  0.00     0.054 C 
BRANCH  13  14
ATOM     14  C   UNL     1      77.897 -78.256  -1.095  1.00  0.00    -0.027 C 
ATOM     15  C   UNL     1      76.823 -78.940  -1.537  1.00  0.00    -0.031 C 
BRANCH  15  16
ATOM     16  C   UNL     1      76.359 -79.024  -2.971  1.00  0.00     0.027 C 
BRANCH  16  17
ATOM     17  C   UNL     1      75.171 -78.091  -3.246  1.00  0.00     0.004 C 
BRANCH  17  18
ATOM     18  C   UNL     1      74.352 -77.746  -1.988  1.00  0.00     0.000 C 
BRANCH  18  19
ATOM     19  C   UNL     1      74.206 -76.233  -1.769  1.00  0.00    -0.003 C 
ATOM     20  C   UNL     1      74.614 -75.842  -0.351  1.00  0.00     0.004 C 
ENDBRANCH  18  19
ENDBRANCH  17  18
ENDBRANCH  16  17
ENDBRANCH  15  16
ENDBRANCH  13  14
ENDBRANCH  12  13
ENDBRANCH   1  11
TORSDOF 14
ENDMDL
MODEL 2
REMARK VINA RESULT:    -3.938      2.152      3.870
REMARK INTER + INTRA:          -9.737
REMARK INTER:                  -6.754
REMARK INTRA:                  -2.983
REMARK UNBOUND:                -2.576
REMARK SMILES CCCCCC=CCC=CCCCCCCCC(=O)[O-]
REMARK SMILES IDX 11 1 12 2 13 3 14 4 15 5 16 6 17 7 18 8 19 9 20 10 10 11
REMARK SMILES IDX 9 12 8 13 7 14 6 15 5 16 4 17 3 18 2 19 1 20
REMARK H PARENT
REMARK Flexibility Score: inf
ROOT
ATOM      1  C   UNL     1      75.852 -71.734  -4.060  1.00  0.00     0.027 C 
ENDROOT
BRANCH   1   2
ATOM      2  C   UNL     1      74.491 -71.992  -3.406  1.00  0.00     0.004 C 
BRANCH   2   3
ATOM      3  C   UNL     1      74.474 -71.501  -1.952  1.00  0.00     0.000 C 
BRANCH   3   4
ATOM      4  C   UNL     1      73.935 -72.593  -1.013  1.00  0.00     0.000 C 
BRANCH   4   5
ATOM      5  C   UNL     1      75.015 -73.600  -0.587  1.00  0.00     0.000 C 
BRANCH   5   6
ATOM      6  C   UNL     1      74.559 -75.062  -0.739  1.00  0.00     0.006 C 
BRANCH   6   7
ATOM      7  C   UNL     1      73.559 -75.240  -1.889  1.00  0.00     0.053 C 
BRANCH   7   8
ATOM      8  C   UNL     1      72.469 -76.205  -1.535  1.00  0.00     0.041 C 
ATOM      9  O   UNL     1      71.886 -76.861  -2.439  1.00  0.00    -0.550 OA
ATOM     10  O   UNL     1      72.075 -76.360  -0.213  1.00  0.00    -0.550 OA
ENDBRANCH   7   8
ENDBRANCH   6   7
ENDBRANCH   5   6
ENDBRANCH   4   5
ENDBRANCH   3   4
ENDBRANCH   2   3
ENDBRANCH   1   2
BRANCH   1  11
ATOM     11  C   UNL     1      76.835 -72.811  -3.693  1.00  0.00    -0.031 C 
ATOM     12  C   UNL     1      76.585 -74.103  -3.955  1.00  0.00    -0.027 C 
BRANCH  12  13
ATOM     13  C   UNL     1      77.542 -75.193  -3.566  1.00  0.00     0.054 C 
BRANCH  13  14
ATOM     14  C   UNL     1      78.053 -74.958  -2.166  1.00  0.00    -0.027 C 
ATOM     15  C   UNL     1      78.608 -75.886  -1.362  1.00  0.00    -0.031 C 
BRANCH  15  16
ATOM     16  C   UNL     1      78.784 -77.348  -1.692  1.00  0.00     0.027 C 
BRANCH  16  17
ATOM     17  C   UNL     1      77.643 -78.207  -1.126  1.00  0.00     0.004 C 
BRANCH  17  18
ATOM     18  C   UNL     1      76.823 -78.935  -2.209  1.00  0.00     0.000 C 
BRANCH  18  19
ATOM     19  C   UNL     1      75.424 -78.334  -2.400  1.00  0.00    -0.003 C 
ATOM     20  C   UNL     1      75.134 -78.076  -3.876  1.00  0.00     0.004 C 
ENDBRANCH  18  19
ENDBRANCH  17  18
ENDBRANCH  16  17
ENDBRANCH  15  16
ENDBRANCH  13  14
ENDBRANCH  12  13
ENDBRANCH   1  11
TORSDOF 14
ENDMDL
MODEL 3
REMARK VINA RESULT:    -3.910      2.569      5.959
REMARK INTER + INTRA:          -9.686
REMARK INTER:                  -7.725
REMARK INTRA:                  -1.961
REMARK UNBOUND:                -2.576
REMARK SMILES CCCCCC=CCC=CCCCCCCCC(=O)[O-]
REMARK SMILES IDX 11 1 12 2 13 3 14 4 15 5 16 6 17 7 18 8 19 9 20 10 10 11
REMARK SMILES IDX 9 12 8 13 7 14 6 15 5 16 4 17 3 18 2 19 1 20
REMARK H PARENT
REMARK Flexibility Score: inf
ROOT
ATOM      1  C   UNL     1      77.855 -75.073  -3.520  1.00  0.00     0.027 C 
ENDROOT
BRANCH   1   2
ATOM      2  C   UNL     1      78.218 -75.038  -2.033  1.00  0.00     0.004 C 
BRANCH   2   3
ATOM      3  C   UNL     1      78.238 -76.452  -1.435  1.00  0.00     0.000 C 
BRANCH   3   4
ATOM      4  C   UNL     1      77.142 -76.609  -0.368  1.00  0.00     0.000 C 
BRANCH   4   5
ATOM      5  C   UNL     1      76.062 -75.520  -0.457  1.00  0.00     0.000 C 
BRANCH   5   6
ATOM      6  C   UNL     1      74.747 -76.033  -1.070  1.00  0.00     0.006 C 
BRANCH   6   7
ATOM      7  C   UNL     1      73.538 -75.744  -0.170  1.00  0.00     0.053 C 
BRANCH   7   8
ATOM      8  C   UNL     1      73.317 -76.832   0.835  1.00  0.00     0.041 C 
ATOM      9  O   UNL     1      73.410 -76.585   2.067  1.00  0.00    -0.550 OA
ATOM     10  O   UNL     1      73.038 -78.126   0.415  1.00  0.00    -0.550 OA
ENDBRANCH   7   8
ENDBRANCH   6   7
ENDBRANCH   5   6
ENDBRANCH   4   5
ENDBRANCH   3   4
ENDBRANCH   2   3
ENDBRANCH   1   2
BRANCH   1  11
ATOM     11  C   UNL     1      76.766 -74.083  -3.829  1.00  0.00    -0.031 C 
ATOM     12  C   UNL     1      76.895 -72.784  -3.518  1.00  0.00    -0.027 C 
BRANCH  12  13
ATOM     13  C   UNL     1      75.804 -71.789  -3.790  1.00  0.00     0.054 C 
BRANCH  13  14
ATOM     14  C   UNL     1      74.454 -72.444  -3.631  1.00  0.00    -0.027 C 
ATOM     15  C   UNL     1      73.799 -72.630  -2.468  1.00  0.00    -0.031 C 
BRANCH  15  16
ATOM     16  C   UNL     1      74.311 -72.259  -1.098  1.00  0.00     0.027 C 
BRANCH  16  17
ATOM     17  C   UNL     1      73.339 -71.334  -0.351  1.00  0.00     0.004 C 
BRANCH  17  18
ATOM     18  C   UNL     1      73.866 -69.898  -0.173  1.00  0.00     0.000 C 
BRANCH  18  19
ATOM     19  C   UNL     1      73.374 -69.240   1.124  1.00  0.00    -0.003 C 
ATOM     20  C   UNL     1      71.946 -69.668   1.449  1.00  0.00     0.004 C 
ENDBRANCH  18  19
ENDBRANCH  17  18
ENDBRANCH  16  17
ENDBRANCH  15  16
ENDBRANCH  13  14
ENDBRANCH  12  13
ENDBRANCH   1  11
TORSDOF 14
ENDMDL
MODEL 4
REMARK VINA RESULT:    -3.863      2.066      4.022
REMARK INTER + INTRA:          -9.601
REMARK INTER:                  -7.097
REMARK INTRA:                  -2.503
REMARK UNBOUND:                -2.576
REMARK SMILES CCCCCC=CCC=CCCCCCCCC(=O)[O-]
REMARK SMILES IDX 11 1 12 2 13 3 14 4 15 5 16 6 17 7 18 8 19 9 20 10 10 11
REMARK SMILES IDX 9 12 8 13 7 14 6 15 5 16 4 17 3 18 2 19 1 20
REMARK H PARENT
REMARK Flexibility Score: inf
ROOT
ATOM      1  C   UNL     1      76.003 -71.794  -3.982  1.00  0.00     0.027 C 
ENDROOT
BRANCH   1   2
ATOM      2  C   UNL     1      74.609 -72.094  -3.423  1.00  0.00     0.004 C 
BRANCH   2   3
ATOM      3  C   UNL     1      74.467 -71.576  -1.985  1.00  0.00     0.000 C 
BRANCH   3   4
ATOM      4  C   UNL     1      73.876 -72.660  -1.069  1.00  0.00     0.000 C 
BRANCH   4   5
ATOM      5  C   UNL     1      74.945 -73.604  -0.496  1.00  0.00     0.000 C 
BRANCH   5   6
ATOM      6  C   UNL     1      74.594 -75.089  -0.689  1.00  0.00     0.006 C 
BRANCH   6   7
ATOM      7  C   UNL     1      73.097 -75.361  -0.491  1.00  0.00     0.053 C 
BRANCH   7   8
ATOM      8  C   UNL     1      72.742 -75.504   0.957  1.00  0.00     0.041 C 
ATOM      9  O   UNL     1      71.866 -74.758   1.471  1.00  0.00    -0.550 OA
ATOM     10  O   UNL     1      73.396 -76.439   1.747  1.00  0.00    -0.550 OA
ENDBRANCH   7   8
ENDBRANCH   6   7
ENDBRANCH   5   6
ENDBRANCH   4   5
ENDBRANCH   3   4
ENDBRANCH   2   3
ENDBRANCH   1   2
BRANCH   1  11
ATOM     11  C   UNL     1      76.957 -72.914  -3.670  1.00  0.00    -0.031 C 
ATOM     12  C   UNL     1      76.566 -74.197  -3.715  1.00  0.00    -0.027 C 
BRANCH  12  13
ATOM     13  C   UNL     1      77.498 -75.324  -3.376  1.00  0.00     0.054 C 
BRANCH  13  14
ATOM     14  C   UNL     1      78.214 -75.033  -2.080  1.00  0.00    -0.027 C 
ATOM     15  C   UNL     1      78.247 -75.836  -0.999  1.00  0.00    -0.031 C 
BRANCH  15  16
ATOM     16  C   UNL     1      77.537 -77.160  -0.861  1.00  0.00     0.027 C 
BRANCH  16  17
ATOM     17  C   UNL     1      78.414 -78.334  -1.320  1.00  0.00     0.004 C 
BRANCH  17  18
ATOM     18  C   UNL     1      77.904 -79.023  -2.600  1.00  0.00     0.000 C 
BRANCH  18  19
ATOM     19  C   UNL     1      78.963 -79.073  -3.711  1.00  0.00    -0.003 C 
ATOM     20  C   UNL     1      80.088 -78.078  -3.443  1.00  0.00     0.004 C 
ENDBRANCH  18  19
ENDBRANCH  17  18
ENDBRANCH  16  17
ENDBRANCH  15  16
ENDBRANCH  13  14
ENDBRANCH  12  13
ENDBRANCH   1  11
TORSDOF 14
ENDMDL
MODEL 5
REMARK VINA RESULT:    -3.847      1.194      2.672
REMARK INTER + INTRA:          -9.572
REMARK INTER:                  -7.192
REMARK INTRA:                  -2.381
REMARK UNBOUND:                -2.576
REMARK SMILES CCCCCC=CCC=CCCCCCCCC(=O)[O-]
REMARK SMILES IDX 11 1 12 2 13 3 14 4 15 5 16 6 17 7 18 8 19 9 20 10 10 11
REMARK SMILES IDX 9 12 8 13 7 14 6 15 5 16 4 17 3 18 2 19 1 20
REMARK H PARENT
REMARK Flexibility Score: inf
ROOT
ATOM      1  C   UNL     1      76.768 -72.491  -3.780  1.00  0.00     0.027 C 
ENDROOT
BRANCH   1   2
ATOM      2  C   UNL     1      75.256 -72.454  -4.020  1.00  0.00     0.004 C 
BRANCH   2   3
ATOM      3  C   UNL     1      74.626 -73.835  -3.796  1.00  0.00     0.000 C 
BRANCH   3   4
ATOM      4  C   UNL     1      73.572 -73.780  -2.679  1.00  0.00     0.000 C 
BRANCH   4   5
ATOM      5  C   UNL     1      74.193 -73.759  -1.273  1.00  0.00     0.000 C 
BRANCH   5   6
ATOM      6  C   UNL     1      74.276 -72.342  -0.680  1.00  0.00     0.006 C 
BRANCH   6   7
ATOM      7  C   UNL     1      72.914 -71.635  -0.675  1.00  0.00     0.053 C 
BRANCH   7   8
ATOM      8  C   UNL     1      72.879 -70.496   0.297  1.00  0.00     0.041 C 
ATOM      9  O   UNL     1      73.882 -69.746   0.430  1.00  0.00    -0.550 OA
ATOM     10  O   UNL     1      71.752 -70.278   1.077  1.00  0.00    -0.550 OA
ENDBRANCH   7   8
ENDBRANCH   6   7
ENDBRANCH   5   6
ENDBRANCH   4   5
ENDBRANCH   3   4
ENDBRANCH   2   3
ENDBRANCH   1   2
BRANCH   1  11
ATOM     11  C   UNL     1      77.202 -73.852  -3.310  1.00  0.00    -0.031 C 
ATOM     12  C   UNL     1      77.854 -74.014  -2.148  1.00  0.00    -0.027 C 
BRANCH  12  13
ATOM     13  C   UNL     1      78.322 -75.362  -1.680  1.00  0.00     0.054 C 
BRANCH  13  14
ATOM     14  C   UNL     1      77.356 -75.922  -0.666  1.00  0.00    -0.027 C 
ATOM     15  C   UNL     1      76.329 -76.754  -0.930  1.00  0.00    -0.031 C 
BRANCH  15  16
ATOM     16  C   UNL     1      75.923 -77.249  -2.297  1.00  0.00     0.027 C 
BRANCH  16  17
ATOM     17  C   UNL     1      76.632 -78.560  -2.668  1.00  0.00     0.004 C 
BRANCH  17  18
ATOM     18  C   UNL     1      76.839 -79.510  -1.472  1.00  0.00     0.000 C 
BRANCH  18  19
ATOM     19  C   UNL     1      78.315 -79.871  -1.249  1.00  0.00    -0.003 C 
ATOM     20  C   UNL     1      79.235 -78.912  -2.000  1.00  0.00     0.004 C 
ENDBRANCH  18  19
ENDBRANCH  17  18
ENDBRANCH  16  17
ENDBRANCH  15  16
ENDBRANCH  13  14
ENDBRANCH  12  13
ENDBRANCH   1  11
TORSDOF 14
ENDMDL
MODEL 6
REMARK VINA RESULT:    -3.769      2.086      3.076
REMARK INTER + INTRA:          -9.431
REMARK INTER:                  -6.631
REMARK INTRA:                  -2.800
REMARK UNBOUND:                -2.576
REMARK SMILES CCCCCC=CCC=CCCCCCCCC(=O)[O-]
REMARK SMILES IDX 11 1 12 2 13 3 14 4 15 5 16 6 17 7 18 8 19 9 20 10 10 11
REMARK SMILES IDX 9 12 8 13 7 14 6 15 5 16 4 17 3 18 2 19 1 20
REMARK H PARENT
REMARK Flexibility Score: inf
ROOT
ATOM      1  C   UNL     1      76.553 -72.689  -3.727  1.00  0.00     0.027 C 
ENDROOT
BRANCH   1   2
ATOM      2  C   UNL     1      75.188 -73.257  -4.124  1.00  0.00     0.004 C 
BRANCH   2   3
ATOM      3  C   UNL     1      74.059 -72.598  -3.320  1.00  0.00     0.000 C 
BRANCH   3   4
ATOM      4  C   UNL     1      74.563 -72.146  -1.940  1.00  0.00     0.000 C 
BRANCH   4   5
ATOM      5  C   UNL     1      74.080 -73.058  -0.800  1.00  0.00     0.000 C 
BRANCH   5   6
ATOM      6  C   UNL     1      74.126 -74.550  -1.170  1.00  0.00     0.006 C 
BRANCH   6   7
ATOM      7  C   UNL     1      74.510 -75.431   0.026  1.00  0.00     0.053 C 
BRANCH   7   8
ATOM      8  C   UNL     1      73.304 -75.968   0.734  1.00  0.00     0.041 C 
ATOM      9  O   UNL     1      73.432 -76.577   1.829  1.00  0.00    -0.550 OA
ATOM     10  O   UNL     1      72.043 -75.822   0.173  1.00  0.00    -0.550 OA
ENDBRANCH   7   8
ENDBRANCH   6   7
ENDBRANCH   5   6
ENDBRANCH   4   5
ENDBRANCH   3   4
ENDBRANCH   2   3
ENDBRANCH   1   2
BRANCH   1  11
ATOM     11  C   UNL     1      77.512 -73.794  -3.376  1.00  0.00    -0.031 C 
ATOM     12  C   UNL     1      77.646 -74.227  -2.113  1.00  0.00    -0.027 C 
BRANCH  12  13
ATOM     13  C   UNL     1      78.621 -75.307  -1.743  1.00  0.00     0.054 C 
BRANCH  13  14
ATOM     14  C   UNL     1      77.903 -76.435  -1.043  1.00  0.00    -0.027 C 
ATOM     15  C   UNL     1      77.218 -77.428  -1.644  1.00  0.00    -0.031 C 
BRANCH  15  16
ATOM     16  C   UNL     1      77.000 -77.576  -3.130  1.00  0.00     0.027 C 
BRANCH  16  17
ATOM     17  C   UNL     1      75.645 -77.005  -3.572  1.00  0.00     0.004 C 
BRANCH  17  18
ATOM     18  C   UNL     1      74.524 -78.060  -3.643  1.00  0.00     0.000 C 
BRANCH  18  19
ATOM     19  C   UNL     1      73.541 -77.963  -2.467  1.00  0.00    -0.003 C 
ATOM     20  C   UNL     1      73.874 -78.990  -1.388  1.00  0.00     0.004 C 
ENDBRANCH  18  19
ENDBRANCH  17  18
ENDBRANCH  16  17
ENDBRANCH  15  16
ENDBRANCH  13  14
ENDBRANCH  12  13
ENDBRANCH   1  11
TORSDOF 14
ENDMDL
MODEL 7
REMARK VINA RESULT:    -3.756      1.569      2.807
REMARK INTER + INTRA:          -9.406
REMARK INTER:                  -6.790
REMARK INTRA:                  -2.616
REMARK UNBOUND:                -2.576
REMARK SMILES CCCCCC=CCC=CCCCCCCCC(=O)[O-]
REMARK SMILES IDX 11 1 12 2 13 3 14 4 15 5 16 6 17 7 18 8 19 9 20 10 10 11
REMARK SMILES IDX 9 12 8 13 7 14 6 15 5 16 4 17 3 18 2 19 1 20
REMARK H PARENT
REMARK Flexibility Score: inf
ROOT
ATOM      1  C   UNL     1      78.230 -76.368  -1.301  1.00  0.00     0.027 C 
ENDROOT
BRANCH   1   2
ATOM      2  C   UNL     1      78.552 -76.443  -2.796  1.00  0.00     0.004 C 
BRANCH   2   3
ATOM      3  C   UNL     1      77.894 -75.288  -3.563  1.00  0.00     0.000 C 
BRANCH   3   4
ATOM      4  C   UNL     1      77.595 -74.108  -2.623  1.00  0.00     0.000 C 
BRANCH   4   5
ATOM      5  C   UNL     1      77.149 -72.845  -3.376  1.00  0.00     0.000 C 
BRANCH   5   6
ATOM      6  C   UNL     1      75.715 -72.951  -3.922  1.00  0.00     0.006 C 
BRANCH   6   7
ATOM      7  C   UNL     1      74.770 -71.932  -3.270  1.00  0.00     0.053 C 
BRANCH   7   8
ATOM      8  C   UNL     1      74.049 -72.513  -2.093  1.00  0.00     0.041 C 
ATOM      9  O   UNL     1      74.586 -72.506  -0.954  1.00  0.00    -0.550 OA
ATOM     10  O   UNL     1      72.795 -73.088  -2.257  1.00  0.00    -0.550 OA
ENDBRANCH   7   8
ENDBRANCH   6   7
ENDBRANCH   5   6
ENDBRANCH   4   5
ENDBRANCH   3   4
ENDBRANCH   2   3
ENDBRANCH   1   2
BRANCH   1  11
ATOM     11  C   UNL     1      77.854 -77.721  -0.765  1.00  0.00    -0.031 C 
ATOM     12  C   UNL     1      78.481 -78.834  -1.176  1.00  0.00    -0.027 C 
BRANCH  12  13
ATOM     13  C   UNL     1      78.095 -80.195  -0.674  1.00  0.00     0.054 C 
BRANCH  13  14
ATOM     14  C   UNL     1      77.374 -80.961  -1.757  1.00  0.00    -0.027 C 
ATOM     15  C   UNL     1      76.048 -80.931  -1.994  1.00  0.00    -0.031 C 
BRANCH  15  16
ATOM     16  C   UNL     1      75.025 -80.162  -1.195  1.00  0.00     0.027 C 
BRANCH  16  17
ATOM     17  C   UNL     1      74.230 -79.182  -2.069  1.00  0.00     0.004 C 
BRANCH  17  18
ATOM     18  C   UNL     1      75.096 -78.433  -3.100  1.00  0.00     0.000 C 
BRANCH  18  19
ATOM     19  C   UNL     1      74.760 -76.937  -3.184  1.00  0.00    -0.003 C 
ATOM     20  C   UNL     1      74.529 -76.347  -1.796  1.00  0.00     0.004 C 
ENDBRANCH  18  19
ENDBRANCH  17  18
ENDBRANCH  16  17
ENDBRANCH  15  16
ENDBRANCH  13  14
ENDBRANCH  12  13
ENDBRANCH   1  11
TORSDOF 14
ENDMDL
MODEL 8
REMARK VINA RESULT:    -3.750      2.252      2.920
REMARK INTER + INTRA:          -9.395
REMARK INTER:                  -6.556
REMARK INTRA:                  -2.840
REMARK UNBOUND:                -2.576
REMARK SMILES CCCCCC=CCC=CCCCCCCCC(=O)[O-]
REMARK SMILES IDX 11 1 12 2 13 3 14 4 15 5 16 6 17 7 18 8 19 9 20 10 10 11
REMARK SMILES IDX 9 12 8 13 7 14 6 15 5 16 4 17 3 18 2 19 1 20
REMARK H PARENT
REMARK Flexibility Score: inf
ROOT
ATOM      1  C   UNL     1      78.417 -75.322  -1.878  1.00  0.00     0.027 C 
ENDROOT
BRANCH   1   2
ATOM      2  C   UNL     1      77.736 -75.347  -3.249  1.00  0.00     0.004 C 
BRANCH   2   3
ATOM      3  C   UNL     1      77.451 -73.925  -3.751  1.00  0.00     0.000 C 
BRANCH   3   4
ATOM      4  C   UNL     1      75.950 -73.603  -3.658  1.00  0.00     0.000 C 
BRANCH   4   5
ATOM      5  C   UNL     1      75.510 -73.214  -2.238  1.00  0.00     0.000 C 
BRANCH   5   6
ATOM      6  C   UNL     1      74.341 -74.069  -1.721  1.00  0.00     0.006 C 
BRANCH   6   7
ATOM      7  C   UNL     1      74.656 -74.723  -0.368  1.00  0.00     0.053 C 
BRANCH   7   8
ATOM      8  C   UNL     1      73.506 -75.537   0.139  1.00  0.00     0.041 C 
ATOM      9  O   UNL     1      72.428 -75.587  -0.511  1.00  0.00    -0.550 OA
ATOM     10  O   UNL     1      73.611 -76.219   1.344  1.00  0.00    -0.550 OA
ENDBRANCH   7   8
ENDBRANCH   6   7
ENDBRANCH   5   6
ENDBRANCH   4   5
ENDBRANCH   3   4
ENDBRANCH   2   3
ENDBRANCH   1   2
BRANCH   1  11
ATOM     11  C   UNL     1      78.100 -76.570  -1.100  1.00  0.00    -0.031 C 
ATOM     12  C   UNL     1      78.582 -77.766  -1.471  1.00  0.00    -0.027 C 
BRANCH  12  13
ATOM     13  C   UNL     1      78.249 -79.024  -0.724  1.00  0.00     0.054 C 
BRANCH  13  14
ATOM     14  C   UNL     1      78.219 -80.198  -1.672  1.00  0.00    -0.027 C 
ATOM     15  C   UNL     1      77.175 -81.026  -1.870  1.00  0.00    -0.031 C 
BRANCH  15  16
ATOM     16  C   UNL     1      75.851 -80.966  -1.148  1.00  0.00     0.027 C 
BRANCH  16  17
ATOM     17  C   UNL     1      74.798 -80.182  -1.943  1.00  0.00     0.004 C 
BRANCH  17  18
ATOM     18  C   UNL     1      74.618 -78.729  -1.464  1.00  0.00     0.000 C 
BRANCH  18  19
ATOM     19  C   UNL     1      74.836 -77.701  -2.583  1.00  0.00    -0.003 C 
ATOM     20  C   UNL     1      75.591 -78.319  -3.757  1.00  0.00     0.004 C 
ENDBRANCH  18  19
ENDBRANCH  17  18
ENDBRANCH  16  17
ENDBRANCH  15  16
ENDBRANCH  13  14
ENDBRANCH  12  13
ENDBRANCH   1  11
TORSDOF 14
ENDMDL
MODEL 9
REMARK VINA RESULT:    -3.716      1.187      2.710
REMARK INTER + INTRA:          -9.333
REMARK INTER:                  -6.527
REMARK INTRA:                  -2.805
REMARK UNBOUND:                -2.576
REMARK SMILES CCCCCC=CCC=CCCCCCCCC(=O)[O-]
REMARK SMILES IDX 11 1 12 2 13 3 14 4 15 5 16 6 17 7 18 8 19 9 20 10 10 11
REMARK SMILES IDX 9 12 8 13 7 14 6 15 5 16 4 17 3 18 2 19 1 20
REMARK H PARENT
REMARK Flexibility Score: inf
ROOT
ATOM      1  C   UNL     1      78.237 -75.120  -1.830  1.00  0.00     0.027 C 
ENDROOT
BRANCH   1   2
ATOM      2  C   UNL     1      77.729 -73.750  -2.289  1.00  0.00     0.004 C 
BRANCH   2   3
ATOM      3  C   UNL     1      77.481 -73.731  -3.803  1.00  0.00     0.000 C 
BRANCH   3   4
ATOM      4  C   UNL     1      76.015 -73.385  -4.112  1.00  0.00     0.000 C 
BRANCH   4   5
ATOM      5  C   UNL     1      75.516 -72.156  -3.335  1.00  0.00     0.000 C 
BRANCH   5   6
ATOM      6  C   UNL     1      74.168 -72.400  -2.636  1.00  0.00     0.006 C 
BRANCH   6   7
ATOM      7  C   UNL     1      74.210 -72.023  -1.149  1.00  0.00     0.053 C 
BRANCH   7   8
ATOM      8  C   UNL     1      72.856 -71.648  -0.629  1.00  0.00     0.041 C 
ATOM      9  O   UNL     1      71.833 -72.268  -1.022  1.00  0.00    -0.550 OA
ATOM     10  O   UNL     1      72.719 -70.597   0.268  1.00  0.00    -0.550 OA
ENDBRANCH   7   8
ENDBRANCH   6   7
ENDBRANCH   5   6
ENDBRANCH   4   5
ENDBRANCH   3   4
ENDBRANCH   2   3
ENDBRANCH   1   2
BRANCH   1  11
ATOM     11  C   UNL     1      77.142 -75.898  -1.153  1.00  0.00    -0.031 C 
ATOM     12  C   UNL     1      75.953 -75.339  -0.885  1.00  0.00    -0.027 C 
BRANCH  12  13
ATOM     13  C   UNL     1      74.861 -76.092  -0.181  1.00  0.00     0.054 C 
BRANCH  13  14
ATOM     14  C   UNL     1      73.515 -75.682  -0.724  1.00  0.00    -0.027 C 
ATOM     15  C   UNL     1      73.124 -75.766  -2.011  1.00  0.00    -0.031 C 
BRANCH  15  16
ATOM     16  C   UNL     1      73.974 -76.246  -3.162  1.00  0.00     0.027 C 
BRANCH  16  17
ATOM     17  C   UNL     1      74.001 -77.778  -3.258  1.00  0.00     0.004 C 
BRANCH  17  18
ATOM     18  C   UNL     1      75.421 -78.366  -3.358  1.00  0.00     0.000 C 
BRANCH  18  19
ATOM     19  C   UNL     1      75.738 -79.351  -2.224  1.00  0.00    -0.003 C 
ATOM     20  C   UNL     1      74.510 -79.598  -1.351  1.00  0.00     0.004 C 
ENDBRANCH  18  19
ENDBRANCH  17  18
ENDBRANCH  16  17
ENDBRANCH  15  16
ENDBRANCH  13  14
ENDBRANCH  12  13
ENDBRANCH   1  11
TORSDOF 14
ENDMDL
