MODEL 1
REMARK VINA RESULT:    -4.603      0.000      0.000
REMARK INTER + INTRA:          -5.524
REMARK INTER:                  -5.275
REMARK INTRA:                  -0.248
REMARK UNBOUND:                -0.248
REMARK SMILES O=C([O-])C=Cc1ccc(O)cc1
REMARK SMILES IDX 6 1 7 2 12 3 8 4 11 5 9 6 5 7 4 8 2 9 1 10 3 11 10 12
REMARK H PARENT 10 13
REMARK Flexibility Score: inf
ROOT
ATOM      1  C   UNL     1     -12.270   5.010   7.074  1.00  0.00    -0.025 A 
ATOM      2  C   UNL     1     -12.841   3.824   6.591  1.00  0.00     0.012 A 
ATOM      3  C   UNL     1     -11.694   5.024   8.357  1.00  0.00     0.012 A 
ATOM      4  C   UNL     1     -12.789   2.653   7.355  1.00  0.00     0.047 A 
ATOM      5  C   UNL     1     -11.643   3.853   9.118  1.00  0.00     0.047 A 
ATOM      6  C   UNL     1     -12.186   2.664   8.619  1.00  0.00     0.115 A 
ENDROOT
BRANCH   1   7
ATOM      7  C   UNL     1     -12.384   6.247   6.273  1.00  0.00     0.010 C 
ATOM      8  C   UNL     1     -11.369   6.868   5.655  1.00  0.00     0.025 C 
BRANCH   8   9
ATOM      9  C   UNL     1     -10.003   6.332   5.504  1.00  0.00     0.064 C 
ATOM     10  O   UNL     1      -9.757   5.532   4.564  1.00  0.00    -0.545 OA
ATOM     11  O   UNL     1      -9.000   6.632   6.418  1.00  0.00    -0.545 OA
ENDBRANCH   8   9
ENDBRANCH   1   7
BRANCH   6  12
ATOM     12  O   UNL     1     -12.127   1.505   9.389  1.00  0.00    -0.508 OA
ATOM     13  H   UNL     1     -12.960   0.968   9.603  1.00  0.00     0.293 HD
ENDBRANCH   6  12
TORSDOF 3
ENDMDL
MODEL 2
REMARK VINA RESULT:    -4.578     16.086     17.497
REMARK INTER + INTRA:          -5.495
REMARK INTER:                  -6.131
REMARK INTRA:                   0.636
REMARK UNBOUND:                -0.248
REMARK SMILES O=C([O-])C=Cc1ccc(O)cc1
REMARK SMILES IDX 6 1 7 2 12 3 8 4 11 5 9 6 5 7 4 8 2 9 1 10 3 11 10 12
REMARK H PARENT 10 13
REMARK Flexibility Score: inf
ROOT
ATOM      1  C   UNL     1     -13.665   1.814  -9.702  1.00  0.00    -0.025 A 
ATOM      2  C   UNL     1     -13.404   3.083  -9.162  1.00  0.00     0.012 A 
ATOM      3  C   UNL     1     -12.595   0.929  -9.926  1.00  0.00     0.012 A 
ATOM      4  C   UNL     1     -12.101   3.441  -8.801  1.00  0.00     0.047 A 
ATOM      5  C   UNL     1     -11.295   1.289  -9.563  1.00  0.00     0.047 A 
ATOM      6  C   UNL     1     -11.043   2.544  -8.998  1.00  0.00     0.115 A 
ENDROOT
BRANCH   1   7
ATOM      7  C   UNL     1     -15.039   1.477 -10.125  1.00  0.00     0.010 C 
ATOM      8  C   UNL     1     -15.584   0.252 -10.091  1.00  0.00     0.025 C 
BRANCH   8   9
ATOM      9  C   UNL     1     -14.982  -0.934  -9.453  1.00  0.00     0.064 C 
ATOM     10  O   UNL     1     -15.379  -1.286  -8.312  1.00  0.00    -0.545 OA
ATOM     11  O   UNL     1     -13.938  -1.629 -10.051  1.00  0.00    -0.545 OA
ENDBRANCH   8   9
ENDBRANCH   1   7
BRANCH   6  12
ATOM     12  O   UNL     1      -9.742   2.889  -8.641  1.00  0.00    -0.508 OA
ATOM     13  H   UNL     1      -9.279   2.462  -7.847  1.00  0.00     0.293 HD
ENDBRANCH   6  12
TORSDOF 3
ENDMDL
MODEL 3
REMARK VINA RESULT:    -4.479      2.740      5.186
REMARK INTER + INTRA:          -5.383
REMARK INTER:                  -5.167
REMARK INTRA:                  -0.216
REMARK UNBOUND:                -0.248
REMARK SMILES O=C([O-])C=Cc1ccc(O)cc1
REMARK SMILES IDX 6 1 7 2 12 3 8 4 11 5 9 6 5 7 4 8 2 9 1 10 3 11 10 12
REMARK H PARENT 10 13
REMARK Flexibility Score: inf
ROOT
ATOM      1  C   UNL     1     -11.539   6.465   5.893  1.00  0.00    -0.025 A 
ATOM      2  C   UNL     1     -10.233   6.049   5.597  1.00  0.00     0.012 A 
ATOM      3  C   UNL     1     -11.888   7.815   5.710  1.00  0.00     0.012 A 
ATOM      4  C   UNL     1      -9.304   6.955   5.075  1.00  0.00     0.047 A 
ATOM      5  C   UNL     1     -10.959   8.719   5.188  1.00  0.00     0.047 A 
ATOM      6  C   UNL     1      -9.666   8.292   4.866  1.00  0.00     0.115 A 
ENDROOT
BRANCH   1   7
ATOM      7  C   UNL     1     -12.487   5.504   6.493  1.00  0.00     0.010 C 
ATOM      8  C   UNL     1     -13.191   4.584   5.818  1.00  0.00     0.025 C 
BRANCH   8   9
ATOM      9  C   UNL     1     -13.007   4.239   4.395  1.00  0.00     0.064 C 
ATOM     10  O   UNL     1     -13.840   4.656   3.549  1.00  0.00    -0.545 OA
ATOM     11  O   UNL     1     -11.977   3.406   3.977  1.00  0.00    -0.545 OA
ENDBRANCH   8   9
ENDBRANCH   1   7
BRANCH   6  12
ATOM     12  O   UNL     1      -8.750   9.204   4.345  1.00  0.00    -0.508 OA
ATOM     13  H   UNL     1      -9.049   9.988   3.777  1.00  0.00     0.293 HD
ENDBRANCH   6  12
TORSDOF 3
ENDMDL
MODEL 4
REMARK VINA RESULT:    -4.399     17.292     18.669
REMARK INTER + INTRA:          -5.291
REMARK INTER:                  -5.019
REMARK INTRA:                  -0.272
REMARK UNBOUND:                -0.248
REMARK SMILES O=C([O-])C=Cc1ccc(O)cc1
REMARK SMILES IDX 6 1 7 2 12 3 8 4 11 5 9 6 5 7 4 8 2 9 1 10 3 11 10 12
REMARK H PARENT 10 13
REMARK Flexibility Score: inf
ROOT
ATOM      1  C   UNL     1      -9.698  -5.113  -8.864  1.00  0.00    -0.025 A 
ATOM      2  C   UNL     1      -8.978  -4.002  -8.403  1.00  0.00     0.012 A 
ATOM      3  C   UNL     1     -10.805  -4.914  -9.708  1.00  0.00     0.012 A 
ATOM      4  C   UNL     1      -9.325  -2.713  -8.821  1.00  0.00     0.047 A 
ATOM      5  C   UNL     1     -11.150  -3.625 -10.125  1.00  0.00     0.047 A 
ATOM      6  C   UNL     1     -10.410  -2.522  -9.686  1.00  0.00     0.115 A 
ENDROOT
BRANCH   1   7
ATOM      7  C   UNL     1      -9.347  -6.460  -8.367  1.00  0.00     0.010 C 
ATOM      8  C   UNL     1      -9.688  -6.960  -7.171  1.00  0.00     0.025 C 
BRANCH   8   9
ATOM      9  C   UNL     1     -10.629  -6.336  -6.220  1.00  0.00     0.064 C 
ATOM     10  O   UNL     1     -10.176  -5.728  -5.216  1.00  0.00    -0.545 OA
ATOM     11  O   UNL     1     -12.004  -6.466  -6.369  1.00  0.00    -0.545 OA
ENDBRANCH   8   9
ENDBRANCH   1   7
BRANCH   6  12
ATOM     12  O   UNL     1     -10.765  -1.243 -10.111  1.00  0.00    -0.508 OA
ATOM     13  H   UNL     1     -10.133  -0.457 -10.009  1.00  0.00     0.293 HD
ENDBRANCH   6  12
TORSDOF 3
ENDMDL
MODEL 5
REMARK VINA RESULT:    -4.326     17.340     18.236
REMARK INTER + INTRA:          -5.207
REMARK INTER:                  -4.939
REMARK INTRA:                  -0.268
REMARK UNBOUND:                -0.248
REMARK SMILES O=C([O-])C=Cc1ccc(O)cc1
REMARK SMILES IDX 6 1 7 2 12 3 8 4 11 5 9 6 5 7 4 8 2 9 1 10 3 11 10 12
REMARK H PARENT 10 13
REMARK Flexibility Score: inf
ROOT
ATOM      1  C   UNL     1      -9.967  -6.088  -7.941  1.00  0.00    -0.025 A 
ATOM      2  C   UNL     1     -11.075  -6.539  -8.674  1.00  0.00     0.012 A 
ATOM      3  C   UNL     1     -10.078  -5.944  -6.547  1.00  0.00     0.012 A 
ATOM      4  C   UNL     1     -12.258  -6.892  -8.018  1.00  0.00     0.047 A 
ATOM      5  C   UNL     1     -11.261  -6.298  -5.893  1.00  0.00     0.047 A 
ATOM      6  C   UNL     1     -12.354  -6.776  -6.625  1.00  0.00     0.115 A 
ENDROOT
BRANCH   1   7
ATOM      7  C   UNL     1      -8.745  -5.671  -8.659  1.00  0.00     0.010 C 
ATOM      8  C   UNL     1      -8.585  -4.508  -9.309  1.00  0.00     0.025 C 
BRANCH   8   9
ATOM      9  C   UNL     1      -9.519  -3.367  -9.263  1.00  0.00     0.064 C 
ATOM     10  O   UNL     1      -9.366  -2.483  -8.381  1.00  0.00    -0.545 OA
ATOM     11  O   UNL     1     -10.606  -3.283 -10.124  1.00  0.00    -0.545 OA
ENDBRANCH   8   9
ENDBRANCH   1   7
BRANCH   6  12
ATOM     12  O   UNL     1     -13.527  -7.125  -5.961  1.00  0.00    -0.508 OA
ATOM     13  H   UNL     1     -13.843  -8.087  -5.915  1.00  0.00     0.293 HD
ENDBRANCH   6  12
TORSDOF 3
ENDMDL
MODEL 6
REMARK VINA RESULT:    -4.313      1.909      2.568
REMARK INTER + INTRA:          -5.192
REMARK INTER:                  -4.951
REMARK INTRA:                  -0.241
REMARK UNBOUND:                -0.248
REMARK SMILES O=C([O-])C=Cc1ccc(O)cc1
REMARK SMILES IDX 6 1 7 2 12 3 8 4 11 5 9 6 5 7 4 8 2 9 1 10 3 11 10 12
REMARK H PARENT 10 13
REMARK Flexibility Score: inf
ROOT
ATOM      1  C   UNL     1     -12.261   5.237   5.765  1.00  0.00    -0.025 A 
ATOM      2  C   UNL     1     -11.938   4.417   6.857  1.00  0.00     0.012 A 
ATOM      3  C   UNL     1     -12.333   4.672   4.479  1.00  0.00     0.012 A 
ATOM      4  C   UNL     1     -11.743   3.044   6.675  1.00  0.00     0.047 A 
ATOM      5  C   UNL     1     -12.139   3.300   4.300  1.00  0.00     0.047 A 
ATOM      6  C   UNL     1     -11.847   2.481   5.396  1.00  0.00     0.115 A 
ENDROOT
BRANCH   1   7
ATOM      7  C   UNL     1     -12.409   6.692   5.972  1.00  0.00     0.010 C 
ATOM      8  C   UNL     1     -11.405   7.581   5.988  1.00  0.00     0.025 C 
BRANCH   8   9
ATOM      9  C   UNL     1     -10.006   7.298   5.615  1.00  0.00     0.064 C 
ATOM     10  O   UNL     1      -9.574   7.698   4.503  1.00  0.00    -0.545 OA
ATOM     11  O   UNL     1      -9.177   6.537   6.429  1.00  0.00    -0.545 OA
ENDBRANCH   8   9
ENDBRANCH   1   7
BRANCH   6  12
ATOM     12  O   UNL     1     -11.656   1.115   5.202  1.00  0.00    -0.508 OA
ATOM     13  H   UNL     1     -11.462   0.492   5.978  1.00  0.00     0.293 HD
ENDBRANCH   6  12
TORSDOF 3
ENDMDL
MODEL 7
REMARK VINA RESULT:    -4.229      3.161      6.163
REMARK INTER + INTRA:          -5.095
REMARK INTER:                  -4.814
REMARK INTRA:                  -0.282
REMARK UNBOUND:                -0.248
REMARK SMILES O=C([O-])C=Cc1ccc(O)cc1
REMARK SMILES IDX 6 1 7 2 12 3 8 4 11 5 9 6 5 7 4 8 2 9 1 10 3 11 10 12
REMARK H PARENT 10 13
REMARK Flexibility Score: inf
ROOT
ATOM      1  C   UNL     1      -9.300   8.182   5.341  1.00  0.00    -0.025 A 
ATOM      2  C   UNL     1     -10.232   9.169   4.985  1.00  0.00     0.012 A 
ATOM      3  C   UNL     1      -8.244   8.514   6.209  1.00  0.00     0.012 A 
ATOM      4  C   UNL     1     -10.142  10.454   5.530  1.00  0.00     0.047 A 
ATOM      5  C   UNL     1      -8.157   9.799   6.753  1.00  0.00     0.047 A 
ATOM      6  C   UNL     1      -9.106  10.771   6.418  1.00  0.00     0.115 A 
ENDROOT
BRANCH   1   7
ATOM      7  C   UNL     1      -9.384   6.848   4.712  1.00  0.00     0.010 C 
ATOM      8  C   UNL     1     -10.023   5.786   5.224  1.00  0.00     0.025 C 
BRANCH   8   9
ATOM      9  C   UNL     1     -10.912   5.809   6.402  1.00  0.00     0.064 C 
ATOM     10  O   UNL     1     -10.534   5.257   7.468  1.00  0.00    -0.545 OA
ATOM     11  O   UNL     1     -12.184   6.364   6.341  1.00  0.00    -0.545 OA
ENDBRANCH   8   9
ENDBRANCH   1   7
BRANCH   6  12
ATOM     12  O   UNL     1      -9.006  12.047   6.969  1.00  0.00    -0.508 OA
ATOM     13  H   UNL     1      -9.830  12.596   7.185  1.00  0.00     0.293 HD
ENDBRANCH   6  12
TORSDOF 3
ENDMDL
MODEL 8
REMARK VINA RESULT:    -4.221     17.202     18.126
REMARK INTER + INTRA:          -5.086
REMARK INTER:                  -4.879
REMARK INTRA:                  -0.207
REMARK UNBOUND:                -0.248
REMARK SMILES O=C([O-])C=Cc1ccc(O)cc1
REMARK SMILES IDX 6 1 7 2 12 3 8 4 11 5 9 6 5 7 4 8 2 9 1 10 3 11 10 12
REMARK H PARENT 10 13
REMARK Flexibility Score: inf
ROOT
ATOM      1  C   UNL     1      -9.403  -4.906  -8.415  1.00  0.00    -0.025 A 
ATOM      2  C   UNL     1      -9.389  -4.550  -7.058  1.00  0.00     0.012 A 
ATOM      3  C   UNL     1     -10.149  -6.026  -8.825  1.00  0.00     0.012 A 
ATOM      4  C   UNL     1     -10.151  -5.270  -6.132  1.00  0.00     0.047 A 
ATOM      5  C   UNL     1     -10.910  -6.743  -7.898  1.00  0.00     0.047 A 
ATOM      6  C   UNL     1     -10.917  -6.366  -6.550  1.00  0.00     0.115 A 
ENDROOT
BRANCH   1   7
ATOM      7  C   UNL     1      -8.549  -4.165  -9.366  1.00  0.00     0.010 C 
ATOM      8  C   UNL     1      -8.922  -3.081 -10.063  1.00  0.00     0.025 C 
BRANCH   8   9
ATOM      9  C   UNL     1     -10.174  -2.326  -9.865  1.00  0.00     0.064 C 
ATOM     10  O   UNL     1     -10.121  -1.162  -9.388  1.00  0.00    -0.545 OA
ATOM     11  O   UNL     1     -11.414  -2.895 -10.125  1.00  0.00    -0.545 OA
ENDBRANCH   8   9
ENDBRANCH   1   7
BRANCH   6  12
ATOM     12  O   UNL     1     -11.681  -7.090  -5.638  1.00  0.00    -0.508 OA
ATOM     13  H   UNL     1     -12.677  -6.930  -5.537  1.00  0.00     0.293 HD
ENDBRANCH   6  12
TORSDOF 3
ENDMDL
MODEL 9
REMARK VINA RESULT:    -3.913      1.825      2.212
REMARK INTER + INTRA:          -4.733
REMARK INTER:                  -4.491
REMARK INTRA:                  -0.241
REMARK UNBOUND:                -0.248
REMARK SMILES O=C([O-])C=Cc1ccc(O)cc1
REMARK SMILES IDX 6 1 7 2 12 3 8 4 11 5 9 6 5 7 4 8 2 9 1 10 3 11 10 12
REMARK H PARENT 10 13
REMARK Flexibility Score: inf
ROOT
ATOM      1  C   UNL     1     -10.883   4.458   7.641  1.00  0.00    -0.025 A 
ATOM      2  C   UNL     1     -11.253   3.207   7.128  1.00  0.00     0.012 A 
ATOM      3  C   UNL     1     -11.186   4.771   8.978  1.00  0.00     0.012 A 
ATOM      4  C   UNL     1     -11.869   2.260   7.953  1.00  0.00     0.047 A 
ATOM      5  C   UNL     1     -11.801   3.824   9.801  1.00  0.00     0.047 A 
ATOM      6  C   UNL     1     -12.142   2.565   9.293  1.00  0.00     0.115 A 
ENDROOT
BRANCH   1   7
ATOM      7  C   UNL     1     -10.282   5.461   6.737  1.00  0.00     0.010 C 
ATOM      8  C   UNL     1     -10.946   6.172   5.814  1.00  0.00     0.025 C 
BRANCH   8   9
ATOM      9  C   UNL     1     -12.413   6.222   5.665  1.00  0.00     0.064 C 
ATOM     10  O   UNL     1     -13.061   7.124   6.256  1.00  0.00    -0.545 OA
ATOM     11  O   UNL     1     -13.103   5.253   4.947  1.00  0.00    -0.545 OA
ENDBRANCH   8   9
ENDBRANCH   1   7
BRANCH   6  12
ATOM     12  O   UNL     1     -12.754   1.631  10.125  1.00  0.00    -0.508 OA
ATOM     13  H   UNL     1     -12.427   1.469  11.071  1.00  0.00     0.293 HD
ENDBRANCH   6  12
TORSDOF 3
ENDMDL
