MODEL 1
REMARK VINA RESULT:    -2.413      0.000      0.000
REMARK INTER + INTRA:          -7.551
REMARK INTER:                  -5.516
REMARK INTRA:                  -2.035
REMARK UNBOUND:                -2.035
REMARK SMILES CCCCCCCCCCCCCCCCCCCCCCCC(=O)[O-]
REMARK SMILES IDX 13 1 14 2 15 3 16 4 17 5 18 6 19 7 20 8 21 9 22 10 23 11
REMARK SMILES IDX 24 12 25 13 26 14 12 15 11 16 10 17 9 18 8 19 7 20 6 21 5 22
REMARK SMILES IDX 4 23 3 24 2 25 1 26
REMARK H PARENT
REMARK Flexibility Score: inf
ROOT
ATOM      1  C   UNL     1     -18.157  45.961  -9.709  1.00  0.00     0.000 C 
ENDROOT
BRANCH   1   2
ATOM      2  C   UNL     1     -17.489  46.260 -11.068  1.00  0.00     0.000 C 
BRANCH   2   3
ATOM      3  C   UNL     1     -15.960  46.064 -11.093  1.00  0.00     0.000 C 
BRANCH   3   4
ATOM      4  C   UNL     1     -15.455  44.687 -10.616  1.00  0.00     0.000 C 
BRANCH   4   5
ATOM      5  C   UNL     1     -14.385  44.752  -9.506  1.00  0.00     0.000 C 
BRANCH   5   6
ATOM      6  C   UNL     1     -14.836  45.634  -8.327  1.00  0.00     0.000 C 
BRANCH   6   7
ATOM      7  C   UNL     1     -13.882  46.809  -8.057  1.00  0.00     0.000 C 
BRANCH   7   8
ATOM      8  C   UNL     1     -14.606  48.166  -8.054  1.00  0.00     0.000 C 
BRANCH   8   9
ATOM      9  C   UNL     1     -14.578  48.860  -6.679  1.00  0.00     0.000 C 
BRANCH   9  10
ATOM     10  C   UNL     1     -14.240  50.366  -6.709  1.00  0.00     0.006 C 
BRANCH  10  11
ATOM     11  C   UNL     1     -13.875  50.915  -8.096  1.00  0.00     0.053 C 
BRANCH  11  12
ATOM     12  C   UNL     1     -14.277  52.349  -8.255  1.00  0.00     0.041 C 
ATOM     13  O   UNL     1     -14.874  52.947  -7.321  1.00  0.00    -0.550 OA
ATOM     14  O   UNL     1     -14.026  53.015  -9.449  1.00  0.00    -0.550 OA
ENDBRANCH  11  12
ENDBRANCH  10  11
ENDBRANCH   9  10
ENDBRANCH   8   9
ENDBRANCH   7   8
ENDBRANCH   6   7
ENDBRANCH   5   6
ENDBRANCH   4   5
ENDBRANCH   3   4
ENDBRANCH   2   3
ENDBRANCH   1   2
BRANCH   1  15
ATOM     15  C   UNL     1     -19.610  45.471  -9.817  1.00  0.00     0.000 C 
BRANCH  15  16
ATOM     16  C   UNL     1     -19.889  44.696 -11.117  1.00  0.00     0.000 C 
BRANCH  16  17
ATOM     17  C   UNL     1     -20.008  43.174 -10.890  1.00  0.00     0.000 C 
BRANCH  17  18
ATOM     18  C   UNL     1     -18.698  42.505 -10.442  1.00  0.00    -0.000 C 
BRANCH  18  19
ATOM     19  C   UNL     1     -18.594  42.347  -8.916  1.00  0.00    -0.000 C 
BRANCH  19  20
ATOM     20  C   UNL     1     -17.611  43.349  -8.291  1.00  0.00    -0.000 C 
BRANCH  20  21
ATOM     21  C   UNL     1     -17.844  43.545  -6.782  1.00  0.00    -0.000 C 
BRANCH  21  22
ATOM     22  C   UNL     1     -16.527  43.490  -5.980  1.00  0.00    -0.000 C 
BRANCH  22  23
ATOM     23  C   UNL     1     -16.608  42.601  -4.725  1.00  0.00    -0.000 C 
BRANCH  23  24
ATOM     24  C   UNL     1     -17.945  41.860  -4.549  1.00  0.00    -0.000 C 
BRANCH  24  25
ATOM     25  C   UNL     1     -18.672  42.248  -3.254  1.00  0.00    -0.003 C 
ATOM     26  C   UNL     1     -19.586  43.450  -3.479  1.00  0.00     0.004 C 
ENDBRANCH  24  25
ENDBRANCH  23  24
ENDBRANCH  22  23
ENDBRANCH  21  22
ENDBRANCH  20  21
ENDBRANCH  19  20
ENDBRANCH  18  19
ENDBRANCH  17  18
ENDBRANCH  16  17
ENDBRANCH  15  16
ENDBRANCH   1  15
TORSDOF 22
ENDMDL
MODEL 2
REMARK VINA RESULT:    -2.057      5.665      9.351
REMARK INTER + INTRA:          -6.738
REMARK INTER:                  -4.642
REMARK INTRA:                  -2.096
REMARK UNBOUND:                -2.035
REMARK SMILES CCCCCCCCCCCCCCCCCCCCCCCC(=O)[O-]
REMARK SMILES IDX 13 1 14 2 15 3 16 4 17 5 18 6 19 7 20 8 21 9 22 10 23 11
REMARK SMILES IDX 24 12 25 13 26 14 12 15 11 16 10 17 9 18 8 19 7 20 6 21 5 22
REMARK SMILES IDX 4 23 3 24 2 25 1 26
REMARK H PARENT
REMARK Flexibility Score: inf
ROOT
ATOM      1  C   UNL     1     -19.877  44.441  -8.392  1.00  0.00     0.000 C 
ENDROOT
BRANCH   1   2
ATOM      2  C   UNL     1     -18.804  44.853  -7.361  1.00  0.00     0.000 C 
BRANCH   2   3
ATOM      3  C   UNL     1     -17.613  43.881  -7.245  1.00  0.00     0.000 C 
BRANCH   3   4
ATOM      4  C   UNL     1     -17.142  43.568  -5.810  1.00  0.00     0.000 C 
BRANCH   4   5
ATOM      5  C   UNL     1     -18.283  43.454  -4.778  1.00  0.00     0.000 C 
BRANCH   5   6
ATOM      6  C   UNL     1     -18.591  41.988  -4.424  1.00  0.00     0.000 C 
BRANCH   6   7
ATOM      7  C   UNL     1     -17.659  40.991  -5.131  1.00  0.00     0.000 C 
BRANCH   7   8
ATOM      8  C   UNL     1     -18.384  39.697  -5.541  1.00  0.00     0.000 C 
BRANCH   8   9
ATOM      9  C   UNL     1     -17.416  38.548  -5.882  1.00  0.00     0.000 C 
BRANCH   9  10
ATOM     10  C   UNL     1     -17.946  37.525  -6.911  1.00  0.00     0.006 C 
BRANCH  10  11
ATOM     11  C   UNL     1     -18.213  36.124  -6.343  1.00  0.00     0.053 C 
BRANCH  11  12
ATOM     12  C   UNL     1     -19.473  35.528  -6.890  1.00  0.00     0.041 C 
ATOM     13  O   UNL     1     -20.332  36.263  -7.447  1.00  0.00    -0.550 OA
ATOM     14  O   UNL     1     -19.719  34.167  -6.752  1.00  0.00    -0.550 OA
ENDBRANCH  11  12
ENDBRANCH  10  11
ENDBRANCH   9  10
ENDBRANCH   8   9
ENDBRANCH   7   8
ENDBRANCH   6   7
ENDBRANCH   5   6
ENDBRANCH   4   5
ENDBRANCH   3   4
ENDBRANCH   2   3
ENDBRANCH   1   2
BRANCH   1  15
ATOM     15  C   UNL     1     -19.304  43.927  -9.723  1.00  0.00     0.000 C 
BRANCH  15  16
ATOM     16  C   UNL     1     -18.931  45.061 -10.695  1.00  0.00     0.000 C 
BRANCH  16  17
ATOM     17  C   UNL     1     -17.418  45.362 -10.708  1.00  0.00     0.000 C 
BRANCH  17  18
ATOM     18  C   UNL     1     -16.533  44.109 -10.811  1.00  0.00    -0.000 C 
BRANCH  18  19
ATOM     19  C   UNL     1     -15.064  44.378 -10.446  1.00  0.00    -0.000 C 
BRANCH  19  20
ATOM     20  C   UNL     1     -14.887  45.692  -9.667  1.00  0.00    -0.000 C 
BRANCH  20  21
ATOM     21  C   UNL     1     -14.635  45.461  -8.167  1.00  0.00    -0.000 C 
BRANCH  21  22
ATOM     22  C   UNL     1     -14.129  46.737  -7.461  1.00  0.00    -0.000 C 
BRANCH  22  23
ATOM     23  C   UNL     1     -14.926  48.002  -7.832  1.00  0.00    -0.000 C 
BRANCH  23  24
ATOM     24  C   UNL     1     -14.584  49.245  -6.992  1.00  0.00    -0.000 C 
BRANCH  24  25
ATOM     25  C   UNL     1     -14.028  50.397  -7.839  1.00  0.00    -0.003 C 
ATOM     26  C   UNL     1     -14.593  50.357  -9.256  1.00  0.00     0.004 C 
ENDBRANCH  24  25
ENDBRANCH  23  24
ENDBRANCH  22  23
ENDBRANCH  21  22
ENDBRANCH  20  21
ENDBRANCH  19  20
ENDBRANCH  18  19
ENDBRANCH  17  18
ENDBRANCH  16  17
ENDBRANCH  15  16
ENDBRANCH   1  15
TORSDOF 22
ENDMDL
MODEL 3
REMARK VINA RESULT:    -1.980      2.710      4.184
REMARK INTER + INTRA:          -6.562
REMARK INTER:                  -4.604
REMARK INTRA:                  -1.957
REMARK UNBOUND:                -2.035
REMARK SMILES CCCCCCCCCCCCCCCCCCCCCCCC(=O)[O-]
REMARK SMILES IDX 13 1 14 2 15 3 16 4 17 5 18 6 19 7 20 8 21 9 22 10 23 11
REMARK SMILES IDX 24 12 25 13 26 14 12 15 11 16 10 17 9 18 8 19 7 20 6 21 5 22
REMARK SMILES IDX 4 23 3 24 2 25 1 26
REMARK H PARENT
REMARK Flexibility Score: inf
ROOT
ATOM      1  C   UNL     1     -19.287  43.435  -8.835  1.00  0.00     0.000 C 
ENDROOT
BRANCH   1   2
ATOM      2  C   UNL     1     -18.410  42.589  -9.783  1.00  0.00     0.000 C 
BRANCH   2   3
ATOM      3  C   UNL     1     -17.805  43.369 -10.969  1.00  0.00     0.000 C 
BRANCH   3   4
ATOM      4  C   UNL     1     -17.985  44.900 -10.923  1.00  0.00     0.000 C 
BRANCH   4   5
ATOM      5  C   UNL     1     -16.673  45.698 -11.068  1.00  0.00     0.000 C 
BRANCH   5   6
ATOM      6  C   UNL     1     -15.441  44.846 -10.714  1.00  0.00     0.000 C 
BRANCH   6   7
ATOM      7  C   UNL     1     -14.628  45.422  -9.544  1.00  0.00     0.000 C 
BRANCH   7   8
ATOM      8  C   UNL     1     -15.483  46.291  -8.605  1.00  0.00     0.000 C 
BRANCH   8   9
ATOM      9  C   UNL     1     -14.688  46.845  -7.408  1.00  0.00     0.000 C 
BRANCH   9  10
ATOM     10  C   UNL     1     -14.513  48.379  -7.386  1.00  0.00     0.006 C 
BRANCH  10  11
ATOM     11  C   UNL     1     -14.240  49.013  -8.758  1.00  0.00     0.053 C 
BRANCH  11  12
ATOM     12  C   UNL     1     -14.584  50.471  -8.780  1.00  0.00     0.041 C 
ATOM     13  O   UNL     1     -14.196  51.198  -9.732  1.00  0.00    -0.550 OA
ATOM     14  O   UNL     1     -15.301  51.034  -7.731  1.00  0.00    -0.550 OA
ENDBRANCH  11  12
ENDBRANCH  10  11
ENDBRANCH   9  10
ENDBRANCH   8   9
ENDBRANCH   7   8
ENDBRANCH   6   7
ENDBRANCH   5   6
ENDBRANCH   4   5
ENDBRANCH   3   4
ENDBRANCH   2   3
ENDBRANCH   1   2
BRANCH   1  15
ATOM     15  C   UNL     1     -18.515  44.079  -7.672  1.00  0.00     0.000 C 
BRANCH  15  16
ATOM     16  C   UNL     1     -19.415  44.908  -6.738  1.00  0.00     0.000 C 
BRANCH  16  17
ATOM     17  C   UNL     1     -19.271  44.502  -5.256  1.00  0.00     0.000 C 
BRANCH  17  18
ATOM     18  C   UNL     1     -18.026  43.648  -4.961  1.00  0.00    -0.000 C 
BRANCH  18  19
ATOM     19  C   UNL     1     -18.370  42.242  -4.441  1.00  0.00    -0.000 C 
BRANCH  19  20
ATOM     20  C   UNL     1     -17.395  41.173  -4.960  1.00  0.00    -0.000 C 
BRANCH  20  21
ATOM     21  C   UNL     1     -18.014  40.290  -6.057  1.00  0.00    -0.000 C 
BRANCH  21  22
ATOM     22  C   UNL     1     -18.161  38.821  -5.604  1.00  0.00    -0.000 C 
BRANCH  22  23
ATOM     23  C   UNL     1     -17.987  37.805  -6.748  1.00  0.00    -0.000 C 
BRANCH  23  24
ATOM     24  C   UNL     1     -17.906  36.337  -6.295  1.00  0.00    -0.000 C 
BRANCH  24  25
ATOM     25  C   UNL     1     -19.105  35.504  -6.768  1.00  0.00    -0.003 C 
ATOM     26  C   UNL     1     -20.016  36.323  -7.678  1.00  0.00     0.004 C 
ENDBRANCH  24  25
ENDBRANCH  23  24
ENDBRANCH  22  23
ENDBRANCH  21  22
ENDBRANCH  20  21
ENDBRANCH  19  20
ENDBRANCH  18  19
ENDBRANCH  17  18
ENDBRANCH  16  17
ENDBRANCH  15  16
ENDBRANCH   1  15
TORSDOF 22
ENDMDL
MODEL 4
REMARK VINA RESULT:    -1.722      1.293      2.373
REMARK INTER + INTRA:          -5.972
REMARK INTER:                  -3.580
REMARK INTRA:                  -2.391
REMARK UNBOUND:                -2.035
REMARK SMILES CCCCCCCCCCCCCCCCCCCCCCCC(=O)[O-]
REMARK SMILES IDX 13 1 14 2 15 3 16 4 17 5 18 6 19 7 20 8 21 9 22 10 23 11
REMARK SMILES IDX 24 12 25 13 26 14 12 15 11 16 10 17 9 18 8 19 7 20 6 21 5 22
REMARK SMILES IDX 4 23 3 24 2 25 1 26
REMARK H PARENT
REMARK Flexibility Score: inf
ROOT
ATOM      1  C   UNL     1     -18.839  44.993 -11.125  1.00  0.00     0.000 C 
ENDROOT
BRANCH   1   2
ATOM      2  C   UNL     1     -18.298  46.420 -10.893  1.00  0.00     0.000 C 
BRANCH   2   3
ATOM      3  C   UNL     1     -16.762  46.546 -10.960  1.00  0.00     0.000 C 
BRANCH   3   4
ATOM      4  C   UNL     1     -15.981  45.216 -10.933  1.00  0.00     0.000 C 
BRANCH   4   5
ATOM      5  C   UNL     1     -16.096  44.439  -9.605  1.00  0.00     0.000 C 
BRANCH   5   6
ATOM      6  C   UNL     1     -16.275  45.383  -8.402  1.00  0.00     0.000 C 
BRANCH   6   7
ATOM      7  C   UNL     1     -14.979  45.587  -7.601  1.00  0.00     0.000 C 
BRANCH   7   8
ATOM      8  C   UNL     1     -13.875  46.265  -8.432  1.00  0.00     0.000 C 
BRANCH   8   9
ATOM      9  C   UNL     1     -14.124  47.770  -8.648  1.00  0.00     0.000 C 
BRANCH   9  10
ATOM     10  C   UNL     1     -14.872  48.484  -7.502  1.00  0.00     0.006 C 
BRANCH  10  11
ATOM     11  C   UNL     1     -14.305  49.860  -7.124  1.00  0.00     0.053 C 
BRANCH  11  12
ATOM     12  C   UNL     1     -14.815  50.944  -8.023  1.00  0.00     0.041 C 
ATOM     13  O   UNL     1     -15.573  51.841  -7.566  1.00  0.00    -0.550 OA
ATOM     14  O   UNL     1     -14.486  50.942  -9.373  1.00  0.00    -0.550 OA
ENDBRANCH  11  12
ENDBRANCH  10  11
ENDBRANCH   9  10
ENDBRANCH   8   9
ENDBRANCH   7   8
ENDBRANCH   6   7
ENDBRANCH   5   6
ENDBRANCH   4   5
ENDBRANCH   3   4
ENDBRANCH   2   3
ENDBRANCH   1   2
BRANCH   1  15
ATOM     15  C   UNL     1     -20.338  44.833 -10.820  1.00  0.00     0.000 C 
BRANCH  15  16
ATOM     16  C   UNL     1     -20.625  44.583  -9.329  1.00  0.00     0.000 C 
BRANCH  16  17
ATOM     17  C   UNL     1     -19.746  43.464  -8.732  1.00  0.00     0.000 C 
BRANCH  17  18
ATOM     18  C   UNL     1     -19.179  43.792  -7.340  1.00  0.00    -0.000 C 
BRANCH  18  19
ATOM     19  C   UNL     1     -19.755  45.088  -6.746  1.00  0.00    -0.000 C 
BRANCH  19  20
ATOM     20  C   UNL     1     -19.580  45.160  -5.221  1.00  0.00    -0.000 C 
BRANCH  20  21
ATOM     21  C   UNL     1     -19.764  43.792  -4.540  1.00  0.00    -0.000 C 
BRANCH  21  22
ATOM     22  C   UNL     1     -19.018  43.711  -3.191  1.00  0.00    -0.000 C 
BRANCH  22  23
ATOM     23  C   UNL     1     -18.073  42.500  -3.083  1.00  0.00    -0.000 C 
BRANCH  23  24
ATOM     24  C   UNL     1     -17.215  42.243  -4.333  1.00  0.00    -0.000 C 
BRANCH  24  25
ATOM     25  C   UNL     1     -16.423  43.481  -4.774  1.00  0.00    -0.003 C 
ATOM     26  C   UNL     1     -15.338  43.828  -3.757  1.00  0.00     0.004 C 
ENDBRANCH  24  25
ENDBRANCH  23  24
ENDBRANCH  22  23
ENDBRANCH  21  22
ENDBRANCH  20  21
ENDBRANCH  19  20
ENDBRANCH  18  19
ENDBRANCH  17  18
ENDBRANCH  16  17
ENDBRANCH  15  16
ENDBRANCH   1  15
TORSDOF 22
ENDMDL
MODEL 5
REMARK VINA RESULT:    -1.300      5.447      9.200
REMARK INTER + INTRA:          -5.006
REMARK INTER:                  -2.484
REMARK INTRA:                  -2.522
REMARK UNBOUND:                -2.035
REMARK SMILES CCCCCCCCCCCCCCCCCCCCCCCC(=O)[O-]
REMARK SMILES IDX 13 1 14 2 15 3 16 4 17 5 18 6 19 7 20 8 21 9 22 10 23 11
REMARK SMILES IDX 24 12 25 13 26 14 12 15 11 16 10 17 9 18 8 19 7 20 6 21 5 22
REMARK SMILES IDX 4 23 3 24 2 25 1 26
REMARK H PARENT
REMARK Flexibility Score: inf
ROOT
ATOM      1  C   UNL     1     -15.209  46.317  -6.966  1.00  0.00     0.000 C 
ENDROOT
BRANCH   1   2
ATOM      2  C   UNL     1     -15.420  45.026  -7.787  1.00  0.00     0.000 C 
BRANCH   2   3
ATOM      3  C   UNL     1     -15.323  43.721  -6.971  1.00  0.00     0.000 C 
BRANCH   3   4
ATOM      4  C   UNL     1     -16.117  43.700  -5.648  1.00  0.00     0.000 C 
BRANCH   4   5
ATOM      5  C   UNL     1     -17.638  43.512  -5.824  1.00  0.00     0.000 C 
BRANCH   5   6
ATOM      6  C   UNL     1     -18.316  43.070  -4.514  1.00  0.00     0.000 C 
BRANCH   6   7
ATOM      7  C   UNL     1     -18.359  41.543  -4.345  1.00  0.00     0.000 C 
BRANCH   7   8
ATOM      8  C   UNL     1     -18.264  40.800  -5.690  1.00  0.00     0.000 C 
BRANCH   8   9
ATOM      9  C   UNL     1     -17.927  39.306  -5.528  1.00  0.00     0.000 C 
BRANCH   9  10
ATOM     10  C   UNL     1     -18.214  38.429  -6.765  1.00  0.00     0.006 C 
BRANCH  10  11
ATOM     11  C   UNL     1     -17.921  36.933  -6.575  1.00  0.00     0.053 C 
BRANCH  11  12
ATOM     12  C   UNL     1     -19.142  36.091  -6.782  1.00  0.00     0.041 C 
ATOM     13  O   UNL     1     -20.177  36.592  -7.297  1.00  0.00    -0.550 OA
ATOM     14  O   UNL     1     -19.150  34.763  -6.372  1.00  0.00    -0.550 OA
ENDBRANCH  11  12
ENDBRANCH  10  11
ENDBRANCH   9  10
ENDBRANCH   8   9
ENDBRANCH   7   8
ENDBRANCH   6   7
ENDBRANCH   5   6
ENDBRANCH   4   5
ENDBRANCH   3   4
ENDBRANCH   2   3
ENDBRANCH   1   2
BRANCH   1  15
ATOM     15  C   UNL     1     -14.010  47.164  -7.424  1.00  0.00     0.000 C 
BRANCH  15  16
ATOM     16  C   UNL     1     -14.396  48.610  -7.782  1.00  0.00     0.000 C 
BRANCH  16  17
ATOM     17  C   UNL     1     -14.491  48.843  -9.305  1.00  0.00     0.000 C 
BRANCH  17  18
ATOM     18  C   UNL     1     -13.932  47.685 -10.149  1.00  0.00    -0.000 C 
BRANCH  18  19
ATOM     19  C   UNL     1     -14.980  47.064 -11.087  1.00  0.00    -0.000 C 
BRANCH  19  20
ATOM     20  C   UNL     1     -16.418  47.411 -10.667  1.00  0.00    -0.000 C 
BRANCH  20  21
ATOM     21  C   UNL     1     -17.429  46.321 -11.065  1.00  0.00    -0.000 C 
BRANCH  21  22
ATOM     22  C   UNL     1     -16.782  44.921 -11.118  1.00  0.00    -0.000 C 
BRANCH  22  23
ATOM     23  C   UNL     1     -17.531  43.865 -10.284  1.00  0.00    -0.000 C 
BRANCH  23  24
ATOM     24  C   UNL     1     -18.538  44.441  -9.275  1.00  0.00    -0.000 C 
BRANCH  24  25
ATOM     25  C   UNL     1     -19.989  44.064  -9.605  1.00  0.00    -0.003 C 
ATOM     26  C   UNL     1     -20.081  43.380 -10.966  1.00  0.00     0.004 C 
ENDBRANCH  24  25
ENDBRANCH  23  24
ENDBRANCH  22  23
ENDBRANCH  21  22
ENDBRANCH  20  21
ENDBRANCH  19  20
ENDBRANCH  18  19
ENDBRANCH  17  18
ENDBRANCH  16  17
ENDBRANCH  15  16
ENDBRANCH   1  15
TORSDOF 22
ENDMDL
MODEL 6
REMARK VINA RESULT:    -1.297      4.060      6.277
REMARK INTER + INTRA:          -5.000
REMARK INTER:                  -3.751
REMARK INTRA:                  -1.249
REMARK UNBOUND:                -2.035
REMARK SMILES CCCCCCCCCCCCCCCCCCCCCCCC(=O)[O-]
REMARK SMILES IDX 13 1 14 2 15 3 16 4 17 5 18 6 19 7 20 8 21 9 22 10 23 11
REMARK SMILES IDX 24 12 25 13 26 14 12 15 11 16 10 17 9 18 8 19 7 20 6 21 5 22
REMARK SMILES IDX 4 23 3 24 2 25 1 26
REMARK H PARENT
REMARK Flexibility Score: inf
ROOT
ATOM      1  C   UNL     1     -15.001  44.187  -7.811  1.00  0.00     0.000 C 
ENDROOT
BRANCH   1   2
ATOM      2  C   UNL     1     -14.137  45.375  -8.289  1.00  0.00     0.000 C 
BRANCH   2   3
ATOM      3  C   UNL     1     -14.041  46.545  -7.289  1.00  0.00     0.000 C 
BRANCH   3   4
ATOM      4  C   UNL     1     -15.032  47.704  -7.520  1.00  0.00     0.000 C 
BRANCH   4   5
ATOM      5  C   UNL     1     -14.380  49.003  -8.037  1.00  0.00     0.000 C 
BRANCH   5   6
ATOM      6  C   UNL     1     -14.925  49.408  -9.419  1.00  0.00     0.000 C 
BRANCH   6   7
ATOM      7  C   UNL     1     -14.738  48.314 -10.482  1.00  0.00     0.000 C 
BRANCH   7   8
ATOM      8  C   UNL     1     -16.069  47.878 -11.118  1.00  0.00     0.000 C 
BRANCH   8   9
ATOM      9  C   UNL     1     -16.818  46.824 -10.281  1.00  0.00     0.000 C 
BRANCH   9  10
ATOM     10  C   UNL     1     -16.900  45.418 -10.914  1.00  0.00     0.006 C 
BRANCH  10  11
ATOM     11  C   UNL     1     -18.251  44.710 -10.734  1.00  0.00     0.053 C 
BRANCH  11  12
ATOM     12  C   UNL     1     -18.085  43.293 -10.278  1.00  0.00     0.041 C 
ATOM     13  O   UNL     1     -17.079  42.626 -10.639  1.00  0.00    -0.550 OA
ATOM     14  O   UNL     1     -19.060  42.696  -9.487  1.00  0.00    -0.550 OA
ENDBRANCH  11  12
ENDBRANCH  10  11
ENDBRANCH   9  10
ENDBRANCH   8   9
ENDBRANCH   7   8
ENDBRANCH   6   7
ENDBRANCH   5   6
ENDBRANCH   4   5
ENDBRANCH   3   4
ENDBRANCH   2   3
ENDBRANCH   1   2
BRANCH   1  15
ATOM     15  C   UNL     1     -16.418  44.582  -7.361  1.00  0.00     0.000 C 
BRANCH  15  16
ATOM     16  C   UNL     1     -17.058  43.549  -6.416  1.00  0.00     0.000 C 
BRANCH  16  17
ATOM     17  C   UNL     1     -16.210  43.290  -5.153  1.00  0.00     0.000 C 
BRANCH  17  18
ATOM     18  C   UNL     1     -17.026  43.259  -3.849  1.00  0.00    -0.000 C 
BRANCH  18  19
ATOM     19  C   UNL     1     -18.343  42.476  -3.983  1.00  0.00    -0.000 C 
BRANCH  19  20
ATOM     20  C   UNL     1     -18.372  41.593  -5.241  1.00  0.00    -0.000 C 
BRANCH  20  21
ATOM     21  C   UNL     1     -18.327  40.091  -4.910  1.00  0.00    -0.000 C 
BRANCH  21  22
ATOM     22  C   UNL     1     -18.391  39.216  -6.180  1.00  0.00    -0.000 C 
BRANCH  22  23
ATOM     23  C   UNL     1     -17.672  37.862  -6.031  1.00  0.00    -0.000 C 
BRANCH  23  24
ATOM     24  C   UNL     1     -17.795  36.933  -7.251  1.00  0.00    -0.000 C 
BRANCH  24  25
ATOM     25  C   UNL     1     -19.228  36.429  -7.470  1.00  0.00    -0.003 C 
ATOM     26  C   UNL     1     -19.522  35.216  -6.593  1.00  0.00     0.004 C 
ENDBRANCH  24  25
ENDBRANCH  23  24
ENDBRANCH  22  23
ENDBRANCH  21  22
ENDBRANCH  20  21
ENDBRANCH  19  20
ENDBRANCH  18  19
ENDBRANCH  17  18
ENDBRANCH  16  17
ENDBRANCH  15  16
ENDBRANCH   1  15
TORSDOF 22
ENDMDL
MODEL 7
REMARK VINA RESULT:    -1.272      2.966      5.183
REMARK INTER + INTRA:          -4.943
REMARK INTER:                  -3.741
REMARK INTRA:                  -1.202
REMARK UNBOUND:                -2.035
REMARK SMILES CCCCCCCCCCCCCCCCCCCCCCCC(=O)[O-]
REMARK SMILES IDX 13 1 14 2 15 3 16 4 17 5 18 6 19 7 20 8 21 9 22 10 23 11
REMARK SMILES IDX 24 12 25 13 26 14 12 15 11 16 10 17 9 18 8 19 7 20 6 21 5 22
REMARK SMILES IDX 4 23 3 24 2 25 1 26
REMARK H PARENT
REMARK Flexibility Score: inf
ROOT
ATOM      1  C   UNL     1     -17.996  43.460  -6.739  1.00  0.00     0.000 C 
ENDROOT
BRANCH   1   2
ATOM      2  C   UNL     1     -18.785  44.703  -7.205  1.00  0.00     0.000 C 
BRANCH   2   3
ATOM      3  C   UNL     1     -19.528  44.529  -8.545  1.00  0.00     0.000 C 
BRANCH   3   4
ATOM      4  C   UNL     1     -18.877  43.555  -9.548  1.00  0.00     0.000 C 
BRANCH   4   5
ATOM      5  C   UNL     1     -18.622  44.159 -10.945  1.00  0.00     0.000 C 
BRANCH   5   6
ATOM      6  C   UNL     1     -17.172  44.653 -11.100  1.00  0.00     0.000 C 
BRANCH   6   7
ATOM      7  C   UNL     1     -16.654  45.393  -9.857  1.00  0.00     0.000 C 
BRANCH   7   8
ATOM      8  C   UNL     1     -15.415  44.716  -9.244  1.00  0.00     0.000 C 
BRANCH   8   9
ATOM      9  C   UNL     1     -14.200  45.659  -9.150  1.00  0.00     0.000 C 
BRANCH   9  10
ATOM     10  C   UNL     1     -14.186  46.594  -7.921  1.00  0.00     0.006 C 
BRANCH  10  11
ATOM     11  C   UNL     1     -14.464  48.071  -8.235  1.00  0.00     0.053 C 
BRANCH  11  12
ATOM     12  C   UNL     1     -14.322  48.939  -7.023  1.00  0.00     0.041 C 
ATOM     13  O   UNL     1     -14.472  48.448  -5.872  1.00  0.00    -0.550 OA
ATOM     14  O   UNL     1     -14.062  50.297  -7.164  1.00  0.00    -0.550 OA
ENDBRANCH  11  12
ENDBRANCH  10  11
ENDBRANCH   9  10
ENDBRANCH   8   9
ENDBRANCH   7   8
ENDBRANCH   6   7
ENDBRANCH   5   6
ENDBRANCH   4   5
ENDBRANCH   3   4
ENDBRANCH   2   3
ENDBRANCH   1   2
BRANCH   1  15
ATOM     15  C   UNL     1     -16.740  43.787  -5.913  1.00  0.00     0.000 C 
BRANCH  15  16
ATOM     16  C   UNL     1     -16.886  43.416  -4.426  1.00  0.00     0.000 C 
BRANCH  16  17
ATOM     17  C   UNL     1     -18.351  43.450  -3.944  1.00  0.00     0.000 C 
BRANCH  17  18
ATOM     18  C   UNL     1     -18.830  42.133  -3.310  1.00  0.00    -0.000 C 
BRANCH  18  19
ATOM     19  C   UNL     1     -19.226  41.074  -4.352  1.00  0.00    -0.000 C 
BRANCH  19  20
ATOM     20  C   UNL     1     -18.031  40.619  -5.205  1.00  0.00    -0.000 C 
BRANCH  20  21
ATOM     21  C   UNL     1     -18.340  39.359  -6.033  1.00  0.00    -0.000 C 
BRANCH  21  22
ATOM     22  C   UNL     1     -17.305  38.240  -5.792  1.00  0.00    -0.000 C 
BRANCH  22  23
ATOM     23  C   UNL     1     -17.671  36.907  -6.472  1.00  0.00    -0.000 C 
BRANCH  23  24
ATOM     24  C   UNL     1     -19.076  36.380  -6.134  1.00  0.00    -0.000 C 
BRANCH  24  25
ATOM     25  C   UNL     1     -19.663  35.502  -7.248  1.00  0.00    -0.003 C 
ATOM     26  C   UNL     1     -20.150  36.354  -8.417  1.00  0.00     0.004 C 
ENDBRANCH  24  25
ENDBRANCH  23  24
ENDBRANCH  22  23
ENDBRANCH  21  22
ENDBRANCH  20  21
ENDBRANCH  19  20
ENDBRANCH  18  19
ENDBRANCH  17  18
ENDBRANCH  16  17
ENDBRANCH  15  16
ENDBRANCH   1  15
TORSDOF 22
ENDMDL
MODEL 8
REMARK VINA RESULT:    -1.177      2.378      5.309
REMARK INTER + INTRA:          -4.726
REMARK INTER:                  -4.281
REMARK INTRA:                  -0.445
REMARK UNBOUND:                -2.035
REMARK SMILES CCCCCCCCCCCCCCCCCCCCCCCC(=O)[O-]
REMARK SMILES IDX 13 1 14 2 15 3 16 4 17 5 18 6 19 7 20 8 21 9 22 10 23 11
REMARK SMILES IDX 24 12 25 13 26 14 12 15 11 16 10 17 9 18 8 19 7 20 6 21 5 22
REMARK SMILES IDX 4 23 3 24 2 25 1 26
REMARK H PARENT
REMARK Flexibility Score: inf
ROOT
ATOM      1  C   UNL     1     -17.376  43.007  -5.931  1.00  0.00     0.000 C 
ENDROOT
BRANCH   1   2
ATOM      2  C   UNL     1     -15.935  43.178  -6.459  1.00  0.00     0.000 C 
BRANCH   2   3
ATOM      3  C   UNL     1     -15.715  44.426  -7.339  1.00  0.00     0.000 C 
BRANCH   3   4
ATOM      4  C   UNL     1     -14.341  44.520  -8.033  1.00  0.00     0.000 C 
BRANCH   4   5
ATOM      5  C   UNL     1     -13.897  45.959  -8.370  1.00  0.00     0.000 C 
BRANCH   5   6
ATOM      6  C   UNL     1     -14.160  46.928  -7.203  1.00  0.00     0.000 C 
BRANCH   6   7
ATOM      7  C   UNL     1     -14.893  48.207  -7.639  1.00  0.00     0.000 C 
BRANCH   7   8
ATOM      8  C   UNL     1     -13.966  49.435  -7.668  1.00  0.00     0.000 C 
BRANCH   8   9
ATOM      9  C   UNL     1     -13.927  50.126  -9.045  1.00  0.00     0.000 C 
BRANCH   9  10
ATOM     10  C   UNL     1     -14.060  49.182 -10.259  1.00  0.00     0.006 C 
BRANCH  10  11
ATOM     11  C   UNL     1     -15.404  49.271 -10.997  1.00  0.00     0.053 C 
BRANCH  11  12
ATOM     12  C   UNL     1     -16.102  47.947 -11.054  1.00  0.00     0.041 C 
ATOM     13  O   UNL     1     -15.433  46.880 -11.088  1.00  0.00    -0.550 OA
ATOM     14  O   UNL     1     -17.489  47.891 -11.109  1.00  0.00    -0.550 OA
ENDBRANCH  11  12
ENDBRANCH  10  11
ENDBRANCH   9  10
ENDBRANCH   8   9
ENDBRANCH   7   8
ENDBRANCH   6   7
ENDBRANCH   5   6
ENDBRANCH   4   5
ENDBRANCH   3   4
ENDBRANCH   2   3
ENDBRANCH   1   2
BRANCH   1  15
ATOM     15  C   UNL     1     -17.569  41.786  -5.017  1.00  0.00     0.000 C 
BRANCH  15  16
ATOM     16  C   UNL     1     -18.117  42.157  -3.627  1.00  0.00     0.000 C 
BRANCH  16  17
ATOM     17  C   UNL     1     -17.973  43.660  -3.310  1.00  0.00     0.000 C 
BRANCH  17  18
ATOM     18  C   UNL     1     -19.175  44.510  -3.757  1.00  0.00    -0.000 C 
BRANCH  18  19
ATOM     19  C   UNL     1     -19.720  44.102  -5.136  1.00  0.00    -0.000 C 
BRANCH  19  20
ATOM     20  C   UNL     1     -19.822  45.295  -6.100  1.00  0.00    -0.000 C 
BRANCH  20  21
ATOM     21  C   UNL     1     -19.280  44.970  -7.503  1.00  0.00    -0.000 C 
BRANCH  21  22
ATOM     22  C   UNL     1     -20.411  44.835  -8.545  1.00  0.00    -0.000 C 
BRANCH  22  23
ATOM     23  C   UNL     1     -19.983  44.093  -9.825  1.00  0.00    -0.000 C 
BRANCH  23  24
ATOM     24  C   UNL     1     -19.137  44.929 -10.799  1.00  0.00    -0.000 C 
BRANCH  24  25
ATOM     25  C   UNL     1     -17.787  44.276 -11.124  1.00  0.00    -0.003 C 
ATOM     26  C   UNL     1     -17.370  43.305 -10.022  1.00  0.00     0.004 C 
ENDBRANCH  24  25
ENDBRANCH  23  24
ENDBRANCH  22  23
ENDBRANCH  21  22
ENDBRANCH  20  21
ENDBRANCH  19  20
ENDBRANCH  18  19
ENDBRANCH  17  18
ENDBRANCH  16  17
ENDBRANCH  15  16
ENDBRANCH   1  15
TORSDOF 22
ENDMDL
MODEL 9
REMARK VINA RESULT:    -1.173      4.443      6.945
REMARK INTER + INTRA:          -4.717
REMARK INTER:                  -2.837
REMARK INTRA:                  -1.879
REMARK UNBOUND:                -2.035
REMARK SMILES CCCCCCCCCCCCCCCCCCCCCCCC(=O)[O-]
REMARK SMILES IDX 13 1 14 2 15 3 16 4 17 5 18 6 19 7 20 8 21 9 22 10 23 11
REMARK SMILES IDX 24 12 25 13 26 14 12 15 11 16 10 17 9 18 8 19 7 20 6 21 5 22
REMARK SMILES IDX 4 23 3 24 2 25 1 26
REMARK H PARENT
REMARK Flexibility Score: inf
ROOT
ATOM      1  C   UNL     1     -16.465  44.144  -6.011  1.00  0.00     0.000 C 
ENDROOT
BRANCH   1   2
ATOM      2  C   UNL     1     -15.843  43.745  -7.367  1.00  0.00     0.000 C 
BRANCH   2   3
ATOM      3  C   UNL     1     -15.034  44.861  -8.057  1.00  0.00     0.000 C 
BRANCH   3   4
ATOM      4  C   UNL     1     -14.597  44.570  -9.508  1.00  0.00     0.000 C 
BRANCH   4   5
ATOM      5  C   UNL     1     -14.530  45.818 -10.413  1.00  0.00     0.000 C 
BRANCH   5   6
ATOM      6  C   UNL     1     -15.437  46.950  -9.897  1.00  0.00     0.000 C 
BRANCH   6   7
ATOM      7  C   UNL     1     -16.761  47.058 -10.670  1.00  0.00     0.000 C 
BRANCH   7   8
ATOM      8  C   UNL     1     -17.294  45.686 -11.118  1.00  0.00     0.000 C 
BRANCH   8   9
ATOM      9  C   UNL     1     -18.742  45.426 -10.661  1.00  0.00     0.000 C 
BRANCH   9  10
ATOM     10  C   UNL     1     -18.942  44.164  -9.795  1.00  0.00     0.006 C 
BRANCH  10  11
ATOM     11  C   UNL     1     -19.265  42.887 -10.585  1.00  0.00     0.053 C 
BRANCH  11  12
ATOM     12  C   UNL     1     -18.079  41.978 -10.690  1.00  0.00     0.041 C 
ATOM     13  O   UNL     1     -16.949  42.443 -10.996  1.00  0.00    -0.550 OA
ATOM     14  O   UNL     1     -18.229  40.611 -10.487  1.00  0.00    -0.550 OA
ENDBRANCH  11  12
ENDBRANCH  10  11
ENDBRANCH   9  10
ENDBRANCH   8   9
ENDBRANCH   7   8
ENDBRANCH   6   7
ENDBRANCH   5   6
ENDBRANCH   4   5
ENDBRANCH   3   4
ENDBRANCH   2   3
ENDBRANCH   1   2
BRANCH   1  15
ATOM     15  C   UNL     1     -15.700  43.612  -4.788  1.00  0.00     0.000 C 
BRANCH  15  16
ATOM     16  C   UNL     1     -16.584  43.486  -3.534  1.00  0.00     0.000 C 
BRANCH  16  17
ATOM     17  C   UNL     1     -18.091  43.469  -3.865  1.00  0.00     0.000 C 
BRANCH  17  18
ATOM     18  C   UNL     1     -18.686  42.057  -3.992  1.00  0.00    -0.000 C 
BRANCH  18  19
ATOM     19  C   UNL     1     -18.577  41.483  -5.414  1.00  0.00    -0.000 C 
BRANCH  19  20
ATOM     20  C   UNL     1     -17.658  40.252  -5.478  1.00  0.00    -0.000 C 
BRANCH  20  21
ATOM     21  C   UNL     1     -18.420  38.962  -5.825  1.00  0.00    -0.000 C 
BRANCH  21  22
ATOM     22  C   UNL     1     -17.624  38.060  -6.792  1.00  0.00    -0.000 C 
BRANCH  22  23
ATOM     23  C   UNL     1     -17.672  36.566  -6.421  1.00  0.00    -0.000 C 
BRANCH  23  24
ATOM     24  C   UNL     1     -19.069  36.045  -6.041  1.00  0.00    -0.000 C 
BRANCH  24  25
ATOM     25  C   UNL     1     -19.762  35.312  -7.197  1.00  0.00    -0.003 C 
ATOM     26  C   UNL     1     -20.229  36.295  -8.267  1.00  0.00     0.004 C 
ENDBRANCH  24  25
ENDBRANCH  23  24
ENDBRANCH  22  23
ENDBRANCH  21  22
ENDBRANCH  20  21
ENDBRANCH  19  20
ENDBRANCH  18  19
ENDBRANCH  17  18
ENDBRANCH  16  17
ENDBRANCH  15  16
ENDBRANCH   1  15
TORSDOF 22
ENDMDL
