MODEL 1
REMARK VINA RESULT:    -4.058      0.000      0.000
REMARK INTER + INTRA:          -6.236
REMARK INTER:                  -6.194
REMARK INTRA:                  -0.043
REMARK UNBOUND:                -0.043
REMARK SMILES CC1=CCC[C@@H](C)C(=O)C[C@H](C(C)C)C(=O)C1
REMARK SMILES IDX 8 1 9 2 6 3 7 4 5 5 4 6 3 7 2 8 1 9 10 11 11 12 15 13 16 14
REMARK SMILES IDX 17 15 12 17 13 18 14 19
REMARK H PARENT
REMARK Flexibility Score: 70.00
ROOT
ATOM      1  C   UNL     1      12.155 -12.174 -43.595  1.00  0.00     0.136 C 
ATOM      2  O   UNL     1      13.253 -11.872 -43.146  1.00  0.00    -0.299 OA
ENDROOT
BRANCH   1   3
ATOM      3  C   UNL     1      12.013 -13.538 -44.262  1.00  0.00     0.053 C 
ATOM      4  C   UNL     1      12.555 -14.729 -43.454  1.00  0.00     0.016 C 
BRANCH   3   5
ATOM      5  C   UNL     1      12.529 -13.545 -45.730  1.00  0.00     0.015 C 
BRANCH   5   6
ATOM      6  C   UNL     1      11.454 -13.527 -46.834  1.00  0.00     0.028 C 
BRANCH   6   7
ATOM      7  C   UNL     1      10.084 -13.866 -46.304  1.00  0.00    -0.028 C 
ATOM      8  C   UNL     1       9.066 -12.987 -46.163  1.00  0.00    -0.070 CG0
ATOM      9  C   UNL     1       7.759 -13.498 -45.610  1.00  0.00     0.039 C 
ATOM     10  G   UNL     1       9.176 -11.521 -46.553  1.00  0.00     0.000 G0
ENDBRANCH   6   7
ENDBRANCH   5   6
ENDBRANCH   3   5
ENDBRANCH   1   3
BRANCH   1  11
ATOM     11  C   UNL     1      11.044 -11.145 -43.489  1.00  0.00     0.087 C 
BRANCH  11  12
ATOM     12  C   UNL     1      10.803 -10.347 -44.797  1.00  0.00     0.066 C 
BRANCH  12  13
ATOM     13  C   UNL     1       9.413 -10.591 -45.368  1.00  0.00     0.140 C 
ATOM     14  O   UNL     1       8.458  -9.989 -44.899  1.00  0.00    -0.299 OA
BRANCH  13  15
ATOM     15  C   UNL     1       9.170 -11.516 -46.542  1.00  0.00     0.106 CG0
ATOM     16  G   UNL     1       9.042 -12.981 -46.155  1.00  0.00     0.000 G0
ENDBRANCH  13  15
ENDBRANCH  12  13
BRANCH  12  17
ATOM     17  C   UNL     1      11.092  -8.818 -44.670  1.00  0.00    -0.006 C 
ATOM     18  C   UNL     1      10.396  -8.135 -43.480  1.00  0.00     0.008 C 
ATOM     19  C   UNL     1      12.600  -8.525 -44.633  1.00  0.00     0.008 C 
ENDBRANCH  12  17
ENDBRANCH  11  12
ENDBRANCH   1  11
TORSDOF 1
ENDMDL
MODEL 2
REMARK VINA RESULT:    -3.732      1.762      3.814
REMARK INTER + INTRA:          -5.738
REMARK INTER:                  -5.927
REMARK INTRA:                   0.190
REMARK UNBOUND:                -0.043
REMARK SMILES CC1=CCC[C@@H](C)C(=O)C[C@H](C(C)C)C(=O)C1
REMARK SMILES IDX 8 1 9 2 6 3 7 4 5 5 4 6 3 7 2 8 1 9 10 11 11 12 15 13 16 14
REMARK SMILES IDX 17 15 12 17 13 18 14 19
REMARK H PARENT
REMARK Flexibility Score: 70.00
ROOT
ATOM      1  C   UNL     1       8.776 -11.738 -45.890  1.00  0.00     0.136 C 
ATOM      2  O   UNL     1       7.658 -11.274 -45.705  1.00  0.00    -0.299 OA
ENDROOT
BRANCH   1   3
ATOM      3  C   UNL     1       8.887 -13.235 -46.156  1.00  0.00     0.053 C 
ATOM      4  C   UNL     1       8.282 -13.716 -47.486  1.00  0.00     0.016 C 
BRANCH   3   5
ATOM      5  C   UNL     1       8.410 -14.097 -44.952  1.00  0.00     0.015 C 
BRANCH   5   6
ATOM      6  C   UNL     1       9.356 -14.160 -43.737  1.00  0.00     0.028 C 
BRANCH   6   7
ATOM      7  C   UNL     1      10.778 -14.463 -44.136  1.00  0.00    -0.028 C 
ATOM      8  C   UNL     1      11.845 -13.674 -43.869  1.00  0.00    -0.070 CG0
ATOM      9  C   UNL     1      13.200 -14.128 -44.348  1.00  0.00     0.039 C 
ATOM     10  G   UNL     1      11.737 -12.368 -43.097  1.00  0.00     0.000 G0
ENDBRANCH   6   7
ENDBRANCH   5   6
ENDBRANCH   3   5
ENDBRANCH   1   3
BRANCH   1  11
ATOM     11  C   UNL     1       9.957 -10.789 -45.789  1.00  0.00     0.087 C 
BRANCH  11  12
ATOM     12  C   UNL     1      10.374 -10.460 -44.331  1.00  0.00     0.066 C 
BRANCH  12  13
ATOM     13  C   UNL     1      11.693 -11.119 -43.953  1.00  0.00     0.140 C 
ATOM     14  O   UNL     1      12.744 -10.603 -44.306  1.00  0.00    -0.299 OA
BRANCH  13  15
ATOM     15  C   UNL     1      11.760 -12.367 -43.099  1.00  0.00     0.106 CG0
ATOM     16  G   UNL     1      11.842 -13.657 -43.901  1.00  0.00     0.000 G0
ENDBRANCH  13  15
ENDBRANCH  12  13
BRANCH  12  17
ATOM     17  C   UNL     1      10.400  -8.933 -44.008  1.00  0.00    -0.006 C 
ATOM     18  C   UNL     1      10.743  -8.598 -42.546  1.00  0.00     0.008 C 
ATOM     19  C   UNL     1      11.336  -8.166 -44.954  1.00  0.00     0.008 C 
ENDBRANCH  12  17
ENDBRANCH  11  12
ENDBRANCH   1  11
TORSDOF 1
ENDMDL
MODEL 3
REMARK VINA RESULT:    -3.692      2.347      3.449
REMARK INTER + INTRA:          -5.677
REMARK INTER:                  -5.353
REMARK INTRA:                  -0.324
REMARK UNBOUND:                -0.043
REMARK SMILES CC1=CCC[C@@H](C)C(=O)C[C@H](C(C)C)C(=O)C1
REMARK SMILES IDX 8 1 9 2 6 3 7 4 5 5 4 6 3 7 2 8 1 9 10 11 11 12 15 13 16 14
REMARK SMILES IDX 17 15 12 17 13 18 14 19
REMARK H PARENT
REMARK Flexibility Score: 70.00
ROOT
ATOM      1  C   UNL     1      13.827 -11.529 -43.906  1.00  0.00     0.136 C 
ATOM      2  O   UNL     1      14.031 -10.525 -44.574  1.00  0.00    -0.299 OA
ENDROOT
BRANCH   1   3
ATOM      3  C   UNL     1      14.994 -12.487 -43.690  1.00  0.00     0.053 C 
ATOM      4  C   UNL     1      16.180 -11.914 -42.895  1.00  0.00     0.016 C 
BRANCH   3   5
ATOM      5  C   UNL     1      15.452 -13.182 -45.003  1.00  0.00     0.015 C 
BRANCH   5   6
ATOM      6  C   UNL     1      14.357 -13.899 -45.817  1.00  0.00     0.028 C 
BRANCH   6   7
ATOM      7  C   UNL     1      13.764 -15.068 -45.072  1.00  0.00    -0.028 C 
ATOM      8  C   UNL     1      12.440 -15.297 -44.913  1.00  0.00    -0.070 CG0
ATOM      9  C   UNL     1      12.020 -16.515 -44.131  1.00  0.00     0.039 C 
ATOM     10  G   UNL     1      11.367 -14.394 -45.501  1.00  0.00     0.000 G0
ENDBRANCH   6   7
ENDBRANCH   5   6
ENDBRANCH   3   5
ENDBRANCH   1   3
BRANCH   1  11
ATOM     11  C   UNL     1      12.417 -11.757 -43.391  1.00  0.00     0.087 C 
BRANCH  11  12
ATOM     12  C   UNL     1      11.362 -11.940 -44.515  1.00  0.00     0.066 C 
BRANCH  12  13
ATOM     13  C   UNL     1      10.807 -13.358 -44.551  1.00  0.00     0.140 C 
ATOM     14  O   UNL     1       9.871 -13.653 -43.823  1.00  0.00    -0.299 OA
BRANCH  13  15
ATOM     15  C   UNL     1      11.335 -14.411 -45.502  1.00  0.00     0.106 CG0
ATOM     16  G   UNL     1      12.430 -15.283 -44.909  1.00  0.00     0.000 G0
ENDBRANCH  13  15
ENDBRANCH  12  13
BRANCH  12  17
ATOM     17  C   UNL     1      10.208 -10.890 -44.479  1.00  0.00    -0.006 C 
ATOM     18  C   UNL     1      10.664  -9.453 -44.176  1.00  0.00     0.008 C 
ATOM     19  C   UNL     1       9.377 -10.914 -45.771  1.00  0.00     0.008 C 
ENDBRANCH  12  17
ENDBRANCH  11  12
ENDBRANCH   1  11
TORSDOF 1
ENDMDL
MODEL 4
REMARK VINA RESULT:    -3.595      1.825      4.128
REMARK INTER + INTRA:          -5.529
REMARK INTER:                  -5.674
REMARK INTRA:                   0.146
REMARK UNBOUND:                -0.043
REMARK SMILES CC1=CCC[C@@H](C)C(=O)C[C@H](C(C)C)C(=O)C1
REMARK SMILES IDX 8 1 9 2 6 3 7 4 5 5 4 6 3 7 2 8 1 9 10 11 11 12 15 13 16 14
REMARK SMILES IDX 17 15 12 17 13 18 14 19
REMARK H PARENT
REMARK Flexibility Score: 70.00
ROOT
ATOM      1  C   UNL     1      11.366 -10.859 -43.981  1.00  0.00     0.136 C 
ATOM      2  O   UNL     1      11.249 -10.990 -42.770  1.00  0.00    -0.299 OA
ENDROOT
BRANCH   1   3
ATOM      3  C   UNL     1      10.464  -9.845 -44.675  1.00  0.00     0.053 C 
ATOM      4  C   UNL     1      10.197  -8.550 -43.889  1.00  0.00     0.016 C 
BRANCH   3   5
ATOM      5  C   UNL     1       9.151 -10.480 -45.217  1.00  0.00     0.015 C 
BRANCH   5   6
ATOM      6  C   UNL     1       9.300 -11.798 -46.001  1.00  0.00     0.028 C 
BRANCH   6   7
ATOM      7  C   UNL     1       8.818 -12.989 -45.212  1.00  0.00    -0.028 C 
ATOM      8  C   UNL     1       9.558 -14.087 -44.932  1.00  0.00    -0.070 CG0
ATOM      9  C   UNL     1       8.914 -15.191 -44.133  1.00  0.00     0.039 C 
ATOM     10  G   UNL     1      11.006 -14.244 -45.370  1.00  0.00     0.000 G0
ENDBRANCH   6   7
ENDBRANCH   5   6
ENDBRANCH   3   5
ENDBRANCH   1   3
BRANCH   1  11
ATOM     11  C   UNL     1      12.366 -11.754 -44.692  1.00  0.00     0.087 C 
BRANCH  11  12
ATOM     12  C   UNL     1      12.804 -12.988 -43.859  1.00  0.00     0.066 C 
BRANCH  12  13
ATOM     13  C   UNL     1      12.015 -14.236 -44.230  1.00  0.00     0.140 C 
ATOM     14  O   UNL     1      12.156 -15.253 -43.567  1.00  0.00    -0.299 OA
BRANCH  13  15
ATOM     15  C   UNL     1      11.009 -14.253 -45.361  1.00  0.00     0.106 CG0
ATOM     16  G   UNL     1       9.567 -14.093 -44.906  1.00  0.00     0.000 G0
ENDBRANCH  13  15
ENDBRANCH  12  13
BRANCH  12  17
ATOM     17  C   UNL     1      14.339 -13.267 -43.898  1.00  0.00    -0.006 C 
ATOM     18  C   UNL     1      14.844 -13.864 -45.224  1.00  0.00     0.008 C 
ATOM     19  C   UNL     1      15.155 -12.015 -43.544  1.00  0.00     0.008 C 
ENDBRANCH  12  17
ENDBRANCH  11  12
ENDBRANCH   1  11
TORSDOF 1
ENDMDL
MODEL 5
REMARK VINA RESULT:    -3.494     10.180     13.043
REMARK INTER + INTRA:          -5.375
REMARK INTER:                  -5.168
REMARK INTRA:                  -0.207
REMARK UNBOUND:                -0.043
REMARK SMILES CC1=CCC[C@@H](C)C(=O)C[C@H](C(C)C)C(=O)C1
REMARK SMILES IDX 8 1 9 2 6 3 7 4 5 5 4 6 3 7 2 8 1 9 10 11 11 12 15 13 16 14
REMARK SMILES IDX 17 15 12 17 13 18 14 19
REMARK H PARENT
REMARK Flexibility Score: 70.00
ROOT
ATOM      1  C   UNL     1      11.476 -23.722 -38.388  1.00  0.00     0.136 C 
ATOM      2  O   UNL     1      11.283 -24.885 -38.061  1.00  0.00    -0.299 OA
ENDROOT
BRANCH   1   3
ATOM      3  C   UNL     1      12.817 -23.377 -39.027  1.00  0.00     0.053 C 
ATOM      4  C   UNL     1      13.217 -24.247 -40.231  1.00  0.00     0.016 C 
BRANCH   3   5
ATOM      5  C   UNL     1      13.966 -23.257 -37.986  1.00  0.00     0.015 C 
BRANCH   5   6
ATOM      6  C   UNL     1      14.376 -21.828 -37.580  1.00  0.00     0.028 C 
BRANCH   6   7
ATOM      7  C   UNL     1      13.903 -20.794 -38.570  1.00  0.00    -0.028 C 
ATOM      8  C   UNL     1      12.930 -19.883 -38.338  1.00  0.00    -0.070 CG0
ATOM      9  C   UNL     1      12.579 -18.924 -39.447  1.00  0.00     0.039 C 
ATOM     10  G   UNL     1      12.196 -19.774 -37.011  1.00  0.00     0.000 G0
ENDBRANCH   6   7
ENDBRANCH   5   6
ENDBRANCH   3   5
ENDBRANCH   1   3
BRANCH   1  11
ATOM     11  C   UNL     1      10.381 -22.715 -38.082  1.00  0.00     0.087 C 
BRANCH  11  12
ATOM     12  C   UNL     1      10.608 -21.922 -36.768  1.00  0.00     0.066 C 
BRANCH  12  13
ATOM     13  C   UNL     1      10.803 -20.434 -37.025  1.00  0.00     0.140 C 
ATOM     14  O   UNL     1       9.825 -19.724 -37.205  1.00  0.00    -0.299 OA
BRANCH  13  15
ATOM     15  C   UNL     1      12.170 -19.782 -37.010  1.00  0.00     0.106 CG0
ATOM     16  G   UNL     1      12.914 -19.882 -38.332  1.00  0.00     0.000 G0
ENDBRANCH  13  15
ENDBRANCH  12  13
BRANCH  12  17
ATOM     17  C   UNL     1       9.510 -22.161 -35.685  1.00  0.00    -0.006 C 
ATOM     18  C   UNL     1       8.077 -22.243 -36.238  1.00  0.00     0.008 C 
ATOM     19  C   UNL     1       9.813 -23.401 -34.831  1.00  0.00     0.008 C 
ENDBRANCH  12  17
ENDBRANCH  11  12
ENDBRANCH   1  11
TORSDOF 1
ENDMDL
MODEL 6
REMARK VINA RESULT:    -3.467      2.209      4.989
REMARK INTER + INTRA:          -5.333
REMARK INTER:                  -5.469
REMARK INTRA:                   0.136
REMARK UNBOUND:                -0.043
REMARK SMILES CC1=CCC[C@@H](C)C(=O)C[C@H](C(C)C)C(=O)C1
REMARK SMILES IDX 8 1 9 2 6 3 7 4 5 5 4 6 3 7 2 8 1 9 10 11 11 12 15 13 16 14
REMARK SMILES IDX 17 15 12 17 13 18 14 19
REMARK H PARENT
REMARK Flexibility Score: 70.00
ROOT
ATOM      1  C   UNL     1      10.125 -10.823 -44.638  1.00  0.00     0.136 C 
ATOM      2  O   UNL     1       9.259 -10.190 -45.228  1.00  0.00    -0.299 OA
ENDROOT
BRANCH   1   3
ATOM      3  C   UNL     1      11.256 -10.037 -43.984  1.00  0.00     0.053 C 
ATOM      4  C   UNL     1      11.247  -8.522 -44.248  1.00  0.00     0.016 C 
BRANCH   3   5
ATOM      5  C   UNL     1      12.654 -10.667 -44.246  1.00  0.00     0.015 C 
BRANCH   5   6
ATOM      6  C   UNL     1      13.093 -11.787 -43.284  1.00  0.00     0.028 C 
BRANCH   6   7
ATOM      7  C   UNL     1      14.042 -12.761 -43.935  1.00  0.00    -0.028 C 
ATOM      8  C   UNL     1      13.674 -13.892 -44.580  1.00  0.00    -0.070 CG0
ATOM      9  C   UNL     1      14.759 -14.756 -45.170  1.00  0.00     0.039 C 
ATOM     10  G   UNL     1      12.223 -14.313 -44.750  1.00  0.00     0.000 G0
ENDBRANCH   6   7
ENDBRANCH   5   6
ENDBRANCH   3   5
ENDBRANCH   1   3
BRANCH   1  11
ATOM     11  C   UNL     1      10.020 -12.338 -44.650  1.00  0.00     0.087 C 
BRANCH  11  12
ATOM     12  C   UNL     1      10.297 -12.973 -46.038  1.00  0.00     0.066 C 
BRANCH  12  13
ATOM     13  C   UNL     1      11.567 -13.812 -46.039  1.00  0.00     0.140 C 
ATOM     14  O   UNL     1      12.120 -14.063 -47.100  1.00  0.00    -0.299 OA
BRANCH  13  15
ATOM     15  C   UNL     1      12.213 -14.306 -44.761  1.00  0.00     0.106 CG0
ATOM     16  G   UNL     1      13.670 -13.895 -44.609  1.00  0.00     0.000 G0
ENDBRANCH  13  15
ENDBRANCH  12  13
BRANCH  12  17
ATOM     17  C   UNL     1       9.094 -13.783 -46.616  1.00  0.00    -0.006 C 
ATOM     18  C   UNL     1       8.700 -15.017 -45.787  1.00  0.00     0.008 C 
ATOM     19  C   UNL     1       7.864 -12.891 -46.844  1.00  0.00     0.008 C 
ENDBRANCH  12  17
ENDBRANCH  11  12
ENDBRANCH   1  11
TORSDOF 1
ENDMDL
MODEL 7
REMARK VINA RESULT:    -3.437      1.977      4.400
REMARK INTER + INTRA:          -5.289
REMARK INTER:                  -5.231
REMARK INTRA:                  -0.057
REMARK UNBOUND:                -0.043
REMARK SMILES CC1=CCC[C@@H](C)C(=O)C[C@H](C(C)C)C(=O)C1
REMARK SMILES IDX 8 1 9 2 6 3 7 4 5 5 4 6 3 7 2 8 1 9 10 11 11 12 15 13 16 14
REMARK SMILES IDX 17 15 12 17 13 18 14 19
REMARK H PARENT
REMARK Flexibility Score: 70.00
ROOT
ATOM      1  C   UNL     1      10.619 -11.636 -44.742  1.00  0.00     0.136 C 
ATOM      2  O   UNL     1      10.920 -11.763 -43.562  1.00  0.00    -0.299 OA
ENDROOT
BRANCH   1   3
ATOM      3  C   UNL     1      10.002 -10.312 -45.178  1.00  0.00     0.053 C 
ATOM      4  C   UNL     1      10.454  -9.077 -44.379  1.00  0.00     0.016 C 
BRANCH   3   5
ATOM      5  C   UNL     1       8.454 -10.386 -45.312  1.00  0.00     0.015 C 
BRANCH   5   6
ATOM      6  C   UNL     1       7.907 -11.238 -46.474  1.00  0.00     0.028 C 
BRANCH   6   7
ATOM      7  C   UNL     1       6.955 -12.306 -46.000  1.00  0.00    -0.028 C 
ATOM      8  C   UNL     1       7.181 -13.638 -46.074  1.00  0.00    -0.070 CG0
ATOM      9  C   UNL     1       6.114 -14.569 -45.556  1.00  0.00     0.039 C 
ATOM     10  G   UNL     1       8.463 -14.230 -46.638  1.00  0.00     0.000 G0
ENDBRANCH   6   7
ENDBRANCH   5   6
ENDBRANCH   3   5
ENDBRANCH   1   3
BRANCH   1  11
ATOM     11  C   UNL     1      10.844 -12.827 -45.657  1.00  0.00     0.087 C 
BRANCH  11  12
ATOM     12  C   UNL     1      10.552 -14.195 -44.986  1.00  0.00     0.066 C 
BRANCH  12  13
ATOM     13  C   UNL     1       9.373 -14.909 -45.635  1.00  0.00     0.140 C 
ATOM     14  O   UNL     1       9.103 -16.051 -45.295  1.00  0.00    -0.299 OA
BRANCH  13  15
ATOM     15  C   UNL     1       8.477 -14.233 -46.652  1.00  0.00     0.106 CG0
ATOM     16  G   UNL     1       7.204 -13.650 -46.060  1.00  0.00     0.000 G0
ENDBRANCH  13  15
ENDBRANCH  12  13
BRANCH  12  17
ATOM     17  C   UNL     1      11.793 -15.137 -44.899  1.00  0.00    -0.006 C 
ATOM     18  C   UNL     1      12.829 -14.931 -46.018  1.00  0.00     0.008 C 
ATOM     19  C   UNL     1      12.480 -15.048 -43.528  1.00  0.00     0.008 C 
ENDBRANCH  12  17
ENDBRANCH  11  12
ENDBRANCH   1  11
TORSDOF 1
ENDMDL
MODEL 8
REMARK VINA RESULT:    -3.332      1.894      4.301
REMARK INTER + INTRA:          -5.128
REMARK INTER:                  -4.820
REMARK INTRA:                  -0.308
REMARK UNBOUND:                -0.043
REMARK SMILES CC1=CCC[C@@H](C)C(=O)C[C@H](C(C)C)C(=O)C1
REMARK SMILES IDX 8 1 9 2 6 3 7 4 5 5 4 6 3 7 2 8 1 9 10 11 11 12 15 13 16 14
REMARK SMILES IDX 17 15 12 17 13 18 14 19
REMARK H PARENT
REMARK Flexibility Score: 70.00
ROOT
ATOM      1  C   UNL     1      11.814 -14.322 -46.075  1.00  0.00     0.136 C 
ATOM      2  O   UNL     1      11.705 -15.541 -46.091  1.00  0.00    -0.299 OA
ENDROOT
BRANCH   1   3
ATOM      3  C   UNL     1      13.111 -13.734 -45.530  1.00  0.00     0.053 C 
ATOM      4  C   UNL     1      14.394 -14.183 -46.251  1.00  0.00     0.016 C 
BRANCH   3   5
ATOM      5  C   UNL     1      13.231 -13.871 -43.985  1.00  0.00     0.015 C 
BRANCH   5   6
ATOM      6  C   UNL     1      12.481 -12.820 -43.144  1.00  0.00     0.028 C 
BRANCH   6   7
ATOM      7  C   UNL     1      12.702 -11.418 -43.651  1.00  0.00    -0.028 C 
ATOM      8  C   UNL     1      11.722 -10.564 -44.027  1.00  0.00    -0.070 CG0
ATOM      9  C   UNL     1      12.123  -9.196 -44.516  1.00  0.00     0.039 C 
ATOM     10  G   UNL     1      10.245 -10.917 -43.960  1.00  0.00     0.000 G0
ENDBRANCH   6   7
ENDBRANCH   5   6
ENDBRANCH   3   5
ENDBRANCH   1   3
BRANCH   1  11
ATOM     11  C   UNL     1      10.629 -13.503 -46.554  1.00  0.00     0.087 C 
BRANCH  11  12
ATOM     12  C   UNL     1       9.675 -13.056 -45.415  1.00  0.00     0.066 C 
BRANCH  12  13
ATOM     13  C   UNL     1       9.685 -11.545 -45.222  1.00  0.00     0.140 C 
ATOM     14  O   UNL     1       9.199 -10.828 -46.084  1.00  0.00    -0.299 OA
BRANCH  13  15
ATOM     15  C   UNL     1      10.225 -10.892 -43.968  1.00  0.00     0.106 CG0
ATOM     16  G   UNL     1      11.712 -10.577 -44.028  1.00  0.00     0.000 G0
ENDBRANCH  13  15
ENDBRANCH  12  13
BRANCH  12  17
ATOM     17  C   UNL     1       8.216 -13.589 -45.562  1.00  0.00    -0.006 C 
ATOM     18  C   UNL     1       7.788 -13.881 -47.012  1.00  0.00     0.008 C 
ATOM     19  C   UNL     1       7.971 -14.826 -44.685  1.00  0.00     0.008 C 
ENDBRANCH  12  17
ENDBRANCH  11  12
ENDBRANCH   1  11
TORSDOF 1
ENDMDL
MODEL 9
REMARK VINA RESULT:    -3.269     11.452     13.564
REMARK INTER + INTRA:          -5.032
REMARK INTER:                  -5.063
REMARK INTRA:                   0.031
REMARK UNBOUND:                -0.043
REMARK SMILES CC1=CCC[C@@H](C)C(=O)C[C@H](C(C)C)C(=O)C1
REMARK SMILES IDX 8 1 9 2 6 3 7 4 5 5 4 6 3 7 2 8 1 9 10 11 11 12 15 13 16 14
REMARK SMILES IDX 17 15 12 17 13 18 14 19
REMARK H PARENT
REMARK Flexibility Score: 70.00
ROOT
ATOM      1  C   UNL     1       9.447 -20.206 -37.884  1.00  0.00     0.136 C 
ATOM      2  O   UNL     1       9.210 -19.028 -38.118  1.00  0.00    -0.299 OA
ENDROOT
BRANCH   1   3
ATOM      3  C   UNL     1       8.785 -20.833 -36.662  1.00  0.00     0.053 C 
ATOM      4  C   UNL     1       7.496 -20.145 -36.182  1.00  0.00     0.016 C 
BRANCH   3   5
ATOM      5  C   UNL     1       9.785 -21.078 -35.496  1.00  0.00     0.015 C 
BRANCH   5   6
ATOM      6  C   UNL     1       9.801 -22.496 -34.893  1.00  0.00     0.028 C 
BRANCH   6   7
ATOM      7  C   UNL     1       9.081 -23.495 -35.763  1.00  0.00    -0.028 C 
ATOM      8  C   UNL     1       9.655 -24.222 -36.750  1.00  0.00    -0.070 CG0
ATOM      9  C   UNL     1       8.783 -25.174 -37.528  1.00  0.00     0.039 C 
ATOM     10  G   UNL     1      11.134 -24.132 -37.092  1.00  0.00     0.000 G0
ENDBRANCH   6   7
ENDBRANCH   5   6
ENDBRANCH   3   5
ENDBRANCH   1   3
BRANCH   1  11
ATOM     11  C   UNL     1      10.418 -20.924 -38.804  1.00  0.00     0.087 C 
BRANCH  11  12
ATOM     12  C   UNL     1      11.544 -21.685 -38.055  1.00  0.00     0.066 C 
BRANCH  12  13
ATOM     13  C   UNL     1      11.441 -23.192 -38.249  1.00  0.00     0.140 C 
ATOM     14  O   UNL     1      11.665 -23.671 -39.351  1.00  0.00    -0.299 OA
BRANCH  13  15
ATOM     15  C   UNL     1      11.125 -24.136 -37.108  1.00  0.00     0.106 CG0
ATOM     16  G   UNL     1       9.647 -24.209 -36.761  1.00  0.00     0.000 G0
ENDBRANCH  13  15
ENDBRANCH  12  13
BRANCH  12  17
ATOM     17  C   UNL     1      12.982 -21.178 -38.386  1.00  0.00    -0.006 C 
ATOM     18  C   UNL     1      13.205 -19.678 -38.120  1.00  0.00     0.008 C 
ATOM     19  C   UNL     1      14.058 -22.003 -37.662  1.00  0.00     0.008 C 
ENDBRANCH  12  17
ENDBRANCH  11  12
ENDBRANCH   1  11
TORSDOF 1
ENDMDL
