MODEL 1
REMARK VINA RESULT:    -3.138      0.000      0.000
REMARK INTER + INTRA:          -5.710
REMARK INTER:                  -4.790
REMARK INTRA:                  -0.920
REMARK UNBOUND:                -0.920
REMARK SMILES OC[C@@H]1O[C@](CO)(O[C@@H]2O[C@H](CO)[C@H](O)[C@H](O)[C@@H]2O)[C@H](O)[C@@H]1O
REMARK SMILES IDX 8 1 9 2 11 3 14 4 10 5 16 6 18 7 12 8 13 9 15 11 17 13 19 15
REMARK SMILES IDX 5 17 20 18 4 19 22 20 3 21 6 22 7 23 21 25 23 27 2 29 1 30
REMARK H PARENT 13 10 15 12 17 14 19 16 7 24 21 26 23 28 1 31
REMARK Flexibility Score: inf
ROOT
ATOM      1  O   UNL     1      18.525  -7.041   5.233  1.00  0.00    -0.313 OA
ENDROOT
BRANCH   1   2
ATOM      2  C   UNL     1      19.295  -7.235   4.050  1.00  0.00     0.285 C 
ATOM      3  C   UNL     1      20.942  -8.765   4.909  1.00  0.00     0.178 C 
ATOM      4  C   UNL     1      22.050  -7.675   4.875  1.00  0.00     0.177 C 
ATOM      5  O   UNL     1      19.854  -8.540   4.016  1.00  0.00    -0.341 OA
ATOM      6  C   UNL     1      21.489  -6.244   4.908  1.00  0.00     0.179 C 
ATOM      7  C   UNL     1      20.350  -6.126   3.875  1.00  0.00     0.202 C 
BRANCH   3   8
ATOM      8  C   UNL     1      20.480  -9.227   6.308  1.00  0.00     0.191 C 
BRANCH   8   9
ATOM      9  O   UNL     1      20.159  -8.147   7.138  1.00  0.00    -0.394 OA
ATOM     10  H   UNL     1      21.009  -7.868   7.568  1.00  0.00     0.210 HD
ENDBRANCH   8   9
ENDBRANCH   3   8
BRANCH   4  11
ATOM     11  O   UNL     1      22.966  -7.874   5.924  1.00  0.00    -0.387 OA
ATOM     12  H   UNL     1      22.515  -7.580   6.758  1.00  0.00     0.211 HD
ENDBRANCH   4  11
BRANCH   6  13
ATOM     13  O   UNL     1      21.137  -5.871   6.226  1.00  0.00    -0.387 OA
ATOM     14  H   UNL     1      20.390  -6.443   6.554  1.00  0.00     0.211 HD
ENDBRANCH   6  13
BRANCH   7  15
ATOM     15  O   UNL     1      19.739  -4.865   3.944  1.00  0.00    -0.385 OA
ATOM     16  H   UNL     1      20.425  -4.195   3.682  1.00  0.00     0.211 HD
ENDBRANCH   7  15
ENDBRANCH   1   2
BRANCH   1  17
ATOM     17  C   UNL     1      17.114  -7.160   5.023  1.00  0.00     0.224 C 
ATOM     18  C   UNL     1      16.369  -6.842   6.339  1.00  0.00     0.208 C 
ATOM     19  O   UNL     1      16.772  -8.485   4.631  1.00  0.00    -0.337 OA
ATOM     20  C   UNL     1      15.207  -7.805   6.301  1.00  0.00     0.180 C 
ATOM     21  C   UNL     1      15.748  -8.971   5.477  1.00  0.00     0.179 C 
BRANCH  17  22
ATOM     22  C   UNL     1      16.647  -6.172   3.925  1.00  0.00     0.225 C 
BRANCH  22  23
ATOM     23  O   UNL     1      15.246  -6.128   3.875  1.00  0.00    -0.391 OA
ATOM     24  H   UNL     1      14.993  -6.399   2.954  1.00  0.00     0.210 HD
ENDBRANCH  22  23
ENDBRANCH  17  22
BRANCH  18  25
ATOM     25  O   UNL     1      17.177  -7.106   7.461  1.00  0.00    -0.385 OA
ATOM     26  H   UNL     1      17.500  -6.223   7.793  1.00  0.00     0.211 HD
ENDBRANCH  18  25
BRANCH  20  27
ATOM     27  O   UNL     1      14.782  -8.192   7.586  1.00  0.00    -0.387 OA
ATOM     28  H   UNL     1      14.082  -8.886   7.448  1.00  0.00     0.211 HD
ENDBRANCH  20  27
BRANCH  21  29
ATOM     29  C   UNL     1      16.302 -10.125   6.329  1.00  0.00     0.191 C 
BRANCH  29  30
ATOM     30  O   UNL     1      17.605  -9.824   6.744  1.00  0.00    -0.394 OA
ATOM     31  H   UNL     1      17.725  -8.849   6.592  1.00  0.00     0.210 HD
ENDBRANCH  29  30
ENDBRANCH  21  29
ENDBRANCH   1  17
TORSDOF 13
ENDMDL
MODEL 2
REMARK VINA RESULT:    -2.397      1.319      5.557
REMARK INTER + INTRA:          -4.579
REMARK INTER:                  -4.195
REMARK INTRA:                  -0.384
REMARK UNBOUND:                -0.920
REMARK SMILES OC[C@@H]1O[C@](CO)(O[C@@H]2O[C@H](CO)[C@H](O)[C@H](O)[C@@H]2O)[C@H](O)[C@@H]1O
REMARK SMILES IDX 8 1 9 2 11 3 14 4 10 5 16 6 18 7 12 8 13 9 15 11 17 13 19 15
REMARK SMILES IDX 5 17 20 18 4 19 22 20 3 21 6 22 7 23 21 25 23 27 2 29 1 30
REMARK H PARENT 13 10 15 12 17 14 19 16 7 24 21 26 23 28 1 31
REMARK Flexibility Score: inf
ROOT
ATOM      1  O   UNL     1      18.375  -7.458   5.627  1.00  0.00    -0.313 OA
ENDROOT
BRANCH   1   2
ATOM      2  C   UNL     1      17.996  -8.556   6.452  1.00  0.00     0.285 C 
ATOM      3  C   UNL     1      15.833  -9.020   5.506  1.00  0.00     0.178 C 
ATOM      4  C   UNL     1      15.105  -8.452   6.755  1.00  0.00     0.177 C 
ATOM      5  O   UNL     1      17.167  -9.464   5.740  1.00  0.00    -0.341 OA
ATOM      6  C   UNL     1      15.967  -7.465   7.558  1.00  0.00     0.179 C 
ATOM      7  C   UNL     1      17.366  -8.079   7.773  1.00  0.00     0.202 C 
BRANCH   3   8
ATOM      8  C   UNL     1      15.696  -8.201   4.203  1.00  0.00     0.191 C 
BRANCH   8   9
ATOM      9  O   UNL     1      15.800  -6.826   4.435  1.00  0.00    -0.394 OA
ATOM     10  H   UNL     1      14.883  -6.511   4.645  1.00  0.00     0.210 HD
ENDBRANCH   8   9
ENDBRANCH   3   8
BRANCH   4  11
ATOM     11  O   UNL     1      13.885  -7.857   6.384  1.00  0.00    -0.387 OA
ATOM     12  H   UNL     1      13.486  -8.435   5.683  1.00  0.00     0.211 HD
ENDBRANCH   4  11
BRANCH   6  13
ATOM     13  O   UNL     1      15.966  -6.187   6.954  1.00  0.00    -0.387 OA
ATOM     14  H   UNL     1      16.304  -5.505   7.597  1.00  0.00     0.211 HD
ENDBRANCH   6  13
BRANCH   7  15
ATOM     15  O   UNL     1      18.220  -7.169   8.413  1.00  0.00    -0.385 OA
ATOM     16  H   UNL     1      19.128  -7.305   8.033  1.00  0.00     0.211 HD
ENDBRANCH   7  15
ENDBRANCH   1   2
BRANCH   1  17
ATOM     17  C   UNL     1      19.454  -7.757   4.736  1.00  0.00     0.224 C 
ATOM     18  C   UNL     1      20.733  -8.043   5.554  1.00  0.00     0.208 C 
ATOM     19  O   UNL     1      19.718  -6.655   3.875  1.00  0.00    -0.337 OA
ATOM     20  C   UNL     1      21.818  -7.447   4.690  1.00  0.00     0.180 C 
ATOM     21  C   UNL     1      21.092  -6.329   3.944  1.00  0.00     0.179 C 
BRANCH  17  22
ATOM     22  C   UNL     1      19.114  -9.000   3.875  1.00  0.00     0.225 C 
BRANCH  22  23
ATOM     23  O   UNL     1      19.930 -10.081   4.240  1.00  0.00    -0.391 OA
ATOM     24  H   UNL     1      19.437 -10.575   4.946  1.00  0.00     0.210 HD
ENDBRANCH  22  23
ENDBRANCH  17  22
BRANCH  18  25
ATOM     25  O   UNL     1      20.699  -7.393   6.802  1.00  0.00    -0.385 OA
ATOM     26  H   UNL     1      20.746  -8.108   7.496  1.00  0.00     0.211 HD
ENDBRANCH  18  25
BRANCH  20  27
ATOM     27  O   UNL     1      22.915  -6.982   5.440  1.00  0.00    -0.387 OA
ATOM     28  H   UNL     1      22.782  -7.324   6.365  1.00  0.00     0.211 HD
ENDBRANCH  20  27
BRANCH  21  29
ATOM     29  C   UNL     1      21.252  -4.946   4.596  1.00  0.00     0.191 C 
BRANCH  29  30
ATOM     30  O   UNL     1      20.866  -5.010   5.941  1.00  0.00    -0.394 OA
ATOM     31  H   UNL     1      20.109  -5.652   5.981  1.00  0.00     0.210 HD
ENDBRANCH  29  30
ENDBRANCH  21  29
ENDBRANCH   1  17
TORSDOF 13
ENDMDL
MODEL 3
REMARK VINA RESULT:    -2.200      1.670      2.690
REMARK INTER + INTRA:          -4.278
REMARK INTER:                  -2.897
REMARK INTRA:                  -1.382
REMARK UNBOUND:                -0.920
REMARK SMILES OC[C@@H]1O[C@](CO)(O[C@@H]2O[C@H](CO)[C@H](O)[C@H](O)[C@@H]2O)[C@H](O)[C@@H]1O
REMARK SMILES IDX 8 1 9 2 11 3 14 4 10 5 16 6 18 7 12 8 13 9 15 11 17 13 19 15
REMARK SMILES IDX 5 17 20 18 4 19 22 20 3 21 6 22 7 23 21 25 23 27 2 29 1 30
REMARK H PARENT 13 10 15 12 17 14 19 16 7 24 21 26 23 28 1 31
REMARK Flexibility Score: inf
ROOT
ATOM      1  O   UNL     1      18.176  -7.844   6.386  1.00  0.00    -0.313 OA
ENDROOT
BRANCH   1   2
ATOM      2  C   UNL     1      18.784  -6.783   5.655  1.00  0.00     0.285 C 
ATOM      3  C   UNL     1      19.778  -8.061   3.875  1.00  0.00     0.178 C 
ATOM      4  C   UNL     1      21.208  -7.844   4.446  1.00  0.00     0.177 C 
ATOM      5  O   UNL     1      18.822  -7.079   4.266  1.00  0.00    -0.341 OA
ATOM      6  C   UNL     1      21.214  -7.518   5.948  1.00  0.00     0.179 C 
ATOM      7  C   UNL     1      20.167  -6.421   6.229  1.00  0.00     0.202 C 
BRANCH   3   8
ATOM      8  C   UNL     1      19.222  -9.500   3.953  1.00  0.00     0.191 C 
BRANCH   8   9
ATOM      9  O   UNL     1      19.546 -10.122   5.164  1.00  0.00    -0.394 OA
ATOM     10  H   UNL     1      18.923  -9.750   5.840  1.00  0.00     0.210 HD
ENDBRANCH   8   9
ENDBRANCH   3   8
BRANCH   4  11
ATOM     11  O   UNL     1      22.018  -8.962   4.177  1.00  0.00    -0.387 OA
ATOM     12  H   UNL     1      22.916  -8.614   3.938  1.00  0.00     0.211 HD
ENDBRANCH   4  11
BRANCH   6  13
ATOM     13  O   UNL     1      21.065  -8.694   6.719  1.00  0.00    -0.387 OA
ATOM     14  H   UNL     1      20.930  -9.480   6.121  1.00  0.00     0.211 HD
ENDBRANCH   6  13
BRANCH   7  15
ATOM     15  O   UNL     1      20.066  -6.166   7.605  1.00  0.00    -0.385 OA
ATOM     16  H   UNL     1      20.447  -5.261   7.762  1.00  0.00     0.211 HD
ENDBRANCH   7  15
ENDBRANCH   1   2
BRANCH   1  17
ATOM     17  C   UNL     1      16.801  -7.607   6.702  1.00  0.00     0.224 C 
ATOM     18  C   UNL     1      16.088  -8.956   6.943  1.00  0.00     0.208 C 
ATOM     19  O   UNL     1      16.142  -6.946   5.628  1.00  0.00    -0.337 OA
ATOM     20  C   UNL     1      14.715  -8.712   6.364  1.00  0.00     0.180 C 
ATOM     21  C   UNL     1      14.976  -7.666   5.282  1.00  0.00     0.179 C 
BRANCH  17  22
ATOM     22  C   UNL     1      16.683  -6.736   7.979  1.00  0.00     0.225 C 
BRANCH  22  23
ATOM     23  O   UNL     1      17.695  -7.072   8.890  1.00  0.00    -0.391 OA
ATOM     24  H   UNL     1      17.836  -8.050   8.799  1.00  0.00     0.210 HD
ENDBRANCH  22  23
ENDBRANCH  17  22
BRANCH  18  25
ATOM     25  O   UNL     1      16.725 -10.003   6.251  1.00  0.00    -0.385 OA
ATOM     26  H   UNL     1      16.800  -9.711   5.301  1.00  0.00     0.211 HD
ENDBRANCH  18  25
BRANCH  20  27
ATOM     27  O   UNL     1      14.124  -9.886   5.860  1.00  0.00    -0.387 OA
ATOM     28  H   UNL     1      13.626  -9.616   5.042  1.00  0.00     0.211 HD
ENDBRANCH  20  27
BRANCH  21  29
ATOM     29  C   UNL     1      15.148  -8.262   3.875  1.00  0.00     0.191 C 
BRANCH  29  30
ATOM     30  O   UNL     1      16.069  -9.317   3.917  1.00  0.00    -0.394 OA
ATOM     31  H   UNL     1      15.688 -10.038   3.350  1.00  0.00     0.210 HD
ENDBRANCH  29  30
ENDBRANCH  21  29
ENDBRANCH   1  17
TORSDOF 13
ENDMDL
MODEL 4
REMARK VINA RESULT:    -2.057      1.562      2.442
REMARK INTER + INTRA:          -4.059
REMARK INTER:                  -3.499
REMARK INTRA:                  -0.560
REMARK UNBOUND:                -0.920
REMARK SMILES OC[C@@H]1O[C@](CO)(O[C@@H]2O[C@H](CO)[C@H](O)[C@H](O)[C@@H]2O)[C@H](O)[C@@H]1O
REMARK SMILES IDX 8 1 9 2 11 3 14 4 10 5 16 6 18 7 12 8 13 9 15 11 17 13 19 15
REMARK SMILES IDX 5 17 20 18 4 19 22 20 3 21 6 22 7 23 21 25 23 27 2 29 1 30
REMARK H PARENT 13 10 15 12 17 14 19 16 7 24 21 26 23 28 1 31
REMARK Flexibility Score: inf
ROOT
ATOM      1  O   UNL     1      17.737  -7.962   6.054  1.00  0.00    -0.313 OA
ENDROOT
BRANCH   1   2
ATOM      2  C   UNL     1      17.831  -8.313   4.677  1.00  0.00     0.285 C 
ATOM      3  C   UNL     1      19.761  -9.748   4.777  1.00  0.00     0.178 C 
ATOM      4  C   UNL     1      20.653  -8.687   4.073  1.00  0.00     0.177 C 
ATOM      5  O   UNL     1      18.365  -9.621   4.522  1.00  0.00    -0.341 OA
ATOM      6  C   UNL     1      20.112  -7.256   4.214  1.00  0.00     0.179 C 
ATOM      7  C   UNL     1      18.607  -7.251   3.875  1.00  0.00     0.202 C 
BRANCH   3   8
ATOM      8  C   UNL     1      20.073 -10.025   6.264  1.00  0.00     0.191 C 
BRANCH   8   9
ATOM      9  O   UNL     1      20.340  -8.848   6.972  1.00  0.00    -0.394 OA
ATOM     10  H   UNL     1      20.059  -8.101   6.382  1.00  0.00     0.210 HD
ENDBRANCH   8   9
ENDBRANCH   3   8
BRANCH   4  11
ATOM     11  O   UNL     1      21.975  -8.767   4.546  1.00  0.00    -0.387 OA
ATOM     12  H   UNL     1      22.195  -9.732   4.622  1.00  0.00     0.211 HD
ENDBRANCH   4  11
BRANCH   6  13
ATOM     13  O   UNL     1      20.438  -6.716   5.480  1.00  0.00    -0.387 OA
ATOM     14  H   UNL     1      21.407  -6.488   5.514  1.00  0.00     0.211 HD
ENDBRANCH   6  13
BRANCH   7  15
ATOM     15  O   UNL     1      18.048  -5.983   4.091  1.00  0.00    -0.385 OA
ATOM     16  H   UNL     1      18.798  -5.330   4.087  1.00  0.00     0.211 HD
ENDBRANCH   7  15
ENDBRANCH   1   2
BRANCH   1  17
ATOM     17  C   UNL     1      16.399  -7.696   6.486  1.00  0.00     0.224 C 
ATOM     18  C   UNL     1      15.709  -9.023   6.875  1.00  0.00     0.208 C 
ATOM     19  O   UNL     1      15.642  -7.094   5.443  1.00  0.00    -0.337 OA
ATOM     20  C   UNL     1      14.287  -8.802   6.416  1.00  0.00     0.180 C 
ATOM     21  C   UNL     1      14.446  -7.823   5.254  1.00  0.00     0.179 C 
BRANCH  17  22
ATOM     22  C   UNL     1      16.407  -6.751   7.715  1.00  0.00     0.225 C 
BRANCH  22  23
ATOM     23  O   UNL     1      17.593  -6.913   8.445  1.00  0.00    -0.391 OA
ATOM     24  H   UNL     1      18.286  -6.386   7.968  1.00  0.00     0.210 HD
ENDBRANCH  22  23
ENDBRANCH  17  22
BRANCH  18  25
ATOM     25  O   UNL     1      16.274 -10.113   6.188  1.00  0.00    -0.385 OA
ATOM     26  H   UNL     1      17.153  -9.802   5.834  1.00  0.00     0.211 HD
ENDBRANCH  18  25
BRANCH  20  27
ATOM     27  O   UNL     1      13.647  -9.999   6.041  1.00  0.00    -0.387 OA
ATOM     28  H   UNL     1      12.704  -9.914   6.345  1.00  0.00     0.211 HD
ENDBRANCH  20  27
BRANCH  21  29
ATOM     29  C   UNL     1      14.479  -8.502   3.875  1.00  0.00     0.191 C 
BRANCH  29  30
ATOM     30  O   UNL     1      15.184  -9.709   3.959  1.00  0.00    -0.394 OA
ATOM     31  H   UNL     1      14.810 -10.297   3.251  1.00  0.00     0.210 HD
ENDBRANCH  29  30
ENDBRANCH  21  29
ENDBRANCH   1  17
TORSDOF 13
ENDMDL
MODEL 5
REMARK VINA RESULT:    -1.613      1.582      5.752
REMARK INTER + INTRA:          -3.381
REMARK INTER:                  -2.668
REMARK INTRA:                  -0.713
REMARK UNBOUND:                -0.920
REMARK SMILES OC[C@@H]1O[C@](CO)(O[C@@H]2O[C@H](CO)[C@H](O)[C@H](O)[C@@H]2O)[C@H](O)[C@@H]1O
REMARK SMILES IDX 8 1 9 2 11 3 14 4 10 5 16 6 18 7 12 8 13 9 15 11 17 13 19 15
REMARK SMILES IDX 5 17 20 18 4 19 22 20 3 21 6 22 7 23 21 25 23 27 2 29 1 30
REMARK H PARENT 13 10 15 12 17 14 19 16 7 24 21 26 23 28 1 31
REMARK Flexibility Score: inf
ROOT
ATOM      1  O   UNL     1      17.054  -8.638   6.394  1.00  0.00    -0.313 OA
ENDROOT
BRANCH   1   2
ATOM      2  C   UNL     1      16.347  -9.630   5.654  1.00  0.00     0.285 C 
ATOM      3  C   UNL     1      15.498  -8.250   3.875  1.00  0.00     0.178 C 
ATOM      4  C   UNL     1      14.050  -8.325   4.436  1.00  0.00     0.177 C 
ATOM      5  O   UNL     1      16.348  -9.325   4.267  1.00  0.00    -0.341 OA
ATOM      6  C   UNL     1      14.001  -8.655   5.936  1.00  0.00     0.179 C 
ATOM      7  C   UNL     1      14.931  -9.853   6.218  1.00  0.00     0.202 C 
BRANCH   3   8
ATOM      8  C   UNL     1      16.195  -6.875   3.963  1.00  0.00     0.191 C 
BRANCH   8   9
ATOM      9  O   UNL     1      16.074  -6.306   5.236  1.00  0.00    -0.394 OA
ATOM     10  H   UNL     1      15.257  -5.744   5.211  1.00  0.00     0.210 HD
ENDBRANCH   8   9
ENDBRANCH   3   8
BRANCH   4  11
ATOM     11  O   UNL     1      13.358  -7.130   4.168  1.00  0.00    -0.387 OA
ATOM     12  H   UNL     1      13.390  -6.994   3.185  1.00  0.00     0.211 HD
ENDBRANCH   4  11
BRANCH   6  13
ATOM     13  O   UNL     1      14.262  -7.504   6.714  1.00  0.00    -0.387 OA
ATOM     14  H   UNL     1      13.407  -7.116   7.047  1.00  0.00     0.211 HD
ENDBRANCH   6  13
BRANCH   7  15
ATOM     15  O   UNL     1      14.998 -10.124   7.593  1.00  0.00    -0.385 OA
ATOM     16  H   UNL     1      15.422 -11.017   7.693  1.00  0.00     0.211 HD
ENDBRANCH   7  15
ENDBRANCH   1   2
BRANCH   1  17
ATOM     17  C   UNL     1      18.468  -8.850   6.429  1.00  0.00     0.224 C 
ATOM     18  C   UNL     1      19.157  -7.627   7.074  1.00  0.00     0.208 C 
ATOM     19  O   UNL     1      18.989  -9.007   5.114  1.00  0.00    -0.337 OA
ATOM     20  C   UNL     1      20.439  -7.515   6.285  1.00  0.00     0.180 C 
ATOM     21  C   UNL     1      20.064  -8.108   4.928  1.00  0.00     0.179 C 
BRANCH  17  22
ATOM     22  C   UNL     1      18.804 -10.116   7.259  1.00  0.00     0.225 C 
BRANCH  22  23
ATOM     23  O   UNL     1      19.499  -9.763   8.424  1.00  0.00    -0.391 OA
ATOM     24  H   UNL     1      19.046 -10.236   9.171  1.00  0.00     0.210 HD
ENDBRANCH  22  23
ENDBRANCH  17  22
BRANCH  18  25
ATOM     25  O   UNL     1      18.386  -6.461   6.911  1.00  0.00    -0.385 OA
ATOM     26  H   UNL     1      17.550  -6.596   7.436  1.00  0.00     0.211 HD
ENDBRANCH  18  25
BRANCH  20  27
ATOM     27  O   UNL     1      20.906  -6.190   6.194  1.00  0.00    -0.387 OA
ATOM     28  H   UNL     1      21.666  -6.120   6.832  1.00  0.00     0.211 HD
ENDBRANCH  20  27
BRANCH  21  29
ATOM     29  C   UNL     1      19.667  -7.053   3.882  1.00  0.00     0.191 C 
BRANCH  29  30
ATOM     30  O   UNL     1      20.532  -5.955   3.966  1.00  0.00    -0.394 OA
ATOM     31  H   UNL     1      20.145  -5.351   4.654  1.00  0.00     0.210 HD
ENDBRANCH  29  30
ENDBRANCH  21  29
ENDBRANCH   1  17
TORSDOF 13
ENDMDL
