MODEL 1
REMARK VINA RESULT:    -3.932      0.000      0.000
REMARK INTER + INTRA:          -6.737
REMARK INTER:                  -6.001
REMARK INTRA:                  -0.736
REMARK UNBOUND:                -0.736
REMARK SMILES O=C([O-])CCCCCCCCC(=O)[O-]
REMARK SMILES IDX 7 1 6 2 5 3 4 4 2 5 1 6 3 7 8 8 9 9 10 10 11 11 12 12 13 13
REMARK SMILES IDX 14 14
REMARK H PARENT
REMARK Flexibility Score: inf
ROOT
ATOM      1  C   UNL     1      -4.700 -36.765  -9.357  1.00  0.00     0.000 C 
ENDROOT
BRANCH   1   2
ATOM      2  C   UNL     1      -5.705 -37.920  -9.514  1.00  0.00     0.000 C 
BRANCH   2   3
ATOM      3  C   UNL     1      -5.172 -39.047 -10.413  1.00  0.00     0.006 C 
BRANCH   3   4
ATOM      4  C   UNL     1      -6.294 -39.804 -11.135  1.00  0.00     0.053 C 
BRANCH   4   5
ATOM      5  C   UNL     1      -7.084 -40.620 -10.162  1.00  0.00     0.041 C 
ATOM      6  O   UNL     1      -8.342 -40.641 -10.228  1.00  0.00    -0.550 OA
ATOM      7  O   UNL     1      -6.431 -41.396  -9.213  1.00  0.00    -0.550 OA
ENDBRANCH   4   5
ENDBRANCH   3   4
ENDBRANCH   2   3
ENDBRANCH   1   2
BRANCH   1   8
ATOM      8  C   UNL     1      -5.389 -35.418  -9.086  1.00  0.00     0.000 C 
BRANCH   8   9
ATOM      9  C   UNL     1      -6.145 -34.884 -10.315  1.00  0.00     0.000 C 
BRANCH   9  10
ATOM     10  C   UNL     1      -7.515 -34.290  -9.955  1.00  0.00     0.006 C 
BRANCH  10  11
ATOM     11  C   UNL     1      -8.511 -35.353  -9.476  1.00  0.00     0.053 C 
BRANCH  11  12
ATOM     12  C   UNL     1      -9.173 -36.013 -10.644  1.00  0.00     0.041 C 
ATOM     13  O   UNL     1      -9.952 -35.358 -11.384  1.00  0.00    -0.550 OA
ATOM     14  O   UNL     1      -8.890 -37.339 -10.945  1.00  0.00    -0.550 OA
ENDBRANCH  11  12
ENDBRANCH  10  11
ENDBRANCH   9  10
ENDBRANCH   8   9
ENDBRANCH   1   8
TORSDOF 9
ENDMDL
MODEL 2
REMARK VINA RESULT:    -3.808      1.357      5.339
REMARK INTER + INTRA:          -6.548
REMARK INTER:                  -6.161
REMARK INTRA:                  -0.387
REMARK UNBOUND:                -0.736
REMARK SMILES O=C([O-])CCCCCCCCC(=O)[O-]
REMARK SMILES IDX 7 1 6 2 5 3 4 4 2 5 1 6 3 7 8 8 9 9 10 10 11 11 12 12 13 13
REMARK SMILES IDX 14 14
REMARK H PARENT
REMARK Flexibility Score: inf
ROOT
ATOM      1  C   UNL     1      -4.916 -36.409  -9.757  1.00  0.00     0.000 C 
ENDROOT
BRANCH   1   2
ATOM      2  C   UNL     1      -5.055 -35.388  -8.615  1.00  0.00     0.000 C 
BRANCH   2   3
ATOM      3  C   UNL     1      -6.024 -34.246  -8.958  1.00  0.00     0.006 C 
BRANCH   3   4
ATOM      4  C   UNL     1      -6.793 -34.498 -10.261  1.00  0.00     0.053 C 
BRANCH   4   5
ATOM      5  C   UNL     1      -8.179 -34.978  -9.966  1.00  0.00     0.041 C 
ATOM      6  O   UNL     1      -8.532 -35.201  -8.777  1.00  0.00    -0.550 OA
ATOM      7  O   UNL     1      -9.097 -35.131 -10.997  1.00  0.00    -0.550 OA
ENDBRANCH   4   5
ENDBRANCH   3   4
ENDBRANCH   2   3
ENDBRANCH   1   2
BRANCH   1   8
ATOM      8  C   UNL     1      -5.571 -37.759  -9.423  1.00  0.00     0.000 C 
BRANCH   8   9
ATOM      9  C   UNL     1      -5.115 -38.885 -10.366  1.00  0.00     0.000 C 
BRANCH   9  10
ATOM     10  C   UNL     1      -6.047 -40.106 -10.323  1.00  0.00     0.006 C 
BRANCH  10  11
ATOM     11  C   UNL     1      -6.811 -40.218  -8.997  1.00  0.00     0.053 C 
BRANCH  11  12
ATOM     12  C   UNL     1      -7.271 -41.624  -8.775  1.00  0.00     0.041 C 
ATOM     13  O   UNL     1      -6.575 -42.590  -9.185  1.00  0.00    -0.550 OA
ATOM     14  O   UNL     1      -8.443 -41.868  -8.072  1.00  0.00    -0.550 OA
ENDBRANCH  11  12
ENDBRANCH  10  11
ENDBRANCH   9  10
ENDBRANCH   8   9
ENDBRANCH   1   8
TORSDOF 9
ENDMDL
MODEL 3
REMARK VINA RESULT:    -3.779      1.126      4.846
REMARK INTER + INTRA:          -6.503
REMARK INTER:                  -5.948
REMARK INTRA:                  -0.555
REMARK UNBOUND:                -0.736
REMARK SMILES O=C([O-])CCCCCCCCC(=O)[O-]
REMARK SMILES IDX 7 1 6 2 5 3 4 4 2 5 1 6 3 7 8 8 9 9 10 10 11 11 12 12 13 13
REMARK SMILES IDX 14 14
REMARK H PARENT
REMARK Flexibility Score: inf
ROOT
ATOM      1  C   UNL     1      -4.841 -35.570  -9.345  1.00  0.00     0.000 C 
ENDROOT
BRANCH   1   2
ATOM      2  C   UNL     1      -5.776 -35.075  -8.228  1.00  0.00     0.000 C 
BRANCH   2   3
ATOM      3  C   UNL     1      -6.836 -34.086  -8.741  1.00  0.00     0.006 C 
BRANCH   3   4
ATOM      4  C   UNL     1      -7.322 -34.426 -10.156  1.00  0.00     0.053 C 
BRANCH   4   5
ATOM      5  C   UNL     1      -8.638 -35.135 -10.099  1.00  0.00     0.041 C 
ATOM      6  O   UNL     1      -9.386 -35.164 -11.112  1.00  0.00    -0.550 OA
ATOM      7  O   UNL     1      -9.017 -35.807  -8.944  1.00  0.00    -0.550 OA
ENDBRANCH   4   5
ENDBRANCH   3   4
ENDBRANCH   2   3
ENDBRANCH   1   2
BRANCH   1   8
ATOM      8  C   UNL     1      -4.640 -37.094  -9.312  1.00  0.00     0.000 C 
BRANCH   8   9
ATOM      9  C   UNL     1      -5.929 -37.866  -9.645  1.00  0.00     0.000 C 
BRANCH   9  10
ATOM     10  C   UNL     1      -5.649 -39.237 -10.281  1.00  0.00     0.006 C 
BRANCH  10  11
ATOM     11  C   UNL     1      -6.414 -40.373  -9.591  1.00  0.00     0.053 C 
BRANCH  11  12
ATOM     12  C   UNL     1      -7.378 -41.007 -10.543  1.00  0.00     0.041 C 
ATOM     13  O   UNL     1      -8.099 -40.290 -11.285  1.00  0.00    -0.550 OA
ATOM     14  O   UNL     1      -7.444 -42.391 -10.646  1.00  0.00    -0.550 OA
ENDBRANCH  11  12
ENDBRANCH  10  11
ENDBRANCH   9  10
ENDBRANCH   8   9
ENDBRANCH   1   8
TORSDOF 9
ENDMDL
MODEL 4
REMARK VINA RESULT:    -3.775      2.885      5.699
REMARK INTER + INTRA:          -6.498
REMARK INTER:                  -6.153
REMARK INTRA:                  -0.345
REMARK UNBOUND:                -0.736
REMARK SMILES O=C([O-])CCCCCCCCC(=O)[O-]
REMARK SMILES IDX 7 1 6 2 5 3 4 4 2 5 1 6 3 7 8 8 9 9 10 10 11 11 12 12 13 13
REMARK SMILES IDX 14 14
REMARK H PARENT
REMARK Flexibility Score: inf
ROOT
ATOM      1  C   UNL     1      -5.481 -38.884 -10.108  1.00  0.00     0.000 C 
ENDROOT
BRANCH   1   2
ATOM      2  C   UNL     1      -5.893 -37.642  -9.297  1.00  0.00     0.000 C 
BRANCH   2   3
ATOM      3  C   UNL     1      -4.864 -36.505  -9.396  1.00  0.00     0.006 C 
BRANCH   3   4
ATOM      4  C   UNL     1      -5.257 -35.281  -8.560  1.00  0.00     0.053 C 
BRANCH   4   5
ATOM      5  C   UNL     1      -6.167 -34.385  -9.341  1.00  0.00     0.041 C 
ATOM      6  O   UNL     1      -6.768 -33.438  -8.769  1.00  0.00    -0.550 OA
ATOM      7  O   UNL     1      -6.311 -34.566 -10.711  1.00  0.00    -0.550 OA
ENDBRANCH   4   5
ENDBRANCH   3   4
ENDBRANCH   2   3
ENDBRANCH   1   2
BRANCH   1   8
ATOM      8  C   UNL     1      -6.375 -40.100  -9.817  1.00  0.00     0.000 C 
BRANCH   8   9
ATOM      9  C   UNL     1      -7.036 -40.664 -11.086  1.00  0.00     0.000 C 
BRANCH   9  10
ATOM     10  C   UNL     1      -6.476 -40.037 -12.373  1.00  0.00     0.006 C 
BRANCH  10  11
ATOM     11  C   UNL     1      -6.590 -40.974 -13.582  1.00  0.00     0.053 C 
BRANCH  11  12
ATOM     12  C   UNL     1      -6.997 -40.207 -14.801  1.00  0.00     0.041 C 
ATOM     13  O   UNL     1      -6.450 -40.444 -15.910  1.00  0.00    -0.550 OA
ATOM     14  O   UNL     1      -8.015 -39.266 -14.721  1.00  0.00    -0.550 OA
ENDBRANCH  11  12
ENDBRANCH  10  11
ENDBRANCH   9  10
ENDBRANCH   8   9
ENDBRANCH   1   8
TORSDOF 9
ENDMDL
MODEL 5
REMARK VINA RESULT:    -3.714      2.483      3.554
REMARK INTER + INTRA:          -6.404
REMARK INTER:                  -5.539
REMARK INTRA:                  -0.865
REMARK UNBOUND:                -0.736
REMARK SMILES O=C([O-])CCCCCCCCC(=O)[O-]
REMARK SMILES IDX 7 1 6 2 5 3 4 4 2 5 1 6 3 7 8 8 9 9 10 10 11 11 12 12 13 13
REMARK SMILES IDX 14 14
REMARK H PARENT
REMARK Flexibility Score: inf
ROOT
ATOM      1  C   UNL     1      -8.449 -36.436 -10.251  1.00  0.00     0.000 C 
ENDROOT
BRANCH   1   2
ATOM      2  C   UNL     1      -8.302 -36.895  -8.789  1.00  0.00     0.000 C 
BRANCH   2   3
ATOM      3  C   UNL     1      -7.773 -38.333  -8.672  1.00  0.00     0.006 C 
BRANCH   3   4
ATOM      4  C   UNL     1      -7.502 -38.974 -10.040  1.00  0.00     0.053 C 
BRANCH   4   5
ATOM      5  C   UNL     1      -6.299 -39.860  -9.971  1.00  0.00     0.041 C 
ATOM      6  O   UNL     1      -5.209 -39.490 -10.481  1.00  0.00    -0.550 OA
ATOM      7  O   UNL     1      -6.367 -41.074  -9.299  1.00  0.00    -0.550 OA
ENDBRANCH   4   5
ENDBRANCH   3   4
ENDBRANCH   2   3
ENDBRANCH   1   2
BRANCH   1   8
ATOM      8  C   UNL     1      -8.027 -34.973 -10.454  1.00  0.00     0.000 C 
BRANCH   8   9
ATOM      9  C   UNL     1      -7.551 -34.310  -9.150  1.00  0.00     0.000 C 
BRANCH   9  10
ATOM     10  C   UNL     1      -6.043 -34.017  -9.151  1.00  0.00     0.006 C 
BRANCH  10  11
ATOM     11  C   UNL     1      -5.277 -34.866  -8.129  1.00  0.00     0.053 C 
BRANCH  11  12
ATOM     12  C   UNL     1      -4.365 -35.827  -8.825  1.00  0.00     0.041 C 
ATOM     13  O   UNL     1      -4.756 -36.438  -9.853  1.00  0.00    -0.550 OA
ATOM     14  O   UNL     1      -3.067 -36.008  -8.367  1.00  0.00    -0.550 OA
ENDBRANCH  11  12
ENDBRANCH  10  11
ENDBRANCH   9  10
ENDBRANCH   8   9
ENDBRANCH   1   8
TORSDOF 9
ENDMDL
MODEL 6
REMARK VINA RESULT:    -3.675      2.598      4.645
REMARK INTER + INTRA:          -6.345
REMARK INTER:                  -5.427
REMARK INTRA:                  -0.918
REMARK UNBOUND:                -0.736
REMARK SMILES O=C([O-])CCCCCCCCC(=O)[O-]
REMARK SMILES IDX 7 1 6 2 5 3 4 4 2 5 1 6 3 7 8 8 9 9 10 10 11 11 12 12 13 13
REMARK SMILES IDX 14 14
REMARK H PARENT
REMARK Flexibility Score: inf
ROOT
ATOM      1  C   UNL     1      -8.738 -35.455 -10.505  1.00  0.00     0.000 C 
ENDROOT
BRANCH   1   2
ATOM      2  C   UNL     1      -7.587 -34.479 -10.204  1.00  0.00     0.000 C 
BRANCH   2   3
ATOM      3  C   UNL     1      -6.210 -35.162 -10.233  1.00  0.00     0.006 C 
BRANCH   3   4
ATOM      4  C   UNL     1      -5.395 -34.898  -8.961  1.00  0.00     0.053 C 
BRANCH   4   5
ATOM      5  C   UNL     1      -4.262 -35.869  -8.856  1.00  0.00     0.041 C 
ATOM      6  O   UNL     1      -4.368 -37.022  -9.350  1.00  0.00    -0.550 OA
ATOM      7  O   UNL     1      -3.069 -35.484  -8.256  1.00  0.00    -0.550 OA
ENDBRANCH   4   5
ENDBRANCH   3   4
ENDBRANCH   2   3
ENDBRANCH   1   2
BRANCH   1   8
ATOM      8  C   UNL     1      -9.663 -35.664  -9.296  1.00  0.00     0.000 C 
BRANCH   8   9
ATOM      9  C   UNL     1      -9.031 -36.562  -8.218  1.00  0.00     0.000 C 
BRANCH   9  10
ATOM     10  C   UNL     1      -8.817 -38.005  -8.701  1.00  0.00     0.006 C 
BRANCH  10  11
ATOM     11  C   UNL     1      -7.345 -38.432  -8.648  1.00  0.00     0.053 C 
BRANCH  11  12
ATOM     12  C   UNL     1      -6.945 -39.088  -9.932  1.00  0.00     0.041 C 
ATOM     13  O   UNL     1      -7.266 -38.571 -11.033  1.00  0.00    -0.550 OA
ATOM     14  O   UNL     1      -6.173 -40.242  -9.910  1.00  0.00    -0.550 OA
ENDBRANCH  11  12
ENDBRANCH  10  11
ENDBRANCH   9  10
ENDBRANCH   8   9
ENDBRANCH   1   8
TORSDOF 9
ENDMDL
MODEL 7
REMARK VINA RESULT:    -3.661      2.348      4.445
REMARK INTER + INTRA:          -6.323
REMARK INTER:                  -5.554
REMARK INTRA:                  -0.769
REMARK UNBOUND:                -0.736
REMARK SMILES O=C([O-])CCCCCCCCC(=O)[O-]
REMARK SMILES IDX 7 1 6 2 5 3 4 4 2 5 1 6 3 7 8 8 9 9 10 10 11 11 12 12 13 13
REMARK SMILES IDX 14 14
REMARK H PARENT
REMARK Flexibility Score: inf
ROOT
ATOM      1  C   UNL     1      -5.585 -38.535 -10.106  1.00  0.00     0.000 C 
ENDROOT
BRANCH   1   2
ATOM      2  C   UNL     1      -5.734 -37.389  -9.089  1.00  0.00     0.000 C 
BRANCH   2   3
ATOM      3  C   UNL     1      -4.673 -36.293  -9.277  1.00  0.00     0.006 C 
BRANCH   3   4
ATOM      4  C   UNL     1      -5.039 -34.989  -8.556  1.00  0.00     0.053 C 
BRANCH   4   5
ATOM      5  C   UNL     1      -6.117 -34.267  -9.299  1.00  0.00     0.041 C 
ATOM      6  O   UNL     1      -6.853 -33.438  -8.701  1.00  0.00    -0.550 OA
ATOM      7  O   UNL     1      -6.279 -34.472 -10.663  1.00  0.00    -0.550 OA
ENDBRANCH   4   5
ENDBRANCH   3   4
ENDBRANCH   2   3
ENDBRANCH   1   2
BRANCH   1   8
ATOM      8  C   UNL     1      -6.861 -39.384 -10.226  1.00  0.00     0.000 C 
BRANCH   8   9
ATOM      9  C   UNL     1      -7.832 -39.159  -9.054  1.00  0.00     0.000 C 
BRANCH   9  10
ATOM     10  C   UNL     1      -9.201 -38.632  -9.513  1.00  0.00     0.006 C 
BRANCH  10  11
ATOM     11  C   UNL     1      -9.092 -37.662 -10.696  1.00  0.00     0.053 C 
BRANCH  11  12
ATOM     12  C   UNL     1      -9.294 -36.252 -10.237  1.00  0.00     0.041 C 
ATOM     13  O   UNL     1      -9.217 -35.968  -9.013  1.00  0.00    -0.550 OA
ATOM     14  O   UNL     1      -9.518 -35.244 -11.166  1.00  0.00    -0.550 OA
ENDBRANCH  11  12
ENDBRANCH  10  11
ENDBRANCH   9  10
ENDBRANCH   8   9
ENDBRANCH   1   8
TORSDOF 9
ENDMDL
MODEL 8
REMARK VINA RESULT:    -3.612      7.984     10.044
REMARK INTER + INTRA:          -6.249
REMARK INTER:                  -5.628
REMARK INTRA:                  -0.620
REMARK UNBOUND:                -0.736
REMARK SMILES O=C([O-])CCCCCCCCC(=O)[O-]
REMARK SMILES IDX 7 1 6 2 5 3 4 4 2 5 1 6 3 7 8 8 9 9 10 10 11 11 12 12 13 13
REMARK SMILES IDX 14 14
REMARK H PARENT
REMARK Flexibility Score: inf
ROOT
ATOM      1  C   UNL     1      -7.761 -40.435 -16.618  1.00  0.00     0.000 C 
ENDROOT
BRANCH   1   2
ATOM      2  C   UNL     1      -7.915 -39.017 -16.042  1.00  0.00     0.000 C 
BRANCH   2   3
ATOM      3  C   UNL     1      -7.979 -37.939 -17.137  1.00  0.00     0.006 C 
BRANCH   3   4
ATOM      4  C   UNL     1      -9.280 -37.127 -17.088  1.00  0.00     0.053 C 
BRANCH   4   5
ATOM      5  C   UNL     1      -9.359 -36.198 -18.257  1.00  0.00     0.041 C 
ATOM      6  O   UNL     1      -9.581 -34.971 -18.078  1.00  0.00    -0.550 OA
ATOM      7  O   UNL     1      -9.138 -36.676 -19.542  1.00  0.00    -0.550 OA
ENDBRANCH   4   5
ENDBRANCH   3   4
ENDBRANCH   2   3
ENDBRANCH   1   2
BRANCH   1   8
ATOM      8  C   UNL     1      -6.355 -41.012 -16.395  1.00  0.00     0.000 C 
BRANCH   8   9
ATOM      9  C   UNL     1      -5.638 -41.347 -17.714  1.00  0.00     0.000 C 
BRANCH   9  10
ATOM     10  C   UNL     1      -6.379 -40.802 -18.945  1.00  0.00     0.006 C 
BRANCH  10  11
ATOM     11  C   UNL     1      -5.647 -39.623 -19.599  1.00  0.00     0.053 C 
BRANCH  11  12
ATOM     12  C   UNL     1      -4.918 -40.076 -20.825  1.00  0.00     0.041 C 
ATOM     13  O   UNL     1      -5.264 -39.654 -21.959  1.00  0.00    -0.550 OA
ATOM     14  O   UNL     1      -3.825 -40.925 -20.709  1.00  0.00    -0.550 OA
ENDBRANCH  11  12
ENDBRANCH  10  11
ENDBRANCH   9  10
ENDBRANCH   8   9
ENDBRANCH   1   8
TORSDOF 9
ENDMDL
MODEL 9
REMARK VINA RESULT:    -3.604      7.771      9.331
REMARK INTER + INTRA:          -6.236
REMARK INTER:                  -5.622
REMARK INTRA:                  -0.613
REMARK UNBOUND:                -0.736
REMARK SMILES O=C([O-])CCCCCCCCC(=O)[O-]
REMARK SMILES IDX 7 1 6 2 5 3 4 4 2 5 1 6 3 7 8 8 9 9 10 10 11 11 12 12 13 13
REMARK SMILES IDX 14 14
REMARK H PARENT
REMARK Flexibility Score: inf
ROOT
ATOM      1  C   UNL     1      -7.551 -39.969 -17.080  1.00  0.00     0.000 C 
ENDROOT
BRANCH   1   2
ATOM      2  C   UNL     1      -7.291 -39.826 -15.570  1.00  0.00     0.000 C 
BRANCH   2   3
ATOM      3  C   UNL     1      -6.435 -40.972 -15.008  1.00  0.00     0.006 C 
BRANCH   3   4
ATOM      4  C   UNL     1      -5.645 -41.706 -16.099  1.00  0.00     0.053 C 
BRANCH   4   5
ATOM      5  C   UNL     1      -4.605 -42.589 -15.485  1.00  0.00     0.041 C 
ATOM      6  O   UNL     1      -4.870 -43.255 -14.449  1.00  0.00    -0.550 OA
ATOM      7  O   UNL     1      -3.358 -42.716 -16.084  1.00  0.00    -0.550 OA
ENDBRANCH   4   5
ENDBRANCH   3   4
ENDBRANCH   2   3
ENDBRANCH   1   2
BRANCH   1   8
ATOM      8  C   UNL     1      -7.537 -38.616 -17.810  1.00  0.00     0.000 C 
BRANCH   8   9
ATOM      9  C   UNL     1      -6.653 -38.633 -19.068  1.00  0.00     0.000 C 
BRANCH   9  10
ATOM     10  C   UNL     1      -5.924 -39.972 -19.261  1.00  0.00     0.006 C 
BRANCH  10  11
ATOM     11  C   UNL     1      -5.120 -40.023 -20.566  1.00  0.00     0.053 C 
BRANCH  11  12
ATOM     12  C   UNL     1      -4.207 -41.208 -20.572  1.00  0.00     0.041 C 
ATOM     13  O   UNL     1      -3.421 -41.397 -21.537  1.00  0.00    -0.550 OA
ATOM     14  O   UNL     1      -4.188 -42.076 -19.487  1.00  0.00    -0.550 OA
ENDBRANCH  11  12
ENDBRANCH  10  11
ENDBRANCH   9  10
ENDBRANCH   8   9
ENDBRANCH   1   8
TORSDOF 9
ENDMDL
