MODEL 1
REMARK VINA RESULT:     9.692      0.000      0.000
REMARK INTER + INTRA:          13.836
REMARK INTER:                  13.091
REMARK INTRA:                   0.746
REMARK UNBOUND:                 0.746
REMARK SMILES O=c1c(-c2ccc(O)cc2)coc2c([C@H]3O[C@H](CO)[C@H](O)[C@@H](O)[C@H]3O)c(O)ccc12
REMARK SMILES IDX 3 1 11 2 12 3 13 4 30 5 2 6 1 7 29 8 28 9 26 10 14 11 4 12
REMARK SMILES IDX 5 13 6 14 7 15 10 16 9 17 8 18 15 20 24 21 16 22 22 23 17 24
REMARK SMILES IDX 20 25 25 26 23 28 18 30 19 31 21 33 27 35
REMARK H PARENT 8 19 25 27 23 29 19 32 21 34 27 36
REMARK Flexibility Score: inf
ROOT
ATOM      1  C   UNL     1      16.736  40.458 -12.542  1.00  0.00     0.065 A 
ATOM      2  C   UNL     1      15.828  40.961 -11.601  1.00  0.00     0.208 A 
ATOM      3  O   UNL     1      14.637  40.398 -11.433  1.00  0.00    -0.463 OA
ATOM      4  C   UNL     1      14.229  39.338 -12.128  1.00  0.00     0.147 A 
ATOM      5  C   UNL     1      15.087  38.760 -13.091  1.00  0.00     0.066 A 
ATOM      6  C   UNL     1      16.356  39.331 -13.292  1.00  0.00     0.200 A 
ATOM      7  O   UNL     1      17.159  38.823 -14.125  1.00  0.00    -0.288 OA
ATOM      8  C   UNL     1      14.662  37.631 -13.808  1.00  0.00     0.020 A 
ATOM      9  C   UNL     1      13.407  37.077 -13.566  1.00  0.00     0.047 A 
ATOM     10  C   UNL     1      12.549  37.640 -12.613  1.00  0.00     0.125 A 
ATOM     11  C   UNL     1      12.942  38.796 -11.896  1.00  0.00     0.069 A 
ENDROOT
BRANCH   1  12
ATOM     12  C   UNL     1      18.058  41.112 -12.718  1.00  0.00    -0.011 A 
ATOM     13  C   UNL     1      18.718  41.052 -13.958  1.00  0.00     0.013 A 
ATOM     14  C   UNL     1      19.967  41.659 -14.125  1.00  0.00     0.047 A 
ATOM     15  C   UNL     1      20.573  42.327 -13.057  1.00  0.00     0.115 A 
ATOM     16  C   UNL     1      18.676  41.780 -11.647  1.00  0.00     0.013 A 
ATOM     17  C   UNL     1      19.925  42.386 -11.816  1.00  0.00     0.047 A 
BRANCH  15  18
ATOM     18  O   UNL     1      21.817  42.928 -13.238  1.00  0.00    -0.508 OA
ATOM     19  H   UNL     1      22.276  42.933 -14.142  1.00  0.00     0.293 HD
ENDBRANCH  15  18
ENDBRANCH   1  12
BRANCH  11  20
ATOM     20  C   UNL     1      12.042  39.414 -10.834  1.00  0.00     0.188 C 
ATOM     21  C   UNL     1      12.863  39.771  -9.567  1.00  0.00     0.179 C 
ATOM     22  O   UNL     1      10.929  38.565 -10.576  1.00  0.00    -0.362 OA
ATOM     23  C   UNL     1      11.979  40.456  -8.490  1.00  0.00     0.177 C 
ATOM     24  C   UNL     1      10.229  38.826  -9.360  1.00  0.00     0.176 C 
ATOM     25  C   UNL     1      10.471  40.233  -8.746  1.00  0.00     0.177 C 
BRANCH  21  26
ATOM     26  O   UNL     1      13.541  38.645  -9.060  1.00  0.00    -0.387 OA
ATOM     27  H   UNL     1      13.873  38.868  -8.154  1.00  0.00     0.211 HD
ENDBRANCH  21  26
BRANCH  23  28
ATOM     28  O   UNL     1      12.327  39.990  -7.209  1.00  0.00    -0.387 OA
ATOM     29  H   UNL     1      12.110  39.021  -7.184  1.00  0.00     0.211 HD
ENDBRANCH  23  28
BRANCH  24  30
ATOM     30  C   UNL     1       8.735  38.560  -9.601  1.00  0.00     0.191 C 
BRANCH  30  31
ATOM     31  O   UNL     1       7.975  39.724  -9.417  1.00  0.00    -0.394 OA
ATOM     32  H   UNL     1       7.177  39.639 -10.002  1.00  0.00     0.210 HD
ENDBRANCH  30  31
ENDBRANCH  24  30
BRANCH  25  33
ATOM     33  O   UNL     1       9.988  41.237  -9.606  1.00  0.00    -0.388 OA
ATOM     34  H   UNL     1      10.185  40.952 -10.536  1.00  0.00     0.211 HD
ENDBRANCH  25  33
ENDBRANCH  11  20
BRANCH  10  35
ATOM     35  O   UNL     1      11.310  37.045 -12.378  1.00  0.00    -0.507 OA
ATOM     36  H   UNL     1      10.773  36.618 -13.124  1.00  0.00     0.293 HD
ENDBRANCH  10  35
TORSDOF 9
ENDMDL
MODEL 2
REMARK VINA RESULT:    10.773      1.647      8.145
REMARK INTER + INTRA:          15.297
REMARK INTER:                  14.904
REMARK INTRA:                   0.393
REMARK UNBOUND:                 0.746
REMARK SMILES O=c1c(-c2ccc(O)cc2)coc2c([C@H]3O[C@H](CO)[C@H](O)[C@@H](O)[C@H]3O)c(O)ccc12
REMARK SMILES IDX 3 1 11 2 12 3 13 4 30 5 2 6 1 7 29 8 28 9 26 10 14 11 4 12
REMARK SMILES IDX 5 13 6 14 7 15 10 16 9 17 8 18 15 20 24 21 16 22 22 23 17 24
REMARK SMILES IDX 20 25 25 26 23 28 18 30 19 31 21 33 27 35
REMARK H PARENT 8 19 25 27 23 29 19 32 21 34 27 36
REMARK Flexibility Score: inf
ROOT
ATOM      1  C   UNL     1      12.595  39.130 -10.892  1.00  0.00     0.065 A 
ATOM      2  C   UNL     1      13.553  40.153 -10.872  1.00  0.00     0.208 A 
ATOM      3  O   UNL     1      14.727  40.001 -11.473  1.00  0.00    -0.463 OA
ATOM      4  C   UNL     1      15.073  38.892 -12.125  1.00  0.00     0.147 A 
ATOM      5  C   UNL     1      14.161  37.814 -12.204  1.00  0.00     0.066 A 
ATOM      6  C   UNL     1      12.908  37.944 -11.580  1.00  0.00     0.200 A 
ATOM      7  O   UNL     1      12.059  37.011 -11.654  1.00  0.00    -0.288 OA
ATOM      8  C   UNL     1      14.520  36.654 -12.908  1.00  0.00     0.020 A 
ATOM      9  C   UNL     1      15.762  36.570 -13.534  1.00  0.00     0.047 A 
ATOM     10  C   UNL     1      16.672  37.632 -13.464  1.00  0.00     0.125 A 
ATOM     11  C   UNL     1      16.345  38.801 -12.736  1.00  0.00     0.069 A 
ENDROOT
BRANCH   1  12
ATOM     12  C   UNL     1      11.293  39.321 -10.205  1.00  0.00    -0.011 A 
ATOM     13  C   UNL     1      10.103  38.868 -10.802  1.00  0.00     0.013 A 
ATOM     14  C   UNL     1       8.874  39.055 -10.160  1.00  0.00     0.047 A 
ATOM     15  C   UNL     1       8.817  39.698  -8.921  1.00  0.00     0.115 A 
ATOM     16  C   UNL     1      11.228  39.973  -8.961  1.00  0.00     0.013 A 
ATOM     17  C   UNL     1       9.998  40.158  -8.322  1.00  0.00     0.047 A 
BRANCH  15  18
ATOM     18  O   UNL     1       7.586  39.877  -8.293  1.00  0.00    -0.508 OA
ATOM     19  H   UNL     1       6.929  40.581  -8.608  1.00  0.00     0.293 HD
ENDBRANCH  15  18
ENDBRANCH   1  12
BRANCH  11  20
ATOM     20  C   UNL     1      17.303  39.984 -12.666  1.00  0.00     0.188 C 
ATOM     21  C   UNL     1      16.531  41.319 -12.835  1.00  0.00     0.179 C 
ATOM     22  O   UNL     1      18.365  39.814 -13.598  1.00  0.00    -0.362 OA
ATOM     23  C   UNL     1      17.477  42.543 -12.709  1.00  0.00     0.177 C 
ATOM     24  C   UNL     1      19.104  40.996 -13.906  1.00  0.00     0.176 C 
ATOM     25  C   UNL     1      18.963  42.152 -12.877  1.00  0.00     0.177 C 
BRANCH  21  26
ATOM     26  O   UNL     1      15.795  41.337 -14.036  1.00  0.00    -0.387 OA
ATOM     27  H   UNL     1      15.048  40.691 -13.949  1.00  0.00     0.211 HD
ENDBRANCH  21  26
BRANCH  23  28
ATOM     28  O   UNL     1      17.126  43.526 -13.653  1.00  0.00    -0.387 OA
ATOM     29  H   UNL     1      17.587  43.293 -14.501  1.00  0.00     0.211 HD
ENDBRANCH  23  28
BRANCH  24  30
ATOM     30  C   UNL     1      20.574  40.600 -14.119  1.00  0.00     0.191 C 
BRANCH  30  31
ATOM     31  O   UNL     1      21.425  41.704 -13.966  1.00  0.00    -0.394 OA
ATOM     32  H   UNL     1      21.713  41.713 -13.016  1.00  0.00     0.210 HD
ENDBRANCH  30  31
ENDBRANCH  24  30
BRANCH  25  33
ATOM     33  O   UNL     1      19.491  41.770 -11.630  1.00  0.00    -0.388 OA
ATOM     34  H   UNL     1      20.480  41.833 -11.694  1.00  0.00     0.211 HD
ENDBRANCH  25  33
ENDBRANCH  11  20
BRANCH  10  35
ATOM     35  O   UNL     1      17.895  37.522 -14.124  1.00  0.00    -0.507 OA
ATOM     36  H   UNL     1      18.137  38.123 -14.904  1.00  0.00     0.293 HD
ENDBRANCH  10  35
TORSDOF 9
ENDMDL
