MODEL 1
REMARK VINA RESULT:    -2.501      0.000      0.000
REMARK INTER + INTRA:         -12.157
REMARK INTER:                  -6.303
REMARK INTRA:                  -5.855
REMARK UNBOUND:                -5.855
REMARK SMILES CCCCCCCCCCCCCCCCCCCCCCCCCCCC(=O)[O-]
REMARK SMILES IDX 15 1 16 2 17 3 18 4 19 5 20 6 21 7 22 8 23 9 24 10 25 11
REMARK SMILES IDX 26 12 27 13 28 14 29 15 30 16 14 17 13 18 12 19 11 20 10 21
REMARK SMILES IDX 9 22 8 23 7 24 6 25 5 26 4 27 3 28 2 29 1 30
REMARK H PARENT
REMARK Flexibility Score: inf
ROOT
ATOM      1  C   UNL     1       6.697  10.132   1.744  1.00  0.00     0.000 C 
ENDROOT
BRANCH   1   2
ATOM      2  C   UNL     1       7.779  10.782   2.622  1.00  0.00     0.000 C 
BRANCH   2   3
ATOM      3  C   UNL     1       8.097  12.210   2.153  1.00  0.00     0.000 C 
BRANCH   3   4
ATOM      4  C   UNL     1       6.963  12.836   1.323  1.00  0.00     0.000 C 
BRANCH   4   5
ATOM      5  C   UNL     1       7.413  13.872   0.275  1.00  0.00     0.000 C 
BRANCH   5   6
ATOM      6  C   UNL     1       6.407  14.081  -0.876  1.00  0.00     0.000 C 
BRANCH   6   7
ATOM      7  C   UNL     1       5.041  13.435  -0.594  1.00  0.00     0.000 C 
BRANCH   7   8
ATOM      8  C   UNL     1       4.084  13.640  -1.774  1.00  0.00     0.000 C 
BRANCH   8   9
ATOM      9  C   UNL     1       4.079  12.413  -2.699  1.00  0.00     0.000 C 
BRANCH   9  10
ATOM     10  C   UNL     1       4.657  12.713  -4.091  1.00  0.00     0.000 C 
BRANCH  10  11
ATOM     11  C   UNL     1       5.384  11.532  -4.760  1.00  0.00     0.000 C 
BRANCH  11  12
ATOM     12  C   UNL     1       4.547  10.806  -5.837  1.00  0.00     0.006 C 
BRANCH  12  13
ATOM     13  C   UNL     1       3.528   9.803  -5.267  1.00  0.00     0.053 C 
BRANCH  13  14
ATOM     14  C   UNL     1       2.112  10.211  -5.540  1.00  0.00     0.041 C 
ATOM     15  O   UNL     1       1.558  11.099  -4.838  1.00  0.00    -0.550 OA
ATOM     16  O   UNL     1       1.397   9.599  -6.562  1.00  0.00    -0.550 OA
ENDBRANCH  13  14
ENDBRANCH  12  13
ENDBRANCH  11  12
ENDBRANCH  10  11
ENDBRANCH   9  10
ENDBRANCH   8   9
ENDBRANCH   7   8
ENDBRANCH   6   7
ENDBRANCH   5   6
ENDBRANCH   4   5
ENDBRANCH   3   4
ENDBRANCH   2   3
ENDBRANCH   1   2
BRANCH   1  17
ATOM     17  C   UNL     1       6.734   8.593   1.778  1.00  0.00     0.000 C 
BRANCH  17  18
ATOM     18  C   UNL     1       8.140   7.971   1.866  1.00  0.00     0.000 C 
BRANCH  18  19
ATOM     19  C   UNL     1       8.511   7.141   0.624  1.00  0.00     0.000 C 
BRANCH  19  20
ATOM     20  C   UNL     1       9.611   7.805  -0.221  1.00  0.00     0.000 C 
BRANCH  20  21
ATOM     21  C   UNL     1      10.067   9.191   0.271  1.00  0.00     0.000 C 
BRANCH  21  22
ATOM     22  C   UNL     1      10.543  10.129  -0.859  1.00  0.00    -0.000 C 
BRANCH  22  23
ATOM     23  C   UNL     1       9.540  11.256  -1.152  1.00  0.00    -0.000 C 
BRANCH  23  24
ATOM     24  C   UNL     1       8.528  10.874  -2.244  1.00  0.00    -0.000 C 
BRANCH  24  25
ATOM     25  C   UNL     1       7.124  10.601  -1.676  1.00  0.00    -0.000 C 
BRANCH  25  26
ATOM     26  C   UNL     1       6.624   9.176  -1.976  1.00  0.00    -0.000 C 
BRANCH  26  27
ATOM     27  C   UNL     1       7.366   8.460  -3.122  1.00  0.00    -0.000 C 
BRANCH  27  28
ATOM     28  C   UNL     1       6.465   7.941  -4.262  1.00  0.00    -0.000 C 
BRANCH  28  29
ATOM     29  C   UNL     1       7.101   7.982  -5.663  1.00  0.00    -0.003 C 
ATOM     30  C   UNL     1       8.042   9.170  -5.855  1.00  0.00     0.004 C 
ENDBRANCH  28  29
ENDBRANCH  27  28
ENDBRANCH  26  27
ENDBRANCH  25  26
ENDBRANCH  24  25
ENDBRANCH  23  24
ENDBRANCH  22  23
ENDBRANCH  21  22
ENDBRANCH  20  21
ENDBRANCH  19  20
ENDBRANCH  18  19
ENDBRANCH  17  18
ENDBRANCH   1  17
TORSDOF 26
ENDMDL
MODEL 2
REMARK VINA RESULT:    -2.430      2.951      6.703
REMARK INTER + INTRA:         -11.978
REMARK INTER:                  -7.219
REMARK INTRA:                  -4.760
REMARK UNBOUND:                -5.855
REMARK SMILES CCCCCCCCCCCCCCCCCCCCCCCCCCCC(=O)[O-]
REMARK SMILES IDX 15 1 16 2 17 3 18 4 19 5 20 6 21 7 22 8 23 9 24 10 25 11
REMARK SMILES IDX 26 12 27 13 28 14 29 15 30 16 14 17 13 18 12 19 11 20 10 21
REMARK SMILES IDX 9 22 8 23 7 24 6 25 5 26 4 27 3 28 2 29 1 30
REMARK H PARENT
REMARK Flexibility Score: inf
ROOT
ATOM      1  C   UNL     1       6.128  13.379   0.762  1.00  0.00     0.000 C 
ENDROOT
BRANCH   1   2
ATOM      2  C   UNL     1       7.427  13.931   0.151  1.00  0.00     0.000 C 
BRANCH   2   3
ATOM      3  C   UNL     1       8.353  12.795  -0.311  1.00  0.00     0.000 C 
BRANCH   3   4
ATOM      4  C   UNL     1       8.483  12.711  -1.842  1.00  0.00     0.000 C 
BRANCH   4   5
ATOM      5  C   UNL     1       7.816  11.482  -2.489  1.00  0.00     0.000 C 
BRANCH   5   6
ATOM      6  C   UNL     1       8.106  10.153  -1.761  1.00  0.00     0.000 C 
BRANCH   6   7
ATOM      7  C   UNL     1       6.838   9.319  -1.519  1.00  0.00     0.000 C 
BRANCH   7   8
ATOM      8  C   UNL     1       5.908  10.012  -0.517  1.00  0.00     0.000 C 
BRANCH   8   9
ATOM      9  C   UNL     1       5.963   9.322   0.855  1.00  0.00     0.000 C 
BRANCH   9  10
ATOM     10  C   UNL     1       6.975   9.973   1.811  1.00  0.00     0.000 C 
BRANCH  10  11
ATOM     11  C   UNL     1       7.646   9.005   2.803  1.00  0.00     0.000 C 
BRANCH  11  12
ATOM     12  C   UNL     1       9.098   8.629   2.432  1.00  0.00     0.006 C 
BRANCH  12  13
ATOM     13  C   UNL     1       9.383   7.117   2.468  1.00  0.00     0.053 C 
BRANCH  13  14
ATOM     14  C   UNL     1       9.119   6.455   1.151  1.00  0.00     0.041 C 
ATOM     15  O   UNL     1       8.824   5.231   1.100  1.00  0.00    -0.550 OA
ATOM     16  O   UNL     1       9.212   7.187  -0.026  1.00  0.00    -0.550 OA
ENDBRANCH  13  14
ENDBRANCH  12  13
ENDBRANCH  11  12
ENDBRANCH  10  11
ENDBRANCH   9  10
ENDBRANCH   8   9
ENDBRANCH   7   8
ENDBRANCH   6   7
ENDBRANCH   5   6
ENDBRANCH   4   5
ENDBRANCH   3   4
ENDBRANCH   2   3
ENDBRANCH   1   2
BRANCH   1  17
ATOM     17  C   UNL     1       4.874  13.741  -0.055  1.00  0.00     0.000 C 
BRANCH  17  18
ATOM     18  C   UNL     1       5.118  14.003  -1.553  1.00  0.00     0.000 C 
BRANCH  18  19
ATOM     19  C   UNL     1       3.953  13.537  -2.444  1.00  0.00     0.000 C 
BRANCH  19  20
ATOM     20  C   UNL     1       4.296  12.272  -3.248  1.00  0.00     0.000 C 
BRANCH  20  21
ATOM     21  C   UNL     1       4.522  12.496  -4.755  1.00  0.00     0.000 C 
BRANCH  21  22
ATOM     22  C   UNL     1       3.846  11.437  -5.651  1.00  0.00    -0.000 C 
BRANCH  22  23
ATOM     23  C   UNL     1       2.523  10.921  -5.061  1.00  0.00    -0.000 C 
BRANCH  23  24
ATOM     24  C   UNL     1       1.980   9.697  -5.815  1.00  0.00    -0.000 C 
BRANCH  24  25
ATOM     25  C   UNL     1       3.091   8.709  -6.210  1.00  0.00    -0.000 C 
BRANCH  25  26
ATOM     26  C   UNL     1       3.581   7.855  -5.027  1.00  0.00    -0.000 C 
BRANCH  26  27
ATOM     27  C   UNL     1       5.046   8.103  -4.615  1.00  0.00    -0.000 C 
BRANCH  27  28
ATOM     28  C   UNL     1       5.972   8.588  -5.750  1.00  0.00    -0.000 C 
BRANCH  28  29
ATOM     29  C   UNL     1       7.294   9.223  -5.283  1.00  0.00    -0.003 C 
ATOM     30  C   UNL     1       7.649  10.494  -6.053  1.00  0.00     0.004 C 
ENDBRANCH  28  29
ENDBRANCH  27  28
ENDBRANCH  26  27
ENDBRANCH  25  26
ENDBRANCH  24  25
ENDBRANCH  23  24
ENDBRANCH  22  23
ENDBRANCH  21  22
ENDBRANCH  20  21
ENDBRANCH  19  20
ENDBRANCH  18  19
ENDBRANCH  17  18
ENDBRANCH   1  17
TORSDOF 26
ENDMDL
MODEL 3
REMARK VINA RESULT:    -2.394      6.945     11.868
REMARK INTER + INTRA:         -11.888
REMARK INTER:                  -7.099
REMARK INTRA:                  -4.789
REMARK UNBOUND:                -5.855
REMARK SMILES CCCCCCCCCCCCCCCCCCCCCCCCCCCC(=O)[O-]
REMARK SMILES IDX 15 1 16 2 17 3 18 4 19 5 20 6 21 7 22 8 23 9 24 10 25 11
REMARK SMILES IDX 26 12 27 13 28 14 29 15 30 16 14 17 13 18 12 19 11 20 10 21
REMARK SMILES IDX 9 22 8 23 7 24 6 25 5 26 4 27 3 28 2 29 1 30
REMARK H PARENT
REMARK Flexibility Score: inf
ROOT
ATOM      1  C   UNL     1      -3.066  12.607  -2.044  1.00  0.00     0.000 C 
ENDROOT
BRANCH   1   2
ATOM      2  C   UNL     1      -3.649  11.580  -3.029  1.00  0.00     0.000 C 
BRANCH   2   3
ATOM      3  C   UNL     1      -2.793  11.478  -4.301  1.00  0.00     0.000 C 
BRANCH   3   4
ATOM      4  C   UNL     1      -1.597  12.446  -4.299  1.00  0.00     0.000 C 
BRANCH   4   5
ATOM      5  C   UNL     1      -1.609  13.503  -5.420  1.00  0.00     0.000 C 
BRANCH   5   6
ATOM      6  C   UNL     1      -3.016  13.832  -5.959  1.00  0.00     0.000 C 
BRANCH   6   7
ATOM      7  C   UNL     1      -3.135  13.620  -7.477  1.00  0.00     0.000 C 
BRANCH   7   8
ATOM      8  C   UNL     1      -3.604  12.196  -7.797  1.00  0.00     0.000 C 
BRANCH   8   9
ATOM      9  C   UNL     1      -2.702  11.543  -8.857  1.00  0.00     0.000 C 
BRANCH   9  10
ATOM     10  C   UNL     1      -1.813  10.430  -8.280  1.00  0.00     0.000 C 
BRANCH  10  11
ATOM     11  C   UNL     1      -0.374  10.859  -7.943  1.00  0.00     0.000 C 
BRANCH  11  12
ATOM     12  C   UNL     1       0.168  10.266  -6.622  1.00  0.00     0.006 C 
BRANCH  12  13
ATOM     13  C   UNL     1       1.533   9.569  -6.762  1.00  0.00     0.053 C 
BRANCH  13  14
ATOM     14  C   UNL     1       2.337   9.630  -5.500  1.00  0.00     0.041 C 
ATOM     15  O   UNL     1       2.255  10.632  -4.740  1.00  0.00    -0.550 OA
ATOM     16  O   UNL     1       3.191   8.586  -5.168  1.00  0.00    -0.550 OA
ENDBRANCH  13  14
ENDBRANCH  12  13
ENDBRANCH  11  12
ENDBRANCH  10  11
ENDBRANCH   9  10
ENDBRANCH   8   9
ENDBRANCH   7   8
ENDBRANCH   6   7
ENDBRANCH   5   6
ENDBRANCH   4   5
ENDBRANCH   3   4
ENDBRANCH   2   3
ENDBRANCH   1   2
BRANCH   1  17
ATOM     17  C   UNL     1      -3.795  12.625  -0.687  1.00  0.00     0.000 C 
BRANCH  17  18
ATOM     18  C   UNL     1      -4.581  13.914  -0.381  1.00  0.00     0.000 C 
BRANCH  18  19
ATOM     19  C   UNL     1      -6.100  13.685  -0.287  1.00  0.00     0.000 C 
BRANCH  19  20
ATOM     20  C   UNL     1      -6.873  14.397  -1.410  1.00  0.00     0.000 C 
BRANCH  20  21
ATOM     21  C   UNL     1      -6.014  14.873  -2.597  1.00  0.00     0.000 C 
BRANCH  21  22
ATOM     22  C   UNL     1      -6.113  13.966  -3.842  1.00  0.00    -0.000 C 
BRANCH  22  23
ATOM     23  C   UNL     1      -7.563  13.766  -4.312  1.00  0.00    -0.000 C 
BRANCH  23  24
ATOM     24  C   UNL     1      -7.703  12.606  -5.311  1.00  0.00    -0.000 C 
BRANCH  24  25
ATOM     25  C   UNL     1      -6.361  11.904  -5.588  1.00  0.00    -0.000 C 
BRANCH  25  26
ATOM     26  C   UNL     1      -6.490  10.371  -5.645  1.00  0.00    -0.000 C 
BRANCH  26  27
ATOM     27  C   UNL     1      -5.293   9.647  -6.293  1.00  0.00    -0.000 C 
BRANCH  27  28
ATOM     28  C   UNL     1      -4.779   8.413  -5.522  1.00  0.00    -0.000 C 
BRANCH  28  29
ATOM     29  C   UNL     1      -3.278   8.118  -5.693  1.00  0.00    -0.003 C 
ATOM     30  C   UNL     1      -2.979   7.239  -6.906  1.00  0.00     0.004 C 
ENDBRANCH  28  29
ENDBRANCH  27  28
ENDBRANCH  26  27
ENDBRANCH  25  26
ENDBRANCH  24  25
ENDBRANCH  23  24
ENDBRANCH  22  23
ENDBRANCH  21  22
ENDBRANCH  20  21
ENDBRANCH  19  20
ENDBRANCH  18  19
ENDBRANCH  17  18
ENDBRANCH   1  17
TORSDOF 26
ENDMDL
MODEL 4
REMARK VINA RESULT:    -2.378      3.311      7.064
REMARK INTER + INTRA:         -11.848
REMARK INTER:                  -6.901
REMARK INTRA:                  -4.947
REMARK UNBOUND:                -5.855
REMARK SMILES CCCCCCCCCCCCCCCCCCCCCCCCCCCC(=O)[O-]
REMARK SMILES IDX 15 1 16 2 17 3 18 4 19 5 20 6 21 7 22 8 23 9 24 10 25 11
REMARK SMILES IDX 26 12 27 13 28 14 29 15 30 16 14 17 13 18 12 19 11 20 10 21
REMARK SMILES IDX 9 22 8 23 7 24 6 25 5 26 4 27 3 28 2 29 1 30
REMARK H PARENT
REMARK Flexibility Score: inf
ROOT
ATOM      1  C   UNL     1       8.797  10.752  -1.510  1.00  0.00     0.000 C 
ENDROOT
BRANCH   1   2
ATOM      2  C   UNL     1       7.657  10.188  -2.373  1.00  0.00     0.000 C 
BRANCH   2   3
ATOM      3  C   UNL     1       6.597   9.486  -1.510  1.00  0.00     0.000 C 
BRANCH   3   4
ATOM      4  C   UNL     1       7.172   8.906  -0.206  1.00  0.00     0.000 C 
BRANCH   4   5
ATOM      5  C   UNL     1       6.385   9.259   1.071  1.00  0.00     0.000 C 
BRANCH   5   6
ATOM      6  C   UNL     1       6.747  10.633   1.672  1.00  0.00     0.000 C 
BRANCH   6   7
ATOM      7  C   UNL     1       8.208  10.709   2.144  1.00  0.00     0.000 C 
BRANCH   7   8
ATOM      8  C   UNL     1       8.288  10.772   3.673  1.00  0.00     0.000 C 
BRANCH   8   9
ATOM      9  C   UNL     1       7.793   9.461   4.306  1.00  0.00     0.000 C 
BRANCH   9  10
ATOM     10  C   UNL     1       8.926   8.642   4.945  1.00  0.00     0.000 C 
BRANCH  10  11
ATOM     11  C   UNL     1      10.134   8.380   4.028  1.00  0.00     0.000 C 
BRANCH  11  12
ATOM     12  C   UNL     1      10.088   7.016   3.301  1.00  0.00     0.006 C 
BRANCH  12  13
ATOM     13  C   UNL     1       9.277   7.030   1.994  1.00  0.00     0.053 C 
BRANCH  13  14
ATOM     14  C   UNL     1       9.414   5.752   1.224  1.00  0.00     0.041 C 
ATOM     15  O   UNL     1       9.679   4.673   1.820  1.00  0.00    -0.550 OA
ATOM     16  O   UNL     1       9.262   5.752  -0.157  1.00  0.00    -0.550 OA
ENDBRANCH  13  14
ENDBRANCH  12  13
ENDBRANCH  11  12
ENDBRANCH  10  11
ENDBRANCH   9  10
ENDBRANCH   8   9
ENDBRANCH   7   8
ENDBRANCH   6   7
ENDBRANCH   5   6
ENDBRANCH   4   5
ENDBRANCH   3   4
ENDBRANCH   2   3
ENDBRANCH   1   2
BRANCH   1  17
ATOM     17  C   UNL     1       8.961  12.278  -1.646  1.00  0.00     0.000 C 
BRANCH  17  18
ATOM     18  C   UNL     1       8.062  13.120  -0.721  1.00  0.00     0.000 C 
BRANCH  18  19
ATOM     19  C   UNL     1       6.746  13.552  -1.392  1.00  0.00     0.000 C 
BRANCH  19  20
ATOM     20  C   UNL     1       5.509  13.180  -0.556  1.00  0.00     0.000 C 
BRANCH  20  21
ATOM     21  C   UNL     1       4.380  12.480  -1.334  1.00  0.00     0.000 C 
BRANCH  21  22
ATOM     22  C   UNL     1       4.281  12.910  -2.813  1.00  0.00    -0.000 C 
BRANCH  22  23
ATOM     23  C   UNL     1       4.153  11.712  -3.768  1.00  0.00    -0.000 C 
BRANCH  23  24
ATOM     24  C   UNL     1       4.772  11.991  -5.147  1.00  0.00    -0.000 C 
BRANCH  24  25
ATOM     25  C   UNL     1       6.301  12.161  -5.083  1.00  0.00    -0.000 C 
BRANCH  25  26
ATOM     26  C   UNL     1       7.057  11.067  -5.858  1.00  0.00    -0.000 C 
BRANCH  26  27
ATOM     27  C   UNL     1       6.196   9.856  -6.270  1.00  0.00    -0.000 C 
BRANCH  27  28
ATOM     28  C   UNL     1       6.428   8.575  -5.443  1.00  0.00    -0.000 C 
BRANCH  28  29
ATOM     29  C   UNL     1       5.214   8.101  -4.624  1.00  0.00    -0.003 C 
ATOM     30  C   UNL     1       3.888   8.298  -5.357  1.00  0.00     0.004 C 
ENDBRANCH  28  29
ENDBRANCH  27  28
ENDBRANCH  26  27
ENDBRANCH  25  26
ENDBRANCH  24  25
ENDBRANCH  23  24
ENDBRANCH  22  23
ENDBRANCH  21  22
ENDBRANCH  20  21
ENDBRANCH  19  20
ENDBRANCH  18  19
ENDBRANCH  17  18
ENDBRANCH   1  17
TORSDOF 26
ENDMDL
MODEL 5
REMARK VINA RESULT:    -2.376     11.357     15.217
REMARK INTER + INTRA:         -11.842
REMARK INTER:                  -9.550
REMARK INTRA:                  -2.293
REMARK UNBOUND:                -5.855
REMARK SMILES CCCCCCCCCCCCCCCCCCCCCCCCCCCC(=O)[O-]
REMARK SMILES IDX 15 1 16 2 17 3 18 4 19 5 20 6 21 7 22 8 23 9 24 10 25 11
REMARK SMILES IDX 26 12 27 13 28 14 29 15 30 16 14 17 13 18 12 19 11 20 10 21
REMARK SMILES IDX 9 22 8 23 7 24 6 25 5 26 4 27 3 28 2 29 1 30
REMARK H PARENT
REMARK Flexibility Score: inf
ROOT
ATOM      1  C   UNL     1      -7.991   6.005  -3.352  1.00  0.00     0.000 C 
ENDROOT
BRANCH   1   2
ATOM      2  C   UNL     1      -7.989   7.299  -4.181  1.00  0.00     0.000 C 
BRANCH   2   3
ATOM      3  C   UNL     1      -6.562   7.709  -4.577  1.00  0.00     0.000 C 
BRANCH   3   4
ATOM      4  C   UNL     1      -6.420   8.021  -6.077  1.00  0.00     0.000 C 
BRANCH   4   5
ATOM      5  C   UNL     1      -5.084   8.668  -6.488  1.00  0.00     0.000 C 
BRANCH   5   6
ATOM      6  C   UNL     1      -3.975   8.551  -5.421  1.00  0.00     0.000 C 
BRANCH   6   7
ATOM      7  C   UNL     1      -2.852   9.583  -5.617  1.00  0.00     0.000 C 
BRANCH   7   8
ATOM      8  C   UNL     1      -2.744  10.512  -4.402  1.00  0.00     0.000 C 
BRANCH   8   9
ATOM      9  C   UNL     1      -4.118  10.729  -3.749  1.00  0.00     0.000 C 
BRANCH   9  10
ATOM     10  C   UNL     1      -4.940  11.830  -4.437  1.00  0.00     0.000 C 
BRANCH  10  11
ATOM     11  C   UNL     1      -5.373  12.987  -3.518  1.00  0.00     0.000 C 
BRANCH  11  12
ATOM     12  C   UNL     1      -4.794  12.905  -2.087  1.00  0.00     0.006 C 
BRANCH  12  13
ATOM     13  C   UNL     1      -5.549  13.762  -1.056  1.00  0.00     0.053 C 
BRANCH  13  14
ATOM     14  C   UNL     1      -5.037  13.561   0.338  1.00  0.00     0.041 C 
ATOM     15  O   UNL     1      -3.805  13.662   0.585  1.00  0.00    -0.550 OA
ATOM     16  O   UNL     1      -5.919  13.246   1.364  1.00  0.00    -0.550 OA
ENDBRANCH  13  14
ENDBRANCH  12  13
ENDBRANCH  11  12
ENDBRANCH  10  11
ENDBRANCH   9  10
ENDBRANCH   8   9
ENDBRANCH   7   8
ENDBRANCH   6   7
ENDBRANCH   5   6
ENDBRANCH   4   5
ENDBRANCH   3   4
ENDBRANCH   2   3
ENDBRANCH   1   2
BRANCH   1  17
ATOM     17  C   UNL     1      -8.592   4.804  -4.106  1.00  0.00     0.000 C 
BRANCH  17  18
ATOM     18  C   UNL     1      -8.366   3.432  -3.444  1.00  0.00     0.000 C 
BRANCH  18  19
ATOM     19  C   UNL     1      -7.441   3.502  -2.215  1.00  0.00     0.000 C 
BRANCH  19  20
ATOM     20  C   UNL     1      -7.010   2.110  -1.723  1.00  0.00     0.000 C 
BRANCH  20  21
ATOM     21  C   UNL     1      -6.755   1.073  -2.832  1.00  0.00     0.000 C 
BRANCH  21  22
ATOM     22  C   UNL     1      -5.646   0.055  -2.492  1.00  0.00    -0.000 C 
BRANCH  22  23
ATOM     23  C   UNL     1      -5.308   0.030  -0.992  1.00  0.00    -0.000 C 
BRANCH  23  24
ATOM     24  C   UNL     1      -5.428  -1.377  -0.385  1.00  0.00    -0.000 C 
BRANCH  24  25
ATOM     25  C   UNL     1      -6.778  -1.600   0.320  1.00  0.00    -0.000 C 
BRANCH  25  26
ATOM     26  C   UNL     1      -6.977  -0.679   1.537  1.00  0.00    -0.000 C 
BRANCH  26  27
ATOM     27  C   UNL     1      -8.235   0.208   1.476  1.00  0.00    -0.000 C 
BRANCH  27  28
ATOM     28  C   UNL     1      -8.252   1.390   2.468  1.00  0.00    -0.000 C 
BRANCH  28  29
ATOM     29  C   UNL     1      -7.568   2.673   1.962  1.00  0.00    -0.003 C 
ATOM     30  C   UNL     1      -6.044   2.575   1.964  1.00  0.00     0.004 C 
ENDBRANCH  28  29
ENDBRANCH  27  28
ENDBRANCH  26  27
ENDBRANCH  25  26
ENDBRANCH  24  25
ENDBRANCH  23  24
ENDBRANCH  22  23
ENDBRANCH  21  22
ENDBRANCH  20  21
ENDBRANCH  19  20
ENDBRANCH  18  19
ENDBRANCH  17  18
ENDBRANCH   1  17
TORSDOF 26
ENDMDL
MODEL 6
REMARK VINA RESULT:    -2.340      3.258      6.854
REMARK INTER + INTRA:         -11.752
REMARK INTER:                  -7.299
REMARK INTRA:                  -4.453
REMARK UNBOUND:                -5.855
REMARK SMILES CCCCCCCCCCCCCCCCCCCCCCCCCCCC(=O)[O-]
REMARK SMILES IDX 15 1 16 2 17 3 18 4 19 5 20 6 21 7 22 8 23 9 24 10 25 11
REMARK SMILES IDX 26 12 27 13 28 14 29 15 30 16 14 17 13 18 12 19 11 20 10 21
REMARK SMILES IDX 9 22 8 23 7 24 6 25 5 26 4 27 3 28 2 29 1 30
REMARK H PARENT
REMARK Flexibility Score: inf
ROOT
ATOM      1  C   UNL     1       8.152   9.287  -1.160  1.00  0.00     0.000 C 
ENDROOT
BRANCH   1   2
ATOM      2  C   UNL     1       6.708   9.466  -1.659  1.00  0.00     0.000 C 
BRANCH   2   3
ATOM      3  C   UNL     1       6.502  10.853  -2.288  1.00  0.00     0.000 C 
BRANCH   3   4
ATOM      4  C   UNL     1       5.533  11.738  -1.485  1.00  0.00     0.000 C 
BRANCH   4   5
ATOM      5  C   UNL     1       6.197  12.866  -0.672  1.00  0.00     0.000 C 
BRANCH   5   6
ATOM      6  C   UNL     1       6.392  12.532   0.822  1.00  0.00     0.000 C 
BRANCH   6   7
ATOM      7  C   UNL     1       7.873  12.409   1.214  1.00  0.00     0.000 C 
BRANCH   7   8
ATOM      8  C   UNL     1       8.083  11.263   2.211  1.00  0.00     0.000 C 
BRANCH   8   9
ATOM      9  C   UNL     1       7.011  10.176   2.036  1.00  0.00     0.000 C 
BRANCH   9  10
ATOM     10  C   UNL     1       7.294   8.918   2.874  1.00  0.00     0.000 C 
BRANCH  10  11
ATOM     11  C   UNL     1       8.757   8.754   3.323  1.00  0.00     0.000 C 
BRANCH  11  12
ATOM     12  C   UNL     1       9.547   7.694   2.522  1.00  0.00     0.006 C 
BRANCH  12  13
ATOM     13  C   UNL     1       8.739   7.035   1.390  1.00  0.00     0.053 C 
BRANCH  13  14
ATOM     14  C   UNL     1       9.293   5.699   0.997  1.00  0.00     0.041 C 
ATOM     15  O   UNL     1       9.588   4.847   1.877  1.00  0.00    -0.550 OA
ATOM     16  O   UNL     1       9.497   5.398  -0.344  1.00  0.00    -0.550 OA
ENDBRANCH  13  14
ENDBRANCH  12  13
ENDBRANCH  11  12
ENDBRANCH  10  11
ENDBRANCH   9  10
ENDBRANCH   8   9
ENDBRANCH   7   8
ENDBRANCH   6   7
ENDBRANCH   5   6
ENDBRANCH   4   5
ENDBRANCH   3   4
ENDBRANCH   2   3
ENDBRANCH   1   2
BRANCH   1  17
ATOM     17  C   UNL     1       9.159   9.034  -2.298  1.00  0.00     0.000 C 
BRANCH  17  18
ATOM     18  C   UNL     1       8.851   7.815  -3.188  1.00  0.00     0.000 C 
BRANCH  18  19
ATOM     19  C   UNL     1       8.535   8.198  -4.645  1.00  0.00     0.000 C 
BRANCH  19  20
ATOM     20  C   UNL     1       7.264   7.512  -5.171  1.00  0.00     0.000 C 
BRANCH  20  21
ATOM     21  C   UNL     1       6.128   8.467  -5.585  1.00  0.00     0.000 C 
BRANCH  21  22
ATOM     22  C   UNL     1       4.920   8.455  -4.626  1.00  0.00    -0.000 C 
BRANCH  22  23
ATOM     23  C   UNL     1       3.641   7.925  -5.294  1.00  0.00    -0.000 C 
BRANCH  23  24
ATOM     24  C   UNL     1       3.452   8.471  -6.719  1.00  0.00    -0.000 C 
BRANCH  24  25
ATOM     25  C   UNL     1       2.108   9.199  -6.897  1.00  0.00    -0.000 C 
BRANCH  25  26
ATOM     26  C   UNL     1       1.699  10.010  -5.655  1.00  0.00    -0.000 C 
BRANCH  26  27
ATOM     27  C   UNL     1       2.222  11.460  -5.629  1.00  0.00    -0.000 C 
BRANCH  27  28
ATOM     28  C   UNL     1       3.284  11.754  -4.549  1.00  0.00    -0.000 C 
BRANCH  28  29
ATOM     29  C   UNL     1       4.609  12.329  -5.080  1.00  0.00    -0.003 C 
ATOM     30  C   UNL     1       4.919  11.889  -6.510  1.00  0.00     0.004 C 
ENDBRANCH  28  29
ENDBRANCH  27  28
ENDBRANCH  26  27
ENDBRANCH  25  26
ENDBRANCH  24  25
ENDBRANCH  23  24
ENDBRANCH  22  23
ENDBRANCH  21  22
ENDBRANCH  20  21
ENDBRANCH  19  20
ENDBRANCH  18  19
ENDBRANCH  17  18
ENDBRANCH   1  17
TORSDOF 26
ENDMDL
MODEL 7
REMARK VINA RESULT:    -2.325      3.385      5.982
REMARK INTER + INTRA:         -11.713
REMARK INTER:                  -5.990
REMARK INTRA:                  -5.723
REMARK UNBOUND:                -5.855
REMARK SMILES CCCCCCCCCCCCCCCCCCCCCCCCCCCC(=O)[O-]
REMARK SMILES IDX 15 1 16 2 17 3 18 4 19 5 20 6 21 7 22 8 23 9 24 10 25 11
REMARK SMILES IDX 26 12 27 13 28 14 29 15 30 16 14 17 13 18 12 19 11 20 10 21
REMARK SMILES IDX 9 22 8 23 7 24 6 25 5 26 4 27 3 28 2 29 1 30
REMARK H PARENT
REMARK Flexibility Score: inf
ROOT
ATOM      1  C   UNL     1       8.394   8.420   2.905  1.00  0.00     0.000 C 
ENDROOT
BRANCH   1   2
ATOM      2  C   UNL     1       7.454   8.022   1.755  1.00  0.00     0.000 C 
BRANCH   2   3
ATOM      3  C   UNL     1       6.264   8.988   1.646  1.00  0.00     0.000 C 
BRANCH   3   4
ATOM      4  C   UNL     1       6.085   9.561   0.229  1.00  0.00     0.000 C 
BRANCH   4   5
ATOM      5  C   UNL     1       7.375   9.650  -0.609  1.00  0.00     0.000 C 
BRANCH   5   6
ATOM      6  C   UNL     1       7.168   9.369  -2.112  1.00  0.00     0.000 C 
BRANCH   6   7
ATOM      7  C   UNL     1       8.120  10.181  -3.005  1.00  0.00     0.000 C 
BRANCH   7   8
ATOM      8  C   UNL     1       8.736   9.298  -4.096  1.00  0.00     0.000 C 
BRANCH   8   9
ATOM      9  C   UNL     1       8.492   7.809  -3.804  1.00  0.00     0.000 C 
BRANCH   9  10
ATOM     10  C   UNL     1       9.794   7.024  -3.577  1.00  0.00     0.000 C 
BRANCH  10  11
ATOM     11  C   UNL     1      10.717   7.600  -2.487  1.00  0.00     0.000 C 
BRANCH  11  12
ATOM     12  C   UNL     1      10.196   7.393  -1.047  1.00  0.00     0.006 C 
BRANCH  12  13
ATOM     13  C   UNL     1       9.625   5.988  -0.783  1.00  0.00     0.053 C 
BRANCH  13  14
ATOM     14  C   UNL     1       9.856   5.534   0.626  1.00  0.00     0.041 C 
ATOM     15  O   UNL     1       9.227   4.543   1.087  1.00  0.00    -0.550 OA
ATOM     16  O   UNL     1      10.756   6.213   1.437  1.00  0.00    -0.550 OA
ENDBRANCH  13  14
ENDBRANCH  12  13
ENDBRANCH  11  12
ENDBRANCH  10  11
ENDBRANCH   9  10
ENDBRANCH   8   9
ENDBRANCH   7   8
ENDBRANCH   6   7
ENDBRANCH   5   6
ENDBRANCH   4   5
ENDBRANCH   3   4
ENDBRANCH   2   3
ENDBRANCH   1   2
BRANCH   1  17
ATOM     17  C   UNL     1       8.524   9.945   3.081  1.00  0.00     0.000 C 
BRANCH  17  18
ATOM     18  C   UNL     1       9.644  10.608   2.258  1.00  0.00     0.000 C 
BRANCH  18  19
ATOM     19  C   UNL     1       9.220  11.950   1.635  1.00  0.00     0.000 C 
BRANCH  19  20
ATOM     20  C   UNL     1       7.843  12.421   2.132  1.00  0.00     0.000 C 
BRANCH  20  21
ATOM     21  C   UNL     1       6.924  13.016   1.048  1.00  0.00     0.000 C 
BRANCH  21  22
ATOM     22  C   UNL     1       7.627  13.252  -0.305  1.00  0.00    -0.000 C 
BRANCH  22  23
ATOM     23  C   UNL     1       6.648  13.220  -1.491  1.00  0.00    -0.000 C 
BRANCH  23  24
ATOM     24  C   UNL     1       5.201  12.945  -1.052  1.00  0.00    -0.000 C 
BRANCH  24  25
ATOM     25  C   UNL     1       4.406  12.156  -2.108  1.00  0.00    -0.000 C 
BRANCH  25  26
ATOM     26  C   UNL     1       4.967  12.329  -3.530  1.00  0.00    -0.000 C 
BRANCH  26  27
ATOM     27  C   UNL     1       4.287  11.456  -4.603  1.00  0.00    -0.000 C 
BRANCH  27  28
ATOM     28  C   UNL     1       4.910  10.059  -4.803  1.00  0.00    -0.000 C 
BRANCH  28  29
ATOM     29  C   UNL     1       5.686   9.876  -6.119  1.00  0.00    -0.003 C 
ATOM     30  C   UNL     1       5.804   8.412  -6.543  1.00  0.00     0.004 C 
ENDBRANCH  28  29
ENDBRANCH  27  28
ENDBRANCH  26  27
ENDBRANCH  25  26
ENDBRANCH  24  25
ENDBRANCH  23  24
ENDBRANCH  22  23
ENDBRANCH  21  22
ENDBRANCH  20  21
ENDBRANCH  19  20
ENDBRANCH  18  19
ENDBRANCH  17  18
ENDBRANCH   1  17
TORSDOF 26
ENDMDL
MODEL 8
REMARK VINA RESULT:    -2.307      1.244      4.158
REMARK INTER + INTRA:         -11.668
REMARK INTER:                  -6.023
REMARK INTRA:                  -5.645
REMARK UNBOUND:                -5.855
REMARK SMILES CCCCCCCCCCCCCCCCCCCCCCCCCCCC(=O)[O-]
REMARK SMILES IDX 15 1 16 2 17 3 18 4 19 5 20 6 21 7 22 8 23 9 24 10 25 11
REMARK SMILES IDX 26 12 27 13 28 14 29 15 30 16 14 17 13 18 12 19 11 20 10 21
REMARK SMILES IDX 9 22 8 23 7 24 6 25 5 26 4 27 3 28 2 29 1 30
REMARK H PARENT
REMARK Flexibility Score: inf
ROOT
ATOM      1  C   UNL     1       8.117   7.468   1.388  1.00  0.00     0.000 C 
ENDROOT
BRANCH   1   2
ATOM      2  C   UNL     1       9.482   7.640   2.076  1.00  0.00     0.000 C 
BRANCH   2   3
ATOM      3  C   UNL     1      10.540   8.165   1.093  1.00  0.00     0.000 C 
BRANCH   3   4
ATOM      4  C   UNL     1       9.944   9.050  -0.015  1.00  0.00     0.000 C 
BRANCH   4   5
ATOM      5  C   UNL     1      10.256   8.597  -1.454  1.00  0.00     0.000 C 
BRANCH   5   6
ATOM      6  C   UNL     1       9.027   8.081  -2.231  1.00  0.00     0.000 C 
BRANCH   6   7
ATOM      7  C   UNL     1       7.783   8.961  -2.026  1.00  0.00     0.000 C 
BRANCH   7   8
ATOM      8  C   UNL     1       6.634   8.507  -2.933  1.00  0.00     0.000 C 
BRANCH   8   9
ATOM      9  C   UNL     1       7.162   8.027  -4.294  1.00  0.00     0.000 C 
BRANCH   9  10
ATOM     10  C   UNL     1       6.203   8.345  -5.453  1.00  0.00     0.000 C 
BRANCH  10  11
ATOM     11  C   UNL     1       4.871   8.993  -5.032  1.00  0.00     0.000 C 
BRANCH  11  12
ATOM     12  C   UNL     1       4.055   9.574  -6.209  1.00  0.00     0.006 C 
BRANCH  12  13
ATOM     13  C   UNL     1       3.640  11.044  -6.018  1.00  0.00     0.053 C 
BRANCH  13  14
ATOM     14  C   UNL     1       2.523  11.198  -5.032  1.00  0.00     0.041 C 
ATOM     15  O   UNL     1       2.516  12.163  -4.222  1.00  0.00    -0.550 OA
ATOM     16  O   UNL     1       1.492  10.267  -4.998  1.00  0.00    -0.550 OA
ENDBRANCH  13  14
ENDBRANCH  12  13
ENDBRANCH  11  12
ENDBRANCH  10  11
ENDBRANCH   9  10
ENDBRANCH   8   9
ENDBRANCH   7   8
ENDBRANCH   6   7
ENDBRANCH   5   6
ENDBRANCH   4   5
ENDBRANCH   3   4
ENDBRANCH   2   3
ENDBRANCH   1   2
BRANCH   1  17
ATOM     17  C   UNL     1       6.973   8.191   2.125  1.00  0.00     0.000 C 
BRANCH  17  18
ATOM     18  C   UNL     1       6.060   9.055   1.235  1.00  0.00     0.000 C 
BRANCH  18  19
ATOM     19  C   UNL     1       6.623  10.465   0.985  1.00  0.00     0.000 C 
BRANCH  19  20
ATOM     20  C   UNL     1       7.426  11.000   2.183  1.00  0.00     0.000 C 
BRANCH  20  21
ATOM     21  C   UNL     1       8.133  12.348   1.948  1.00  0.00     0.000 C 
BRANCH  21  22
ATOM     22  C   UNL     1       7.395  13.276   0.960  1.00  0.00    -0.000 C 
BRANCH  22  23
ATOM     23  C   UNL     1       8.266  13.663  -0.248  1.00  0.00    -0.000 C 
BRANCH  23  24
ATOM     24  C   UNL     1       9.389  12.648  -0.512  1.00  0.00    -0.000 C 
BRANCH  24  25
ATOM     25  C   UNL     1       9.496  12.263  -1.999  1.00  0.00    -0.000 C 
BRANCH  25  26
ATOM     26  C   UNL     1       8.462  12.987  -2.879  1.00  0.00    -0.000 C 
BRANCH  26  27
ATOM     27  C   UNL     1       7.695  12.074  -3.856  1.00  0.00    -0.000 C 
BRANCH  27  28
ATOM     28  C   UNL     1       6.157  12.159  -3.761  1.00  0.00    -0.000 C 
BRANCH  28  29
ATOM     29  C   UNL     1       5.586  12.030  -2.337  1.00  0.00    -0.003 C 
ATOM     30  C   UNL     1       4.913  13.312  -1.848  1.00  0.00     0.004 C 
ENDBRANCH  28  29
ENDBRANCH  27  28
ENDBRANCH  26  27
ENDBRANCH  25  26
ENDBRANCH  24  25
ENDBRANCH  23  24
ENDBRANCH  22  23
ENDBRANCH  21  22
ENDBRANCH  20  21
ENDBRANCH  19  20
ENDBRANCH  18  19
ENDBRANCH  17  18
ENDBRANCH   1  17
TORSDOF 26
ENDMDL
MODEL 9
REMARK VINA RESULT:    -2.283      1.549      4.202
REMARK INTER + INTRA:         -11.607
REMARK INTER:                  -6.051
REMARK INTRA:                  -5.556
REMARK UNBOUND:                -5.855
REMARK SMILES CCCCCCCCCCCCCCCCCCCCCCCCCCCC(=O)[O-]
REMARK SMILES IDX 15 1 16 2 17 3 18 4 19 5 20 6 21 7 22 8 23 9 24 10 25 11
REMARK SMILES IDX 26 12 27 13 28 14 29 15 30 16 14 17 13 18 12 19 11 20 10 21
REMARK SMILES IDX 9 22 8 23 7 24 6 25 5 26 4 27 3 28 2 29 1 30
REMARK H PARENT
REMARK Flexibility Score: inf
ROOT
ATOM      1  C   UNL     1       6.647   9.164   0.476  1.00  0.00     0.000 C 
ENDROOT
BRANCH   1   2
ATOM      2  C   UNL     1       6.453  10.684   0.607  1.00  0.00     0.000 C 
BRANCH   2   3
ATOM      3  C   UNL     1       6.283  11.347  -0.769  1.00  0.00     0.000 C 
BRANCH   3   4
ATOM      4  C   UNL     1       6.501  10.370  -1.937  1.00  0.00     0.000 C 
BRANCH   4   5
ATOM      5  C   UNL     1       7.486  10.851  -3.020  1.00  0.00     0.000 C 
BRANCH   5   6
ATOM      6  C   UNL     1       8.230   9.711  -3.745  1.00  0.00     0.000 C 
BRANCH   6   7
ATOM      7  C   UNL     1       7.608   8.331  -3.477  1.00  0.00     0.000 C 
BRANCH   7   8
ATOM      8  C   UNL     1       6.766   7.868  -4.671  1.00  0.00     0.000 C 
BRANCH   8   9
ATOM      9  C   UNL     1       5.264   7.952  -4.353  1.00  0.00     0.000 C 
BRANCH   9  10
ATOM     10  C   UNL     1       4.489   8.822  -5.355  1.00  0.00     0.000 C 
BRANCH  10  11
ATOM     11  C   UNL     1       5.342   9.858  -6.110  1.00  0.00     0.000 C 
BRANCH  11  12
ATOM     12  C   UNL     1       5.107  11.317  -5.658  1.00  0.00     0.006 C 
BRANCH  12  13
ATOM     13  C   UNL     1       4.112  11.459  -4.492  1.00  0.00     0.053 C 
BRANCH  13  14
ATOM     14  C   UNL     1       2.757  11.903  -4.949  1.00  0.00     0.041 C 
ATOM     15  O   UNL     1       2.600  13.040  -5.470  1.00  0.00    -0.550 OA
ATOM     16  O   UNL     1       1.660  11.067  -4.787  1.00  0.00    -0.550 OA
ENDBRANCH  13  14
ENDBRANCH  12  13
ENDBRANCH  11  12
ENDBRANCH  10  11
ENDBRANCH   9  10
ENDBRANCH   8   9
ENDBRANCH   7   8
ENDBRANCH   6   7
ENDBRANCH   5   6
ENDBRANCH   4   5
ENDBRANCH   3   4
ENDBRANCH   2   3
ENDBRANCH   1   2
BRANCH   1  17
ATOM     17  C   UNL     1       6.669   8.438   1.833  1.00  0.00     0.000 C 
BRANCH  17  18
ATOM     18  C   UNL     1       8.056   8.312   2.490  1.00  0.00     0.000 C 
BRANCH  18  19
ATOM     19  C   UNL     1       8.174   9.104   3.804  1.00  0.00     0.000 C 
BRANCH  19  20
ATOM     20  C   UNL     1       8.985  10.400   3.641  1.00  0.00     0.000 C 
BRANCH  20  21
ATOM     21  C   UNL     1       8.161  11.700   3.703  1.00  0.00     0.000 C 
BRANCH  21  22
ATOM     22  C   UNL     1       8.922  12.946   3.205  1.00  0.00    -0.000 C 
BRANCH  22  23
ATOM     23  C   UNL     1       8.154  13.708   2.112  1.00  0.00    -0.000 C 
BRANCH  23  24
ATOM     24  C   UNL     1       8.914  13.747   0.776  1.00  0.00    -0.000 C 
BRANCH  24  25
ATOM     25  C   UNL     1      10.086  12.750   0.738  1.00  0.00    -0.000 C 
BRANCH  25  26
ATOM     26  C   UNL     1       9.859  11.599  -0.259  1.00  0.00    -0.000 C 
BRANCH  26  27
ATOM     27  C   UNL     1      10.459  10.246   0.170  1.00  0.00    -0.000 C 
BRANCH  27  28
ATOM     28  C   UNL     1      10.079   9.048  -0.725  1.00  0.00    -0.000 C 
BRANCH  28  29
ATOM     29  C   UNL     1      10.388   7.664  -0.125  1.00  0.00    -0.003 C 
ATOM     30  C   UNL     1       9.537   6.549  -0.729  1.00  0.00     0.004 C 
ENDBRANCH  28  29
ENDBRANCH  27  28
ENDBRANCH  26  27
ENDBRANCH  25  26
ENDBRANCH  24  25
ENDBRANCH  23  24
ENDBRANCH  22  23
ENDBRANCH  21  22
ENDBRANCH  20  21
ENDBRANCH  19  20
ENDBRANCH  18  19
ENDBRANCH  17  18
ENDBRANCH   1  17
TORSDOF 26
ENDMDL
