MODEL 1
REMARK VINA RESULT:    -3.172      0.000      0.000
REMARK INTER + INTRA:          -4.364
REMARK INTER:                  -4.099
REMARK INTRA:                  -0.265
REMARK UNBOUND:                -0.265
REMARK SMILES C=CC(=O)CCCCC
REMARK SMILES IDX 6 1 7 2 8 3 9 4 5 5 3 6 4 7 2 8 1 9
REMARK H PARENT
REMARK Flexibility Score: inf
ROOT
ATOM      1  C   UNL     1       4.637  38.767  92.630  1.00  0.00     0.008 C 
ENDROOT
BRANCH   1   2
ATOM      2  C   UNL     1       5.109  40.176  92.257  1.00  0.00     0.000 C 
BRANCH   2   3
ATOM      3  C   UNL     1       6.438  40.127  91.495  1.00  0.00    -0.003 C 
ATOM      4  C   UNL     1       6.918  41.531  91.134  1.00  0.00     0.004 C 
ENDBRANCH   2   3
ENDBRANCH   1   2
BRANCH   1   5
ATOM      5  C   UNL     1       5.828  37.838  92.891  1.00  0.00     0.080 C 
BRANCH   5   6
ATOM      6  C   UNL     1       5.794  37.308  94.300  1.00  0.00     0.155 C 
ATOM      7  O   UNL     1       6.806  36.696  94.737  1.00  0.00    -0.295 OA
BRANCH   6   8
ATOM      8  C   UNL     1       4.619  37.440  95.187  1.00  0.00     0.039 C 
ATOM      9  C   UNL     1       3.921  36.408  95.660  1.00  0.00     0.012 C 
ENDBRANCH   6   8
ENDBRANCH   5   6
ENDBRANCH   1   5
TORSDOF 5
ENDMDL
MODEL 2
REMARK VINA RESULT:    -3.171      2.047      4.964
REMARK INTER + INTRA:          -4.362
REMARK INTER:                  -4.203
REMARK INTRA:                  -0.160
REMARK UNBOUND:                -0.265
REMARK SMILES C=CC(=O)CCCCC
REMARK SMILES IDX 6 1 7 2 8 3 9 4 5 5 3 6 4 7 2 8 1 9
REMARK H PARENT
REMARK Flexibility Score: inf
ROOT
ATOM      1  C   UNL     1       5.341  37.869  93.099  1.00  0.00     0.008 C 
ENDROOT
BRANCH   1   2
ATOM      2  C   UNL     1       4.288  37.044  93.848  1.00  0.00     0.000 C 
BRANCH   2   3
ATOM      3  C   UNL     1       4.226  37.445  95.326  1.00  0.00    -0.003 C 
ATOM      4  C   UNL     1       5.424  36.898  96.097  1.00  0.00     0.004 C 
ENDBRANCH   2   3
ENDBRANCH   1   2
BRANCH   1   5
ATOM      5  C   UNL     1       5.182  39.364  93.396  1.00  0.00     0.080 C 
BRANCH   5   6
ATOM      6  C   UNL     1       5.317  40.178  92.136  1.00  0.00     0.155 C 
ATOM      7  O   UNL     1       4.285  40.717  91.655  1.00  0.00    -0.295 OA
BRANCH   6   8
ATOM      8  C   UNL     1       6.597  40.350  91.417  1.00  0.00     0.039 C 
ATOM      9  C   UNL     1       7.112  41.533  91.082  1.00  0.00     0.012 C 
ENDBRANCH   6   8
ENDBRANCH   5   6
ENDBRANCH   1   5
TORSDOF 5
ENDMDL
MODEL 3
REMARK VINA RESULT:    -3.154      1.376      4.351
REMARK INTER + INTRA:          -4.341
REMARK INTER:                  -3.987
REMARK INTRA:                  -0.354
REMARK UNBOUND:                -0.265
REMARK SMILES C=CC(=O)CCCCC
REMARK SMILES IDX 6 1 7 2 8 3 9 4 5 5 3 6 4 7 2 8 1 9
REMARK H PARENT
REMARK Flexibility Score: inf
ROOT
ATOM      1  C   UNL     1       4.273  36.865  93.825  1.00  0.00     0.008 C 
ENDROOT
BRANCH   1   2
ATOM      2  C   UNL     1       4.347  37.639  95.146  1.00  0.00     0.000 C 
BRANCH   2   3
ATOM      3  C   UNL     1       5.408  37.039  96.075  1.00  0.00    -0.003 C 
ATOM      4  C   UNL     1       6.480  36.297  95.282  1.00  0.00     0.004 C 
ENDBRANCH   2   3
ENDBRANCH   1   2
BRANCH   1   5
ATOM      5  C   UNL     1       4.117  37.820  92.636  1.00  0.00     0.080 C 
BRANCH   5   6
ATOM      6  C   UNL     1       5.401  38.561  92.372  1.00  0.00     0.155 C 
ATOM      7  O   UNL     1       6.451  37.893  92.176  1.00  0.00    -0.295 OA
BRANCH   6   8
ATOM      8  C   UNL     1       5.498  40.036  92.363  1.00  0.00     0.039 C 
ATOM      9  C   UNL     1       6.199  40.732  91.469  1.00  0.00     0.012 C 
ENDBRANCH   6   8
ENDBRANCH   5   6
ENDBRANCH   1   5
TORSDOF 5
ENDMDL
MODEL 4
REMARK VINA RESULT:    -2.804      2.143      4.227
REMARK INTER + INTRA:          -3.888
REMARK INTER:                  -3.368
REMARK INTRA:                  -0.521
REMARK UNBOUND:                -0.265
REMARK SMILES C=CC(=O)CCCCC
REMARK SMILES IDX 6 1 7 2 8 3 9 4 5 5 3 6 4 7 2 8 1 9
REMARK H PARENT
REMARK Flexibility Score: inf
ROOT
ATOM      1  C   UNL     1       4.317  37.229  93.787  1.00  0.00     0.008 C 
ENDROOT
BRANCH   1   2
ATOM      2  C   UNL     1       4.246  37.533  95.287  1.00  0.00     0.000 C 
BRANCH   2   3
ATOM      3  C   UNL     1       5.187  36.618  96.079  1.00  0.00    -0.003 C 
ATOM      4  C   UNL     1       6.601  37.191  96.128  1.00  0.00     0.004 C 
ENDBRANCH   2   3
ENDBRANCH   1   2
BRANCH   1   5
ATOM      5  C   UNL     1       4.702  38.480  92.989  1.00  0.00     0.080 C 
BRANCH   5   6
ATOM      6  C   UNL     1       6.000  38.269  92.256  1.00  0.00     0.155 C 
ATOM      7  O   UNL     1       6.549  39.261  91.706  1.00  0.00    -0.295 OA
BRANCH   6   8
ATOM      8  C   UNL     1       6.648  36.946  92.121  1.00  0.00     0.039 C 
ATOM      9  C   UNL     1       7.858  36.656  92.598  1.00  0.00     0.012 C 
ENDBRANCH   6   8
ENDBRANCH   5   6
ENDBRANCH   1   5
TORSDOF 5
ENDMDL
MODEL 5
REMARK VINA RESULT:    -2.688     14.659     16.036
REMARK INTER + INTRA:          -3.738
REMARK INTER:                  -3.227
REMARK INTRA:                  -0.511
REMARK UNBOUND:                -0.265
REMARK SMILES C=CC(=O)CCCCC
REMARK SMILES IDX 6 1 7 2 8 3 9 4 5 5 3 6 4 7 2 8 1 9
REMARK H PARENT
REMARK Flexibility Score: inf
ROOT
ATOM      1  C   UNL     1      20.703  40.694  91.217  1.00  0.00     0.008 C 
ENDROOT
BRANCH   1   2
ATOM      2  C   UNL     1      20.508  42.214  91.217  1.00  0.00     0.000 C 
BRANCH   2   3
ATOM      3  C   UNL     1      21.681  42.919  90.527  1.00  0.00    -0.003 C 
ATOM      4  C   UNL     1      21.274  43.452  89.156  1.00  0.00     0.004 C 
ENDBRANCH   2   3
ENDBRANCH   1   2
BRANCH   1   5
ATOM      5  C   UNL     1      19.593  39.997  90.422  1.00  0.00     0.080 C 
BRANCH   5   6
ATOM      6  C   UNL     1      20.162  39.265  89.236  1.00  0.00     0.155 C 
ATOM      7  O   UNL     1      19.626  38.181  88.884  1.00  0.00    -0.295 OA
BRANCH   6   8
ATOM      8  C   UNL     1      21.342  39.739  88.482  1.00  0.00     0.039 C 
ATOM      9  C   UNL     1      21.273  40.395  87.323  1.00  0.00     0.012 C 
ENDBRANCH   6   8
ENDBRANCH   5   6
ENDBRANCH   1   5
TORSDOF 5
ENDMDL
MODEL 6
REMARK VINA RESULT:    -2.594     14.876     16.550
REMARK INTER + INTRA:          -3.617
REMARK INTER:                  -3.039
REMARK INTRA:                  -0.578
REMARK UNBOUND:                -0.265
REMARK SMILES C=CC(=O)CCCCC
REMARK SMILES IDX 6 1 7 2 8 3 9 4 5 5 3 6 4 7 2 8 1 9
REMARK H PARENT
REMARK Flexibility Score: inf
ROOT
ATOM      1  C   UNL     1      20.133  39.477  89.663  1.00  0.00     0.008 C 
ENDROOT
BRANCH   1   2
ATOM      2  C   UNL     1      19.512  40.323  90.780  1.00  0.00     0.000 C 
BRANCH   2   3
ATOM      3  C   UNL     1      20.546  40.647  91.864  1.00  0.00    -0.003 C 
ATOM      4  C   UNL     1      20.430  42.100  92.320  1.00  0.00     0.004 C 
ENDBRANCH   2   3
ENDBRANCH   1   2
BRANCH   1   5
ATOM      5  C   UNL     1      21.591  39.880  89.414  1.00  0.00     0.080 C 
BRANCH   5   6
ATOM      6  C   UNL     1      21.677  40.970  88.380  1.00  0.00     0.155 C 
ATOM      7  O   UNL     1      21.330  40.707  87.197  1.00  0.00    -0.295 OA
BRANCH   6   8
ATOM      8  C   UNL     1      22.180  42.329  88.675  1.00  0.00     0.039 C 
ATOM      9  C   UNL     1      21.398  43.362  88.990  1.00  0.00     0.012 C 
ENDBRANCH   6   8
ENDBRANCH   5   6
ENDBRANCH   1   5
TORSDOF 5
ENDMDL
MODEL 7
REMARK VINA RESULT:    -2.594     15.626     16.746
REMARK INTER + INTRA:          -3.617
REMARK INTER:                  -3.054
REMARK INTRA:                  -0.562
REMARK UNBOUND:                -0.265
REMARK SMILES C=CC(=O)CCCCC
REMARK SMILES IDX 6 1 7 2 8 3 9 4 5 5 3 6 4 7 2 8 1 9
REMARK H PARENT
REMARK Flexibility Score: inf
ROOT
ATOM      1  C   UNL     1      21.371  42.864  89.108  1.00  0.00     0.008 C 
ENDROOT
BRANCH   1   2
ATOM      2  C   UNL     1      21.573  42.981  90.622  1.00  0.00     0.000 C 
BRANCH   2   3
ATOM      3  C   UNL     1      20.499  42.195  91.383  1.00  0.00    -0.003 C 
ATOM      4  C   UNL     1      21.122  41.093  92.235  1.00  0.00     0.004 C 
ENDBRANCH   2   3
ENDBRANCH   1   2
BRANCH   1   5
ATOM      5  C   UNL     1      22.343  41.847  88.500  1.00  0.00     0.080 C 
BRANCH   5   6
ATOM      6  C   UNL     1      21.608  40.623  88.020  1.00  0.00     0.155 C 
ATOM      7  O   UNL     1      21.183  40.603  86.834  1.00  0.00    -0.295 OA
BRANCH   6   8
ATOM      8  C   UNL     1      21.331  39.455  88.883  1.00  0.00     0.039 C 
ATOM      9  C   UNL     1      20.113  38.961  89.101  1.00  0.00     0.012 C 
ENDBRANCH   6   8
ENDBRANCH   5   6
ENDBRANCH   1   5
TORSDOF 5
ENDMDL
MODEL 8
REMARK VINA RESULT:    -2.588     15.695     16.802
REMARK INTER + INTRA:          -3.609
REMARK INTER:                  -3.045
REMARK INTRA:                  -0.564
REMARK UNBOUND:                -0.265
REMARK SMILES C=CC(=O)CCCCC
REMARK SMILES IDX 6 1 7 2 8 3 9 4 5 5 3 6 4 7 2 8 1 9
REMARK H PARENT
REMARK Flexibility Score: inf
ROOT
ATOM      1  C   UNL     1      22.468  41.705  88.505  1.00  0.00     0.008 C 
ENDROOT
BRANCH   1   2
ATOM      2  C   UNL     1      21.612  40.597  87.880  1.00  0.00     0.000 C 
BRANCH   2   3
ATOM      3  C   UNL     1      21.532  39.377  88.804  1.00  0.00    -0.003 C 
ATOM      4  C   UNL     1      20.102  38.852  88.901  1.00  0.00     0.004 C 
ENDBRANCH   2   3
ENDBRANCH   1   2
BRANCH   1   5
ATOM      5  C   UNL     1      21.607  42.914  88.888  1.00  0.00     0.080 C 
BRANCH   5   6
ATOM      6  C   UNL     1      21.395  42.969  90.378  1.00  0.00     0.155 C 
ATOM      7  O   UNL     1      22.136  43.721  91.064  1.00  0.00    -0.295 OA
BRANCH   6   8
ATOM      8  C   UNL     1      20.378  42.158  91.081  1.00  0.00     0.039 C 
ATOM      9  C   UNL     1      20.666  41.202  91.964  1.00  0.00     0.012 C 
ENDBRANCH   6   8
ENDBRANCH   5   6
ENDBRANCH   1   5
TORSDOF 5
ENDMDL
MODEL 9
REMARK VINA RESULT:    -2.571     14.433     16.056
REMARK INTER + INTRA:          -3.588
REMARK INTER:                  -3.089
REMARK INTRA:                  -0.499
REMARK UNBOUND:                -0.265
REMARK SMILES C=CC(=O)CCCCC
REMARK SMILES IDX 6 1 7 2 8 3 9 4 5 5 3 6 4 7 2 8 1 9
REMARK H PARENT
REMARK Flexibility Score: inf
ROOT
ATOM      1  C   UNL     1      21.447  40.545  88.000  1.00  0.00     0.008 C 
ENDROOT
BRANCH   1   2
ATOM      2  C   UNL     1      22.375  41.653  88.511  1.00  0.00     0.000 C 
BRANCH   2   3
ATOM      3  C   UNL     1      21.582  42.920  88.854  1.00  0.00    -0.003 C 
ATOM      4  C   UNL     1      21.897  43.400  90.268  1.00  0.00     0.004 C 
ENDBRANCH   2   3
ENDBRANCH   1   2
BRANCH   1   5
ATOM      5  C   UNL     1      21.432  39.353  88.962  1.00  0.00     0.080 C 
BRANCH   5   6
ATOM      6  C   UNL     1      20.032  39.064  89.437  1.00  0.00     0.155 C 
ATOM      7  O   UNL     1      19.347  38.215  88.808  1.00  0.00    -0.295 OA
BRANCH   6   8
ATOM      8  C   UNL     1      19.409  39.754  90.586  1.00  0.00     0.039 C 
ATOM      9  C   UNL     1      20.089  40.452  91.495  1.00  0.00     0.012 C 
ENDBRANCH   6   8
ENDBRANCH   5   6
ENDBRANCH   1   5
TORSDOF 5
ENDMDL
