MODEL 1
REMARK VINA RESULT:    -4.791      0.000      0.000
REMARK INTER + INTRA:          -4.931
REMARK INTER:                  -4.931
REMARK INTRA:                   0.000
REMARK UNBOUND:                 0.000
REMARK SMILES Cc1ccccc1O
REMARK SMILES IDX 1 1 2 2 3 3 4 4 5 5 6 6 7 7 8 8
REMARK H PARENT 8 9
REMARK Flexibility Score: inf
ROOT
ATOM      1  C   UNL     1      62.352 149.905   7.204  1.00  0.00     0.048 C 
ATOM      2  C   UNL     1      63.308 150.161   6.074  1.00  0.00    -0.009 A 
ATOM      3  C   UNL     1      63.642 151.477   5.711  1.00  0.00     0.007 A 
ATOM      4  C   UNL     1      64.532 151.715   4.661  1.00  0.00     0.001 A 
ATOM      5  C   UNL     1      65.096 150.644   3.965  1.00  0.00     0.004 A 
ATOM      6  C   UNL     1      64.772 149.331   4.317  1.00  0.00     0.046 A 
ATOM      7  C   UNL     1      63.879 149.083   5.371  1.00  0.00     0.118 A 
ENDROOT
BRANCH   7   8
ATOM      8  O   UNL     1      63.558 147.771   5.720  1.00  0.00    -0.508 OA
ATOM      9  H   UNL     1      64.144 147.230   6.344  1.00  0.00     0.293 HD
ENDBRANCH   7   8
TORSDOF 1
ENDMDL
MODEL 2
REMARK VINA RESULT:    -4.772      6.550      7.121
REMARK INTER + INTRA:          -4.912
REMARK INTER:                  -4.912
REMARK INTRA:                   0.000
REMARK UNBOUND:                 0.000
REMARK SMILES Cc1ccccc1O
REMARK SMILES IDX 1 1 2 2 3 3 4 4 5 5 6 6 7 7 8 8
REMARK H PARENT 8 9
REMARK Flexibility Score: inf
ROOT
ATOM      1  C   UNL     1      57.921 155.126   1.245  1.00  0.00     0.048 C 
ATOM      2  C   UNL     1      58.981 154.153   1.678  1.00  0.00    -0.009 A 
ATOM      3  C   UNL     1      58.903 153.533   2.937  1.00  0.00     0.007 A 
ATOM      4  C   UNL     1      59.888 152.628   3.340  1.00  0.00     0.001 A 
ATOM      5  C   UNL     1      60.958 152.335   2.493  1.00  0.00     0.004 A 
ATOM      6  C   UNL     1      61.047 152.945   1.239  1.00  0.00     0.046 A 
ATOM      7  C   UNL     1      60.062 153.855   0.826  1.00  0.00     0.118 A 
ENDROOT
BRANCH   7   8
ATOM      8  O   UNL     1      60.153 154.462  -0.427  1.00  0.00    -0.508 OA
ATOM      9  H   UNL     1      60.776 155.243  -0.594  1.00  0.00     0.293 HD
ENDBRANCH   7   8
TORSDOF 1
ENDMDL
MODEL 3
REMARK VINA RESULT:    -4.765      5.809      6.491
REMARK INTER + INTRA:          -4.904
REMARK INTER:                  -4.904
REMARK INTRA:                   0.000
REMARK UNBOUND:                 0.000
REMARK SMILES Cc1ccccc1O
REMARK SMILES IDX 1 1 2 2 3 3 4 4 5 5 6 6 7 7 8 8
REMARK H PARENT 8 9
REMARK Flexibility Score: inf
ROOT
ATOM      1  C   UNL     1      61.938 151.823   2.536  1.00  0.00     0.048 C 
ATOM      2  C   UNL     1      60.843 152.711   2.016  1.00  0.00    -0.009 A 
ATOM      3  C   UNL     1      60.995 153.380   0.790  1.00  0.00     0.007 A 
ATOM      4  C   UNL     1      59.977 154.206   0.306  1.00  0.00     0.001 A 
ATOM      5  C   UNL     1      58.801 154.371   1.040  1.00  0.00     0.004 A 
ATOM      6  C   UNL     1      58.639 153.711   2.261  1.00  0.00     0.046 A 
ATOM      7  C   UNL     1      59.656 152.879   2.755  1.00  0.00     0.118 A 
ENDROOT
BRANCH   7   8
ATOM      8  O   UNL     1      59.490 152.221   3.973  1.00  0.00    -0.508 OA
ATOM      9  H   UNL     1      58.662 151.672   4.172  1.00  0.00     0.293 HD
ENDBRANCH   7   8
TORSDOF 1
ENDMDL
MODEL 4
REMARK VINA RESULT:    -4.696      1.825      2.457
REMARK INTER + INTRA:          -4.833
REMARK INTER:                  -4.833
REMARK INTRA:                   0.000
REMARK UNBOUND:                 0.000
REMARK SMILES Cc1ccccc1O
REMARK SMILES IDX 1 1 2 2 3 3 4 4 5 5 6 6 7 7 8 8
REMARK H PARENT 8 9
REMARK Flexibility Score: inf
ROOT
ATOM      1  C   UNL     1      62.176 150.364   7.155  1.00  0.00     0.048 C 
ATOM      2  C   UNL     1      63.171 150.404   6.030  1.00  0.00    -0.009 A 
ATOM      3  C   UNL     1      63.978 149.286   5.757  1.00  0.00     0.007 A 
ATOM      4  C   UNL     1      64.903 149.323   4.711  1.00  0.00     0.001 A 
ATOM      5  C   UNL     1      65.031 150.473   3.929  1.00  0.00     0.004 A 
ATOM      6  C   UNL     1      64.234 151.590   4.191  1.00  0.00     0.046 A 
ATOM      7  C   UNL     1      63.302 151.562   5.240  1.00  0.00     0.118 A 
ENDROOT
BRANCH   7   8
ATOM      8  O   UNL     1      62.508 152.679   5.499  1.00  0.00    -0.508 OA
ATOM      9  H   UNL     1      61.506 152.664   5.348  1.00  0.00     0.293 HD
ENDBRANCH   7   8
TORSDOF 1
ENDMDL
MODEL 5
REMARK VINA RESULT:    -4.666      6.429      7.335
REMARK INTER + INTRA:          -4.802
REMARK INTER:                  -4.802
REMARK INTRA:                   0.000
REMARK UNBOUND:                 0.000
REMARK SMILES Cc1ccccc1O
REMARK SMILES IDX 1 1 2 2 3 3 4 4 5 5 6 6 7 7 8 8
REMARK H PARENT 8 9
REMARK Flexibility Score: inf
ROOT
ATOM      1  C   UNL     1      61.193 154.136  -0.390  1.00  0.00     0.048 C 
ATOM      2  C   UNL     1      60.550 153.626   0.869  1.00  0.00    -0.009 A 
ATOM      3  C   UNL     1      61.228 152.709   1.690  1.00  0.00     0.007 A 
ATOM      4  C   UNL     1      60.630 152.236   2.861  1.00  0.00     0.001 A 
ATOM      5  C   UNL     1      59.353 152.672   3.221  1.00  0.00     0.004 A 
ATOM      6  C   UNL     1      58.670 153.583   2.412  1.00  0.00     0.046 A 
ATOM      7  C   UNL     1      59.263 154.064   1.235  1.00  0.00     0.118 A 
ENDROOT
BRANCH   7   8
ATOM      8  O   UNL     1      58.578 154.974   0.429  1.00  0.00    -0.508 OA
ATOM      9  H   UNL     1      58.823 155.957   0.412  1.00  0.00     0.293 HD
ENDBRANCH   7   8
TORSDOF 1
ENDMDL
MODEL 6
REMARK VINA RESULT:    -4.640      1.742      3.218
REMARK INTER + INTRA:          -4.775
REMARK INTER:                  -4.775
REMARK INTRA:                   0.000
REMARK UNBOUND:                 0.000
REMARK SMILES Cc1ccccc1O
REMARK SMILES IDX 1 1 2 2 3 3 4 4 5 5 6 6 7 7 8 8
REMARK H PARENT 8 9
REMARK Flexibility Score: inf
ROOT
ATOM      1  C   UNL     1      64.994 152.617   4.248  1.00  0.00     0.048 C 
ATOM      2  C   UNL     1      64.556 151.266   4.739  1.00  0.00    -0.009 A 
ATOM      3  C   UNL     1      65.116 150.098   4.195  1.00  0.00     0.007 A 
ATOM      4  C   UNL     1      64.708 148.842   4.653  1.00  0.00     0.001 A 
ATOM      5  C   UNL     1      63.741 148.741   5.655  1.00  0.00     0.004 A 
ATOM      6  C   UNL     1      63.177 149.896   6.203  1.00  0.00     0.046 A 
ATOM      7  C   UNL     1      63.580 151.162   5.750  1.00  0.00     0.118 A 
ENDROOT
BRANCH   7   8
ATOM      8  O   UNL     1      63.016 152.313   6.300  1.00  0.00    -0.508 OA
ATOM      9  H   UNL     1      63.590 153.080   6.629  1.00  0.00     0.293 HD
ENDBRANCH   7   8
TORSDOF 1
ENDMDL
MODEL 7
REMARK VINA RESULT:    -4.614      2.111      2.698
REMARK INTER + INTRA:          -4.748
REMARK INTER:                  -4.748
REMARK INTRA:                   0.000
REMARK UNBOUND:                 0.000
REMARK SMILES Cc1ccccc1O
REMARK SMILES IDX 1 1 2 2 3 3 4 4 5 5 6 6 7 7 8 8
REMARK H PARENT 8 9
REMARK Flexibility Score: inf
ROOT
ATOM      1  C   UNL     1      61.424 151.790   2.932  1.00  0.00     0.048 C 
ATOM      2  C   UNL     1      62.571 151.372   3.806  1.00  0.00    -0.009 A 
ATOM      3  C   UNL     1      63.874 151.823   3.531  1.00  0.00     0.007 A 
ATOM      4  C   UNL     1      64.941 151.434   4.345  1.00  0.00     0.001 A 
ATOM      5  C   UNL     1      64.718 150.594   5.438  1.00  0.00     0.004 A 
ATOM      6  C   UNL     1      63.428 150.139   5.721  1.00  0.00     0.046 A 
ATOM      7  C   UNL     1      62.350 150.524   4.909  1.00  0.00     0.118 A 
ENDROOT
BRANCH   7   8
ATOM      8  O   UNL     1      61.063 150.069   5.195  1.00  0.00    -0.508 OA
ATOM      9  H   UNL     1      60.906 149.213   5.713  1.00  0.00     0.293 HD
ENDBRANCH   7   8
TORSDOF 1
ENDMDL
MODEL 8
REMARK VINA RESULT:    -4.613      1.506      2.339
REMARK INTER + INTRA:          -4.748
REMARK INTER:                  -4.748
REMARK INTRA:                   0.000
REMARK UNBOUND:                 0.000
REMARK SMILES Cc1ccccc1O
REMARK SMILES IDX 1 1 2 2 3 3 4 4 5 5 6 6 7 7 8 8
REMARK H PARENT 8 9
REMARK Flexibility Score: inf
ROOT
ATOM      1  C   UNL     1      65.398 149.172   5.681  1.00  0.00     0.048 C 
ATOM      2  C   UNL     1      64.301 149.985   5.056  1.00  0.00    -0.009 A 
ATOM      3  C   UNL     1      64.590 150.890   4.020  1.00  0.00     0.007 A 
ATOM      4  C   UNL     1      63.569 151.647   3.439  1.00  0.00     0.001 A 
ATOM      5  C   UNL     1      62.253 151.507   3.886  1.00  0.00     0.004 A 
ATOM      6  C   UNL     1      61.954 150.611   4.915  1.00  0.00     0.046 A 
ATOM      7  C   UNL     1      62.973 149.847   5.504  1.00  0.00     0.118 A 
ENDROOT
BRANCH   7   8
ATOM      8  O   UNL     1      62.670 148.953   6.531  1.00  0.00    -0.508 OA
ATOM      9  H   UNL     1      62.639 147.953   6.372  1.00  0.00     0.293 HD
ENDBRANCH   7   8
TORSDOF 1
ENDMDL
MODEL 9
REMARK VINA RESULT:    -4.558     16.715     18.225
REMARK INTER + INTRA:          -4.691
REMARK INTER:                  -4.691
REMARK INTRA:                   0.000
REMARK UNBOUND:                 0.000
REMARK SMILES Cc1ccccc1O
REMARK SMILES IDX 1 1 2 2 3 3 4 4 5 5 6 6 7 7 8 8
REMARK H PARENT 8 9
REMARK Flexibility Score: inf
ROOT
ATOM      1  C   UNL     1      70.846 139.294  -9.163  1.00  0.00     0.048 C 
ATOM      2  C   UNL     1      70.411 138.723  -7.843  1.00  0.00    -0.009 A 
ATOM      3  C   UNL     1      70.850 137.450  -7.441  1.00  0.00     0.007 A 
ATOM      4  C   UNL     1      70.446 136.919  -6.213  1.00  0.00     0.001 A 
ATOM      5  C   UNL     1      69.602 137.652  -5.377  1.00  0.00     0.004 A 
ATOM      6  C   UNL     1      69.158 138.919  -5.766  1.00  0.00     0.046 A 
ATOM      7  C   UNL     1      69.559 139.460  -6.997  1.00  0.00     0.118 A 
ENDROOT
BRANCH   7   8
ATOM      8  O   UNL     1      69.115 140.725  -7.382  1.00  0.00    -0.508 OA
ATOM      9  H   UNL     1      68.361 140.843  -8.049  1.00  0.00     0.293 HD
ENDBRANCH   7   8
TORSDOF 1
ENDMDL
