MODEL 1
REMARK VINA RESULT:    -4.622      0.000      0.000
REMARK INTER + INTRA:          -9.718
REMARK INTER:                  -7.864
REMARK INTRA:                  -1.854
REMARK UNBOUND:                -1.854
REMARK SMILES CCCCCCCCCCCCCC(=O)[O-]
REMARK SMILES IDX 8 1 9 2 10 3 11 4 12 5 13 6 14 7 15 8 16 9 7 10 6 11 5 12
REMARK SMILES IDX 4 13 3 14 2 15 1 16
REMARK H PARENT
REMARK Flexibility Score: inf
ROOT
ATOM      1  C   UNL     1     159.012 160.270 147.542  1.00  0.00     0.000 C 
ENDROOT
BRANCH   1   2
ATOM      2  C   UNL     1     159.628 158.891 147.252  1.00  0.00     0.000 C 
BRANCH   2   3
ATOM      3  C   UNL     1     158.967 157.763 148.063  1.00  0.00     0.000 C 
BRANCH   3   4
ATOM      4  C   UNL     1     158.286 158.272 149.345  1.00  0.00     0.000 C 
BRANCH   4   5
ATOM      5  C   UNL     1     158.944 157.751 150.643  1.00  0.00     0.006 C 
BRANCH   5   6
ATOM      6  C   UNL     1     160.411 157.333 150.456  1.00  0.00     0.053 C 
BRANCH   6   7
ATOM      7  C   UNL     1     161.056 156.973 151.760  1.00  0.00     0.041 C 
ATOM      8  O   UNL     1     160.896 157.708 152.770  1.00  0.00    -0.550 OA
ATOM      9  O   UNL     1     161.814 155.814 151.866  1.00  0.00    -0.550 OA
ENDBRANCH   6   7
ENDBRANCH   5   6
ENDBRANCH   4   5
ENDBRANCH   3   4
ENDBRANCH   2   3
ENDBRANCH   1   2
BRANCH   1  10
ATOM     10  C   UNL     1     160.069 161.317 147.933  1.00  0.00     0.000 C 
BRANCH  10  11
ATOM     11  C   UNL     1     161.139 160.761 148.890  1.00  0.00    -0.000 C 
BRANCH  11  12
ATOM     12  C   UNL     1     160.843 160.958 150.389  1.00  0.00    -0.000 C 
BRANCH  12  13
ATOM     13  C   UNL     1     159.990 162.203 150.673  1.00  0.00    -0.000 C 
BRANCH  13  14
ATOM     14  C   UNL     1     158.827 161.869 151.615  1.00  0.00    -0.000 C 
BRANCH  14  15
ATOM     15  C   UNL     1     159.249 160.837 152.667  1.00  0.00    -0.003 C 
ATOM     16  C   UNL     1     158.195 160.702 153.761  1.00  0.00     0.004 C 
ENDBRANCH  14  15
ENDBRANCH  13  14
ENDBRANCH  12  13
ENDBRANCH  11  12
ENDBRANCH  10  11
ENDBRANCH   1  10
TORSDOF 12
ENDMDL
MODEL 2
REMARK VINA RESULT:    -4.610      2.692      4.503
REMARK INTER + INTRA:          -9.698
REMARK INTER:                  -8.191
REMARK INTRA:                  -1.507
REMARK UNBOUND:                -1.854
REMARK SMILES CCCCCCCCCCCCCC(=O)[O-]
REMARK SMILES IDX 8 1 9 2 10 3 11 4 12 5 13 6 14 7 15 8 16 9 7 10 6 11 5 12
REMARK SMILES IDX 4 13 3 14 2 15 1 16
REMARK H PARENT
REMARK Flexibility Score: inf
ROOT
ATOM      1  C   UNL     1     159.217 156.925 149.570  1.00  0.00     0.000 C 
ENDROOT
BRANCH   1   2
ATOM      2  C   UNL     1     160.598 157.383 150.065  1.00  0.00     0.000 C 
BRANCH   2   3
ATOM      3  C   UNL     1     160.514 158.285 151.308  1.00  0.00     0.000 C 
BRANCH   3   4
ATOM      4  C   UNL     1     159.132 158.939 151.477  1.00  0.00     0.000 C 
BRANCH   4   5
ATOM      5  C   UNL     1     159.185 160.334 152.139  1.00  0.00     0.006 C 
BRANCH   5   6
ATOM      6  C   UNL     1     158.579 160.362 153.551  1.00  0.00     0.053 C 
BRANCH   6   7
ATOM      7  C   UNL     1     157.740 161.585 153.771  1.00  0.00     0.041 C 
ATOM      8  O   UNL     1     157.036 161.691 154.810  1.00  0.00    -0.550 OA
ATOM      9  O   UNL     1     157.755 162.616 152.841  1.00  0.00    -0.550 OA
ENDBRANCH   6   7
ENDBRANCH   5   6
ENDBRANCH   4   5
ENDBRANCH   3   4
ENDBRANCH   2   3
ENDBRANCH   1   2
BRANCH   1  10
ATOM     10  C   UNL     1     158.905 157.423 148.148  1.00  0.00     0.000 C 
BRANCH  10  11
ATOM     11  C   UNL     1     159.811 158.589 147.709  1.00  0.00    -0.000 C 
BRANCH  11  12
ATOM     12  C   UNL     1     159.166 159.985 147.790  1.00  0.00    -0.000 C 
BRANCH  12  13
ATOM     13  C   UNL     1     160.198 161.119 147.875  1.00  0.00    -0.000 C 
BRANCH  13  14
ATOM     14  C   UNL     1     161.289 160.793 148.902  1.00  0.00    -0.000 C 
BRANCH  14  15
ATOM     15  C   UNL     1     161.840 162.072 149.543  1.00  0.00    -0.003 C 
ATOM     16  C   UNL     1     161.040 163.295 149.108  1.00  0.00     0.004 C 
ENDBRANCH  14  15
ENDBRANCH  13  14
ENDBRANCH  12  13
ENDBRANCH  11  12
ENDBRANCH  10  11
ENDBRANCH   1  10
TORSDOF 12
ENDMDL
MODEL 3
REMARK VINA RESULT:    -4.599      3.444      4.002
REMARK INTER + INTRA:          -9.680
REMARK INTER:                  -8.266
REMARK INTRA:                  -1.414
REMARK UNBOUND:                -1.854
REMARK SMILES CCCCCCCCCCCCCC(=O)[O-]
REMARK SMILES IDX 8 1 9 2 10 3 11 4 12 5 13 6 14 7 15 8 16 9 7 10 6 11 5 12
REMARK SMILES IDX 4 13 3 14 2 15 1 16
REMARK H PARENT
REMARK Flexibility Score: inf
ROOT
ATOM      1  C   UNL     1     159.978 159.169 147.378  1.00  0.00     0.000 C 
ENDROOT
BRANCH   1   2
ATOM      2  C   UNL     1     159.247 157.982 148.025  1.00  0.00     0.000 C 
BRANCH   2   3
ATOM      3  C   UNL     1     158.153 158.424 149.011  1.00  0.00     0.000 C 
BRANCH   3   4
ATOM      4  C   UNL     1     157.767 157.317 150.007  1.00  0.00     0.000 C 
BRANCH   4   5
ATOM      5  C   UNL     1     156.242 157.078 150.103  1.00  0.00     0.006 C 
BRANCH   5   6
ATOM      6  C   UNL     1     155.852 155.593 150.014  1.00  0.00     0.053 C 
BRANCH   6   7
ATOM      7  C   UNL     1     154.410 155.420 149.646  1.00  0.00     0.041 C 
ATOM      8  O   UNL     1     153.907 154.267 149.580  1.00  0.00    -0.550 OA
ATOM      9  O   UNL     1     153.616 156.532 149.397  1.00  0.00    -0.550 OA
ENDBRANCH   6   7
ENDBRANCH   5   6
ENDBRANCH   4   5
ENDBRANCH   3   4
ENDBRANCH   2   3
ENDBRANCH   1   2
BRANCH   1  10
ATOM     10  C   UNL     1     159.331 160.520 147.725  1.00  0.00     0.000 C 
BRANCH  10  11
ATOM     11  C   UNL     1     160.363 161.608 148.076  1.00  0.00    -0.000 C 
BRANCH  11  12
ATOM     12  C   UNL     1     159.995 162.495 149.280  1.00  0.00    -0.000 C 
BRANCH  12  13
ATOM     13  C   UNL     1     158.798 161.958 150.077  1.00  0.00    -0.000 C 
BRANCH  13  14
ATOM     14  C   UNL     1     159.161 161.770 151.555  1.00  0.00    -0.000 C 
BRANCH  14  15
ATOM     15  C   UNL     1     159.121 160.289 151.947  1.00  0.00    -0.003 C 
ATOM     16  C   UNL     1     160.451 159.603 151.647  1.00  0.00     0.004 C 
ENDBRANCH  14  15
ENDBRANCH  13  14
ENDBRANCH  12  13
ENDBRANCH  11  12
ENDBRANCH  10  11
ENDBRANCH   1  10
TORSDOF 12
ENDMDL
MODEL 4
REMARK VINA RESULT:    -4.581      3.580      5.169
REMARK INTER + INTRA:          -9.648
REMARK INTER:                  -8.207
REMARK INTRA:                  -1.441
REMARK UNBOUND:                -1.854
REMARK SMILES CCCCCCCCCCCCCC(=O)[O-]
REMARK SMILES IDX 8 1 9 2 10 3 11 4 12 5 13 6 14 7 15 8 16 9 7 10 6 11 5 12
REMARK SMILES IDX 4 13 3 14 2 15 1 16
REMARK H PARENT
REMARK Flexibility Score: inf
ROOT
ATOM      1  C   UNL     1     159.073 159.924 148.256  1.00  0.00     0.000 C 
ENDROOT
BRANCH   1   2
ATOM      2  C   UNL     1     160.090 160.947 147.723  1.00  0.00     0.000 C 
BRANCH   2   3
ATOM      3  C   UNL     1     160.376 162.078 148.725  1.00  0.00     0.000 C 
BRANCH   3   4
ATOM      4  C   UNL     1     161.651 161.835 149.549  1.00  0.00     0.000 C 
BRANCH   4   5
ATOM      5  C   UNL     1     162.568 163.075 149.650  1.00  0.00     0.006 C 
BRANCH   5   6
ATOM      6  C   UNL     1     163.982 162.748 150.156  1.00  0.00     0.053 C 
BRANCH   6   7
ATOM      7  C   UNL     1     164.828 163.980 150.277  1.00  0.00     0.041 C 
ATOM      8  O   UNL     1     164.810 164.657 151.338  1.00  0.00    -0.550 OA
ATOM      9  O   UNL     1     165.651 164.365 149.227  1.00  0.00    -0.550 OA
ENDBRANCH   6   7
ENDBRANCH   5   6
ENDBRANCH   4   5
ENDBRANCH   3   4
ENDBRANCH   2   3
ENDBRANCH   1   2
BRANCH   1  10
ATOM     10  C   UNL     1     159.336 158.503 147.730  1.00  0.00     0.000 C 
BRANCH  10  11
ATOM     11  C   UNL     1     159.556 157.477 148.857  1.00  0.00    -0.000 C 
BRANCH  11  12
ATOM     12  C   UNL     1     160.747 157.773 149.788  1.00  0.00    -0.000 C 
BRANCH  12  13
ATOM     13  C   UNL     1     160.352 157.817 151.271  1.00  0.00    -0.000 C 
BRANCH  13  14
ATOM     14  C   UNL     1     160.401 159.251 151.811  1.00  0.00    -0.000 C 
BRANCH  14  15
ATOM     15  C   UNL     1     158.989 159.810 152.017  1.00  0.00    -0.003 C 
ATOM     16  C   UNL     1     159.014 161.328 152.168  1.00  0.00     0.004 C 
ENDBRANCH  14  15
ENDBRANCH  13  14
ENDBRANCH  12  13
ENDBRANCH  11  12
ENDBRANCH  10  11
ENDBRANCH   1  10
TORSDOF 12
ENDMDL
MODEL 5
REMARK VINA RESULT:    -4.570      3.487      5.646
REMARK INTER + INTRA:          -9.630
REMARK INTER:                  -8.056
REMARK INTRA:                  -1.574
REMARK UNBOUND:                -1.854
REMARK SMILES CCCCCCCCCCCCCC(=O)[O-]
REMARK SMILES IDX 8 1 9 2 10 3 11 4 12 5 13 6 14 7 15 8 16 9 7 10 6 11 5 12
REMARK SMILES IDX 4 13 3 14 2 15 1 16
REMARK H PARENT
REMARK Flexibility Score: inf
ROOT
ATOM      1  C   UNL     1     158.926 162.476 151.050  1.00  0.00     0.000 C 
ENDROOT
BRANCH   1   2
ATOM      2  C   UNL     1     158.927 161.633 149.764  1.00  0.00     0.000 C 
BRANCH   2   3
ATOM      3  C   UNL     1     160.156 161.902 148.879  1.00  0.00     0.000 C 
BRANCH   3   4
ATOM      4  C   UNL     1     161.485 161.665 149.618  1.00  0.00     0.000 C 
BRANCH   4   5
ATOM      5  C   UNL     1     162.392 162.915 149.673  1.00  0.00     0.006 C 
BRANCH   5   6
ATOM      6  C   UNL     1     163.835 162.602 150.102  1.00  0.00     0.053 C 
BRANCH   6   7
ATOM      7  C   UNL     1     164.643 163.851 150.283  1.00  0.00     0.041 C 
ATOM      8  O   UNL     1     164.518 164.539 151.330  1.00  0.00    -0.550 OA
ATOM      9  O   UNL     1     165.551 164.241 149.307  1.00  0.00    -0.550 OA
ENDBRANCH   6   7
ENDBRANCH   5   6
ENDBRANCH   4   5
ENDBRANCH   3   4
ENDBRANCH   2   3
ENDBRANCH   1   2
BRANCH   1  10
ATOM     10  C   UNL     1     158.874 161.611 152.321  1.00  0.00     0.000 C 
BRANCH  10  11
ATOM     11  C   UNL     1     158.881 160.101 152.020  1.00  0.00    -0.000 C 
BRANCH  11  12
ATOM     12  C   UNL     1     160.208 159.380 152.321  1.00  0.00    -0.000 C 
BRANCH  12  13
ATOM     13  C   UNL     1     160.419 158.128 151.458  1.00  0.00    -0.000 C 
BRANCH  13  14
ATOM     14  C   UNL     1     159.353 158.031 150.359  1.00  0.00    -0.000 C 
BRANCH  14  15
ATOM     15  C   UNL     1     159.974 157.591 149.028  1.00  0.00    -0.003 C 
ATOM     16  C   UNL     1     159.378 158.368 147.859  1.00  0.00     0.004 C 
ENDBRANCH  14  15
ENDBRANCH  13  14
ENDBRANCH  12  13
ENDBRANCH  11  12
ENDBRANCH  10  11
ENDBRANCH   1  10
TORSDOF 12
ENDMDL
MODEL 6
REMARK VINA RESULT:    -4.563      3.134      4.549
REMARK INTER + INTRA:          -9.619
REMARK INTER:                  -7.894
REMARK INTRA:                  -1.725
REMARK UNBOUND:                -1.854
REMARK SMILES CCCCCCCCCCCCCC(=O)[O-]
REMARK SMILES IDX 8 1 9 2 10 3 11 4 12 5 13 6 14 7 15 8 16 9 7 10 6 11 5 12
REMARK SMILES IDX 4 13 3 14 2 15 1 16
REMARK H PARENT
REMARK Flexibility Score: inf
ROOT
ATOM      1  C   UNL     1     160.199 157.906 151.465  1.00  0.00     0.000 C 
ENDROOT
BRANCH   1   2
ATOM      2  C   UNL     1     160.418 157.458 150.010  1.00  0.00     0.000 C 
BRANCH   2   3
ATOM      3  C   UNL     1     159.166 156.813 149.392  1.00  0.00     0.000 C 
BRANCH   3   4
ATOM      4  C   UNL     1     157.973 157.782 149.317  1.00  0.00     0.000 C 
BRANCH   4   5
ATOM      5  C   UNL     1     156.704 157.254 150.025  1.00  0.00     0.006 C 
BRANCH   5   6
ATOM      6  C   UNL     1     156.482 155.746 149.830  1.00  0.00     0.053 C 
BRANCH   6   7
ATOM      7  C   UNL     1     155.091 155.336 150.210  1.00  0.00     0.041 C 
ATOM      8  O   UNL     1     154.098 155.875 149.653  1.00  0.00    -0.550 OA
ATOM      9  O   UNL     1     154.892 154.344 151.162  1.00  0.00    -0.550 OA
ENDBRANCH   6   7
ENDBRANCH   5   6
ENDBRANCH   4   5
ENDBRANCH   3   4
ENDBRANCH   2   3
ENDBRANCH   1   2
BRANCH   1  10
ATOM     10  C   UNL     1     160.528 159.393 151.679  1.00  0.00     0.000 C 
BRANCH  10  11
ATOM     11  C   UNL     1     159.276 160.289 151.692  1.00  0.00    -0.000 C 
BRANCH  11  12
ATOM     12  C   UNL     1     159.115 161.207 150.465  1.00  0.00    -0.000 C 
BRANCH  12  13
ATOM     13  C   UNL     1     160.442 161.822 149.998  1.00  0.00    -0.000 C 
BRANCH  13  14
ATOM     14  C   UNL     1     160.774 161.392 148.565  1.00  0.00    -0.000 C 
BRANCH  14  15
ATOM     15  C   UNL     1     159.537 160.818 147.863  1.00  0.00    -0.003 C 
ATOM     16  C   UNL     1     159.920 159.696 146.903  1.00  0.00     0.004 C 
ENDBRANCH  14  15
ENDBRANCH  13  14
ENDBRANCH  12  13
ENDBRANCH  11  12
ENDBRANCH  10  11
ENDBRANCH   1  10
TORSDOF 12
ENDMDL
MODEL 7
REMARK VINA RESULT:    -4.537      2.634      5.207
REMARK INTER + INTRA:          -9.574
REMARK INTER:                  -7.687
REMARK INTRA:                  -1.887
REMARK UNBOUND:                -1.854
REMARK SMILES CCCCCCCCCCCCCC(=O)[O-]
REMARK SMILES IDX 8 1 9 2 10 3 11 4 12 5 13 6 14 7 15 8 16 9 7 10 6 11 5 12
REMARK SMILES IDX 4 13 3 14 2 15 1 16
REMARK H PARENT
REMARK Flexibility Score: inf
ROOT
ATOM      1  C   UNL     1     158.801 160.315 152.591  1.00  0.00     0.000 C 
ENDROOT
BRANCH   1   2
ATOM      2  C   UNL     1     158.530 161.829 152.585  1.00  0.00     0.000 C 
BRANCH   2   3
ATOM      3  C   UNL     1     158.916 162.496 151.254  1.00  0.00     0.000 C 
BRANCH   3   4
ATOM      4  C   UNL     1     158.844 161.527 150.060  1.00  0.00     0.000 C 
BRANCH   4   5
ATOM      5  C   UNL     1     160.087 161.584 149.143  1.00  0.00     0.006 C 
BRANCH   5   6
ATOM      6  C   UNL     1     161.406 161.320 149.888  1.00  0.00     0.053 C 
BRANCH   6   7
ATOM      7  C   UNL     1     162.345 162.483 149.782  1.00  0.00     0.041 C 
ATOM      8  O   UNL     1     161.941 163.584 149.323  1.00  0.00    -0.550 OA
ATOM      9  O   UNL     1     163.660 162.358 150.210  1.00  0.00    -0.550 OA
ENDBRANCH   6   7
ENDBRANCH   5   6
ENDBRANCH   4   5
ENDBRANCH   3   4
ENDBRANCH   2   3
ENDBRANCH   1   2
BRANCH   1  10
ATOM     10  C   UNL     1     160.118 159.955 153.300  1.00  0.00     0.000 C 
BRANCH  10  11
ATOM     11  C   UNL     1     160.923 158.873 152.557  1.00  0.00    -0.000 C 
BRANCH  11  12
ATOM     12  C   UNL     1     160.093 157.948 151.648  1.00  0.00    -0.000 C 
BRANCH  12  13
ATOM     13  C   UNL     1     160.709 157.767 150.253  1.00  0.00    -0.000 C 
BRANCH  13  14
ATOM     14  C   UNL     1     159.657 157.290 149.245  1.00  0.00    -0.000 C 
BRANCH  14  15
ATOM     15  C   UNL     1     158.289 157.916 149.540  1.00  0.00    -0.003 C 
ATOM     16  C   UNL     1     157.216 156.843 149.703  1.00  0.00     0.004 C 
ENDBRANCH  14  15
ENDBRANCH  13  14
ENDBRANCH  12  13
ENDBRANCH  11  12
ENDBRANCH  10  11
ENDBRANCH   1  10
TORSDOF 12
ENDMDL
MODEL 8
REMARK VINA RESULT:    -4.522      2.068      3.350
REMARK INTER + INTRA:          -9.548
REMARK INTER:                  -7.954
REMARK INTRA:                  -1.594
REMARK UNBOUND:                -1.854
REMARK SMILES CCCCCCCCCCCCCC(=O)[O-]
REMARK SMILES IDX 8 1 9 2 10 3 11 4 12 5 13 6 14 7 15 8 16 9 7 10 6 11 5 12
REMARK SMILES IDX 4 13 3 14 2 15 1 16
REMARK H PARENT
REMARK Flexibility Score: inf
ROOT
ATOM      1  C   UNL     1     161.377 161.317 148.973  1.00  0.00     0.000 C 
ENDROOT
BRANCH   1   2
ATOM      2  C   UNL     1     160.217 161.433 147.971  1.00  0.00     0.000 C 
BRANCH   2   3
ATOM      3  C   UNL     1     159.968 160.127 147.197  1.00  0.00     0.000 C 
BRANCH   3   4
ATOM      4  C   UNL     1     160.237 158.873 148.046  1.00  0.00     0.000 C 
BRANCH   4   5
ATOM      5  C   UNL     1     159.036 157.901 148.110  1.00  0.00     0.006 C 
BRANCH   5   6
ATOM      6  C   UNL     1     158.099 158.170 149.299  1.00  0.00     0.053 C 
BRANCH   6   7
ATOM      7  C   UNL     1     157.301 156.954 149.661  1.00  0.00     0.041 C 
ATOM      8  O   UNL     1     157.709 155.808 149.336  1.00  0.00    -0.550 OA
ATOM      9  O   UNL     1     156.118 157.086 150.378  1.00  0.00    -0.550 OA
ENDBRANCH   6   7
ENDBRANCH   5   6
ENDBRANCH   4   5
ENDBRANCH   3   4
ENDBRANCH   2   3
ENDBRANCH   1   2
BRANCH   1  10
ATOM     10  C   UNL     1     160.993 161.808 150.379  1.00  0.00     0.000 C 
BRANCH  10  11
ATOM     11  C   UNL     1     159.492 162.128 150.513  1.00  0.00    -0.000 C 
BRANCH  11  12
ATOM     12  C   UNL     1     158.881 161.834 151.895  1.00  0.00    -0.000 C 
BRANCH  12  13
ATOM     13  C   UNL     1     158.834 160.334 152.223  1.00  0.00    -0.000 C 
BRANCH  13  14
ATOM     14  C   UNL     1     159.554 160.037 153.544  1.00  0.00    -0.000 C 
BRANCH  14  15
ATOM     15  C   UNL     1     160.761 159.120 153.317  1.00  0.00    -0.003 C 
ATOM     16  C   UNL     1     160.578 158.267 152.066  1.00  0.00     0.004 C 
ENDBRANCH  14  15
ENDBRANCH  13  14
ENDBRANCH  12  13
ENDBRANCH  11  12
ENDBRANCH  10  11
ENDBRANCH   1  10
TORSDOF 12
ENDMDL
MODEL 9
REMARK VINA RESULT:    -4.483      1.460      3.736
REMARK INTER + INTRA:          -9.482
REMARK INTER:                  -7.894
REMARK INTRA:                  -1.588
REMARK UNBOUND:                -1.854
REMARK SMILES CCCCCCCCCCCCCC(=O)[O-]
REMARK SMILES IDX 8 1 9 2 10 3 11 4 12 5 13 6 14 7 15 8 16 9 7 10 6 11 5 12
REMARK SMILES IDX 4 13 3 14 2 15 1 16
REMARK H PARENT
REMARK Flexibility Score: inf
ROOT
ATOM      1  C   UNL     1     160.459 162.066 148.863  1.00  0.00     0.000 C 
ENDROOT
BRANCH   1   2
ATOM      2  C   UNL     1     160.558 161.872 150.386  1.00  0.00     0.000 C 
BRANCH   2   3
ATOM      3  C   UNL     1     159.181 161.743 151.058  1.00  0.00     0.000 C 
BRANCH   3   4
ATOM      4  C   UNL     1     159.005 160.408 151.802  1.00  0.00     0.000 C 
BRANCH   4   5
ATOM      5  C   UNL     1     160.333 159.651 152.035  1.00  0.00     0.006 C 
BRANCH   5   6
ATOM      6  C   UNL     1     160.607 159.343 153.516  1.00  0.00     0.053 C 
BRANCH   6   7
ATOM      7  C   UNL     1     161.515 158.162 153.679  1.00  0.00     0.041 C 
ATOM      8  O   UNL     1     162.284 158.088 154.673  1.00  0.00    -0.550 OA
ATOM      9  O   UNL     1     161.496 157.134 152.745  1.00  0.00    -0.550 OA
ENDBRANCH   6   7
ENDBRANCH   5   6
ENDBRANCH   4   5
ENDBRANCH   3   4
ENDBRANCH   2   3
ENDBRANCH   1   2
BRANCH   1  10
ATOM     10  C   UNL     1     160.704 160.762 148.086  1.00  0.00     0.000 C 
BRANCH  10  11
ATOM     11  C   UNL     1     159.422 160.193 147.450  1.00  0.00    -0.000 C 
BRANCH  11  12
ATOM     12  C   UNL     1     159.269 158.663 147.541  1.00  0.00    -0.000 C 
BRANCH  12  13
ATOM     13  C   UNL     1     160.019 158.056 148.735  1.00  0.00    -0.000 C 
BRANCH  13  14
ATOM     14  C   UNL     1     159.128 157.072 149.502  1.00  0.00    -0.000 C 
BRANCH  14  15
ATOM     15  C   UNL     1     157.741 157.672 149.759  1.00  0.00    -0.003 C 
ATOM     16  C   UNL     1     156.670 156.587 149.800  1.00  0.00     0.004 C 
ENDBRANCH  14  15
ENDBRANCH  13  14
ENDBRANCH  12  13
ENDBRANCH  11  12
ENDBRANCH  10  11
ENDBRANCH   1  10
TORSDOF 12
ENDMDL
