MODEL 1
REMARK VINA RESULT:    -4.458      0.000      0.000
REMARK INTER + INTRA:          -6.133
REMARK INTER:                  -5.760
REMARK INTRA:                  -0.373
REMARK UNBOUND:                -0.373
REMARK SMILES CCO[C@@H]1O[C@@H](CO)[C@@H](O)[C@@H](O)[C@H]1O
REMARK SMILES IDX 4 1 13 2 11 3 9 4 6 5 5 6 3 7 2 8 1 9 14 10 12 12 7 14 8 15
REMARK SMILES IDX 10 17
REMARK H PARENT 14 11 12 13 8 16 10 18
REMARK Flexibility Score: inf
ROOT
ATOM      1  C   UNL     1       4.869  -1.603  19.826  1.00  0.00     0.281 C 
ATOM      2  C   UNL     1       4.823  -1.435  21.364  1.00  0.00     0.202 C 
ATOM      3  C   UNL     1       4.696  -2.800  22.070  1.00  0.00     0.179 C 
ATOM      4  C   UNL     1       5.697  -3.828  21.503  1.00  0.00     0.177 C 
ATOM      5  C   UNL     1       5.605  -3.830  19.962  1.00  0.00     0.178 C 
ATOM      6  O   UNL     1       5.870  -2.537  19.439  1.00  0.00    -0.341 OA
ENDROOT
BRANCH   1   7
ATOM      7  O   UNL     1       3.588  -1.980  19.346  1.00  0.00    -0.350 OA
BRANCH   7   8
ATOM      8  C   UNL     1       2.630  -0.999  19.683  1.00  0.00     0.160 C 
ATOM      9  C   UNL     1       2.759   0.173  18.723  1.00  0.00     0.035 C 
ENDBRANCH   7   8
ENDBRANCH   1   7
BRANCH   2  10
ATOM     10  O   UNL     1       5.934  -0.712  21.839  1.00  0.00    -0.385 OA
ATOM     11  H   UNL     1       6.755  -1.101  21.443  1.00  0.00     0.211 HD
ENDBRANCH   2  10
BRANCH   3  12
ATOM     12  O   UNL     1       4.874  -2.639  23.455  1.00  0.00    -0.387 OA
ATOM     13  H   UNL     1       5.771  -2.232  23.583  1.00  0.00     0.211 HD
ENDBRANCH   3  12
BRANCH   5  14
ATOM     14  C   UNL     1       6.599  -4.828  19.351  1.00  0.00     0.191 C 
BRANCH  14  15
ATOM     15  O   UNL     1       6.994  -5.772  20.309  1.00  0.00    -0.394 OA
ATOM     16  H   UNL     1       6.164  -6.184  20.663  1.00  0.00     0.210 HD
ENDBRANCH  14  15
ENDBRANCH   5  14
BRANCH   4  17
ATOM     17  O   UNL     1       7.008  -3.522  21.909  1.00  0.00    -0.387 OA
ATOM     18  H   UNL     1       6.937  -2.876  22.660  1.00  0.00     0.211 HD
ENDBRANCH   4  17
TORSDOF 7
ENDMDL
MODEL 2
REMARK VINA RESULT:    -4.210      1.646      4.270
REMARK INTER + INTRA:          -5.814
REMARK INTER:                  -5.442
REMARK INTRA:                  -0.371
REMARK UNBOUND:                -0.373
REMARK SMILES CCO[C@@H]1O[C@@H](CO)[C@@H](O)[C@@H](O)[C@H]1O
REMARK SMILES IDX 4 1 13 2 11 3 9 4 6 5 5 6 3 7 2 8 1 9 14 10 12 12 7 14 8 15
REMARK SMILES IDX 10 17
REMARK H PARENT 14 11 12 13 8 16 10 18
REMARK Flexibility Score: inf
ROOT
ATOM      1  C   UNL     1       5.941  -3.989  21.342  1.00  0.00     0.281 C 
ATOM      2  C   UNL     1       6.429  -2.643  21.928  1.00  0.00     0.202 C 
ATOM      3  C   UNL     1       6.217  -1.489  20.928  1.00  0.00     0.179 C 
ATOM      4  C   UNL     1       4.799  -1.519  20.320  1.00  0.00     0.177 C 
ATOM      5  C   UNL     1       4.495  -2.945  19.812  1.00  0.00     0.178 C 
ATOM      6  O   UNL     1       4.603  -3.889  20.866  1.00  0.00    -0.341 OA
ENDROOT
BRANCH   1   7
ATOM      7  O   UNL     1       6.827  -4.418  20.320  1.00  0.00    -0.350 OA
BRANCH   7   8
ATOM      8  C   UNL     1       7.841  -5.238  20.863  1.00  0.00     0.160 C 
ATOM      9  C   UNL     1       7.221  -6.541  21.343  1.00  0.00     0.035 C 
ENDBRANCH   7   8
ENDBRANCH   1   7
BRANCH   2  10
ATOM     10  O   UNL     1       5.820  -2.368  23.168  1.00  0.00    -0.385 OA
ATOM     11  H   UNL     1       6.132  -3.040  23.826  1.00  0.00     0.211 HD
ENDBRANCH   2  10
BRANCH   3  12
ATOM     12  O   UNL     1       6.464  -0.258  21.561  1.00  0.00    -0.387 OA
ATOM     13  H   UNL     1       7.438  -0.227  21.755  1.00  0.00     0.211 HD
ENDBRANCH   3  12
BRANCH   5  14
ATOM     14  C   UNL     1       3.084  -3.028  19.212  1.00  0.00     0.191 C 
BRANCH  14  15
ATOM     15  O   UNL     1       2.581  -1.742  18.967  1.00  0.00    -0.394 OA
ATOM     16  H   UNL     1       1.595  -1.798  19.063  1.00  0.00     0.210 HD
ENDBRANCH  14  15
ENDBRANCH   5  14
BRANCH   4  17
ATOM     17  O   UNL     1       3.840  -1.129  21.271  1.00  0.00    -0.387 OA
ATOM     18  H   UNL     1       2.971  -1.061  20.796  1.00  0.00     0.211 HD
ENDBRANCH   4  17
TORSDOF 7
ENDMDL
MODEL 3
REMARK VINA RESULT:    -3.963      1.506      3.239
REMARK INTER + INTRA:          -5.494
REMARK INTER:                  -5.339
REMARK INTRA:                  -0.155
REMARK UNBOUND:                -0.373
REMARK SMILES CCO[C@@H]1O[C@@H](CO)[C@@H](O)[C@@H](O)[C@H]1O
REMARK SMILES IDX 4 1 13 2 11 3 9 4 6 5 5 6 3 7 2 8 1 9 14 10 12 12 7 14 8 15
REMARK SMILES IDX 10 17
REMARK H PARENT 14 11 12 13 8 16 10 18
REMARK Flexibility Score: inf
ROOT
ATOM      1  C   UNL     1       3.807  -2.634  20.528  1.00  0.00     0.281 C 
ATOM      2  C   UNL     1       4.608  -3.952  20.407  1.00  0.00     0.202 C 
ATOM      3  C   UNL     1       5.924  -3.736  19.634  1.00  0.00     0.179 C 
ATOM      4  C   UNL     1       6.684  -2.494  20.144  1.00  0.00     0.177 C 
ATOM      5  C   UNL     1       5.712  -1.297  20.213  1.00  0.00     0.178 C 
ATOM      6  O   UNL     1       4.612  -1.588  21.060  1.00  0.00    -0.341 OA
ENDROOT
BRANCH   1   7
ATOM      7  O   UNL     1       3.264  -2.284  19.264  1.00  0.00    -0.350 OA
BRANCH   7   8
ATOM      8  C   UNL     1       2.148  -1.435  19.429  1.00  0.00     0.160 C 
ATOM      9  C   UNL     1       2.480  -0.062  18.868  1.00  0.00     0.035 C 
ENDBRANCH   7   8
ENDBRANCH   1   7
BRANCH   2  10
ATOM     10  O   UNL     1       4.841  -4.533  21.669  1.00  0.00    -0.385 OA
ATOM     11  H   UNL     1       5.800  -4.774  21.730  1.00  0.00     0.211 HD
ENDBRANCH   2  10
BRANCH   3  12
ATOM     12  O   UNL     1       6.726  -4.887  19.727  1.00  0.00    -0.387 OA
ATOM     13  H   UNL     1       6.160  -5.653  19.447  1.00  0.00     0.211 HD
ENDBRANCH   3  12
BRANCH   5  14
ATOM     14  C   UNL     1       6.422  -0.039  20.733  1.00  0.00     0.191 C 
BRANCH  14  15
ATOM     15  O   UNL     1       6.146   1.057  19.902  1.00  0.00    -0.394 OA
ATOM     16  H   UNL     1       6.885   1.108  19.242  1.00  0.00     0.210 HD
ENDBRANCH  14  15
ENDBRANCH   5  14
BRANCH   4  17
ATOM     17  O   UNL     1       7.243  -2.737  21.411  1.00  0.00    -0.387 OA
ATOM     18  H   UNL     1       6.962  -3.650  21.682  1.00  0.00     0.211 HD
ENDBRANCH   4  17
TORSDOF 7
ENDMDL
MODEL 4
REMARK VINA RESULT:    -3.864      1.652      2.541
REMARK INTER + INTRA:          -5.366
REMARK INTER:                  -5.298
REMARK INTRA:                  -0.068
REMARK UNBOUND:                -0.373
REMARK SMILES CCO[C@@H]1O[C@@H](CO)[C@@H](O)[C@@H](O)[C@H]1O
REMARK SMILES IDX 4 1 13 2 11 3 9 4 6 5 5 6 3 7 2 8 1 9 14 10 12 12 7 14 8 15
REMARK SMILES IDX 10 17
REMARK H PARENT 14 11 12 13 8 16 10 18
REMARK Flexibility Score: inf
ROOT
ATOM      1  C   UNL     1       6.071  -1.565  21.492  1.00  0.00     0.281 C 
ATOM      2  C   UNL     1       4.622  -1.899  21.065  1.00  0.00     0.202 C 
ATOM      3  C   UNL     1       4.598  -3.004  19.990  1.00  0.00     0.179 C 
ATOM      4  C   UNL     1       5.511  -4.188  20.372  1.00  0.00     0.177 C 
ATOM      5  C   UNL     1       6.897  -3.648  20.785  1.00  0.00     0.178 C 
ATOM      6  O   UNL     1       6.782  -2.739  21.869  1.00  0.00    -0.341 OA
ENDROOT
BRANCH   1   7
ATOM      7  O   UNL     1       6.731  -0.868  20.447  1.00  0.00    -0.350 OA
BRANCH   7   8
ATOM      8  C   UNL     1       6.295   0.475  20.403  1.00  0.00     0.160 C 
ATOM      9  C   UNL     1       5.322   0.643  19.247  1.00  0.00     0.035 C 
ENDBRANCH   7   8
ENDBRANCH   1   7
BRANCH   2  10
ATOM     10  O   UNL     1       3.823  -2.243  22.173  1.00  0.00    -0.385 OA
ATOM     11  H   UNL     1       4.163  -3.091  22.554  1.00  0.00     0.211 HD
ENDBRANCH   2  10
BRANCH   3  12
ATOM     12  O   UNL     1       3.278  -3.437  19.780  1.00  0.00    -0.387 OA
ATOM     13  H   UNL     1       3.327  -4.400  19.543  1.00  0.00     0.211 HD
ENDBRANCH   3  12
BRANCH   5  14
ATOM     14  C   UNL     1       7.837  -4.792  21.191  1.00  0.00     0.191 C 
BRANCH  14  15
ATOM     15  O   UNL     1       7.321  -6.023  20.762  1.00  0.00    -0.394 OA
ATOM     16  H   UNL     1       8.081  -6.661  20.749  1.00  0.00     0.210 HD
ENDBRANCH  14  15
ENDBRANCH   5  14
BRANCH   4  17
ATOM     17  O   UNL     1       4.948  -4.931  21.424  1.00  0.00    -0.387 OA
ATOM     18  H   UNL     1       4.610  -4.280  22.092  1.00  0.00     0.211 HD
ENDBRANCH   4  17
TORSDOF 7
ENDMDL
MODEL 5
REMARK VINA RESULT:    -3.787      1.920      5.064
REMARK INTER + INTRA:          -5.266
REMARK INTER:                  -4.899
REMARK INTRA:                  -0.367
REMARK UNBOUND:                -0.373
REMARK SMILES CCO[C@@H]1O[C@@H](CO)[C@@H](O)[C@@H](O)[C@H]1O
REMARK SMILES IDX 4 1 13 2 11 3 9 4 6 5 5 6 3 7 2 8 1 9 14 10 12 12 7 14 8 15
REMARK SMILES IDX 10 17
REMARK H PARENT 14 11 12 13 8 16 10 18
REMARK Flexibility Score: inf
ROOT
ATOM      1  C   UNL     1       6.939  -4.844  21.213  1.00  0.00     0.281 C 
ATOM      2  C   UNL     1       6.679  -4.547  19.717  1.00  0.00     0.202 C 
ATOM      3  C   UNL     1       5.200  -4.190  19.468  1.00  0.00     0.179 C 
ATOM      4  C   UNL     1       4.685  -3.157  20.492  1.00  0.00     0.177 C 
ATOM      5  C   UNL     1       5.059  -3.623  21.915  1.00  0.00     0.178 C 
ATOM      6  O   UNL     1       6.463  -3.788  22.039  1.00  0.00    -0.341 OA
ENDROOT
BRANCH   1   7
ATOM      7  O   UNL     1       6.351  -6.088  21.564  1.00  0.00    -0.350 OA
BRANCH   7   8
ATOM      8  C   UNL     1       7.258  -7.143  21.321  1.00  0.00     0.160 C 
ATOM      9  C   UNL     1       6.879  -8.333  22.189  1.00  0.00     0.035 C 
ENDBRANCH   7   8
ENDBRANCH   1   7
BRANCH   2  10
ATOM     10  O   UNL     1       7.539  -3.541  19.233  1.00  0.00    -0.385 OA
ATOM     11  H   UNL     1       7.281  -2.680  19.649  1.00  0.00     0.211 HD
ENDBRANCH   2  10
BRANCH   3  12
ATOM     12  O   UNL     1       5.038  -3.717  18.154  1.00  0.00    -0.387 OA
ATOM     13  H   UNL     1       4.294  -4.239  17.752  1.00  0.00     0.211 HD
ENDBRANCH   3  12
BRANCH   5  14
ATOM     14  C   UNL     1       4.581  -2.615  22.969  1.00  0.00     0.191 C 
BRANCH  14  15
ATOM     15  O   UNL     1       3.456  -1.918  22.504  1.00  0.00    -0.394 OA
ATOM     16  H   UNL     1       3.694  -1.555  21.612  1.00  0.00     0.210 HD
ENDBRANCH  14  15
ENDBRANCH   5  14
BRANCH   4  17
ATOM     17  O   UNL     1       5.234  -1.888  20.238  1.00  0.00    -0.387 OA
ATOM     18  H   UNL     1       5.583  -1.903  19.309  1.00  0.00     0.211 HD
ENDBRANCH   4  17
TORSDOF 7
ENDMDL
MODEL 6
REMARK VINA RESULT:    -3.757      1.774      4.543
REMARK INTER + INTRA:          -5.228
REMARK INTER:                  -5.230
REMARK INTRA:                   0.003
REMARK UNBOUND:                -0.373
REMARK SMILES CCO[C@@H]1O[C@@H](CO)[C@@H](O)[C@@H](O)[C@H]1O
REMARK SMILES IDX 4 1 13 2 11 3 9 4 6 5 5 6 3 7 2 8 1 9 14 10 12 12 7 14 8 15
REMARK SMILES IDX 10 17
REMARK H PARENT 14 11 12 13 8 16 10 18
REMARK Flexibility Score: inf
ROOT
ATOM      1  C   UNL     1       6.084  -3.490  20.205  1.00  0.00     0.281 C 
ATOM      2  C   UNL     1       4.590  -3.631  19.825  1.00  0.00     0.202 C 
ATOM      3  C   UNL     1       3.716  -2.644  20.624  1.00  0.00     0.179 C 
ATOM      4  C   UNL     1       4.314  -1.221  20.616  1.00  0.00     0.177 C 
ATOM      5  C   UNL     1       5.808  -1.297  21.000  1.00  0.00     0.178 C 
ATOM      6  O   UNL     1       6.516  -2.139  20.104  1.00  0.00    -0.341 OA
ENDROOT
BRANCH   1   7
ATOM      7  O   UNL     1       6.299  -4.011  21.508  1.00  0.00    -0.350 OA
BRANCH   7   8
ATOM      8  C   UNL     1       7.422  -4.868  21.513  1.00  0.00     0.160 C 
ATOM      9  C   UNL     1       6.975  -6.276  21.154  1.00  0.00     0.035 C 
ENDBRANCH   7   8
ENDBRANCH   1   7
BRANCH   2  10
ATOM     10  O   UNL     1       4.394  -3.486  18.438  1.00  0.00    -0.385 OA
ATOM     11  H   UNL     1       4.449  -2.523  18.212  1.00  0.00     0.211 HD
ENDBRANCH   2  10
BRANCH   3  12
ATOM     12  O   UNL     1       2.408  -2.640  20.109  1.00  0.00    -0.387 OA
ATOM     13  H   UNL     1       1.795  -2.555  20.886  1.00  0.00     0.211 HD
ENDBRANCH   3  12
BRANCH   5  14
ATOM     14  C   UNL     1       6.451   0.097  20.988  1.00  0.00     0.191 C 
BRANCH  14  15
ATOM     15  O   UNL     1       6.138   0.770  19.799  1.00  0.00    -0.394 OA
ATOM     16  H   UNL     1       6.516   0.230  19.057  1.00  0.00     0.210 HD
ENDBRANCH  14  15
ENDBRANCH   5  14
BRANCH   4  17
ATOM     17  O   UNL     1       4.168  -0.627  19.351  1.00  0.00    -0.387 OA
ATOM     18  H   UNL     1       4.995  -0.826  18.839  1.00  0.00     0.211 HD
ENDBRANCH   4  17
TORSDOF 7
ENDMDL
MODEL 7
REMARK VINA RESULT:    -3.755     16.642     18.562
REMARK INTER + INTRA:          -5.226
REMARK INTER:                  -4.868
REMARK INTRA:                  -0.358
REMARK UNBOUND:                -0.373
REMARK SMILES CCO[C@@H]1O[C@@H](CO)[C@@H](O)[C@@H](O)[C@H]1O
REMARK SMILES IDX 4 1 13 2 11 3 9 4 6 5 5 6 3 7 2 8 1 9 14 10 12 12 7 14 8 15
REMARK SMILES IDX 10 17
REMARK H PARENT 14 11 12 13 8 16 10 18
REMARK Flexibility Score: inf
ROOT
ATOM      1  C   UNL     1      15.709  -7.170   4.856  1.00  0.00     0.281 C 
ATOM      2  C   UNL     1      15.890  -7.285   6.388  1.00  0.00     0.202 C 
ATOM      3  C   UNL     1      14.876  -6.398   7.138  1.00  0.00     0.179 C 
ATOM      4  C   UNL     1      13.448  -6.573   6.581  1.00  0.00     0.177 C 
ATOM      5  C   UNL     1      13.482  -6.445   5.043  1.00  0.00     0.178 C 
ATOM      6  O   UNL     1      14.358  -7.407   4.477  1.00  0.00    -0.341 OA
ENDROOT
BRANCH   1   7
ATOM      7  O   UNL     1      16.161  -5.900   4.413  1.00  0.00    -0.350 OA
BRANCH   7   8
ATOM      8  C   UNL     1      17.540  -5.751   4.679  1.00  0.00     0.160 C 
ATOM      9  C   UNL     1      18.001  -4.396   4.167  1.00  0.00     0.035 C 
ENDBRANCH   7   8
ENDBRANCH   1   7
BRANCH   2  10
ATOM     10  O   UNL     1      15.817  -8.625   6.818  1.00  0.00    -0.385 OA
ATOM     11  H   UNL     1      15.567  -9.190   6.044  1.00  0.00     0.211 HD
ENDBRANCH   2  10
BRANCH   3  12
ATOM     12  O   UNL     1      14.917  -6.684   8.513  1.00  0.00    -0.387 OA
ATOM     13  H   UNL     1      14.872  -5.813   8.988  1.00  0.00     0.211 HD
ENDBRANCH   3  12
BRANCH   5  14
ATOM     14  C   UNL     1      12.082  -6.630   4.442  1.00  0.00     0.191 C 
BRANCH  14  15
ATOM     15  O   UNL     1      11.101  -6.470   5.431  1.00  0.00    -0.394 OA
ATOM     16  H   UNL     1      11.576  -6.441   6.302  1.00  0.00     0.210 HD
ENDBRANCH  14  15
ENDBRANCH   5  14
BRANCH   4  17
ATOM     17  O   UNL     1      12.919  -7.822   6.951  1.00  0.00    -0.387 OA
ATOM     18  H   UNL     1      12.420  -7.687   7.799  1.00  0.00     0.211 HD
ENDBRANCH   4  17
TORSDOF 7
ENDMDL
MODEL 8
REMARK VINA RESULT:    -3.636      1.742      3.130
REMARK INTER + INTRA:          -5.072
REMARK INTER:                  -4.725
REMARK INTRA:                  -0.346
REMARK UNBOUND:                -0.373
REMARK SMILES CCO[C@@H]1O[C@@H](CO)[C@@H](O)[C@@H](O)[C@H]1O
REMARK SMILES IDX 4 1 13 2 11 3 9 4 6 5 5 6 3 7 2 8 1 9 14 10 12 12 7 14 8 15
REMARK SMILES IDX 10 17
REMARK H PARENT 14 11 12 13 8 16 10 18
REMARK Flexibility Score: inf
ROOT
ATOM      1  C   UNL     1       3.814  -1.822  19.592  1.00  0.00     0.281 C 
ATOM      2  C   UNL     1       5.211  -2.423  19.309  1.00  0.00     0.202 C 
ATOM      3  C   UNL     1       6.146  -2.259  20.523  1.00  0.00     0.179 C 
ATOM      4  C   UNL     1       5.451  -2.679  21.836  1.00  0.00     0.177 C 
ATOM      5  C   UNL     1       4.071  -1.992  21.921  1.00  0.00     0.178 C 
ATOM      6  O   UNL     1       3.268  -2.334  20.802  1.00  0.00    -0.341 OA
ENDROOT
BRANCH   1   7
ATOM      7  O   UNL     1       3.897  -0.405  19.615  1.00  0.00    -0.350 OA
BRANCH   7   8
ATOM      8  C   UNL     1       3.131   0.147  18.564  1.00  0.00     0.160 C 
ATOM      9  C   UNL     1       1.667   0.163  18.973  1.00  0.00     0.035 C 
ENDBRANCH   7   8
ENDBRANCH   1   7
BRANCH   2  10
ATOM     10  O   UNL     1       5.123  -3.771  18.907  1.00  0.00    -0.385 OA
ATOM     11  H   UNL     1       6.031  -4.087  18.667  1.00  0.00     0.211 HD
ENDBRANCH   2  10
BRANCH   3  12
ATOM     12  O   UNL     1       7.325  -2.998  20.323  1.00  0.00    -0.387 OA
ATOM     13  H   UNL     1       7.844  -2.523  19.622  1.00  0.00     0.211 HD
ENDBRANCH   3  12
BRANCH   5  14
ATOM     14  C   UNL     1       3.333  -2.395  23.205  1.00  0.00     0.191 C 
BRANCH  14  15
ATOM     15  O   UNL     1       4.226  -2.962  24.125  1.00  0.00    -0.394 OA
ATOM     16  H   UNL     1       4.132  -3.946  24.045  1.00  0.00     0.210 HD
ENDBRANCH  14  15
ENDBRANCH   5  14
BRANCH   4  17
ATOM     17  O   UNL     1       5.302  -4.075  21.896  1.00  0.00    -0.387 OA
ATOM     18  H   UNL     1       6.189  -4.471  21.692  1.00  0.00     0.211 HD
ENDBRANCH   4  17
TORSDOF 7
ENDMDL
MODEL 9
REMARK VINA RESULT:    -3.538     17.692     19.782
REMARK INTER + INTRA:          -4.946
REMARK INTER:                  -4.550
REMARK INTRA:                  -0.395
REMARK UNBOUND:                -0.373
REMARK SMILES CCO[C@@H]1O[C@@H](CO)[C@@H](O)[C@@H](O)[C@H]1O
REMARK SMILES IDX 4 1 13 2 11 3 9 4 6 5 5 6 3 7 2 8 1 9 14 10 12 12 7 14 8 15
REMARK SMILES IDX 10 17
REMARK H PARENT 14 11 12 13 8 16 10 18
REMARK Flexibility Score: inf
ROOT
ATOM      1  C   UNL     1      15.848  -7.485   6.592  1.00  0.00     0.281 C 
ATOM      2  C   UNL     1      16.680  -8.786   6.491  1.00  0.00     0.202 C 
ATOM      3  C   UNL     1      17.172  -9.024   5.050  1.00  0.00     0.179 C 
ATOM      4  C   UNL     1      17.787  -7.745   4.442  1.00  0.00     0.177 C 
ATOM      5  C   UNL     1      16.820  -6.562   4.662  1.00  0.00     0.178 C 
ATOM      6  O   UNL     1      16.554  -6.378   6.044  1.00  0.00    -0.341 OA
ENDROOT
BRANCH   1   7
ATOM      7  O   UNL     1      14.592  -7.669   5.958  1.00  0.00    -0.350 OA
BRANCH   7   8
ATOM      8  C   UNL     1      13.649  -6.748   6.467  1.00  0.00     0.160 C 
ATOM      9  C   UNL     1      12.992  -6.017   5.306  1.00  0.00     0.035 C 
ENDBRANCH   7   8
ENDBRANCH   1   7
BRANCH   2  10
ATOM     10  O   UNL     1      17.750  -8.788   7.407  1.00  0.00    -0.385 OA
ATOM     11  H   UNL     1      17.378  -8.835   8.324  1.00  0.00     0.211 HD
ENDBRANCH   2  10
BRANCH   3  12
ATOM     12  O   UNL     1      18.096 -10.082   5.029  1.00  0.00    -0.387 OA
ATOM     13  H   UNL     1      18.080 -10.459   4.110  1.00  0.00     0.211 HD
ENDBRANCH   3  12
BRANCH   5  14
ATOM     14  C   UNL     1      17.399  -5.262   4.088  1.00  0.00     0.191 C 
BRANCH  14  15
ATOM     15  O   UNL     1      18.127  -4.576   5.070  1.00  0.00    -0.394 OA
ATOM     16  H   UNL     1      18.571  -3.814   4.616  1.00  0.00     0.210 HD
ENDBRANCH  14  15
ENDBRANCH   5  14
BRANCH   4  17
ATOM     17  O   UNL     1      19.034  -7.466   5.028  1.00  0.00    -0.387 OA
ATOM     18  H   UNL     1      18.890  -6.736   5.686  1.00  0.00     0.211 HD
ENDBRANCH   4  17
TORSDOF 7
ENDMDL
