MODEL 1
REMARK VINA RESULT:    -6.789      0.000      0.000
REMARK INTER + INTRA:          -7.276
REMARK INTER:                  -7.186
REMARK INTRA:                  -0.090
REMARK UNBOUND:                -0.090
REMARK SMILES C=C(C)[C@@H]1CC=C(C)C(=O)C1
REMARK SMILES IDX 8 1 7 2 6 3 5 4 4 5 11 6 9 7 10 8 2 9 1 10 3 11
REMARK H PARENT
REMARK Flexibility Score: inf
ROOT
ATOM      1  C   UNL     1     -10.641 -17.479  25.999  1.00  0.00     0.048 C 
ATOM      2  C   UNL     1     -11.566 -16.665  26.862  1.00  0.00    -0.012 C 
ATOM      3  C   UNL     1     -12.769 -16.290  26.395  1.00  0.00    -0.019 C 
ATOM      4  C   UNL     1     -13.760 -15.544  27.250  1.00  0.00     0.036 C 
ATOM      5  C   UNL     1     -13.045 -14.660  28.288  1.00  0.00     0.025 C 
ATOM      6  C   UNL     1     -12.069 -15.503  29.128  1.00  0.00     0.089 C 
ATOM      7  C   UNL     1     -11.153 -16.299  28.239  1.00  0.00     0.158 C 
ATOM      8  O   UNL     1     -10.046 -16.692  28.694  1.00  0.00    -0.295 OA
ENDROOT
BRANCH   5   9
ATOM      9  C   UNL     1     -14.042 -13.919  29.170  1.00  0.00    -0.077 C 
ATOM     10  C   UNL     1     -14.687 -12.840  28.697  1.00  0.00     0.008 C 
ATOM     11  C   UNL     1     -14.328 -14.367  30.582  1.00  0.00     0.039 C 
ENDBRANCH   5   9
TORSDOF 1
ENDMDL
MODEL 2
REMARK VINA RESULT:    -5.931      2.721      4.577
REMARK INTER + INTRA:          -6.367
REMARK INTER:                  -6.269
REMARK INTRA:                  -0.098
REMARK UNBOUND:                -0.090
REMARK SMILES C=C(C)[C@@H]1CC=C(C)C(=O)C1
REMARK SMILES IDX 8 1 7 2 6 3 5 4 4 5 11 6 9 7 10 8 2 9 1 10 3 11
REMARK H PARENT
REMARK Flexibility Score: inf
ROOT
ATOM      1  C   UNL     1     -14.346 -13.201  28.639  1.00  0.00     0.048 C 
ATOM      2  C   UNL     1     -13.645 -14.428  29.155  1.00  0.00    -0.012 C 
ATOM      3  C   UNL     1     -12.720 -15.044  28.398  1.00  0.00    -0.019 C 
ATOM      4  C   UNL     1     -11.935 -16.227  28.903  1.00  0.00     0.036 C 
ATOM      5  C   UNL     1     -12.758 -17.052  29.909  1.00  0.00     0.025 C 
ATOM      6  C   UNL     1     -13.260 -16.154  31.055  1.00  0.00     0.089 C 
ATOM      7  C   UNL     1     -13.962 -14.940  30.510  1.00  0.00     0.158 C 
ATOM      8  O   UNL     1     -14.793 -14.335  31.237  1.00  0.00    -0.295 OA
ENDROOT
BRANCH   5   9
ATOM      9  C   UNL     1     -11.963 -18.238  30.439  1.00  0.00    -0.077 C 
ATOM     10  C   UNL     1     -10.643 -18.324  30.203  1.00  0.00     0.008 C 
ATOM     11  C   UNL     1     -12.625 -19.339  31.231  1.00  0.00     0.039 C 
ENDBRANCH   5   9
TORSDOF 1
ENDMDL
MODEL 3
REMARK VINA RESULT:    -5.900      2.901      4.644
REMARK INTER + INTRA:          -6.335
REMARK INTER:                  -6.244
REMARK INTRA:                  -0.091
REMARK UNBOUND:                -0.090
REMARK SMILES C=C(C)[C@@H]1CC=C(C)C(=O)C1
REMARK SMILES IDX 8 1 7 2 6 3 5 4 4 5 11 6 9 7 10 8 2 9 1 10 3 11
REMARK H PARENT
REMARK Flexibility Score: inf
ROOT
ATOM      1  C   UNL     1     -14.024 -13.478  28.612  1.00  0.00     0.048 C 
ATOM      2  C   UNL     1     -13.443 -14.750  29.166  1.00  0.00    -0.012 C 
ATOM      3  C   UNL     1     -12.665 -15.528  28.394  1.00  0.00    -0.019 C 
ATOM      4  C   UNL     1     -11.996 -16.768  28.928  1.00  0.00     0.036 C 
ATOM      5  C   UNL     1     -12.834 -17.414  30.048  1.00  0.00     0.025 C 
ATOM      6  C   UNL     1     -13.128 -16.387  31.156  1.00  0.00     0.089 C 
ATOM      7  C   UNL     1     -13.713 -15.129  30.574  1.00  0.00     0.158 C 
ATOM      8  O   UNL     1     -14.403 -14.375  31.311  1.00  0.00    -0.295 OA
ENDROOT
BRANCH   5   9
ATOM      9  C   UNL     1     -12.153 -18.656  30.606  1.00  0.00    -0.077 C 
ATOM     10  C   UNL     1     -12.875 -19.587  31.250  1.00  0.00     0.008 C 
ATOM     11  C   UNL     1     -10.667 -18.874  30.458  1.00  0.00     0.039 C 
ENDBRANCH   5   9
TORSDOF 1
ENDMDL
MODEL 4
REMARK VINA RESULT:    -5.801      2.007      2.568
REMARK INTER + INTRA:          -6.230
REMARK INTER:                  -6.132
REMARK INTRA:                  -0.098
REMARK UNBOUND:                -0.090
REMARK SMILES C=C(C)[C@@H]1CC=C(C)C(=O)C1
REMARK SMILES IDX 8 1 7 2 6 3 5 4 4 5 11 6 9 7 10 8 2 9 1 10 3 11
REMARK H PARENT
REMARK Flexibility Score: inf
ROOT
ATOM      1  C   UNL     1     -11.404 -16.997  26.442  1.00  0.00     0.048 C 
ATOM      2  C   UNL     1     -12.133 -16.722  27.729  1.00  0.00    -0.012 C 
ATOM      3  C   UNL     1     -12.469 -15.462  28.058  1.00  0.00    -0.019 C 
ATOM      4  C   UNL     1     -13.268 -15.147  29.295  1.00  0.00     0.036 C 
ATOM      5  C   UNL     1     -12.991 -16.170  30.413  1.00  0.00     0.025 C 
ATOM      6  C   UNL     1     -13.245 -17.600  29.904  1.00  0.00     0.089 C 
ATOM      7  C   UNL     1     -12.499 -17.848  28.621  1.00  0.00     0.158 C 
ATOM      8  O   UNL     1     -12.227 -19.033  28.289  1.00  0.00    -0.295 OA
ENDROOT
BRANCH   5   9
ATOM      9  C   UNL     1     -13.812 -15.869  31.660  1.00  0.00    -0.077 C 
ATOM     10  C   UNL     1     -14.393 -14.667  31.810  1.00  0.00     0.008 C 
ATOM     11  C   UNL     1     -13.992 -16.896  32.750  1.00  0.00     0.039 C 
ENDBRANCH   5   9
TORSDOF 1
ENDMDL
MODEL 5
REMARK VINA RESULT:    -5.779      1.891      4.475
REMARK INTER + INTRA:          -6.207
REMARK INTER:                  -6.117
REMARK INTRA:                  -0.090
REMARK UNBOUND:                -0.090
REMARK SMILES C=C(C)[C@@H]1CC=C(C)C(=O)C1
REMARK SMILES IDX 8 1 7 2 6 3 5 4 4 5 11 6 9 7 10 8 2 9 1 10 3 11
REMARK H PARENT
REMARK Flexibility Score: inf
ROOT
ATOM      1  C   UNL     1     -14.747 -14.792  32.443  1.00  0.00     0.048 C 
ATOM      2  C   UNL     1     -13.977 -15.182  31.211  1.00  0.00    -0.012 C 
ATOM      3  C   UNL     1     -14.056 -14.429  30.100  1.00  0.00    -0.019 C 
ATOM      4  C   UNL     1     -13.242 -14.735  28.870  1.00  0.00     0.036 C 
ATOM      5  C   UNL     1     -12.975 -16.246  28.740  1.00  0.00     0.025 C 
ATOM      6  C   UNL     1     -12.317 -16.786  30.023  1.00  0.00     0.089 C 
ATOM      7  C   UNL     1     -13.112 -16.387  31.236  1.00  0.00     0.158 C 
ATOM      8  O   UNL     1     -13.001 -17.065  32.292  1.00  0.00    -0.295 OA
ENDROOT
BRANCH   5   9
ATOM      9  C   UNL     1     -12.134 -16.559  27.509  1.00  0.00    -0.077 C 
ATOM     10  C   UNL     1     -12.702 -16.579  26.293  1.00  0.00     0.008 C 
ATOM     11  C   UNL     1     -10.659 -16.856  27.619  1.00  0.00     0.039 C 
ENDBRANCH   5   9
TORSDOF 1
ENDMDL
MODEL 6
REMARK VINA RESULT:    -5.742      1.963      2.787
REMARK INTER + INTRA:          -6.167
REMARK INTER:                  -6.069
REMARK INTRA:                  -0.098
REMARK UNBOUND:                -0.090
REMARK SMILES C=C(C)[C@@H]1CC=C(C)C(=O)C1
REMARK SMILES IDX 8 1 7 2 6 3 5 4 4 5 11 6 9 7 10 8 2 9 1 10 3 11
REMARK H PARENT
REMARK Flexibility Score: inf
ROOT
ATOM      1  C   UNL     1     -10.986 -17.113  25.834  1.00  0.00     0.048 C 
ATOM      2  C   UNL     1     -11.446 -16.681  27.200  1.00  0.00    -0.012 C 
ATOM      3  C   UNL     1     -10.618 -16.786  28.254  1.00  0.00    -0.019 C 
ATOM      4  C   UNL     1     -11.005 -16.293  29.624  1.00  0.00     0.036 C 
ATOM      5  C   UNL     1     -12.525 -16.398  29.845  1.00  0.00     0.025 C 
ATOM      6  C   UNL     1     -13.281 -15.660  28.726  1.00  0.00     0.089 C 
ATOM      7  C   UNL     1     -12.807 -16.118  27.373  1.00  0.00     0.158 C 
ATOM      8  O   UNL     1     -13.564 -15.975  26.377  1.00  0.00    -0.295 OA
ENDROOT
BRANCH   5   9
ATOM      9  C   UNL     1     -12.925 -15.881  31.221  1.00  0.00    -0.077 C 
ATOM     10  C   UNL     1     -14.011 -15.103  31.359  1.00  0.00     0.008 C 
ATOM     11  C   UNL     1     -12.122 -16.220  32.453  1.00  0.00     0.039 C 
ENDBRANCH   5   9
TORSDOF 1
ENDMDL
MODEL 7
REMARK VINA RESULT:    -5.725      3.000      3.782
REMARK INTER + INTRA:          -6.149
REMARK INTER:                  -6.052
REMARK INTRA:                  -0.098
REMARK UNBOUND:                -0.090
REMARK SMILES C=C(C)[C@@H]1CC=C(C)C(=O)C1
REMARK SMILES IDX 8 1 7 2 6 3 5 4 4 5 11 6 9 7 10 8 2 9 1 10 3 11
REMARK H PARENT
REMARK Flexibility Score: inf
ROOT
ATOM      1  C   UNL     1     -12.304 -20.071  31.564  1.00  0.00     0.048 C 
ATOM      2  C   UNL     1     -12.669 -18.929  30.655  1.00  0.00    -0.012 C 
ATOM      3  C   UNL     1     -12.838 -19.142  29.339  1.00  0.00    -0.019 C 
ATOM      4  C   UNL     1     -13.282 -18.047  28.404  1.00  0.00     0.036 C 
ATOM      5  C   UNL     1     -12.795 -16.669  28.889  1.00  0.00     0.025 C 
ATOM      6  C   UNL     1     -13.252 -16.419  30.338  1.00  0.00     0.089 C 
ATOM      7  C   UNL     1     -12.866 -17.573  31.223  1.00  0.00     0.158 C 
ATOM      8  O   UNL     1     -12.756 -17.384  32.464  1.00  0.00    -0.295 OA
ENDROOT
BRANCH   5   9
ATOM      9  C   UNL     1     -13.258 -15.556  27.959  1.00  0.00    -0.077 C 
ATOM     10  C   UNL     1     -13.327 -14.291  28.405  1.00  0.00     0.008 C 
ATOM     11  C   UNL     1     -13.652 -15.837  26.530  1.00  0.00     0.039 C 
ENDBRANCH   5   9
TORSDOF 1
ENDMDL
MODEL 8
REMARK VINA RESULT:    -5.646      2.515      4.528
REMARK INTER + INTRA:          -6.066
REMARK INTER:                  -5.979
REMARK INTRA:                  -0.087
REMARK UNBOUND:                -0.090
REMARK SMILES C=C(C)[C@@H]1CC=C(C)C(=O)C1
REMARK SMILES IDX 8 1 7 2 6 3 5 4 4 5 11 6 9 7 10 8 2 9 1 10 3 11
REMARK H PARENT
REMARK Flexibility Score: inf
ROOT
ATOM      1  C   UNL     1     -14.369 -13.272  28.635  1.00  0.00     0.048 C 
ATOM      2  C   UNL     1     -13.866 -14.518  29.311  1.00  0.00    -0.012 C 
ATOM      3  C   UNL     1     -13.988 -14.659  30.643  1.00  0.00    -0.019 C 
ATOM      4  C   UNL     1     -13.572 -15.921  31.353  1.00  0.00     0.036 C 
ATOM      5  C   UNL     1     -12.402 -16.609  30.625  1.00  0.00     0.025 C 
ATOM      6  C   UNL     1     -12.763 -16.862  29.150  1.00  0.00     0.089 C 
ATOM      7  C   UNL     1     -13.256 -15.599  28.499  1.00  0.00     0.158 C 
ATOM      8  O   UNL     1     -13.185 -15.487  27.246  1.00  0.00    -0.295 OA
ENDROOT
BRANCH   5   9
ATOM      9  C   UNL     1     -11.990 -17.897  31.326  1.00  0.00    -0.077 C 
ATOM     10  C   UNL     1     -10.754 -18.021  31.835  1.00  0.00     0.008 C 
ATOM     11  C   UNL     1     -12.945 -19.057  31.466  1.00  0.00     0.039 C 
ENDBRANCH   5   9
TORSDOF 1
ENDMDL
MODEL 9
REMARK VINA RESULT:    -5.554      2.472      4.289
REMARK INTER + INTRA:          -5.969
REMARK INTER:                  -5.877
REMARK INTRA:                  -0.091
REMARK UNBOUND:                -0.090
REMARK SMILES C=C(C)[C@@H]1CC=C(C)C(=O)C1
REMARK SMILES IDX 8 1 7 2 6 3 5 4 4 5 11 6 9 7 10 8 2 9 1 10 3 11
REMARK H PARENT
REMARK Flexibility Score: inf
ROOT
ATOM      1  C   UNL     1     -11.043 -16.231  32.647  1.00  0.00     0.048 C 
ATOM      2  C   UNL     1     -11.344 -16.419  31.185  1.00  0.00    -0.012 C 
ATOM      3  C   UNL     1     -10.530 -15.887  30.256  1.00  0.00    -0.019 C 
ATOM      4  C   UNL     1     -10.745 -16.116  28.782  1.00  0.00     0.036 C 
ATOM      5  C   UNL     1     -12.240 -16.300  28.460  1.00  0.00     0.025 C 
ATOM      6  C   UNL     1     -12.838 -17.429  29.318  1.00  0.00     0.089 C 
ATOM      7  C   UNL     1     -12.528 -17.211  30.774  1.00  0.00     0.158 C 
ATOM      8  O   UNL     1     -13.263 -17.749  31.645  1.00  0.00    -0.295 OA
ENDROOT
BRANCH   5   9
ATOM      9  C   UNL     1     -12.463 -16.552  26.974  1.00  0.00    -0.077 C 
ATOM     10  C   UNL     1     -13.662 -16.306  26.422  1.00  0.00     0.008 C 
ATOM     11  C   UNL     1     -11.359 -17.081  26.092  1.00  0.00     0.039 C 
ENDBRANCH   5   9
TORSDOF 1
ENDMDL
