MODEL 1
REMARK VINA RESULT:    -2.473      0.000      0.000
REMARK INTER + INTRA:          -2.690
REMARK INTER:                  -2.690
REMARK INTRA:                   0.000
REMARK UNBOUND:                 0.000
REMARK SMILES [NH3+]CC(=O)[O-]
REMARK SMILES IDX 2 1 1 2 3 6 4 7 5 8
REMARK H PARENT 1 3 1 4 1 5
REMARK Flexibility Score: inf
ROOT
ATOM      1  C   UNL     1      16.180  -0.854 -20.118  1.00  0.00     0.312 C 
ENDROOT
BRANCH   1   2
ATOM      2  N   UNL     1      15.364  -0.242 -19.070  1.00  0.00    -0.353 N 
ATOM      3  H   UNL     1      15.746  -0.490 -18.128  1.00  0.00     0.344 HD
ATOM      4  H   UNL     1      15.387   0.797 -19.182  1.00  0.00     0.344 HD
ATOM      5  H   UNL     1      14.374  -0.570 -19.148  1.00  0.00     0.344 HD
ENDBRANCH   1   2
BRANCH   1   6
ATOM      6  C   UNL     1      16.569   0.163 -21.146  1.00  0.00     0.096 C 
ATOM      7  O   UNL     1      17.571  -0.032 -21.882  1.00  0.00    -0.544 OA
ATOM      8  O   UNL     1      15.856   1.351 -21.254  1.00  0.00    -0.544 OA
ENDBRANCH   1   6
TORSDOF 2
ENDMDL
MODEL 2
REMARK VINA RESULT:    -2.378      6.376      6.425
REMARK INTER + INTRA:          -2.586
REMARK INTER:                  -2.586
REMARK INTRA:                   0.000
REMARK UNBOUND:                 0.000
REMARK SMILES [NH3+]CC(=O)[O-]
REMARK SMILES IDX 2 1 1 2 3 6 4 7 5 8
REMARK H PARENT 1 3 1 4 1 5
REMARK Flexibility Score: inf
ROOT
ATOM      1  C   UNL     1      10.989   2.863 -19.430  1.00  0.00     0.312 C 
ENDROOT
BRANCH   1   2
ATOM      2  N   UNL     1      10.091   2.215 -18.475  1.00  0.00    -0.353 N 
ATOM      3  H   UNL     1      10.174   1.175 -18.554  1.00  0.00     0.344 HD
ATOM      4  H   UNL     1      10.357   2.503 -17.507  1.00  0.00     0.344 HD
ATOM      5  H   UNL     1       9.103   2.505 -18.658  1.00  0.00     0.344 HD
ENDBRANCH   1   2
BRANCH   1   6
ATOM      6  C   UNL     1      10.569   2.564 -20.836  1.00  0.00     0.096 C 
ATOM      7  O   UNL     1      10.291   1.385 -21.178  1.00  0.00    -0.544 OA
ATOM      8  O   UNL     1      10.534   3.582 -21.782  1.00  0.00    -0.544 OA
ENDBRANCH   1   6
TORSDOF 2
ENDMDL
MODEL 3
REMARK VINA RESULT:    -2.290      1.110      1.766
REMARK INTER + INTRA:          -2.490
REMARK INTER:                  -2.490
REMARK INTRA:                   0.000
REMARK UNBOUND:                 0.000
REMARK SMILES [NH3+]CC(=O)[O-]
REMARK SMILES IDX 2 1 1 2 3 6 4 7 5 8
REMARK H PARENT 1 3 1 4 1 5
REMARK Flexibility Score: inf
ROOT
ATOM      1  C   UNL     1      16.128  -0.170 -20.259  1.00  0.00     0.312 C 
ENDROOT
BRANCH   1   2
ATOM      2  N   UNL     1      15.339  -0.260 -19.031  1.00  0.00    -0.353 N 
ATOM      3  H   UNL     1      14.523   0.392 -19.080  1.00  0.00     0.344 HD
ATOM      4  H   UNL     1      14.986  -1.237 -18.923  1.00  0.00     0.344 HD
ATOM      5  H   UNL     1      15.934  -0.020 -18.205  1.00  0.00     0.344 HD
ENDBRANCH   1   2
BRANCH   1   6
ATOM      6  C   UNL     1      16.094   1.223 -20.808  1.00  0.00     0.096 C 
ATOM      7  O   UNL     1      15.121   1.980 -20.555  1.00  0.00    -0.544 OA
ATOM      8  O   UNL     1      17.113   1.667 -21.642  1.00  0.00    -0.544 OA
ENDBRANCH   1   6
TORSDOF 2
ENDMDL
MODEL 4
REMARK VINA RESULT:    -2.243     15.664     16.147
REMARK INTER + INTRA:          -2.440
REMARK INTER:                  -2.440
REMARK INTRA:                   0.000
REMARK UNBOUND:                 0.000
REMARK SMILES [NH3+]CC(=O)[O-]
REMARK SMILES IDX 2 1 1 2 3 6 4 7 5 8
REMARK H PARENT 1 3 1 4 1 5
REMARK Flexibility Score: inf
ROOT
ATOM      1  C   UNL     1      27.878 -11.107 -17.962  1.00  0.00     0.312 C 
ENDROOT
BRANCH   1   2
ATOM      2  N   UNL     1      26.448 -10.904 -18.189  1.00  0.00    -0.353 N 
ATOM      3  H   UNL     1      26.153 -11.381 -19.072  1.00  0.00     0.344 HD
ATOM      4  H   UNL     1      25.914 -11.314 -17.389  1.00  0.00     0.344 HD
ATOM      5  H   UNL     1      26.236  -9.882 -18.251  1.00  0.00     0.344 HD
ENDBRANCH   1   2
BRANCH   1   6
ATOM      6  C   UNL     1      28.418 -10.066 -17.031  1.00  0.00     0.096 C 
ATOM      7  O   UNL     1      28.160  -8.849 -17.223  1.00  0.00    -0.544 OA
ATOM      8  O   UNL     1      29.249 -10.437 -15.981  1.00  0.00    -0.544 OA
ENDBRANCH   1   6
TORSDOF 2
ENDMDL
MODEL 5
REMARK VINA RESULT:    -2.242      5.944      6.430
REMARK INTER + INTRA:          -2.439
REMARK INTER:                  -2.439
REMARK INTRA:                   0.000
REMARK UNBOUND:                 0.000
REMARK SMILES [NH3+]CC(=O)[O-]
REMARK SMILES IDX 2 1 1 2 3 6 4 7 5 8
REMARK H PARENT 1 3 1 4 1 5
REMARK Flexibility Score: inf
ROOT
ATOM      1  C   UNL     1      11.415   4.032 -17.855  1.00  0.00     0.312 C 
ENDROOT
BRANCH   1   2
ATOM      2  N   UNL     1      11.497   3.492 -16.498  1.00  0.00    -0.353 N 
ATOM      3  H   UNL     1      11.218   2.484 -16.496  1.00  0.00     0.344 HD
ATOM      4  H   UNL     1      12.481   3.572 -16.157  1.00  0.00     0.344 HD
ATOM      5  H   UNL     1      10.870   4.034 -15.859  1.00  0.00     0.344 HD
ENDBRANCH   1   2
BRANCH   1   6
ATOM      6  C   UNL     1      11.415   2.926 -18.864  1.00  0.00     0.096 C 
ATOM      7  O   UNL     1      10.379   2.235 -19.047  1.00  0.00    -0.544 OA
ATOM      8  O   UNL     1      12.576   2.626 -19.567  1.00  0.00    -0.544 OA
ENDBRANCH   1   6
TORSDOF 2
ENDMDL
MODEL 6
REMARK VINA RESULT:    -2.167      6.731      7.004
REMARK INTER + INTRA:          -2.357
REMARK INTER:                  -2.357
REMARK INTRA:                   0.000
REMARK UNBOUND:                 0.000
REMARK SMILES [NH3+]CC(=O)[O-]
REMARK SMILES IDX 2 1 1 2 3 6 4 7 5 8
REMARK H PARENT 1 3 1 4 1 5
REMARK Flexibility Score: inf
ROOT
ATOM      1  C   UNL     1      10.943   2.732 -18.945  1.00  0.00     0.312 C 
ENDROOT
BRANCH   1   2
ATOM      2  N   UNL     1       9.875   2.033 -18.231  1.00  0.00    -0.353 N 
ATOM      3  H   UNL     1      10.110   1.017 -18.138  1.00  0.00     0.344 HD
ATOM      4  H   UNL     1       9.776   2.445 -17.276  1.00  0.00     0.344 HD
ATOM      5  H   UNL     1       8.970   2.141 -18.743  1.00  0.00     0.344 HD
ENDBRANCH   1   2
BRANCH   1   6
ATOM      6  C   UNL     1      11.333   3.982 -18.220  1.00  0.00     0.096 C 
ATOM      7  O   UNL     1      11.260   4.035 -16.964  1.00  0.00    -0.544 OA
ATOM      8  O   UNL     1      11.729   5.106 -18.934  1.00  0.00    -0.544 OA
ENDBRANCH   1   6
TORSDOF 2
ENDMDL
MODEL 7
REMARK VINA RESULT:    -2.146      5.071      5.672
REMARK INTER + INTRA:          -2.334
REMARK INTER:                  -2.334
REMARK INTRA:                   0.000
REMARK UNBOUND:                 0.000
REMARK SMILES [NH3+]CC(=O)[O-]
REMARK SMILES IDX 2 1 1 2 3 6 4 7 5 8
REMARK H PARENT 1 3 1 4 1 5
REMARK Flexibility Score: inf
ROOT
ATOM      1  C   UNL     1      13.173   3.076 -24.692  1.00  0.00     0.312 C 
ENDROOT
BRANCH   1   2
ATOM      2  N   UNL     1      13.244   1.954 -25.628  1.00  0.00    -0.353 N 
ATOM      3  H   UNL     1      14.239   1.660 -25.759  1.00  0.00     0.344 HD
ATOM      4  H   UNL     1      12.702   1.150 -25.239  1.00  0.00     0.344 HD
ATOM      5  H   UNL     1      12.832   2.229 -26.549  1.00  0.00     0.344 HD
ENDBRANCH   1   2
BRANCH   1   6
ATOM      6  C   UNL     1      13.205   2.587 -23.277  1.00  0.00     0.096 C 
ATOM      7  O   UNL     1      12.139   2.500 -22.613  1.00  0.00    -0.544 OA
ATOM      8  O   UNL     1      14.419   2.277 -22.676  1.00  0.00    -0.544 OA
ENDBRANCH   1   6
TORSDOF 2
ENDMDL
MODEL 8
REMARK VINA RESULT:    -2.145      5.176      5.635
REMARK INTER + INTRA:          -2.334
REMARK INTER:                  -2.334
REMARK INTRA:                   0.000
REMARK UNBOUND:                 0.000
REMARK SMILES [NH3+]CC(=O)[O-]
REMARK SMILES IDX 2 1 1 2 3 6 4 7 5 8
REMARK H PARENT 1 3 1 4 1 5
REMARK Flexibility Score: inf
ROOT
ATOM      1  C   UNL     1      12.942   3.093 -24.656  1.00  0.00     0.312 C 
ENDROOT
BRANCH   1   2
ATOM      2  N   UNL     1      13.174   1.956 -25.546  1.00  0.00    -0.353 N 
ATOM      3  H   UNL     1      12.312   1.755 -26.103  1.00  0.00     0.344 HD
ATOM      4  H   UNL     1      13.954   2.188 -26.201  1.00  0.00     0.344 HD
ATOM      5  H   UNL     1      13.439   1.112 -24.988  1.00  0.00     0.344 HD
ENDBRANCH   1   2
BRANCH   1   6
ATOM      6  C   UNL     1      13.014   2.665 -23.223  1.00  0.00     0.096 C 
ATOM      7  O   UNL     1      14.125   2.388 -22.699  1.00  0.00    -0.544 OA
ATOM      8  O   UNL     1      11.848   2.523 -22.480  1.00  0.00    -0.544 OA
ENDBRANCH   1   6
TORSDOF 2
ENDMDL
MODEL 9
REMARK VINA RESULT:    -2.108      7.272      7.576
REMARK INTER + INTRA:          -2.292
REMARK INTER:                  -2.292
REMARK INTRA:                   0.000
REMARK UNBOUND:                 0.000
REMARK SMILES [NH3+]CC(=O)[O-]
REMARK SMILES IDX 2 1 1 2 3 6 4 7 5 8
REMARK H PARENT 1 3 1 4 1 5
REMARK Flexibility Score: inf
ROOT
ATOM      1  C   UNL     1      11.370   4.100 -18.272  1.00  0.00     0.312 C 
ENDROOT
BRANCH   1   2
ATOM      2  N   UNL     1      11.856   2.727 -18.400  1.00  0.00    -0.353 N 
ATOM      3  H   UNL     1      11.631   2.185 -17.534  1.00  0.00     0.344 HD
ATOM      4  H   UNL     1      11.385   2.273 -19.215  1.00  0.00     0.344 HD
ATOM      5  H   UNL     1      12.889   2.726 -18.560  1.00  0.00     0.344 HD
ENDBRANCH   1   2
BRANCH   1   6
ATOM      6  C   UNL     1      11.440   4.555 -16.847  1.00  0.00     0.096 C 
ATOM      7  O   UNL     1      12.210   5.495 -16.518  1.00  0.00    -0.544 OA
ATOM      8  O   UNL     1      10.692   3.905 -15.872  1.00  0.00    -0.544 OA
ENDBRANCH   1   6
TORSDOF 2
ENDMDL
