MODEL 1
REMARK VINA RESULT:    -3.956      0.000      0.000
REMARK INTER + INTRA:          -5.343
REMARK INTER:                  -5.112
REMARK INTRA:                  -0.231
REMARK UNBOUND:                -0.231
REMARK SMILES CCCCCCC(=O)[O-]
REMARK SMILES IDX 5 1 6 2 7 3 8 4 9 5 4 6 3 7 2 8 1 9
REMARK H PARENT
REMARK Flexibility Score: inf
ROOT
ATOM      1  C   UNL     1      -4.294 -27.679  25.988  1.00  0.00     0.006 C 
ENDROOT
BRANCH   1   2
ATOM      2  C   UNL     1      -5.116 -27.844  27.274  1.00  0.00     0.053 C 
BRANCH   2   3
ATOM      3  C   UNL     1      -4.287 -28.391  28.396  1.00  0.00     0.041 C 
ATOM      4  O   UNL     1      -4.838 -28.986  29.358  1.00  0.00    -0.550 OA
ATOM      5  O   UNL     1      -2.910 -28.212  28.392  1.00  0.00    -0.550 OA
ENDBRANCH   2   3
ENDBRANCH   1   2
BRANCH   1   6
ATOM      6  C   UNL     1      -5.182 -27.503  24.748  1.00  0.00     0.000 C 
BRANCH   6   7
ATOM      7  C   UNL     1      -6.452 -26.710  25.090  1.00  0.00    -0.000 C 
BRANCH   7   8
ATOM      8  C   UNL     1      -7.715 -27.316  24.458  1.00  0.00    -0.003 C 
ATOM      9  C   UNL     1      -8.667 -27.914  25.494  1.00  0.00     0.004 C 
ENDBRANCH   7   8
ENDBRANCH   6   7
ENDBRANCH   1   6
TORSDOF 5
ENDMDL
MODEL 2
REMARK VINA RESULT:    -3.619      1.008      1.976
REMARK INTER + INTRA:          -4.908
REMARK INTER:                  -4.721
REMARK INTRA:                  -0.187
REMARK UNBOUND:                -0.231
REMARK SMILES CCCCCCC(=O)[O-]
REMARK SMILES IDX 5 1 6 2 7 3 8 4 9 5 4 6 3 7 2 8 1 9
REMARK H PARENT
REMARK Flexibility Score: inf
ROOT
ATOM      1  C   UNL     1      -5.927 -27.606  26.864  1.00  0.00     0.006 C 
ENDROOT
BRANCH   1   2
ATOM      2  C   UNL     1      -4.417 -27.877  26.872  1.00  0.00     0.053 C 
BRANCH   2   3
ATOM      3  C   UNL     1      -3.934 -28.285  28.231  1.00  0.00     0.041 C 
ATOM      4  O   UNL     1      -2.730 -28.107  28.555  1.00  0.00    -0.550 OA
ATOM      5  O   UNL     1      -4.806 -28.893  29.124  1.00  0.00    -0.550 OA
ENDBRANCH   2   3
ENDBRANCH   1   2
BRANCH   1   6
ATOM      6  C   UNL     1      -6.337 -26.624  25.756  1.00  0.00     0.000 C 
BRANCH   6   7
ATOM      7  C   UNL     1      -7.527 -27.169  24.953  1.00  0.00    -0.000 C 
BRANCH   7   8
ATOM      8  C   UNL     1      -7.111 -27.718  23.580  1.00  0.00    -0.003 C 
ATOM      9  C   UNL     1      -6.192 -26.765  22.815  1.00  0.00     0.004 C 
ENDBRANCH   7   8
ENDBRANCH   6   7
ENDBRANCH   1   6
TORSDOF 5
ENDMDL
MODEL 3
REMARK VINA RESULT:    -3.225      1.525      2.288
REMARK INTER + INTRA:          -4.399
REMARK INTER:                  -4.254
REMARK INTRA:                  -0.145
REMARK UNBOUND:                -0.231
REMARK SMILES CCCCCCC(=O)[O-]
REMARK SMILES IDX 5 1 6 2 7 3 8 4 9 5 4 6 3 7 2 8 1 9
REMARK H PARENT
REMARK Flexibility Score: inf
ROOT
ATOM      1  C   UNL     1      -5.909 -27.174  26.210  1.00  0.00     0.006 C 
ENDROOT
BRANCH   1   2
ATOM      2  C   UNL     1      -4.765 -27.785  25.391  1.00  0.00     0.053 C 
BRANCH   2   3
ATOM      3  C   UNL     1      -3.436 -27.573  26.050  1.00  0.00     0.041 C 
ATOM      4  O   UNL     1      -3.267 -27.900  27.254  1.00  0.00    -0.550 OA
ATOM      5  O   UNL     1      -2.396 -26.985  25.342  1.00  0.00    -0.550 OA
ENDBRANCH   2   3
ENDBRANCH   1   2
BRANCH   1   6
ATOM      6  C   UNL     1      -6.943 -26.462  25.325  1.00  0.00     0.000 C 
BRANCH   6   7
ATOM      7  C   UNL     1      -8.030 -27.439  24.856  1.00  0.00    -0.000 C 
BRANCH   7   8
ATOM      8  C   UNL     1      -8.725 -28.156  26.023  1.00  0.00    -0.003 C 
ATOM      9  C   UNL     1     -10.133 -28.635  25.670  1.00  0.00     0.004 C 
ENDBRANCH   7   8
ENDBRANCH   6   7
ENDBRANCH   1   6
TORSDOF 5
ENDMDL
MODEL 4
REMARK VINA RESULT:    -3.129      1.663      2.693
REMARK INTER + INTRA:          -4.274
REMARK INTER:                  -4.099
REMARK INTRA:                  -0.175
REMARK UNBOUND:                -0.231
REMARK SMILES CCCCCCC(=O)[O-]
REMARK SMILES IDX 5 1 6 2 7 3 8 4 9 5 4 6 3 7 2 8 1 9
REMARK H PARENT
REMARK Flexibility Score: inf
ROOT
ATOM      1  C   UNL     1      -5.859 -26.830  25.067  1.00  0.00     0.006 C 
ENDROOT
BRANCH   1   2
ATOM      2  C   UNL     1      -4.797 -27.930  24.949  1.00  0.00     0.053 C 
BRANCH   2   3
ATOM      3  C   UNL     1      -3.588 -27.626  25.780  1.00  0.00     0.041 C 
ATOM      4  O   UNL     1      -2.560 -27.132  25.247  1.00  0.00    -0.550 OA
ATOM      5  O   UNL     1      -3.588 -27.920  27.137  1.00  0.00    -0.550 OA
ENDBRANCH   2   3
ENDBRANCH   1   2
BRANCH   1   6
ATOM      6  C   UNL     1      -6.995 -27.218  26.026  1.00  0.00     0.000 C 
BRANCH   6   7
ATOM      7  C   UNL     1      -8.251 -27.638  25.248  1.00  0.00    -0.000 C 
BRANCH   7   8
ATOM      8  C   UNL     1      -9.253 -28.412  26.117  1.00  0.00    -0.003 C 
ATOM      9  C   UNL     1      -8.773 -28.592  27.557  1.00  0.00     0.004 C 
ENDBRANCH   7   8
ENDBRANCH   6   7
ENDBRANCH   1   6
TORSDOF 5
ENDMDL
MODEL 5
REMARK VINA RESULT:    -3.084      1.173      1.974
REMARK INTER + INTRA:          -4.216
REMARK INTER:                  -4.030
REMARK INTRA:                  -0.186
REMARK UNBOUND:                -0.231
REMARK SMILES CCCCCCC(=O)[O-]
REMARK SMILES IDX 5 1 6 2 7 3 8 4 9 5 4 6 3 7 2 8 1 9
REMARK H PARENT
REMARK Flexibility Score: inf
ROOT
ATOM      1  C   UNL     1      -5.466 -27.245  25.302  1.00  0.00     0.006 C 
ENDROOT
BRANCH   1   2
ATOM      2  C   UNL     1      -5.199 -27.647  26.758  1.00  0.00     0.053 C 
BRANCH   2   3
ATOM      3  C   UNL     1      -3.734 -27.807  27.030  1.00  0.00     0.041 C 
ATOM      4  O   UNL     1      -2.887 -27.433  26.178  1.00  0.00    -0.550 OA
ATOM      5  O   UNL     1      -3.308 -28.399  28.212  1.00  0.00    -0.550 OA
ENDBRANCH   2   3
ENDBRANCH   1   2
BRANCH   1   6
ATOM      6  C   UNL     1      -6.924 -26.822  25.072  1.00  0.00     0.000 C 
BRANCH   6   7
ATOM      7  C   UNL     1      -7.874 -27.606  25.988  1.00  0.00    -0.000 C 
BRANCH   7   8
ATOM      8  C   UNL     1      -9.105 -28.144  25.243  1.00  0.00    -0.003 C 
ATOM      9  C   UNL     1      -9.336 -27.447  23.902  1.00  0.00     0.004 C 
ENDBRANCH   7   8
ENDBRANCH   6   7
ENDBRANCH   1   6
TORSDOF 5
ENDMDL
MODEL 6
REMARK VINA RESULT:    -2.933      9.422     10.826
REMARK INTER + INTRA:          -4.021
REMARK INTER:                  -3.724
REMARK INTRA:                  -0.297
REMARK UNBOUND:                -0.231
REMARK SMILES CCCCCCC(=O)[O-]
REMARK SMILES IDX 5 1 6 2 7 3 8 4 9 5 4 6 3 7 2 8 1 9
REMARK H PARENT
REMARK Flexibility Score: inf
ROOT
ATOM      1  C   UNL     1     -12.100 -21.966  21.052  1.00  0.00     0.006 C 
ENDROOT
BRANCH   1   2
ATOM      2  C   UNL     1     -11.866 -22.825  22.302  1.00  0.00     0.053 C 
BRANCH   2   3
ATOM      3  C   UNL     1     -12.422 -22.175  23.533  1.00  0.00     0.041 C 
ATOM      4  O   UNL     1     -12.346 -20.927  23.680  1.00  0.00    -0.550 OA
ATOM      5  O   UNL     1     -12.992 -22.955  24.531  1.00  0.00    -0.550 OA
ENDBRANCH   2   3
ENDBRANCH   1   2
BRANCH   1   6
ATOM      6  C   UNL     1     -10.786 -21.455  20.442  1.00  0.00     0.000 C 
BRANCH   6   7
ATOM      7  C   UNL     1     -10.762 -19.920  20.400  1.00  0.00    -0.000 C 
BRANCH   7   8
ATOM      8  C   UNL     1     -12.155 -19.301  20.587  1.00  0.00    -0.003 C 
ATOM      9  C   UNL     1     -12.524 -18.324  19.471  1.00  0.00     0.004 C 
ENDBRANCH   7   8
ENDBRANCH   6   7
ENDBRANCH   1   6
TORSDOF 5
ENDMDL
MODEL 7
REMARK VINA RESULT:    -2.916     16.895     18.087
REMARK INTER + INTRA:          -3.999
REMARK INTER:                  -3.817
REMARK INTRA:                  -0.183
REMARK UNBOUND:                -0.231
REMARK SMILES CCCCCCC(=O)[O-]
REMARK SMILES IDX 5 1 6 2 7 3 8 4 9 5 4 6 3 7 2 8 1 9
REMARK H PARENT
REMARK Flexibility Score: inf
ROOT
ATOM      1  C   UNL     1     -16.347 -14.214  26.087  1.00  0.00     0.006 C 
ENDROOT
BRANCH   1   2
ATOM      2  C   UNL     1     -16.990 -13.525  24.877  1.00  0.00     0.053 C 
BRANCH   2   3
ATOM      3  C   UNL     1     -18.291 -12.874  25.236  1.00  0.00     0.041 C 
ATOM      4  O   UNL     1     -19.168 -13.517  25.871  1.00  0.00    -0.550 OA
ATOM      5  O   UNL     1     -18.546 -11.567  24.840  1.00  0.00    -0.550 OA
ENDBRANCH   2   3
ENDBRANCH   1   2
BRANCH   1   6
ATOM      6  C   UNL     1     -16.360 -15.745  25.961  1.00  0.00     0.000 C 
BRANCH   6   7
ATOM      7  C   UNL     1     -15.220 -16.373  26.775  1.00  0.00    -0.000 C 
BRANCH   7   8
ATOM      8  C   UNL     1     -14.760 -15.478  27.936  1.00  0.00    -0.003 C 
ATOM      9  C   UNL     1     -13.494 -15.997  28.618  1.00  0.00     0.004 C 
ENDBRANCH   7   8
ENDBRANCH   6   7
ENDBRANCH   1   6
TORSDOF 5
ENDMDL
MODEL 8
REMARK VINA RESULT:    -2.901     10.311     11.145
REMARK INTER + INTRA:          -3.980
REMARK INTER:                  -3.816
REMARK INTRA:                  -0.165
REMARK UNBOUND:                -0.231
REMARK SMILES CCCCCCC(=O)[O-]
REMARK SMILES IDX 5 1 6 2 7 3 8 4 9 5 4 6 3 7 2 8 1 9
REMARK H PARENT
REMARK Flexibility Score: inf
ROOT
ATOM      1  C   UNL     1     -11.393 -21.591  20.953  1.00  0.00     0.006 C 
ENDROOT
BRANCH   1   2
ATOM      2  C   UNL     1     -11.774 -20.486  21.947  1.00  0.00     0.053 C 
BRANCH   2   3
ATOM      3  C   UNL     1     -12.748 -20.976  22.975  1.00  0.00     0.041 C 
ATOM      4  O   UNL     1     -12.342 -21.631  23.971  1.00  0.00    -0.550 OA
ATOM      5  O   UNL     1     -14.106 -20.737  22.815  1.00  0.00    -0.550 OA
ENDBRANCH   2   3
ENDBRANCH   1   2
BRANCH   1   6
ATOM      6  C   UNL     1     -10.377 -21.108  19.907  1.00  0.00     0.000 C 
BRANCH   6   7
ATOM      7  C   UNL     1      -9.915 -19.676  20.210  1.00  0.00    -0.000 C 
BRANCH   7   8
ATOM      8  C   UNL     1      -8.538 -19.359  19.609  1.00  0.00    -0.003 C 
ATOM      9  C   UNL     1      -7.533 -18.876  20.654  1.00  0.00     0.004 C 
ENDBRANCH   7   8
ENDBRANCH   6   7
ENDBRANCH   1   6
TORSDOF 5
ENDMDL
MODEL 9
REMARK VINA RESULT:    -2.872     17.672     18.878
REMARK INTER + INTRA:          -3.943
REMARK INTER:                  -3.850
REMARK INTRA:                  -0.093
REMARK UNBOUND:                -0.231
REMARK SMILES CCCCCCC(=O)[O-]
REMARK SMILES IDX 5 1 6 2 7 3 8 4 9 5 4 6 3 7 2 8 1 9
REMARK H PARENT
REMARK Flexibility Score: inf
ROOT
ATOM      1  C   UNL     1     -16.768 -13.415  24.887  1.00  0.00     0.006 C 
ENDROOT
BRANCH   1   2
ATOM      2  C   UNL     1     -18.100 -12.691  25.124  1.00  0.00     0.053 C 
BRANCH   2   3
ATOM      3  C   UNL     1     -18.671 -12.148  23.850  1.00  0.00     0.041 C 
ATOM      4  O   UNL     1     -19.543 -11.241  23.883  1.00  0.00    -0.550 OA
ATOM      5  O   UNL     1     -18.263 -12.669  22.629  1.00  0.00    -0.550 OA
ENDBRANCH   2   3
ENDBRANCH   1   2
BRANCH   1   6
ATOM      6  C   UNL     1     -16.759 -14.828  25.489  1.00  0.00     0.000 C 
BRANCH   6   7
ATOM      7  C   UNL     1     -15.835 -14.897  26.713  1.00  0.00    -0.000 C 
BRANCH   7   8
ATOM      8  C   UNL     1     -15.180 -16.276  26.883  1.00  0.00    -0.003 C 
ATOM      9  C   UNL     1     -14.352 -16.385  28.163  1.00  0.00     0.004 C 
ENDBRANCH   7   8
ENDBRANCH   6   7
ENDBRANCH   1   6
TORSDOF 5
ENDMDL
