MODEL 1
REMARK VINA RESULT:    -4.091      0.000      0.000
REMARK INTER + INTRA:          -4.091
REMARK INTER:                  -4.091
REMARK INTRA:                   0.000
REMARK UNBOUND:                 0.000
REMARK SMILES O=C1CCCCC1
REMARK SMILES IDX 5 1 4 2 3 3 2 4 1 5 7 6 6 7
REMARK H PARENT
REMARK Flexibility Score: inf
ROOT
ATOM      1  C   UNL     1      16.013  41.988 -13.980  1.00  0.00     0.001 C 
ATOM      2  C   UNL     1      15.405  42.652 -12.736  1.00  0.00     0.008 C 
ATOM      3  C   UNL     1      14.205  43.536 -13.102  1.00  0.00     0.075 C 
ATOM      4  C   UNL     1      14.570  44.477 -14.217  1.00  0.00     0.132 C 
ATOM      5  O   UNL     1      14.223  45.647 -14.175  1.00  0.00    -0.300 OA
ATOM      6  C   UNL     1      15.283  43.939 -15.428  1.00  0.00     0.075 C 
ATOM      7  C   UNL     1      16.454  43.045 -15.004  1.00  0.00     0.008 C 
ENDROOT
TORSDOF 0
ENDMDL
MODEL 2
REMARK VINA RESULT:    -3.964      1.588      2.848
REMARK INTER + INTRA:          -3.964
REMARK INTER:                  -3.964
REMARK INTRA:                   0.000
REMARK UNBOUND:                 0.000
REMARK SMILES O=C1CCCCC1
REMARK SMILES IDX 5 1 4 2 3 3 2 4 1 5 7 6 6 7
REMARK H PARENT
REMARK Flexibility Score: inf
ROOT
ATOM      1  C   UNL     1      13.875  43.621 -13.123  1.00  0.00     0.001 C 
ATOM      2  C   UNL     1      14.352  44.695 -14.112  1.00  0.00     0.008 C 
ATOM      3  C   UNL     1      15.072  44.070 -15.314  1.00  0.00     0.075 C 
ATOM      4  C   UNL     1      16.132  43.111 -14.848  1.00  0.00     0.132 C 
ATOM      5  O   UNL     1      17.232  43.102 -15.379  1.00  0.00    -0.300 OA
ATOM      6  C   UNL     1      15.793  42.100 -13.788  1.00  0.00     0.075 C 
ATOM      7  C   UNL     1      15.055  42.773 -12.624  1.00  0.00     0.008 C 
ENDROOT
TORSDOF 0
ENDMDL
MODEL 3
REMARK VINA RESULT:    -3.956      1.933      2.726
REMARK INTER + INTRA:          -3.956
REMARK INTER:                  -3.956
REMARK INTRA:                   0.000
REMARK UNBOUND:                 0.000
REMARK SMILES O=C1CCCCC1
REMARK SMILES IDX 5 1 4 2 3 3 2 4 1 5 7 6 6 7
REMARK H PARENT
REMARK Flexibility Score: inf
ROOT
ATOM      1  C   UNL     1      14.593  44.697 -14.329  1.00  0.00     0.001 C 
ATOM      2  C   UNL     1      13.995  43.733 -13.294  1.00  0.00     0.008 C 
ATOM      3  C   UNL     1      15.067  42.804 -12.708  1.00  0.00     0.075 C 
ATOM      4  C   UNL     1      15.855  42.153 -13.811  1.00  0.00     0.132 C 
ATOM      5  O   UNL     1      16.132  40.965 -13.751  1.00  0.00    -0.300 OA
ATOM      6  C   UNL     1      16.377  42.999 -14.939  1.00  0.00     0.075 C 
ATOM      7  C   UNL     1      15.273  43.923 -15.469  1.00  0.00     0.008 C 
ENDROOT
TORSDOF 0
ENDMDL
MODEL 4
REMARK VINA RESULT:    -3.623      1.646      2.884
REMARK INTER + INTRA:          -3.623
REMARK INTER:                  -3.623
REMARK INTRA:                   0.000
REMARK UNBOUND:                 0.000
REMARK SMILES O=C1CCCCC1
REMARK SMILES IDX 5 1 4 2 3 3 2 4 1 5 7 6 6 7
REMARK H PARENT
REMARK Flexibility Score: inf
ROOT
ATOM      1  C   UNL     1      15.406  44.075 -15.723  1.00  0.00     0.001 C 
ATOM      2  C   UNL     1      16.664  43.288 -15.326  1.00  0.00     0.008 C 
ATOM      3  C   UNL     1      16.330  42.155 -14.347  1.00  0.00     0.075 C 
ATOM      4  C   UNL     1      15.512  42.680 -13.199  1.00  0.00     0.132 C 
ATOM      5  O   UNL     1      15.759  42.328 -12.056  1.00  0.00    -0.300 OA
ATOM      6  C   UNL     1      14.330  43.565 -13.483  1.00  0.00     0.075 C 
ATOM      7  C   UNL     1      14.713  44.662 -14.483  1.00  0.00     0.008 C 
ENDROOT
TORSDOF 0
ENDMDL
MODEL 5
REMARK VINA RESULT:    -3.443     14.359     15.364
REMARK INTER + INTRA:          -3.443
REMARK INTER:                  -3.443
REMARK INTRA:                   0.000
REMARK UNBOUND:                 0.000
REMARK SMILES O=C1CCCCC1
REMARK SMILES IDX 5 1 4 2 3 3 2 4 1 5 7 6 6 7
REMARK H PARENT
REMARK Flexibility Score: inf
ROOT
ATOM      1  C   UNL     1      17.143  44.073   0.808  1.00  0.00     0.001 C 
ATOM      2  C   UNL     1      17.636  42.727   1.359  1.00  0.00     0.008 C 
ATOM      3  C   UNL     1      19.125  42.781   1.723  1.00  0.00     0.075 C 
ATOM      4  C   UNL     1      19.924  43.337   0.576  1.00  0.00     0.132 C 
ATOM      5  O   UNL     1      20.985  42.822   0.257  1.00  0.00    -0.300 OA
ATOM      6  C   UNL     1      19.450  44.588  -0.111  1.00  0.00     0.075 C 
ATOM      7  C   UNL     1      17.954  44.489  -0.429  1.00  0.00     0.008 C 
ENDROOT
TORSDOF 0
ENDMDL
MODEL 6
REMARK VINA RESULT:    -3.419     14.162     15.053
REMARK INTER + INTRA:          -3.419
REMARK INTER:                  -3.419
REMARK INTRA:                   0.000
REMARK UNBOUND:                 0.000
REMARK SMILES O=C1CCCCC1
REMARK SMILES IDX 5 1 4 2 3 3 2 4 1 5 7 6 6 7
REMARK H PARENT
REMARK Flexibility Score: inf
ROOT
ATOM      1  C   UNL     1      18.754  42.939   1.805  1.00  0.00     0.001 C 
ATOM      2  C   UNL     1      17.368  43.526   1.497  1.00  0.00     0.008 C 
ATOM      3  C   UNL     1      17.254  43.953   0.028  1.00  0.00     0.075 C 
ATOM      4  C   UNL     1      18.420  44.823  -0.356  1.00  0.00     0.132 C 
ATOM      5  O   UNL     1      18.244  45.827  -1.028  1.00  0.00    -0.300 OA
ATOM      6  C   UNL     1      19.812  44.391   0.015  1.00  0.00     0.075 C 
ATOM      7  C   UNL     1      19.862  43.953   1.483  1.00  0.00     0.008 C 
ENDROOT
TORSDOF 0
ENDMDL
MODEL 7
REMARK VINA RESULT:    -3.418     13.996     14.991
REMARK INTER + INTRA:          -3.418
REMARK INTER:                  -3.418
REMARK INTRA:                   0.000
REMARK UNBOUND:                 0.000
REMARK SMILES O=C1CCCCC1
REMARK SMILES IDX 5 1 4 2 3 3 2 4 1 5 7 6 6 7
REMARK H PARENT
REMARK Flexibility Score: inf
ROOT
ATOM      1  C   UNL     1      19.833  44.199   1.318  1.00  0.00     0.001 C 
ATOM      2  C   UNL     1      19.542  44.709  -0.101  1.00  0.00     0.008 C 
ATOM      3  C   UNL     1      18.059  44.551  -0.461  1.00  0.00     0.075 C 
ATOM      4  C   UNL     1      17.599  43.147  -0.176  1.00  0.00     0.132 C 
ATOM      5  O   UNL     1      16.888  42.558  -0.974  1.00  0.00    -0.300 OA
ATOM      6  C   UNL     1      17.945  42.515   1.144  1.00  0.00     0.075 C 
ATOM      7  C   UNL     1      19.430  42.724   1.464  1.00  0.00     0.008 C 
ENDROOT
TORSDOF 0
ENDMDL
MODEL 8
REMARK VINA RESULT:    -3.405     14.332     15.209
REMARK INTER + INTRA:          -3.405
REMARK INTER:                  -3.405
REMARK INTRA:                   0.000
REMARK UNBOUND:                 0.000
REMARK SMILES O=C1CCCCC1
REMARK SMILES IDX 5 1 4 2 3 3 2 4 1 5 7 6 6 7
REMARK H PARENT
REMARK Flexibility Score: inf
ROOT
ATOM      1  C   UNL     1      19.941  43.839   0.065  1.00  0.00     0.001 C 
ATOM      2  C   UNL     1      19.618  43.367   1.491  1.00  0.00     0.008 C 
ATOM      3  C   UNL     1      18.184  42.832   1.593  1.00  0.00     0.075 C 
ATOM      4  C   UNL     1      17.213  43.821   1.008  1.00  0.00     0.132 C 
ATOM      5  O   UNL     1      16.162  44.064   1.580  1.00  0.00    -0.300 OA
ATOM      6  C   UNL     1      17.508  44.434  -0.333  1.00  0.00     0.075 C 
ATOM      7  C   UNL     1      18.958  44.929  -0.387  1.00  0.00     0.008 C 
ENDROOT
TORSDOF 0
ENDMDL
MODEL 9
REMARK VINA RESULT:    -3.352      1.222      2.288
REMARK INTER + INTRA:          -3.352
REMARK INTER:                  -3.352
REMARK INTRA:                   0.000
REMARK UNBOUND:                 0.000
REMARK SMILES O=C1CCCCC1
REMARK SMILES IDX 5 1 4 2 3 3 2 4 1 5 7 6 6 7
REMARK H PARENT
REMARK Flexibility Score: inf
ROOT
ATOM      1  C   UNL     1      14.851  42.060 -12.740  1.00  0.00     0.001 C 
ATOM      2  C   UNL     1      15.753  41.478 -13.838  1.00  0.00     0.008 C 
ATOM      3  C   UNL     1      16.547  42.580 -14.553  1.00  0.00     0.075 C 
ATOM      4  C   UNL     1      15.627  43.684 -14.996  1.00  0.00     0.132 C 
ATOM      5  O   UNL     1      15.748  44.180 -16.105  1.00  0.00    -0.300 OA
ATOM      6  C   UNL     1      14.620  44.235 -14.024  1.00  0.00     0.075 C 
ATOM      7  C   UNL     1      13.875  43.093 -13.322  1.00  0.00     0.008 C 
ENDROOT
TORSDOF 0
ENDMDL
