MODEL 1
REMARK VINA RESULT:    -2.543      0.000      0.000
REMARK INTER + INTRA:          -3.087
REMARK INTER:                  -2.989
REMARK INTRA:                  -0.098
REMARK UNBOUND:                -0.098
REMARK SMILES O=C([O-])CCC(=O)[O-]
REMARK SMILES IDX 4 1 2 2 1 3 3 4 5 5 6 6 7 7 8 8
REMARK H PARENT
REMARK Flexibility Score: inf
ROOT
ATOM      1  C   UNL     1       7.827 -21.307  16.778  1.00  0.00     0.059 C 
ENDROOT
BRANCH   1   2
ATOM      2  C   UNL     1       6.560 -22.100  16.849  1.00  0.00     0.042 C 
ATOM      3  O   UNL     1       5.842 -22.054  17.882  1.00  0.00    -0.550 OA
ATOM      4  O   UNL     1       6.199 -22.928  15.794  1.00  0.00    -0.550 OA
ENDBRANCH   1   2
BRANCH   1   5
ATOM      5  C   UNL     1       8.682 -21.769  15.597  1.00  0.00     0.059 C 
BRANCH   5   6
ATOM      6  C   UNL     1       8.597 -20.784  14.473  1.00  0.00     0.042 C 
ATOM      7  O   UNL     1       9.027 -19.611  14.625  1.00  0.00    -0.550 OA
ATOM      8  O   UNL     1       7.998 -21.147  13.274  1.00  0.00    -0.550 OA
ENDBRANCH   5   6
ENDBRANCH   1   5
TORSDOF 3
ENDMDL
MODEL 2
REMARK VINA RESULT:    -2.536      0.089      3.631
REMARK INTER + INTRA:          -3.079
REMARK INTER:                  -2.980
REMARK INTRA:                  -0.099
REMARK UNBOUND:                -0.098
REMARK SMILES O=C([O-])CCC(=O)[O-]
REMARK SMILES IDX 4 1 2 2 1 3 3 4 5 5 6 6 7 7 8 8
REMARK H PARENT
REMARK Flexibility Score: inf
ROOT
ATOM      1  C   UNL     1       8.751 -21.748  15.617  1.00  0.00     0.059 C 
ENDROOT
BRANCH   1   2
ATOM      2  C   UNL     1       8.619 -20.771  14.492  1.00  0.00     0.042 C 
ATOM      3  O   UNL     1       9.006 -19.582  14.637  1.00  0.00    -0.550 OA
ATOM      4  O   UNL     1       8.023 -21.161  13.300  1.00  0.00    -0.550 OA
ENDBRANCH   1   2
BRANCH   1   5
ATOM      5  C   UNL     1       7.859 -21.337  16.790  1.00  0.00     0.059 C 
BRANCH   5   6
ATOM      6  C   UNL     1       6.596 -22.139  16.792  1.00  0.00     0.042 C 
ATOM      7  O   UNL     1       5.792 -22.052  17.757  1.00  0.00    -0.550 OA
ATOM      8  O   UNL     1       6.328 -23.019  15.752  1.00  0.00    -0.550 OA
ENDBRANCH   5   6
ENDBRANCH   1   5
TORSDOF 3
ENDMDL
MODEL 3
REMARK VINA RESULT:    -2.372      1.708      2.102
REMARK INTER + INTRA:          -2.886
REMARK INTER:                  -2.855
REMARK INTRA:                  -0.031
REMARK UNBOUND:                -0.098
REMARK SMILES O=C([O-])CCC(=O)[O-]
REMARK SMILES IDX 4 1 2 2 1 3 3 4 5 5 6 6 7 7 8 8
REMARK H PARENT
REMARK Flexibility Score: inf
ROOT
ATOM      1  C   UNL     1       8.091 -21.421  14.958  1.00  0.00     0.059 C 
ENDROOT
BRANCH   1   2
ATOM      2  C   UNL     1       8.104 -21.567  16.446  1.00  0.00     0.042 C 
ATOM      3  O   UNL     1       9.099 -22.078  17.023  1.00  0.00    -0.550 OA
ATOM      4  O   UNL     1       6.997 -21.183  17.192  1.00  0.00    -0.550 OA
ENDBRANCH   1   2
BRANCH   1   5
ATOM      5  C   UNL     1       8.939 -20.223  14.529  1.00  0.00     0.059 C 
BRANCH   5   6
ATOM      6  C   UNL     1       8.719 -19.917  13.081  1.00  0.00     0.042 C 
ATOM      7  O   UNL     1       9.119 -18.827  12.595  1.00  0.00    -0.550 OA
ATOM      8  O   UNL     1       8.028 -20.815  12.278  1.00  0.00    -0.550 OA
ENDBRANCH   5   6
ENDBRANCH   1   5
TORSDOF 3
ENDMDL
MODEL 4
REMARK VINA RESULT:    -2.290      1.536      2.000
REMARK INTER + INTRA:          -2.790
REMARK INTER:                  -2.674
REMARK INTRA:                  -0.116
REMARK UNBOUND:                -0.098
REMARK SMILES O=C([O-])CCC(=O)[O-]
REMARK SMILES IDX 4 1 2 2 1 3 3 4 5 5 6 6 7 7 8 8
REMARK H PARENT
REMARK Flexibility Score: inf
ROOT
ATOM      1  C   UNL     1       8.383 -20.902  15.279  1.00  0.00     0.059 C 
ENDROOT
BRANCH   1   2
ATOM      2  C   UNL     1       7.669 -21.655  16.356  1.00  0.00     0.042 C 
ATOM      3  O   UNL     1       8.026 -21.536  17.556  1.00  0.00    -0.550 OA
ATOM      4  O   UNL     1       6.640 -22.529  16.027  1.00  0.00    -0.550 OA
ENDBRANCH   1   2
BRANCH   1   5
ATOM      5  C   UNL     1       8.635 -21.804  14.070  1.00  0.00     0.059 C 
BRANCH   5   6
ATOM      6  C   UNL     1       7.818 -21.353  12.901  1.00  0.00     0.042 C 
ATOM      7  O   UNL     1       6.655 -21.803  12.729  1.00  0.00    -0.550 OA
ATOM      8  O   UNL     1       8.359 -20.473  11.972  1.00  0.00    -0.550 OA
ENDBRANCH   5   6
ENDBRANCH   1   5
TORSDOF 3
ENDMDL
MODEL 5
REMARK VINA RESULT:    -2.257      1.777      4.344
REMARK INTER + INTRA:          -2.751
REMARK INTER:                  -2.695
REMARK INTRA:                  -0.056
REMARK UNBOUND:                -0.098
REMARK SMILES O=C([O-])CCC(=O)[O-]
REMARK SMILES IDX 4 1 2 2 1 3 3 4 5 5 6 6 7 7 8 8
REMARK H PARENT
REMARK Flexibility Score: inf
ROOT
ATOM      1  C   UNL     1       9.005 -21.157  13.437  1.00  0.00     0.059 C 
ENDROOT
BRANCH   1   2
ATOM      2  C   UNL     1       8.817 -20.153  12.344  1.00  0.00     0.042 C 
ATOM      3  O   UNL     1       8.787 -20.524  11.142  1.00  0.00    -0.550 OA
ATOM      4  O   UNL     1       8.725 -18.802  12.652  1.00  0.00    -0.550 OA
ENDBRANCH   1   2
BRANCH   1   5
ATOM      5  C   UNL     1       8.754 -20.516  14.803  1.00  0.00     0.059 C 
BRANCH   5   6
ATOM      6  C   UNL     1       7.969 -21.441  15.678  1.00  0.00     0.042 C 
ATOM      7  O   UNL     1       8.017 -21.322  16.931  1.00  0.00    -0.550 OA
ATOM      8  O   UNL     1       7.222 -22.467  15.114  1.00  0.00    -0.550 OA
ENDBRANCH   5   6
ENDBRANCH   1   5
TORSDOF 3
ENDMDL
MODEL 6
REMARK VINA RESULT:    -2.215     13.018     14.882
REMARK INTER + INTRA:          -2.702
REMARK INTER:                  -2.619
REMARK INTRA:                  -0.084
REMARK UNBOUND:                -0.098
REMARK SMILES O=C([O-])CCC(=O)[O-]
REMARK SMILES IDX 4 1 2 2 1 3 3 4 5 5 6 6 7 7 8 8
REMARK H PARENT
REMARK Flexibility Score: inf
ROOT
ATOM      1  C   UNL     1      -6.428 -23.106  16.979  1.00  0.00     0.059 C 
ENDROOT
BRANCH   1   2
ATOM      2  C   UNL     1      -5.360 -22.192  16.467  1.00  0.00     0.042 C 
ATOM      3  O   UNL     1      -5.661 -21.216  15.732  1.00  0.00    -0.550 OA
ATOM      4  O   UNL     1      -4.027 -22.448  16.760  1.00  0.00    -0.550 OA
ENDBRANCH   1   2
BRANCH   1   5
ATOM      5  C   UNL     1      -7.719 -22.328  17.238  1.00  0.00     0.059 C 
BRANCH   5   6
ATOM      6  C   UNL     1      -7.942 -22.158  18.707  1.00  0.00     0.042 C 
ATOM      7  O   UNL     1      -8.816 -21.354  19.127  1.00  0.00    -0.550 OA
ATOM      8  O   UNL     1      -7.151 -22.849  19.616  1.00  0.00    -0.550 OA
ENDBRANCH   5   6
ENDBRANCH   1   5
TORSDOF 3
ENDMDL
MODEL 7
REMARK VINA RESULT:    -2.178     16.513     17.601
REMARK INTER + INTRA:          -2.658
REMARK INTER:                  -2.594
REMARK INTRA:                  -0.065
REMARK UNBOUND:                -0.098
REMARK SMILES O=C([O-])CCC(=O)[O-]
REMARK SMILES IDX 4 1 2 2 1 3 3 4 5 5 6 6 7 7 8 8
REMARK H PARENT
REMARK Flexibility Score: inf
ROOT
ATOM      1  C   UNL     1     -10.452 -20.630  16.695  1.00  0.00     0.059 C 
ENDROOT
BRANCH   1   2
ATOM      2  C   UNL     1     -10.059 -20.578  15.253  1.00  0.00     0.042 C 
ATOM      3  O   UNL     1     -10.933 -20.396  14.365  1.00  0.00    -0.550 OA
ATOM      4  O   UNL     1      -8.735 -20.781  14.886  1.00  0.00    -0.550 OA
ENDBRANCH   1   2
BRANCH   1   5
ATOM      5  C   UNL     1      -9.890 -21.889  17.358  1.00  0.00     0.059 C 
BRANCH   5   6
ATOM      6  C   UNL     1      -9.082 -21.529  18.564  1.00  0.00     0.042 C 
ATOM      7  O   UNL     1      -7.912 -21.974  18.699  1.00  0.00    -0.550 OA
ATOM      8  O   UNL     1      -9.638 -20.742  19.565  1.00  0.00    -0.550 OA
ENDBRANCH   5   6
ENDBRANCH   1   5
TORSDOF 3
ENDMDL
MODEL 8
REMARK VINA RESULT:    -2.174      1.686      3.732
REMARK INTER + INTRA:          -2.654
REMARK INTER:                  -2.623
REMARK INTRA:                  -0.030
REMARK UNBOUND:                -0.098
REMARK SMILES O=C([O-])CCC(=O)[O-]
REMARK SMILES IDX 4 1 2 2 1 3 3 4 5 5 6 6 7 7 8 8
REMARK H PARENT
REMARK Flexibility Score: inf
ROOT
ATOM      1  C   UNL     1       8.024 -22.288  14.277  1.00  0.00     0.059 C 
ENDROOT
BRANCH   1   2
ATOM      2  C   UNL     1       7.445 -21.730  13.016  1.00  0.00     0.042 C 
ATOM      3  O   UNL     1       7.926 -20.685  12.506  1.00  0.00    -0.550 OA
ATOM      4  O   UNL     1       6.342 -22.337  12.430  1.00  0.00    -0.550 OA
ENDBRANCH   1   2
BRANCH   1   5
ATOM      5  C   UNL     1       8.195 -21.184  15.322  1.00  0.00     0.059 C 
BRANCH   5   6
ATOM      6  C   UNL     1       7.902 -21.709  16.691  1.00  0.00     0.042 C 
ATOM      7  O   UNL     1       8.531 -22.704  17.137  1.00  0.00    -0.550 OA
ATOM      8  O   UNL     1       6.898 -21.131  17.458  1.00  0.00    -0.550 OA
ENDBRANCH   5   6
ENDBRANCH   1   5
TORSDOF 3
ENDMDL
MODEL 9
REMARK VINA RESULT:    -2.162     13.237     14.686
REMARK INTER + INTRA:          -2.640
REMARK INTER:                  -2.543
REMARK INTRA:                  -0.097
REMARK UNBOUND:                -0.098
REMARK SMILES O=C([O-])CCC(=O)[O-]
REMARK SMILES IDX 4 1 2 2 1 3 3 4 5 5 6 6 7 7 8 8
REMARK H PARENT
REMARK Flexibility Score: inf
ROOT
ATOM      1  C   UNL     1      -7.029 -22.787  18.196  1.00  0.00     0.059 C 
ENDROOT
BRANCH   1   2
ATOM      2  C   UNL     1      -8.347 -22.078  18.212  1.00  0.00     0.042 C 
ATOM      3  O   UNL     1      -8.987 -21.906  17.143  1.00  0.00    -0.550 OA
ATOM      4  O   UNL     1      -8.843 -21.564  19.403  1.00  0.00    -0.550 OA
ENDBRANCH   1   2
BRANCH   1   5
ATOM      5  C   UNL     1      -6.566 -23.022  16.757  1.00  0.00     0.059 C 
BRANCH   5   6
ATOM      6  C   UNL     1      -5.395 -22.148  16.435  1.00  0.00     0.042 C 
ATOM      7  O   UNL     1      -5.537 -21.149  15.681  1.00  0.00    -0.550 OA
ATOM      8  O   UNL     1      -4.135 -22.463  16.928  1.00  0.00    -0.550 OA
ENDBRANCH   5   6
ENDBRANCH   1   5
TORSDOF 3
ENDMDL
