MODEL 1
REMARK VINA RESULT:    -2.624      0.000      0.000
REMARK INTER + INTRA:          -3.098
REMARK INTER:                  -2.777
REMARK INTRA:                  -0.321
REMARK UNBOUND:                -0.321
REMARK SMILES C=C(C)[C@@H]1CC[C@H](C)[C@]12CC=C(C)CC2
REMARK SMILES IDX 8 1 7 2 6 3 5 4 4 5 9 6 15 7 14 8 12 9 11 10 10 11 13 12
REMARK SMILES IDX 2 13 1 14 3 15
REMARK H PARENT
REMARK Flexibility Score: inf
ROOT
ATOM      1  C   UNL     1     164.816 160.641 138.606  1.00  0.00     0.008 C 
ATOM      2  C   UNL     1     163.340 160.780 139.016  1.00  0.00    -0.007 C 
ATOM      3  C   UNL     1     162.644 161.951 138.314  1.00  0.00     0.004 C 
ATOM      4  C   UNL     1     161.189 161.533 138.116  1.00  0.00     0.009 C 
ATOM      5  C   UNL     1     161.026 160.181 138.828  1.00  0.00     0.021 C 
ATOM      6  C   UNL     1     162.441 159.529 138.785  1.00  0.00    -0.017 C 
ATOM      7  C   UNL     1     162.653 158.499 139.961  1.00  0.00     0.012 C 
ATOM      8  C   UNL     1     162.760 157.042 139.486  1.00  0.00     0.031 C 
ATOM      9  C   UNL     1     163.824 156.948 138.418  1.00  0.00    -0.077 C 
ATOM     10  C   UNL     1     163.812 157.853 137.427  1.00  0.00    -0.027 C 
ATOM     11  C   UNL     1     162.712 158.878 137.375  1.00  0.00     0.035 C 
ATOM     12  C   UNL     1     164.925 155.929 138.500  1.00  0.00     0.039 C 
ENDROOT
BRANCH   5  13
ATOM     13  C   UNL     1     159.863 159.319 138.318  1.00  0.00    -0.077 C 
ATOM     14  C   UNL     1     159.245 158.474 139.161  1.00  0.00     0.008 C 
ATOM     15  C   UNL     1     159.311 159.473 136.918  1.00  0.00     0.039 C 
ENDBRANCH   5  13
TORSDOF 1
ENDMDL
MODEL 2
REMARK VINA RESULT:    -2.586     13.167     16.343
REMARK INTER + INTRA:          -3.057
REMARK INTER:                  -2.745
REMARK INTRA:                  -0.313
REMARK UNBOUND:                -0.321
REMARK SMILES C=C(C)[C@@H]1CC[C@H](C)[C@]12CC=C(C)CC2
REMARK SMILES IDX 8 1 7 2 6 3 5 4 4 5 9 6 15 7 14 8 12 9 11 10 10 11 13 12
REMARK SMILES IDX 2 13 1 14 3 15
REMARK H PARENT
REMARK Flexibility Score: inf
ROOT
ATOM      1  C   UNL     1     167.205 171.368 138.799  1.00  0.00     0.008 C 
ATOM      2  C   UNL     1     168.694 171.249 139.169  1.00  0.00    -0.007 C 
ATOM      3  C   UNL     1     169.371 170.049 138.500  1.00  0.00     0.004 C 
ATOM      4  C   UNL     1     170.818 170.459 138.238  1.00  0.00     0.009 C 
ATOM      5  C   UNL     1     171.000 171.842 138.883  1.00  0.00     0.021 C 
ATOM      6  C   UNL     1     169.582 172.490 138.853  1.00  0.00    -0.017 C 
ATOM      7  C   UNL     1     169.404 173.572 139.988  1.00  0.00     0.012 C 
ATOM      8  C   UNL     1     169.279 175.005 139.451  1.00  0.00     0.031 C 
ATOM      9  C   UNL     1     168.182 175.050 138.414  1.00  0.00    -0.077 C 
ATOM     10  C   UNL     1     168.165 174.101 137.464  1.00  0.00    -0.027 C 
ATOM     11  C   UNL     1     169.266 173.076 137.425  1.00  0.00     0.035 C 
ATOM     12  C   UNL     1     167.081 176.070 138.483  1.00  0.00     0.039 C 
ENDROOT
BRANCH   5  13
ATOM     13  C   UNL     1     172.144 172.681 138.299  1.00  0.00    -0.077 C 
ATOM     14  C   UNL     1     172.813 173.534 139.094  1.00  0.00     0.008 C 
ATOM     15  C   UNL     1     172.621 172.497 136.875  1.00  0.00     0.039 C 
ENDBRANCH   5  13
TORSDOF 1
ENDMDL
MODEL 3
REMARK VINA RESULT:    -2.439      2.709      5.101
REMARK INTER + INTRA:          -2.903
REMARK INTER:                  -2.581
REMARK INTRA:                  -0.321
REMARK UNBOUND:                -0.321
REMARK SMILES C=C(C)[C@@H]1CC[C@H](C)[C@]12CC=C(C)CC2
REMARK SMILES IDX 8 1 7 2 6 3 5 4 4 5 9 6 15 7 14 8 12 9 11 10 10 11 13 12
REMARK SMILES IDX 2 13 1 14 3 15
REMARK H PARENT
REMARK Flexibility Score: inf
ROOT
ATOM      1  C   UNL     1     163.300 156.222 139.302  1.00  0.00     0.008 C 
ATOM      2  C   UNL     1     164.184 157.088 138.389  1.00  0.00    -0.007 C 
ATOM      3  C   UNL     1     163.382 158.153 137.633  1.00  0.00     0.004 C 
ATOM      4  C   UNL     1     164.307 159.357 137.472  1.00  0.00     0.009 C 
ATOM      5  C   UNL     1     165.679 158.926 138.014  1.00  0.00     0.021 C 
ATOM      6  C   UNL     1     165.365 157.833 139.080  1.00  0.00    -0.017 C 
ATOM      7  C   UNL     1     166.574 156.838 139.280  1.00  0.00     0.012 C 
ATOM      8  C   UNL     1     167.245 156.962 140.656  1.00  0.00     0.031 C 
ATOM      9  C   UNL     1     166.193 156.836 141.732  1.00  0.00    -0.077 C 
ATOM     10  C   UNL     1     165.063 157.550 141.603  1.00  0.00    -0.027 C 
ATOM     11  C   UNL     1     164.914 158.492 140.439  1.00  0.00     0.035 C 
ATOM     12  C   UNL     1     166.355 155.875 142.876  1.00  0.00     0.039 C 
ENDROOT
BRANCH   5  13
ATOM     13  C   UNL     1     166.586 160.078 138.466  1.00  0.00    -0.077 C 
ATOM     14  C   UNL     1     167.919 159.907 138.478  1.00  0.00     0.008 C 
ATOM     15  C   UNL     1     166.031 161.447 138.795  1.00  0.00     0.039 C 
ENDBRANCH   5  13
TORSDOF 1
ENDMDL
MODEL 4
REMARK VINA RESULT:    -2.437     12.873     15.806
REMARK INTER + INTRA:          -2.900
REMARK INTER:                  -2.579
REMARK INTRA:                  -0.321
REMARK UNBOUND:                -0.321
REMARK SMILES C=C(C)[C@@H]1CC[C@H](C)[C@]12CC=C(C)CC2
REMARK SMILES IDX 8 1 7 2 6 3 5 4 4 5 9 6 15 7 14 8 12 9 11 10 10 11 13 12
REMARK SMILES IDX 2 13 1 14 3 15
REMARK H PARENT
REMARK Flexibility Score: inf
ROOT
ATOM      1  C   UNL     1     168.696 175.786 139.298  1.00  0.00     0.008 C 
ATOM      2  C   UNL     1     167.774 174.935 138.407  1.00  0.00    -0.007 C 
ATOM      3  C   UNL     1     168.542 173.871 137.617  1.00  0.00     0.004 C 
ATOM      4  C   UNL     1     167.603 172.675 137.476  1.00  0.00     0.009 C 
ATOM      5  C   UNL     1     166.254 173.112 138.067  1.00  0.00     0.021 C 
ATOM      6  C   UNL     1     166.611 174.193 139.132  1.00  0.00    -0.017 C 
ATOM      7  C   UNL     1     165.417 175.194 139.381  1.00  0.00     0.012 C 
ATOM      8  C   UNL     1     164.792 175.063 140.778  1.00  0.00     0.031 C 
ATOM      9  C   UNL     1     165.881 175.171 141.819  1.00  0.00    -0.077 C 
ATOM     10  C   UNL     1     167.000 174.450 141.645  1.00  0.00    -0.027 C 
ATOM     11  C   UNL     1     167.103 173.518 140.469  1.00  0.00     0.035 C 
ATOM     12  C   UNL     1     165.765 176.123 142.975  1.00  0.00     0.039 C 
ENDROOT
BRANCH   5  13
ATOM     13  C   UNL     1     165.353 171.963 138.540  1.00  0.00    -0.077 C 
ATOM     14  C   UNL     1     164.018 172.114 138.518  1.00  0.00     0.008 C 
ATOM     15  C   UNL     1     165.920 170.613 138.926  1.00  0.00     0.039 C 
ENDBRANCH   5  13
TORSDOF 1
ENDMDL
MODEL 5
REMARK VINA RESULT:    -2.374     12.515     15.092
REMARK INTER + INTRA:          -2.834
REMARK INTER:                  -2.508
REMARK INTRA:                  -0.326
REMARK UNBOUND:                -0.321
REMARK SMILES C=C(C)[C@@H]1CC[C@H](C)[C@]12CC=C(C)CC2
REMARK SMILES IDX 8 1 7 2 6 3 5 4 4 5 9 6 15 7 14 8 12 9 11 10 10 11 13 12
REMARK SMILES IDX 2 13 1 14 3 15
REMARK H PARENT
REMARK Flexibility Score: inf
ROOT
ATOM      1  C   UNL     1     168.864 175.746 139.407  1.00  0.00     0.008 C 
ATOM      2  C   UNL     1     167.841 174.870 140.149  1.00  0.00    -0.007 C 
ATOM      3  C   UNL     1     166.489 175.568 140.325  1.00  0.00     0.004 C 
ATOM      4  C   UNL     1     165.427 174.473 140.272  1.00  0.00     0.009 C 
ATOM      5  C   UNL     1     166.184 173.137 140.205  1.00  0.00     0.021 C 
ATOM      6  C   UNL     1     167.541 173.478 139.517  1.00  0.00    -0.017 C 
ATOM      7  C   UNL     1     168.677 172.458 139.915  1.00  0.00     0.012 C 
ATOM      8  C   UNL     1     169.137 171.570 138.749  1.00  0.00     0.031 C 
ATOM      9  C   UNL     1     169.512 172.446 137.578  1.00  0.00    -0.077 C 
ATOM     10  C   UNL     1     168.670 173.430 137.224  1.00  0.00    -0.027 C 
ATOM     11  C   UNL     1     167.363 173.582 137.954  1.00  0.00     0.035 C 
ATOM     12  C   UNL     1     170.831 172.290 136.876  1.00  0.00     0.039 C 
ENDROOT
BRANCH   5  13
ATOM     13  C   UNL     1     165.388 171.973 139.601  1.00  0.00    -0.077 C 
ATOM     14  C   UNL     1     165.679 170.712 139.964  1.00  0.00     0.008 C 
ATOM     15  C   UNL     1     164.203 172.206 138.689  1.00  0.00     0.039 C 
ENDBRANCH   5  13
TORSDOF 1
ENDMDL
MODEL 6
REMARK VINA RESULT:    -2.374      1.871      5.209
REMARK INTER + INTRA:          -2.833
REMARK INTER:                  -2.507
REMARK INTRA:                  -0.326
REMARK UNBOUND:                -0.321
REMARK SMILES C=C(C)[C@@H]1CC[C@H](C)[C@]12CC=C(C)CC2
REMARK SMILES IDX 8 1 7 2 6 3 5 4 4 5 9 6 15 7 14 8 12 9 11 10 10 11 13 12
REMARK SMILES IDX 2 13 1 14 3 15
REMARK H PARENT
REMARK Flexibility Score: inf
ROOT
ATOM      1  C   UNL     1     163.118 156.225 139.410  1.00  0.00     0.008 C 
ATOM      2  C   UNL     1     164.165 157.085 140.139  1.00  0.00    -0.007 C 
ATOM      3  C   UNL     1     165.505 156.361 140.307  1.00  0.00     0.004 C 
ATOM      4  C   UNL     1     166.588 157.436 140.239  1.00  0.00     0.009 C 
ATOM      5  C   UNL     1     165.856 158.785 140.171  1.00  0.00     0.021 C 
ATOM      6  C   UNL     1     164.486 158.467 139.497  1.00  0.00    -0.017 C 
ATOM      7  C   UNL     1     163.374 159.511 139.899  1.00  0.00     0.012 C 
ATOM      8  C   UNL     1     162.922 160.403 138.733  1.00  0.00     0.031 C 
ATOM      9  C   UNL     1     162.519 159.528 137.570  1.00  0.00    -0.077 C 
ATOM     10  C   UNL     1     163.339 158.526 137.214  1.00  0.00    -0.027 C 
ATOM     11  C   UNL     1     164.648 158.353 137.933  1.00  0.00     0.035 C 
ATOM     12  C   UNL     1     161.197 159.706 136.878  1.00  0.00     0.039 C 
ENDROOT
BRANCH   5  13
ATOM     13  C   UNL     1     166.669 159.931 139.554  1.00  0.00    -0.077 C 
ATOM     14  C   UNL     1     166.395 161.200 139.901  1.00  0.00     0.008 C 
ATOM     15  C   UNL     1     167.852 159.670 138.647  1.00  0.00     0.039 C 
ENDBRANCH   5  13
TORSDOF 1
ENDMDL
MODEL 7
REMARK VINA RESULT:    -2.349      1.371      4.458
REMARK INTER + INTRA:          -2.806
REMARK INTER:                  -2.490
REMARK INTRA:                  -0.317
REMARK UNBOUND:                -0.321
REMARK SMILES C=C(C)[C@@H]1CC[C@H](C)[C@]12CC=C(C)CC2
REMARK SMILES IDX 8 1 7 2 6 3 5 4 4 5 9 6 15 7 14 8 12 9 11 10 10 11 13 12
REMARK SMILES IDX 2 13 1 14 3 15
REMARK H PARENT
REMARK Flexibility Score: inf
ROOT
ATOM      1  C   UNL     1     160.182 161.189 140.809  1.00  0.00     0.008 C 
ATOM      2  C   UNL     1     161.576 160.670 140.418  1.00  0.00    -0.007 C 
ATOM      3  C   UNL     1     162.329 160.059 141.604  1.00  0.00     0.004 C 
ATOM      4  C   UNL     1     163.191 158.934 141.036  1.00  0.00     0.009 C 
ATOM      5  C   UNL     1     163.032 158.995 139.509  1.00  0.00     0.021 C 
ATOM      6  C   UNL     1     161.619 159.612 139.275  1.00  0.00    -0.017 C 
ATOM      7  C   UNL     1     161.516 160.337 137.877  1.00  0.00     0.012 C 
ATOM      8  C   UNL     1     160.575 159.629 136.890  1.00  0.00     0.031 C 
ATOM      9  C   UNL     1     159.232 159.421 137.549  1.00  0.00    -0.077 C 
ATOM     10  C   UNL     1     159.206 158.919 138.794  1.00  0.00    -0.027 C 
ATOM     11  C   UNL     1     160.497 158.521 139.457  1.00  0.00     0.035 C 
ATOM     12  C   UNL     1     157.957 159.844 136.877  1.00  0.00     0.039 C 
ENDROOT
BRANCH   5  13
ATOM     13  C   UNL     1     163.331 157.682 138.775  1.00  0.00    -0.077 C 
ATOM     14  C   UNL     1     163.832 157.717 137.528  1.00  0.00     0.008 C 
ATOM     15  C   UNL     1     163.185 156.338 139.455  1.00  0.00     0.039 C 
ENDBRANCH   5  13
TORSDOF 1
ENDMDL
MODEL 8
REMARK VINA RESULT:    -2.324     12.544     15.500
REMARK INTER + INTRA:          -2.780
REMARK INTER:                  -2.460
REMARK INTRA:                  -0.320
REMARK UNBOUND:                -0.321
REMARK SMILES C=C(C)[C@@H]1CC[C@H](C)[C@]12CC=C(C)CC2
REMARK SMILES IDX 8 1 7 2 6 3 5 4 4 5 9 6 15 7 14 8 12 9 11 10 10 11 13 12
REMARK SMILES IDX 2 13 1 14 3 15
REMARK H PARENT
REMARK Flexibility Score: inf
ROOT
ATOM      1  C   UNL     1     165.033 174.989 140.026  1.00  0.00     0.008 C 
ATOM      2  C   UNL     1     166.238 175.046 139.071  1.00  0.00    -0.007 C 
ATOM      3  C   UNL     1     167.251 176.125 139.469  1.00  0.00     0.004 C 
ATOM      4  C   UNL     1     168.626 175.595 139.069  1.00  0.00     0.009 C 
ATOM      5  C   UNL     1     168.382 174.276 138.320  1.00  0.00     0.021 C 
ATOM      6  C   UNL     1     167.045 173.724 138.903  1.00  0.00    -0.017 C 
ATOM      7  C   UNL     1     166.303 172.777 137.882  1.00  0.00     0.012 C 
ATOM      8  C   UNL     1     166.265 171.308 138.329  1.00  0.00     0.031 C 
ATOM      9  C   UNL     1     165.697 171.231 139.726  1.00  0.00    -0.077 C 
ATOM     10  C   UNL     1     166.173 172.078 140.653  1.00  0.00    -0.027 C 
ATOM     11  C   UNL     1     167.290 173.018 140.290  1.00  0.00     0.035 C 
ATOM     12  C   UNL     1     164.568 170.298 140.062  1.00  0.00     0.039 C 
ENDROOT
BRANCH   5  13
ATOM     13  C   UNL     1     169.572 173.308 138.312  1.00  0.00    -0.077 C 
ATOM     14  C   UNL     1     169.735 172.466 137.277  1.00  0.00     0.008 C 
ATOM     15  C   UNL     1     170.639 173.347 139.384  1.00  0.00     0.039 C 
ENDBRANCH   5  13
TORSDOF 1
ENDMDL
MODEL 9
REMARK VINA RESULT:    -2.239      1.744      4.375
REMARK INTER + INTRA:          -2.690
REMARK INTER:                  -2.373
REMARK INTRA:                  -0.317
REMARK UNBOUND:                -0.321
REMARK SMILES C=C(C)[C@@H]1CC[C@H](C)[C@]12CC=C(C)CC2
REMARK SMILES IDX 8 1 7 2 6 3 5 4 4 5 9 6 15 7 14 8 12 9 11 10 10 11 13 12
REMARK SMILES IDX 2 13 1 14 3 15
REMARK H PARENT
REMARK Flexibility Score: inf
ROOT
ATOM      1  C   UNL     1     166.657 156.848 140.116  1.00  0.00     0.008 C 
ATOM      2  C   UNL     1     165.457 156.890 139.155  1.00  0.00    -0.007 C 
ATOM      3  C   UNL     1     164.371 155.875 139.529  1.00  0.00     0.004 C 
ATOM      4  C   UNL     1     163.037 156.503 139.134  1.00  0.00     0.009 C 
ATOM      5  C   UNL     1     163.374 157.817 138.410  1.00  0.00     0.021 C 
ATOM      6  C   UNL     1     164.742 158.266 139.008  1.00  0.00    -0.017 C 
ATOM      7  C   UNL     1     165.552 159.179 138.007  1.00  0.00     0.012 C 
ATOM      8  C   UNL     1     165.687 160.634 138.481  1.00  0.00     0.031 C 
ATOM      9  C   UNL     1     166.251 160.648 139.882  1.00  0.00    -0.077 C 
ATOM     10  C   UNL     1     165.713 159.818 140.791  1.00  0.00    -0.027 C 
ATOM     11  C   UNL     1     164.537 158.963 140.406  1.00  0.00     0.035 C 
ATOM     12  C   UNL     1     167.438 161.496 140.239  1.00  0.00     0.039 C 
ENDROOT
BRANCH   5  13
ATOM     13  C   UNL     1     162.252 158.863 138.414  1.00  0.00    -0.077 C 
ATOM     14  C   UNL     1     162.137 159.716 137.382  1.00  0.00     0.008 C 
ATOM     15  C   UNL     1     161.195 158.894 139.496  1.00  0.00     0.039 C 
ENDBRANCH   5  13
TORSDOF 1
ENDMDL
