MODEL 1
REMARK VINA RESULT:    -3.597      0.000      0.000
REMARK INTER + INTRA:          -6.787
REMARK INTER:                  -5.490
REMARK INTRA:                  -1.297
REMARK UNBOUND:                -1.297
REMARK SMILES CCCCCCCCCC=CC(=O)[O-]
REMARK SMILES IDX 7 1 8 2 9 3 10 4 11 5 12 6 13 7 14 8 6 9 5 10 4 11 3 12 2 13
REMARK SMILES IDX 1 14
REMARK H PARENT
REMARK Flexibility Score: inf
ROOT
ATOM      1  C   UNL     1      -0.008 -17.950  -8.508  1.00  0.00     0.000 C 
ENDROOT
BRANCH   1   2
ATOM      2  C   UNL     1      -0.104 -16.840  -7.449  1.00  0.00     0.004 C 
BRANCH   2   3
ATOM      3  C   UNL     1      -0.010 -15.454  -8.098  1.00  0.00     0.027 C 
BRANCH   3   4
ATOM      4  C   UNL     1      -0.631 -14.401  -7.227  1.00  0.00    -0.025 C 
ATOM      5  C   UNL     1      -0.256 -14.237  -5.954  1.00  0.00     0.020 C 
BRANCH   5   6
ATOM      6  C   UNL     1      -0.865 -13.219  -5.085  1.00  0.00     0.064 C 
ATOM      7  O   UNL     1      -2.074 -13.326  -4.754  1.00  0.00    -0.545 OA
ATOM      8  O   UNL     1      -0.123 -12.138  -4.621  1.00  0.00    -0.545 OA
ENDBRANCH   5   6
ENDBRANCH   3   4
ENDBRANCH   2   3
ENDBRANCH   1   2
BRANCH   1   9
ATOM      9  C   UNL     1      -1.307 -18.759  -8.641  1.00  0.00     0.000 C 
BRANCH   9  10
ATOM     10  C   UNL     1      -2.135 -18.352  -9.872  1.00  0.00     0.000 C 
BRANCH  10  11
ATOM     11  C   UNL     1      -3.559 -17.900  -9.503  1.00  0.00    -0.000 C 
BRANCH  11  12
ATOM     12  C   UNL     1      -3.573 -16.570  -8.729  1.00  0.00    -0.000 C 
BRANCH  12  13
ATOM     13  C   UNL     1      -4.396 -16.653  -7.434  1.00  0.00    -0.003 C 
ATOM     14  C   UNL     1      -3.558 -16.392  -6.181  1.00  0.00     0.004 C 
ENDBRANCH  12  13
ENDBRANCH  11  12
ENDBRANCH  10  11
ENDBRANCH   9  10
ENDBRANCH   1   9
TORSDOF 9
ENDMDL
MODEL 2
REMARK VINA RESULT:    -3.557     13.312     15.164
REMARK INTER + INTRA:          -6.726
REMARK INTER:                  -5.579
REMARK INTRA:                  -1.147
REMARK UNBOUND:                -1.297
REMARK SMILES CCCCCCCCCC=CC(=O)[O-]
REMARK SMILES IDX 7 1 8 2 9 3 10 4 11 5 12 6 13 7 14 8 6 9 5 10 4 11 3 12 2 13
REMARK SMILES IDX 1 14
REMARK H PARENT
REMARK Flexibility Score: inf
ROOT
ATOM      1  C   UNL     1      13.682 -14.007  -6.283  1.00  0.00     0.000 C 
ENDROOT
BRANCH   1   2
ATOM      2  C   UNL     1      14.016 -14.858  -7.518  1.00  0.00     0.004 C 
BRANCH   2   3
ATOM      3  C   UNL     1      13.999 -16.352  -7.174  1.00  0.00     0.027 C 
BRANCH   3   4
ATOM      4  C   UNL     1      14.004 -17.197  -8.415  1.00  0.00    -0.025 C 
ATOM      5  C   UNL     1      13.205 -16.922  -9.451  1.00  0.00     0.020 C 
BRANCH   5   6
ATOM      6  C   UNL     1      13.190 -17.748 -10.667  1.00  0.00     0.064 C 
ATOM      7  O   UNL     1      12.090 -18.082 -11.178  1.00  0.00    -0.545 OA
ATOM      8  O   UNL     1      14.374 -18.166 -11.264  1.00  0.00    -0.545 OA
ENDBRANCH   5   6
ENDBRANCH   3   4
ENDBRANCH   2   3
ENDBRANCH   1   2
BRANCH   1   9
ATOM      9  C   UNL     1      13.185 -14.849  -5.097  1.00  0.00     0.000 C 
BRANCH   9  10
ATOM     10  C   UNL     1      11.857 -14.330  -4.519  1.00  0.00     0.000 C 
BRANCH  10  11
ATOM     11  C   UNL     1      10.946 -15.466  -4.022  1.00  0.00    -0.000 C 
BRANCH  11  12
ATOM     12  C   UNL     1      11.198 -16.791  -4.762  1.00  0.00    -0.000 C 
BRANCH  12  13
ATOM     13  C   UNL     1      10.235 -16.998  -5.941  1.00  0.00    -0.003 C 
ATOM     14  C   UNL     1      10.687 -18.110  -6.888  1.00  0.00     0.004 C 
ENDBRANCH  12  13
ENDBRANCH  11  12
ENDBRANCH  10  11
ENDBRANCH   9  10
ENDBRANCH   1   9
TORSDOF 9
ENDMDL
MODEL 3
REMARK VINA RESULT:    -3.554      2.436      4.872
REMARK INTER + INTRA:          -6.721
REMARK INTER:                  -5.674
REMARK INTRA:                  -1.046
REMARK UNBOUND:                -1.297
REMARK SMILES CCCCCCCCCC=CC(=O)[O-]
REMARK SMILES IDX 7 1 8 2 9 3 10 4 11 5 12 6 13 7 14 8 6 9 5 10 4 11 3 12 2 13
REMARK SMILES IDX 1 14
REMARK H PARENT
REMARK Flexibility Score: inf
ROOT
ATOM      1  C   UNL     1       0.846 -18.180  -6.067  1.00  0.00     0.000 C 
ENDROOT
BRANCH   1   2
ATOM      2  C   UNL     1       1.153 -18.142  -7.572  1.00  0.00     0.004 C 
BRANCH   2   3
ATOM      3  C   UNL     1       0.022 -18.792  -8.378  1.00  0.00     0.027 C 
BRANCH   3   4
ATOM      4  C   UNL     1      -0.960 -17.765  -8.863  1.00  0.00    -0.025 C 
ATOM      5  C   UNL     1      -2.179 -17.655  -8.327  1.00  0.00     0.020 C 
BRANCH   5   6
ATOM      6  C   UNL     1      -3.155 -16.663  -8.801  1.00  0.00     0.064 C 
ATOM      7  O   UNL     1      -3.253 -15.555  -8.212  1.00  0.00    -0.545 OA
ATOM      8  O   UNL     1      -3.974 -16.930  -9.893  1.00  0.00    -0.545 OA
ENDBRANCH   5   6
ENDBRANCH   3   4
ENDBRANCH   2   3
ENDBRANCH   1   2
BRANCH   1   9
ATOM      9  C   UNL     1       0.264 -16.856  -5.545  1.00  0.00     0.000 C 
BRANCH   9  10
ATOM     10  C   UNL     1       0.985 -15.626  -6.122  1.00  0.00     0.000 C 
BRANCH  10  11
ATOM     11  C   UNL     1       0.050 -14.728  -6.951  1.00  0.00    -0.000 C 
BRANCH  11  12
ATOM     12  C   UNL     1      -0.908 -13.903  -6.073  1.00  0.00    -0.000 C 
BRANCH  12  13
ATOM     13  C   UNL     1      -0.175 -13.149  -4.953  1.00  0.00    -0.003 C 
ATOM     14  C   UNL     1      -1.115 -12.298  -4.097  1.00  0.00     0.004 C 
ENDBRANCH  12  13
ENDBRANCH  11  12
ENDBRANCH  10  11
ENDBRANCH   9  10
ENDBRANCH   1   9
TORSDOF 9
ENDMDL
MODEL 4
REMARK VINA RESULT:    -3.478      3.049      4.561
REMARK INTER + INTRA:          -6.604
REMARK INTER:                  -5.089
REMARK INTRA:                  -1.516
REMARK UNBOUND:                -1.297
REMARK SMILES CCCCCCCCCC=CC(=O)[O-]
REMARK SMILES IDX 7 1 8 2 9 3 10 4 11 5 12 6 13 7 14 8 6 9 5 10 4 11 3 12 2 13
REMARK SMILES IDX 1 14
REMARK H PARENT
REMARK Flexibility Score: inf
ROOT
ATOM      1  C   UNL     1      -0.863 -17.302  -8.102  1.00  0.00     0.000 C 
ENDROOT
BRANCH   1   2
ATOM      2  C   UNL     1      -0.196 -18.545  -7.492  1.00  0.00     0.004 C 
BRANCH   2   3
ATOM      3  C   UNL     1       1.315 -18.540  -7.753  1.00  0.00     0.027 C 
BRANCH   3   4
ATOM      4  C   UNL     1       2.089 -18.420  -6.473  1.00  0.00    -0.025 C 
ATOM      5  C   UNL     1       2.558 -17.243  -6.046  1.00  0.00     0.020 C 
BRANCH   5   6
ATOM      6  C   UNL     1       3.329 -17.114  -4.801  1.00  0.00     0.064 C 
ATOM      7  O   UNL     1       4.581 -17.001  -4.854  1.00  0.00    -0.545 OA
ATOM      8  O   UNL     1       2.695 -17.112  -3.564  1.00  0.00    -0.545 OA
ENDBRANCH   5   6
ENDBRANCH   3   4
ENDBRANCH   2   3
ENDBRANCH   1   2
BRANCH   1   9
ATOM      9  C   UNL     1       0.145 -16.355  -8.773  1.00  0.00     0.000 C 
BRANCH   9  10
ATOM     10  C   UNL     1       0.183 -14.967  -8.112  1.00  0.00     0.000 C 
BRANCH  10  11
ATOM     11  C   UNL     1      -1.117 -14.635  -7.359  1.00  0.00    -0.000 C 
BRANCH  11  12
ATOM     12  C   UNL     1      -0.857 -13.946  -6.008  1.00  0.00    -0.000 C 
BRANCH  12  13
ATOM     13  C   UNL     1       0.015 -14.797  -5.072  1.00  0.00    -0.003 C 
ATOM     14  C   UNL     1      -0.701 -16.052  -4.572  1.00  0.00     0.004 C 
ENDBRANCH  12  13
ENDBRANCH  11  12
ENDBRANCH  10  11
ENDBRANCH   9  10
ENDBRANCH   1   9
TORSDOF 9
ENDMDL
MODEL 5
REMARK VINA RESULT:    -3.472      1.325      2.190
REMARK INTER + INTRA:          -6.596
REMARK INTER:                  -5.564
REMARK INTRA:                  -1.032
REMARK UNBOUND:                -1.297
REMARK SMILES CCCCCCCCCC=CC(=O)[O-]
REMARK SMILES IDX 7 1 8 2 9 3 10 4 11 5 12 6 13 7 14 8 6 9 5 10 4 11 3 12 2 13
REMARK SMILES IDX 1 14
REMARK H PARENT
REMARK Flexibility Score: inf
ROOT
ATOM      1  C   UNL     1       0.342 -16.995  -8.495  1.00  0.00     0.000 C 
ENDROOT
BRANCH   1   2
ATOM      2  C   UNL     1       0.060 -15.513  -8.203  1.00  0.00     0.004 C 
BRANCH   2   3
ATOM      3  C   UNL     1      -1.437 -15.274  -7.974  1.00  0.00     0.027 C 
BRANCH   3   4
ATOM      4  C   UNL     1      -1.670 -14.309  -6.848  1.00  0.00    -0.025 C 
ATOM      5  C   UNL     1      -0.672 -13.908  -6.053  1.00  0.00     0.020 C 
BRANCH   5   6
ATOM      6  C   UNL     1      -0.887 -12.974  -4.939  1.00  0.00     0.064 C 
ATOM      7  O   UNL     1      -2.014 -12.918  -4.383  1.00  0.00    -0.545 OA
ATOM      8  O   UNL     1       0.138 -12.149  -4.488  1.00  0.00    -0.545 OA
ENDBRANCH   5   6
ENDBRANCH   3   4
ENDBRANCH   2   3
ENDBRANCH   1   2
BRANCH   1   9
ATOM      9  C   UNL     1       0.298 -17.869  -7.231  1.00  0.00     0.000 C 
BRANCH   9  10
ATOM     10  C   UNL     1      -0.879 -18.859  -7.237  1.00  0.00     0.000 C 
BRANCH  10  11
ATOM     11  C   UNL     1      -1.127 -19.472  -8.627  1.00  0.00    -0.000 C 
BRANCH  11  12
ATOM     12  C   UNL     1      -2.574 -19.269  -9.110  1.00  0.00    -0.000 C 
BRANCH  12  13
ATOM     13  C   UNL     1      -2.712 -18.073 -10.066  1.00  0.00    -0.003 C 
ATOM     14  C   UNL     1      -4.104 -17.441 -10.027  1.00  0.00     0.004 C 
ENDBRANCH  12  13
ENDBRANCH  11  12
ENDBRANCH  10  11
ENDBRANCH   9  10
ENDBRANCH   1   9
TORSDOF 9
ENDMDL
MODEL 6
REMARK VINA RESULT:    -3.470      3.199      5.162
REMARK INTER + INTRA:          -6.594
REMARK INTER:                  -5.154
REMARK INTRA:                  -1.440
REMARK UNBOUND:                -1.297
REMARK SMILES CCCCCCCCCC=CC(=O)[O-]
REMARK SMILES IDX 7 1 8 2 9 3 10 4 11 5 12 6 13 7 14 8 6 9 5 10 4 11 3 12 2 13
REMARK SMILES IDX 1 14
REMARK H PARENT
REMARK Flexibility Score: inf
ROOT
ATOM      1  C   UNL     1      -0.752 -14.830  -5.792  1.00  0.00     0.000 C 
ENDROOT
BRANCH   1   2
ATOM      2  C   UNL     1      -2.073 -14.815  -6.577  1.00  0.00     0.004 C 
BRANCH   2   3
ATOM      3  C   UNL     1      -3.017 -15.916  -6.082  1.00  0.00     0.027 C 
BRANCH   3   4
ATOM      4  C   UNL     1      -3.510 -16.764  -7.219  1.00  0.00    -0.025 C 
ATOM      5  C   UNL     1      -3.248 -16.448  -8.491  1.00  0.00     0.020 C 
BRANCH   5   6
ATOM      6  C   UNL     1      -3.736 -17.260  -9.615  1.00  0.00     0.064 C 
ATOM      7  O   UNL     1      -3.169 -18.350  -9.886  1.00  0.00    -0.545 OA
ATOM      8  O   UNL     1      -4.817 -16.844 -10.384  1.00  0.00    -0.545 OA
ENDBRANCH   5   6
ENDBRANCH   3   4
ENDBRANCH   2   3
ENDBRANCH   1   2
BRANCH   1   9
ATOM      9  C   UNL     1       0.458 -15.193  -6.668  1.00  0.00     0.000 C 
BRANCH   9  10
ATOM     10  C   UNL     1       0.117 -15.208  -8.168  1.00  0.00     0.000 C 
BRANCH  10  11
ATOM     11  C   UNL     1       0.269 -16.606  -8.794  1.00  0.00    -0.000 C 
BRANCH  11  12
ATOM     12  C   UNL     1       0.661 -17.676  -7.759  1.00  0.00    -0.000 C 
BRANCH  12  13
ATOM     13  C   UNL     1      -0.422 -18.752  -7.586  1.00  0.00    -0.003 C 
ATOM     14  C   UNL     1      -0.234 -19.941  -8.529  1.00  0.00     0.004 C 
ENDBRANCH  12  13
ENDBRANCH  11  12
ENDBRANCH  10  11
ENDBRANCH   9  10
ENDBRANCH   1   9
TORSDOF 9
ENDMDL
MODEL 7
REMARK VINA RESULT:    -3.450     12.947     15.027
REMARK INTER + INTRA:          -6.562
REMARK INTER:                  -5.665
REMARK INTRA:                  -0.897
REMARK UNBOUND:                -1.297
REMARK SMILES CCCCCCCCCC=CC(=O)[O-]
REMARK SMILES IDX 7 1 8 2 9 3 10 4 11 5 12 6 13 7 14 8 6 9 5 10 4 11 3 12 2 13
REMARK SMILES IDX 1 14
REMARK H PARENT
REMARK Flexibility Score: inf
ROOT
ATOM      1  C   UNL     1      10.206 -16.199  -5.057  1.00  0.00     0.000 C 
ENDROOT
BRANCH   1   2
ATOM      2  C   UNL     1      11.274 -16.996  -5.823  1.00  0.00     0.004 C 
BRANCH   2   3
ATOM      3  C   UNL     1      10.627 -17.931  -6.851  1.00  0.00     0.027 C 
BRANCH   3   4
ATOM      4  C   UNL     1      11.529 -18.151  -8.031  1.00  0.00    -0.025 C 
ATOM      5  C   UNL     1      11.059 -18.615  -9.194  1.00  0.00     0.020 C 
BRANCH   5   6
ATOM      6  C   UNL     1      11.933 -18.848 -10.353  1.00  0.00     0.064 C 
ATOM      7  O   UNL     1      12.223 -17.890 -11.115  1.00  0.00    -0.545 OA
ATOM      8  O   UNL     1      12.446 -20.112 -10.620  1.00  0.00    -0.545 OA
ENDBRANCH   5   6
ENDBRANCH   3   4
ENDBRANCH   2   3
ENDBRANCH   1   2
BRANCH   1   9
ATOM      9  C   UNL     1      10.789 -15.400  -3.881  1.00  0.00     0.000 C 
BRANCH   9  10
ATOM     10  C   UNL     1      11.705 -14.253  -4.342  1.00  0.00     0.000 C 
BRANCH  10  11
ATOM     11  C   UNL     1      13.145 -14.401  -3.820  1.00  0.00    -0.000 C 
BRANCH  11  12
ATOM     12  C   UNL     1      14.151 -14.708  -4.943  1.00  0.00    -0.000 C 
BRANCH  12  13
ATOM     13  C   UNL     1      13.742 -14.082  -6.285  1.00  0.00    -0.003 C 
ATOM     14  C   UNL     1      13.969 -15.021  -7.471  1.00  0.00     0.004 C 
ENDBRANCH  12  13
ENDBRANCH  11  12
ENDBRANCH  10  11
ENDBRANCH   9  10
ENDBRANCH   1   9
TORSDOF 9
ENDMDL
MODEL 8
REMARK VINA RESULT:    -3.425      1.776      3.692
REMARK INTER + INTRA:          -6.524
REMARK INTER:                  -5.585
REMARK INTRA:                  -0.939
REMARK UNBOUND:                -1.297
REMARK SMILES CCCCCCCCCC=CC(=O)[O-]
REMARK SMILES IDX 7 1 8 2 9 3 10 4 11 5 12 6 13 7 14 8 6 9 5 10 4 11 3 12 2 13
REMARK SMILES IDX 1 14
REMARK H PARENT
REMARK Flexibility Score: inf
ROOT
ATOM      1  C   UNL     1      -1.875 -17.543  -8.037  1.00  0.00     0.000 C 
ENDROOT
BRANCH   1   2
ATOM      2  C   UNL     1      -2.063 -16.018  -8.031  1.00  0.00     0.004 C 
BRANCH   2   3
ATOM      3  C   UNL     1      -0.735 -15.304  -7.757  1.00  0.00     0.027 C 
BRANCH   3   4
ATOM      4  C   UNL     1      -0.939 -14.076  -6.918  1.00  0.00    -0.025 C 
ATOM      5  C   UNL     1      -0.558 -14.032  -5.637  1.00  0.00     0.020 C 
BRANCH   5   6
ATOM      6  C   UNL     1      -0.764 -12.842  -4.800  1.00  0.00     0.064 C 
ATOM      7  O   UNL     1       0.223 -12.138  -4.466  1.00  0.00    -0.545 OA
ATOM      8  O   UNL     1      -2.037 -12.479  -4.372  1.00  0.00    -0.545 OA
ENDBRANCH   5   6
ENDBRANCH   3   4
ENDBRANCH   2   3
ENDBRANCH   1   2
BRANCH   1   9
ATOM      9  C   UNL     1      -0.632 -17.987  -8.825  1.00  0.00     0.000 C 
BRANCH   9  10
ATOM     10  C   UNL     1       0.194 -19.048  -8.079  1.00  0.00     0.000 C 
BRANCH  10  11
ATOM     11  C   UNL     1       1.559 -18.513  -7.612  1.00  0.00    -0.000 C 
BRANCH  11  12
ATOM     12  C   UNL     1       1.632 -18.334  -6.086  1.00  0.00    -0.000 C 
BRANCH  12  13
ATOM     13  C   UNL     1       1.934 -16.884  -5.677  1.00  0.00    -0.003 C 
ATOM     14  C   UNL     1       3.419 -16.639  -5.410  1.00  0.00     0.004 C 
ENDBRANCH  12  13
ENDBRANCH  11  12
ENDBRANCH  10  11
ENDBRANCH   9  10
ENDBRANCH   1   9
TORSDOF 9
ENDMDL
MODEL 9
REMARK VINA RESULT:    -3.417      3.652      5.336
REMARK INTER + INTRA:          -6.512
REMARK INTER:                  -6.075
REMARK INTRA:                  -0.437
REMARK UNBOUND:                -1.297
REMARK SMILES CCCCCCCCCC=CC(=O)[O-]
REMARK SMILES IDX 7 1 8 2 9 3 10 4 11 5 12 6 13 7 14 8 6 9 5 10 4 11 3 12 2 13
REMARK SMILES IDX 1 14
REMARK H PARENT
REMARK Flexibility Score: inf
ROOT
ATOM      1  C   UNL     1      -0.117 -20.140  -8.433  1.00  0.00     0.000 C 
ENDROOT
BRANCH   1   2
ATOM      2  C   UNL     1       1.014 -19.367  -7.737  1.00  0.00     0.004 C 
BRANCH   2   3
ATOM      3  C   UNL     1       0.966 -17.879  -8.102  1.00  0.00     0.027 C 
BRANCH   3   4
ATOM      4  C   UNL     1      -0.448 -17.407  -8.280  1.00  0.00    -0.025 C 
ATOM      5  C   UNL     1      -0.779 -16.120  -8.136  1.00  0.00     0.020 C 
BRANCH   5   6
ATOM      6  C   UNL     1      -2.162 -15.646  -8.294  1.00  0.00     0.064 C 
ATOM      7  O   UNL     1      -3.029 -16.412  -8.789  1.00  0.00    -0.545 OA
ATOM      8  O   UNL     1      -2.528 -14.363  -7.903  1.00  0.00    -0.545 OA
ENDBRANCH   5   6
ENDBRANCH   3   4
ENDBRANCH   2   3
ENDBRANCH   1   2
BRANCH   1   9
ATOM      9  C   UNL     1       0.083 -21.663  -8.379  1.00  0.00     0.000 C 
BRANCH   9  10
ATOM     10  C   UNL     1       0.745 -22.218  -9.652  1.00  0.00     0.000 C 
BRANCH  10  11
ATOM     11  C   UNL     1      -0.197 -23.130 -10.459  1.00  0.00    -0.000 C 
BRANCH  11  12
ATOM     12  C   UNL     1      -1.306 -22.342 -11.178  1.00  0.00    -0.000 C 
BRANCH  12  13
ATOM     13  C   UNL     1      -1.320 -22.598 -12.693  1.00  0.00    -0.003 C 
ATOM     14  C   UNL     1      -2.198 -23.786 -13.087  1.00  0.00     0.004 C 
ENDBRANCH  12  13
ENDBRANCH  11  12
ENDBRANCH  10  11
ENDBRANCH   9  10
ENDBRANCH   1   9
TORSDOF 9
ENDMDL
