MODEL 1
REMARK VINA RESULT:    -5.438      0.000      0.000
REMARK INTER + INTRA:         -10.040
REMARK INTER:                  -9.253
REMARK INTRA:                  -0.788
REMARK UNBOUND:                -0.788
REMARK SMILES CCCCCCCCCCCCCC(=O)[O-]
REMARK SMILES IDX 8 1 9 2 10 3 11 4 12 5 13 6 14 7 15 8 16 9 7 10 6 11 5 12
REMARK SMILES IDX 4 13 3 14 2 15 1 16
REMARK H PARENT
REMARK Flexibility Score: inf
ROOT
ATOM      1  C   UNL     1      27.784  -0.961  40.131  1.00  0.00     0.000 C 
ENDROOT
BRANCH   1   2
ATOM      2  C   UNL     1      29.015  -0.528  39.315  1.00  0.00     0.000 C 
BRANCH   2   3
ATOM      3  C   UNL     1      28.777   0.664  38.367  1.00  0.00     0.000 C 
BRANCH   3   4
ATOM      4  C   UNL     1      29.840   0.847  37.265  1.00  0.00     0.000 C 
BRANCH   4   5
ATOM      5  C   UNL     1      31.279   0.509  37.689  1.00  0.00     0.006 C 
BRANCH   5   6
ATOM      6  C   UNL     1      31.977   1.671  38.406  1.00  0.00     0.053 C 
BRANCH   6   7
ATOM      7  C   UNL     1      31.691   1.628  39.874  1.00  0.00     0.041 C 
ATOM      8  O   UNL     1      31.016   2.544  40.415  1.00  0.00    -0.550 OA
ATOM      9  O   UNL     1      32.125   0.551  40.636  1.00  0.00    -0.550 OA
ENDBRANCH   6   7
ENDBRANCH   5   6
ENDBRANCH   4   5
ENDBRANCH   3   4
ENDBRANCH   2   3
ENDBRANCH   1   2
BRANCH   1  10
ATOM     10  C   UNL     1      28.159  -1.729  41.411  1.00  0.00     0.000 C 
BRANCH  10  11
ATOM     11  C   UNL     1      29.642  -1.568  41.781  1.00  0.00    -0.000 C 
BRANCH  11  12
ATOM     12  C   UNL     1      29.840  -0.786  43.091  1.00  0.00    -0.000 C 
BRANCH  12  13
ATOM     13  C   UNL     1      28.701  -1.017  44.097  1.00  0.00    -0.000 C 
BRANCH  13  14
ATOM     14  C   UNL     1      29.028  -2.122  45.116  1.00  0.00    -0.000 C 
BRANCH  14  15
ATOM     15  C   UNL     1      30.389  -1.911  45.798  1.00  0.00    -0.003 C 
ATOM     16  C   UNL     1      30.261  -1.551  47.278  1.00  0.00     0.004 C 
ENDBRANCH  14  15
ENDBRANCH  13  14
ENDBRANCH  12  13
ENDBRANCH  11  12
ENDBRANCH  10  11
ENDBRANCH   1  10
TORSDOF 12
ENDMDL
MODEL 2
REMARK VINA RESULT:    -4.587      2.092      5.820
REMARK INTER + INTRA:          -8.593
REMARK INTER:                  -7.258
REMARK INTRA:                  -1.335
REMARK UNBOUND:                -0.788
REMARK SMILES CCCCCCCCCCCCCC(=O)[O-]
REMARK SMILES IDX 8 1 9 2 10 3 11 4 12 5 13 6 14 7 15 8 16 9 7 10 6 11 5 12
REMARK SMILES IDX 4 13 3 14 2 15 1 16
REMARK H PARENT
REMARK Flexibility Score: inf
ROOT
ATOM      1  C   UNL     1      28.212   0.391  39.583  1.00  0.00     0.000 C 
ENDROOT
BRANCH   1   2
ATOM      2  C   UNL     1      28.867  -0.972  39.868  1.00  0.00     0.000 C 
BRANCH   2   3
ATOM      3  C   UNL     1      28.922  -1.366  41.358  1.00  0.00     0.000 C 
BRANCH   3   4
ATOM      4  C   UNL     1      27.869  -0.685  42.255  1.00  0.00     0.000 C 
BRANCH   4   5
ATOM      5  C   UNL     1      28.157  -0.759  43.765  1.00  0.00     0.006 C 
BRANCH   5   6
ATOM      6  C   UNL     1      29.113  -1.900  44.133  1.00  0.00     0.053 C 
BRANCH   6   7
ATOM      7  C   UNL     1      30.201  -1.401  45.031  1.00  0.00     0.041 C 
ATOM      8  O   UNL     1      30.208  -1.714  46.252  1.00  0.00    -0.550 OA
ATOM      9  O   UNL     1      31.235  -0.633  44.513  1.00  0.00    -0.550 OA
ENDBRANCH   6   7
ENDBRANCH   5   6
ENDBRANCH   4   5
ENDBRANCH   3   4
ENDBRANCH   2   3
ENDBRANCH   1   2
BRANCH   1  10
ATOM     10  C   UNL     1      28.730   1.040  38.288  1.00  0.00     0.000 C 
BRANCH  10  11
ATOM     11  C   UNL     1      29.662   0.110  37.496  1.00  0.00    -0.000 C 
BRANCH  11  12
ATOM     12  C   UNL     1      30.986   0.795  37.109  1.00  0.00    -0.000 C 
BRANCH  12  13
ATOM     13  C   UNL     1      32.017   0.777  38.248  1.00  0.00    -0.000 C 
BRANCH  13  14
ATOM     14  C   UNL     1      32.122   2.131  38.971  1.00  0.00    -0.000 C 
BRANCH  14  15
ATOM     15  C   UNL     1      31.834   2.020  40.476  1.00  0.00    -0.003 C 
ATOM     16  C   UNL     1      31.726   0.572  40.953  1.00  0.00     0.004 C 
ENDBRANCH  14  15
ENDBRANCH  13  14
ENDBRANCH  12  13
ENDBRANCH  11  12
ENDBRANCH  10  11
ENDBRANCH   1  10
TORSDOF 12
ENDMDL
MODEL 3
REMARK VINA RESULT:    -4.561      2.364      5.712
REMARK INTER + INTRA:          -8.549
REMARK INTER:                  -8.017
REMARK INTRA:                  -0.532
REMARK UNBOUND:                -0.788
REMARK SMILES CCCCCCCCCCCCCC(=O)[O-]
REMARK SMILES IDX 8 1 9 2 10 3 11 4 12 5 13 6 14 7 15 8 16 9 7 10 6 11 5 12
REMARK SMILES IDX 4 13 3 14 2 15 1 16
REMARK H PARENT
REMARK Flexibility Score: inf
ROOT
ATOM      1  C   UNL     1      31.385   2.301  39.828  1.00  0.00     0.000 C 
ENDROOT
BRANCH   1   2
ATOM      2  C   UNL     1      31.523   1.446  41.100  1.00  0.00     0.000 C 
BRANCH   2   3
ATOM      3  C   UNL     1      31.929  -0.021  40.855  1.00  0.00     0.000 C 
BRANCH   3   4
ATOM      4  C   UNL     1      31.364  -1.036  41.869  1.00  0.00     0.000 C 
BRANCH   4   5
ATOM      5  C   UNL     1      30.243  -0.495  42.772  1.00  0.00     0.006 C 
BRANCH   5   6
ATOM      6  C   UNL     1      30.559  -0.640  44.265  1.00  0.00     0.053 C 
BRANCH   6   7
ATOM      7  C   UNL     1      29.548  -1.521  44.931  1.00  0.00     0.041 C 
ATOM      8  O   UNL     1      28.444  -1.753  44.370  1.00  0.00    -0.550 OA
ATOM      9  O   UNL     1      29.843  -2.125  46.145  1.00  0.00    -0.550 OA
ENDBRANCH   6   7
ENDBRANCH   5   6
ENDBRANCH   4   5
ENDBRANCH   3   4
ENDBRANCH   2   3
ENDBRANCH   1   2
BRANCH   1  10
ATOM     10  C   UNL     1      32.079   1.669  38.609  1.00  0.00     0.000 C 
BRANCH  10  11
ATOM     11  C   UNL     1      31.275   0.504  38.011  1.00  0.00    -0.000 C 
BRANCH  11  12
ATOM     12  C   UNL     1      29.862   0.930  37.571  1.00  0.00    -0.000 C 
BRANCH  12  13
ATOM     13  C   UNL     1      28.765   0.398  38.507  1.00  0.00    -0.000 C 
BRANCH  13  14
ATOM     14  C   UNL     1      29.183  -0.891  39.235  1.00  0.00    -0.000 C 
BRANCH  14  15
ATOM     15  C   UNL     1      27.982  -1.775  39.606  1.00  0.00    -0.003 C 
ATOM     16  C   UNL     1      27.615  -1.685  41.088  1.00  0.00     0.004 C 
ENDBRANCH  14  15
ENDBRANCH  13  14
ENDBRANCH  12  13
ENDBRANCH  11  12
ENDBRANCH  10  11
ENDBRANCH   1  10
TORSDOF 12
ENDMDL
MODEL 4
REMARK VINA RESULT:    -4.533      1.925      3.224
REMARK INTER + INTRA:          -8.500
REMARK INTER:                  -7.490
REMARK INTRA:                  -1.010
REMARK UNBOUND:                -0.788
REMARK SMILES CCCCCCCCCCCCCC(=O)[O-]
REMARK SMILES IDX 8 1 9 2 10 3 11 4 12 5 13 6 14 7 15 8 16 9 7 10 6 11 5 12
REMARK SMILES IDX 4 13 3 14 2 15 1 16
REMARK H PARENT
REMARK Flexibility Score: inf
ROOT
ATOM      1  C   UNL     1      32.092   1.445  40.006  1.00  0.00     0.000 C 
ENDROOT
BRANCH   1   2
ATOM      2  C   UNL     1      31.989   0.526  38.776  1.00  0.00     0.000 C 
BRANCH   2   3
ATOM      3  C   UNL     1      31.237   1.131  37.575  1.00  0.00     0.000 C 
BRANCH   3   4
ATOM      4  C   UNL     1      29.875   0.479  37.259  1.00  0.00     0.000 C 
BRANCH   4   5
ATOM      5  C   UNL     1      28.898   0.410  38.444  1.00  0.00     0.006 C 
BRANCH   5   6
ATOM      6  C   UNL     1      28.683  -1.018  38.956  1.00  0.00     0.053 C 
BRANCH   6   7
ATOM      7  C   UNL     1      27.998  -1.000  40.287  1.00  0.00     0.041 C 
ATOM      8  O   UNL     1      28.102   0.006  41.039  1.00  0.00    -0.550 OA
ATOM      9  O   UNL     1      27.204  -2.070  40.677  1.00  0.00    -0.550 OA
ENDBRANCH   6   7
ENDBRANCH   5   6
ENDBRANCH   4   5
ENDBRANCH   3   4
ENDBRANCH   2   3
ENDBRANCH   1   2
BRANCH   1  10
ATOM     10  C   UNL     1      31.581   0.775  41.294  1.00  0.00     0.000 C 
BRANCH  10  11
ATOM     11  C   UNL     1      31.599  -0.759  41.206  1.00  0.00    -0.000 C 
BRANCH  11  12
ATOM     12  C   UNL     1      30.733  -1.420  42.294  1.00  0.00    -0.000 C 
BRANCH  12  13
ATOM     13  C   UNL     1      30.228  -0.415  43.341  1.00  0.00    -0.000 C 
BRANCH  13  14
ATOM     14  C   UNL     1      29.028  -0.949  44.142  1.00  0.00    -0.000 C 
BRANCH  14  15
ATOM     15  C   UNL     1      29.445  -1.963  45.220  1.00  0.00    -0.003 C 
ATOM     16  C   UNL     1      30.559  -1.441  46.127  1.00  0.00     0.004 C 
ENDBRANCH  14  15
ENDBRANCH  13  14
ENDBRANCH  12  13
ENDBRANCH  11  12
ENDBRANCH  10  11
ENDBRANCH   1  10
TORSDOF 12
ENDMDL
MODEL 5
REMARK VINA RESULT:    -4.463      1.642      2.697
REMARK INTER + INTRA:          -8.381
REMARK INTER:                  -8.041
REMARK INTRA:                  -0.340
REMARK UNBOUND:                -0.788
REMARK SMILES CCCCCCCCCCCCCC(=O)[O-]
REMARK SMILES IDX 8 1 9 2 10 3 11 4 12 5 13 6 14 7 15 8 16 9 7 10 6 11 5 12
REMARK SMILES IDX 4 13 3 14 2 15 1 16
REMARK H PARENT
REMARK Flexibility Score: inf
ROOT
ATOM      1  C   UNL     1      32.102  -0.396  41.631  1.00  0.00     0.000 C 
ENDROOT
BRANCH   1   2
ATOM      2  C   UNL     1      32.124   0.050  40.158  1.00  0.00     0.000 C 
BRANCH   2   3
ATOM      3  C   UNL     1      31.973   1.568  39.937  1.00  0.00     0.000 C 
BRANCH   3   4
ATOM      4  C   UNL     1      31.719   1.996  38.478  1.00  0.00     0.000 C 
BRANCH   4   5
ATOM      5  C   UNL     1      31.482   0.838  37.494  1.00  0.00     0.006 C 
BRANCH   5   6
ATOM      6  C   UNL     1      30.026   0.746  37.022  1.00  0.00     0.053 C 
BRANCH   6   7
ATOM      7  C   UNL     1      29.115   0.499  38.183  1.00  0.00     0.041 C 
ATOM      8  O   UNL     1      28.710   1.462  38.886  1.00  0.00    -0.550 OA
ATOM      9  O   UNL     1      28.672  -0.788  38.459  1.00  0.00    -0.550 OA
ENDBRANCH   6   7
ENDBRANCH   5   6
ENDBRANCH   4   5
ENDBRANCH   3   4
ENDBRANCH   2   3
ENDBRANCH   1   2
BRANCH   1  10
ATOM     10  C   UNL     1      30.947  -1.364  41.943  1.00  0.00     0.000 C 
BRANCH  10  11
ATOM     11  C   UNL     1      29.595  -0.855  41.418  1.00  0.00    -0.000 C 
BRANCH  11  12
ATOM     12  C   UNL     1      28.402  -1.515  42.133  1.00  0.00    -0.000 C 
BRANCH  12  13
ATOM     13  C   UNL     1      27.895  -0.689  43.326  1.00  0.00    -0.000 C 
BRANCH  13  14
ATOM     14  C   UNL     1      28.946  -0.556  44.441  1.00  0.00    -0.000 C 
BRANCH  14  15
ATOM     15  C   UNL     1      29.267  -1.900  45.112  1.00  0.00    -0.003 C 
ATOM     16  C   UNL     1      30.415  -1.802  46.117  1.00  0.00     0.004 C 
ENDBRANCH  14  15
ENDBRANCH  13  14
ENDBRANCH  12  13
ENDBRANCH  11  12
ENDBRANCH  10  11
ENDBRANCH   1  10
TORSDOF 12
ENDMDL
MODEL 6
REMARK VINA RESULT:    -4.173      1.534      2.560
REMARK INTER + INTRA:          -7.888
REMARK INTER:                  -7.222
REMARK INTRA:                  -0.666
REMARK UNBOUND:                -0.788
REMARK SMILES CCCCCCCCCCCCCC(=O)[O-]
REMARK SMILES IDX 8 1 9 2 10 3 11 4 12 5 13 6 14 7 15 8 16 9 7 10 6 11 5 12
REMARK SMILES IDX 4 13 3 14 2 15 1 16
REMARK H PARENT
REMARK Flexibility Score: inf
ROOT
ATOM      1  C   UNL     1      27.940  -0.464  43.398  1.00  0.00     0.000 C 
ENDROOT
BRANCH   1   2
ATOM      2  C   UNL     1      27.954  -0.189  41.884  1.00  0.00     0.000 C 
BRANCH   2   3
ATOM      3  C   UNL     1      28.203  -1.429  41.002  1.00  0.00     0.000 C 
BRANCH   3   4
ATOM      4  C   UNL     1      29.257  -1.244  39.893  1.00  0.00     0.000 C 
BRANCH   4   5
ATOM      5  C   UNL     1      30.687  -0.977  40.394  1.00  0.00     0.006 C 
BRANCH   5   6
ATOM      6  C   UNL     1      30.913   0.485  40.796  1.00  0.00     0.053 C 
BRANCH   6   7
ATOM      7  C   UNL     1      31.231   1.316  39.592  1.00  0.00     0.041 C 
ATOM      8  O   UNL     1      31.334   2.567  39.695  1.00  0.00    -0.550 OA
ATOM      9  O   UNL     1      31.465   0.704  38.367  1.00  0.00    -0.550 OA
ENDBRANCH   6   7
ENDBRANCH   5   6
ENDBRANCH   4   5
ENDBRANCH   3   4
ENDBRANCH   2   3
ENDBRANCH   1   2
BRANCH   1  10
ATOM     10  C   UNL     1      28.700  -1.747  43.777  1.00  0.00     0.000 C 
BRANCH  10  11
ATOM     11  C   UNL     1      30.223  -1.540  43.816  1.00  0.00    -0.000 C 
BRANCH  11  12
ATOM     12  C   UNL     1      30.654  -0.565  44.926  1.00  0.00    -0.000 C 
BRANCH  12  13
ATOM     13  C   UNL     1      30.018  -0.895  46.286  1.00  0.00    -0.000 C 
BRANCH  13  14
ATOM     14  C   UNL     1      30.658  -2.125  46.954  1.00  0.00    -0.000 C 
BRANCH  14  15
ATOM     15  C   UNL     1      30.682  -2.016  48.487  1.00  0.00    -0.003 C 
ATOM     16  C   UNL     1      29.750  -0.928  49.019  1.00  0.00     0.004 C 
ENDBRANCH  14  15
ENDBRANCH  13  14
ENDBRANCH  12  13
ENDBRANCH  11  12
ENDBRANCH  10  11
ENDBRANCH   1  10
TORSDOF 12
ENDMDL
MODEL 7
REMARK VINA RESULT:    -3.863      1.734      3.342
REMARK INTER + INTRA:          -7.361
REMARK INTER:                  -7.027
REMARK INTRA:                  -0.333
REMARK UNBOUND:                -0.788
REMARK SMILES CCCCCCCCCCCCCC(=O)[O-]
REMARK SMILES IDX 8 1 9 2 10 3 11 4 12 5 13 6 14 7 15 8 16 9 7 10 6 11 5 12
REMARK SMILES IDX 4 13 3 14 2 15 1 16
REMARK H PARENT
REMARK Flexibility Score: inf
ROOT
ATOM      1  C   UNL     1      30.905   0.129  41.369  1.00  0.00     0.000 C 
ENDROOT
BRANCH   1   2
ATOM      2  C   UNL     1      32.087   0.061  40.385  1.00  0.00     0.000 C 
BRANCH   2   3
ATOM      3  C   UNL     1      32.125   1.193  39.339  1.00  0.00     0.000 C 
BRANCH   3   4
ATOM      4  C   UNL     1      31.885   0.747  37.882  1.00  0.00     0.000 C 
BRANCH   4   5
ATOM      5  C   UNL     1      30.583   1.267  37.251  1.00  0.00     0.006 C 
BRANCH   5   6
ATOM      6  C   UNL     1      29.487   0.197  37.179  1.00  0.00     0.053 C 
BRANCH   6   7
ATOM      7  C   UNL     1      28.841   0.020  38.518  1.00  0.00     0.041 C 
ATOM      8  O   UNL     1      28.423   1.021  39.157  1.00  0.00    -0.550 OA
ATOM      9  O   UNL     1      28.656  -1.255  39.038  1.00  0.00    -0.550 OA
ENDBRANCH   6   7
ENDBRANCH   5   6
ENDBRANCH   4   5
ENDBRANCH   3   4
ENDBRANCH   2   3
ENDBRANCH   1   2
BRANCH   1  10
ATOM     10  C   UNL     1      30.821  -1.106  42.283  1.00  0.00     0.000 C 
BRANCH  10  11
ATOM     11  C   UNL     1      30.741  -0.733  43.771  1.00  0.00    -0.000 C 
BRANCH  11  12
ATOM     12  C   UNL     1      29.958  -1.769  44.597  1.00  0.00    -0.000 C 
BRANCH  12  13
ATOM     13  C   UNL     1      28.442  -1.693  44.358  1.00  0.00    -0.000 C 
BRANCH  13  14
ATOM     14  C   UNL     1      28.016  -0.382  43.676  1.00  0.00    -0.000 C 
BRANCH  14  15
ATOM     15  C   UNL     1      27.220  -0.621  42.384  1.00  0.00    -0.003 C 
ATOM     16  C   UNL     1      27.682  -1.865  41.625  1.00  0.00     0.004 C 
ENDBRANCH  14  15
ENDBRANCH  13  14
ENDBRANCH  12  13
ENDBRANCH  11  12
ENDBRANCH  10  11
ENDBRANCH   1  10
TORSDOF 12
ENDMDL
MODEL 8
REMARK VINA RESULT:    -3.706      1.387      5.371
REMARK INTER + INTRA:          -7.094
REMARK INTER:                  -6.783
REMARK INTRA:                  -0.310
REMARK UNBOUND:                -0.788
REMARK SMILES CCCCCCCCCCCCCC(=O)[O-]
REMARK SMILES IDX 8 1 9 2 10 3 11 4 12 5 13 6 14 7 15 8 16 9 7 10 6 11 5 12
REMARK SMILES IDX 4 13 3 14 2 15 1 16
REMARK H PARENT
REMARK Flexibility Score: inf
ROOT
ATOM      1  C   UNL     1      27.982  -0.478  43.754  1.00  0.00     0.000 C 
ENDROOT
BRANCH   1   2
ATOM      2  C   UNL     1      28.494  -1.800  44.354  1.00  0.00     0.000 C 
BRANCH   2   3
ATOM      3  C   UNL     1      29.957  -1.768  44.838  1.00  0.00     0.000 C 
BRANCH   3   4
ATOM      4  C   UNL     1      30.832  -0.667  44.206  1.00  0.00     0.000 C 
BRANCH   4   5
ATOM      5  C   UNL     1      30.751  -0.573  42.673  1.00  0.00     0.006 C 
BRANCH   5   6
ATOM      6  C   UNL     1      32.118  -0.725  41.994  1.00  0.00     0.053 C 
BRANCH   6   7
ATOM      7  C   UNL     1      32.060  -0.224  40.585  1.00  0.00     0.041 C 
ATOM      8  O   UNL     1      32.036  -1.037  39.624  1.00  0.00    -0.550 OA
ATOM      9  O   UNL     1      31.983   1.140  40.335  1.00  0.00    -0.550 OA
ENDBRANCH   6   7
ENDBRANCH   5   6
ENDBRANCH   4   5
ENDBRANCH   3   4
ENDBRANCH   2   3
ENDBRANCH   1   2
BRANCH   1  10
ATOM     10  C   UNL     1      27.301  -0.669  42.388  1.00  0.00     0.000 C 
BRANCH  10  11
ATOM     11  C   UNL     1      27.837  -1.894  41.630  1.00  0.00    -0.000 C 
BRANCH  11  12
ATOM     12  C   UNL     1      27.621  -1.784  40.109  1.00  0.00    -0.000 C 
BRANCH  12  13
ATOM     13  C   UNL     1      28.741  -1.000  39.407  1.00  0.00    -0.000 C 
BRANCH  13  14
ATOM     14  C   UNL     1      28.366   0.471  39.160  1.00  0.00    -0.000 C 
BRANCH  14  15
ATOM     15  C   UNL     1      29.494   1.261  38.478  1.00  0.00    -0.003 C 
ATOM     16  C   UNL     1      29.996   0.593  37.198  1.00  0.00     0.004 C 
ENDBRANCH  14  15
ENDBRANCH  13  14
ENDBRANCH  12  13
ENDBRANCH  11  12
ENDBRANCH  10  11
ENDBRANCH   1  10
TORSDOF 12
ENDMDL
