MODEL 1
REMARK VINA RESULT:    -4.852      0.000      0.000
REMARK INTER + INTRA:          -5.232
REMARK INTER:                  -5.136
REMARK INTRA:                  -0.096
REMARK UNBOUND:                -0.096
REMARK SMILES C=C(C)[C@H]1CC=C(C)C(=O)C1
REMARK SMILES IDX 8 1 7 2 6 3 5 4 4 5 11 6 9 7 10 8 2 9 1 10 3 11
REMARK H PARENT
REMARK Flexibility Score: inf
ROOT
ATOM      1  C   UNL     1     -11.934 -22.735  19.984  1.00  0.00     0.048 C 
ATOM      2  C   UNL     1     -13.029 -22.164  20.843  1.00  0.00    -0.012 C 
ATOM      3  C   UNL     1     -14.266 -22.007  20.343  1.00  0.00    -0.019 C 
ATOM      4  C   UNL     1     -15.374 -21.365  21.136  1.00  0.00     0.036 C 
ATOM      5  C   UNL     1     -15.197 -21.622  22.645  1.00  0.00     0.025 C 
ATOM      6  C   UNL     1     -13.804 -21.160  23.108  1.00  0.00     0.089 C 
ATOM      7  C   UNL     1     -12.731 -21.753  22.237  1.00  0.00     0.158 C 
ATOM      8  O   UNL     1     -11.559 -21.855  22.690  1.00  0.00    -0.295 OA
ENDROOT
BRANCH   5   9
ATOM      9  C   UNL     1     -16.302 -20.958  23.456  1.00  0.00    -0.077 C 
ATOM     10  C   UNL     1     -17.563 -20.953  22.997  1.00  0.00     0.008 C 
ATOM     11  C   UNL     1     -16.015 -20.299  24.782  1.00  0.00     0.039 C 
ENDBRANCH   5   9
TORSDOF 1
ENDMDL
MODEL 2
REMARK VINA RESULT:    -4.815      1.901      5.232
REMARK INTER + INTRA:          -5.192
REMARK INTER:                  -5.093
REMARK INTRA:                  -0.099
REMARK UNBOUND:                -0.096
REMARK SMILES C=C(C)[C@H]1CC=C(C)C(=O)C1
REMARK SMILES IDX 8 1 7 2 6 3 5 4 4 5 11 6 9 7 10 8 2 9 1 10 3 11
REMARK H PARENT
REMARK Flexibility Score: inf
ROOT
ATOM      1  C   UNL     1     -15.383 -21.525  21.179  1.00  0.00     0.048 C 
ATOM      2  C   UNL     1     -13.962 -21.895  20.854  1.00  0.00    -0.012 C 
ATOM      3  C   UNL     1     -13.667 -22.476  19.678  1.00  0.00    -0.019 C 
ATOM      4  C   UNL     1     -12.274 -22.937  19.341  1.00  0.00     0.036 C 
ATOM      5  C   UNL     1     -11.215 -22.059  20.035  1.00  0.00     0.025 C 
ATOM      6  C   UNL     1     -11.464 -22.017  21.553  1.00  0.00     0.089 C 
ATOM      7  C   UNL     1     -12.889 -21.638  21.847  1.00  0.00     0.158 C 
ATOM      8  O   UNL     1     -13.173 -21.138  22.969  1.00  0.00    -0.295 OA
ENDROOT
BRANCH   5   9
ATOM      9  C   UNL     1      -9.803 -22.532  19.715  1.00  0.00    -0.077 C 
ATOM     10  C   UNL     1      -8.948 -22.818  20.710  1.00  0.00     0.008 C 
ATOM     11  C   UNL     1      -9.331 -22.695  18.292  1.00  0.00     0.039 C 
ENDBRANCH   5   9
TORSDOF 1
ENDMDL
MODEL 3
REMARK VINA RESULT:    -4.814      1.598      4.365
REMARK INTER + INTRA:          -5.191
REMARK INTER:                  -5.093
REMARK INTRA:                  -0.098
REMARK UNBOUND:                -0.096
REMARK SMILES C=C(C)[C@H]1CC=C(C)C(=O)C1
REMARK SMILES IDX 8 1 7 2 6 3 5 4 4 5 11 6 9 7 10 8 2 9 1 10 3 11
REMARK H PARENT
REMARK Flexibility Score: inf
ROOT
ATOM      1  C   UNL     1     -17.498 -20.452  23.379  1.00  0.00     0.048 C 
ATOM      2  C   UNL     1     -16.246 -21.050  22.798  1.00  0.00    -0.012 C 
ATOM      3  C   UNL     1     -16.164 -21.297  21.480  1.00  0.00    -0.019 C 
ATOM      4  C   UNL     1     -14.965 -21.968  20.865  1.00  0.00     0.036 C 
ATOM      5  C   UNL     1     -13.681 -21.641  21.652  1.00  0.00     0.025 C 
ATOM      6  C   UNL     1     -13.856 -22.006  23.137  1.00  0.00     0.089 C 
ATOM      7  C   UNL     1     -15.110 -21.388  23.692  1.00  0.00     0.158 C 
ATOM      8  O   UNL     1     -15.206 -21.202  24.934  1.00  0.00    -0.295 OA
ENDROOT
BRANCH   5   9
ATOM      9  C   UNL     1     -12.467 -22.334  21.049  1.00  0.00    -0.077 C 
ATOM     10  C   UNL     1     -11.490 -22.795  21.846  1.00  0.00     0.008 C 
ATOM     11  C   UNL     1     -12.329 -22.522  19.558  1.00  0.00     0.039 C 
ENDBRANCH   5   9
TORSDOF 1
ENDMDL
MODEL 4
REMARK VINA RESULT:    -4.803      1.007      1.633
REMARK INTER + INTRA:          -5.180
REMARK INTER:                  -5.082
REMARK INTRA:                  -0.098
REMARK UNBOUND:                -0.096
REMARK SMILES C=C(C)[C@H]1CC=C(C)C(=O)C1
REMARK SMILES IDX 8 1 7 2 6 3 5 4 4 5 11 6 9 7 10 8 2 9 1 10 3 11
REMARK H PARENT
REMARK Flexibility Score: inf
ROOT
ATOM      1  C   UNL     1     -10.865 -22.871  19.354  1.00  0.00     0.048 C 
ATOM      2  C   UNL     1     -12.071 -22.425  20.133  1.00  0.00    -0.012 C 
ATOM      3  C   UNL     1     -13.297 -22.514  19.589  1.00  0.00    -0.019 C 
ATOM      4  C   UNL     1     -14.525 -22.006  20.298  1.00  0.00     0.036 C 
ATOM      5  C   UNL     1     -14.369 -22.113  21.827  1.00  0.00     0.025 C 
ATOM      6  C   UNL     1     -13.089 -21.392  22.287  1.00  0.00     0.089 C 
ATOM      7  C   UNL     1     -11.900 -21.863  21.496  1.00  0.00     0.158 C 
ATOM      8  O   UNL     1     -10.746 -21.735  21.987  1.00  0.00    -0.295 OA
ENDROOT
BRANCH   5   9
ATOM      9  C   UNL     1     -15.598 -21.581  22.551  1.00  0.00    -0.077 C 
ATOM     10  C   UNL     1     -15.514 -21.217  23.840  1.00  0.00     0.008 C 
ATOM     11  C   UNL     1     -16.927 -21.448  21.850  1.00  0.00     0.039 C 
ENDBRANCH   5   9
TORSDOF 1
ENDMDL
MODEL 5
REMARK VINA RESULT:    -4.799     10.019     11.391
REMARK INTER + INTRA:          -5.176
REMARK INTER:                  -5.086
REMARK INTRA:                  -0.090
REMARK UNBOUND:                -0.096
REMARK SMILES C=C(C)[C@H]1CC=C(C)C(=O)C1
REMARK SMILES IDX 8 1 7 2 6 3 5 4 4 5 11 6 9 7 10 8 2 9 1 10 3 11
REMARK H PARENT
REMARK Flexibility Score: inf
ROOT
ATOM      1  C   UNL     1     -23.104 -28.492  25.680  1.00  0.00     0.048 C 
ATOM      2  C   UNL     1     -21.675 -28.944  25.546  1.00  0.00    -0.012 C 
ATOM      3  C   UNL     1     -20.670 -28.076  25.751  1.00  0.00    -0.019 C 
ATOM      4  C   UNL     1     -19.228 -28.460  25.550  1.00  0.00     0.036 C 
ATOM      5  C   UNL     1     -19.005 -29.955  25.846  1.00  0.00     0.025 C 
ATOM      6  C   UNL     1     -19.962 -30.817  25.003  1.00  0.00     0.089 C 
ATOM      7  C   UNL     1     -21.381 -30.347  25.163  1.00  0.00     0.158 C 
ATOM      8  O   UNL     1     -22.324 -31.148  24.923  1.00  0.00    -0.295 OA
ENDROOT
BRANCH   5   9
ATOM      9  C   UNL     1     -17.553 -30.356  25.624  1.00  0.00    -0.077 C 
ATOM     10  C   UNL     1     -16.621 -30.042  26.538  1.00  0.00     0.008 C 
ATOM     11  C   UNL     1     -17.125 -31.110  24.390  1.00  0.00     0.039 C 
ENDBRANCH   5   9
TORSDOF 1
ENDMDL
MODEL 6
REMARK VINA RESULT:    -4.779      9.929     11.284
REMARK INTER + INTRA:          -5.154
REMARK INTER:                  -5.056
REMARK INTRA:                  -0.098
REMARK UNBOUND:                -0.096
REMARK SMILES C=C(C)[C@H]1CC=C(C)C(=O)C1
REMARK SMILES IDX 8 1 7 2 6 3 5 4 4 5 11 6 9 7 10 8 2 9 1 10 3 11
REMARK H PARENT
REMARK Flexibility Score: inf
ROOT
ATOM      1  C   UNL     1     -23.017 -28.517  25.624  1.00  0.00     0.048 C 
ATOM      2  C   UNL     1     -21.659 -29.163  25.603  1.00  0.00    -0.012 C 
ATOM      3  C   UNL     1     -21.549 -30.501  25.544  1.00  0.00    -0.019 C 
ATOM      4  C   UNL     1     -20.215 -31.197  25.602  1.00  0.00     0.036 C 
ATOM      5  C   UNL     1     -19.104 -30.321  24.991  1.00  0.00     0.025 C 
ATOM      6  C   UNL     1     -19.073 -28.942  25.673  1.00  0.00     0.089 C 
ATOM      7  C   UNL     1     -20.441 -28.317  25.672  1.00  0.00     0.158 C 
ATOM      8  O   UNL     1     -20.546 -27.066  25.776  1.00  0.00    -0.295 OA
ENDROOT
BRANCH   5   9
ATOM      9  C   UNL     1     -17.748 -31.009  25.065  1.00  0.00    -0.077 C 
ATOM     10  C   UNL     1     -16.838 -30.606  25.966  1.00  0.00     0.008 C 
ATOM     11  C   UNL     1     -17.393 -32.150  24.144  1.00  0.00     0.039 C 
ENDBRANCH   5   9
TORSDOF 1
ENDMDL
MODEL 7
REMARK VINA RESULT:    -4.706      2.380      5.661
REMARK INTER + INTRA:          -5.076
REMARK INTER:                  -4.982
REMARK INTRA:                  -0.094
REMARK UNBOUND:                -0.096
REMARK SMILES C=C(C)[C@H]1CC=C(C)C(=O)C1
REMARK SMILES IDX 8 1 7 2 6 3 5 4 4 5 11 6 9 7 10 8 2 9 1 10 3 11
REMARK H PARENT
REMARK Flexibility Score: inf
ROOT
ATOM      1  C   UNL     1     -15.094 -21.638  21.219  1.00  0.00     0.048 C 
ATOM      2  C   UNL     1     -13.634 -21.777  20.882  1.00  0.00    -0.012 C 
ATOM      3  C   UNL     1     -12.699 -21.302  21.722  1.00  0.00    -0.019 C 
ATOM      4  C   UNL     1     -11.231 -21.344  21.391  1.00  0.00     0.036 C 
ATOM      5  C   UNL     1     -10.897 -22.555  20.499  1.00  0.00     0.025 C 
ATOM      6  C   UNL     1     -11.780 -22.551  19.238  1.00  0.00     0.089 C 
ATOM      7  C   UNL     1     -13.232 -22.420  19.606  1.00  0.00     0.158 C 
ATOM      8  O   UNL     1     -14.110 -22.822  18.796  1.00  0.00    -0.295 OA
ENDROOT
BRANCH   5   9
ATOM      9  C   UNL     1      -9.417 -22.593  20.142  1.00  0.00    -0.077 C 
ATOM     10  C   UNL     1      -8.490 -22.492  21.107  1.00  0.00     0.008 C 
ATOM     11  C   UNL     1      -8.957 -22.747  18.714  1.00  0.00     0.039 C 
ENDBRANCH   5   9
TORSDOF 1
ENDMDL
MODEL 8
REMARK VINA RESULT:    -4.698      1.467      2.080
REMARK INTER + INTRA:          -5.068
REMARK INTER:                  -4.970
REMARK INTRA:                  -0.098
REMARK UNBOUND:                -0.096
REMARK SMILES C=C(C)[C@H]1CC=C(C)C(=O)C1
REMARK SMILES IDX 8 1 7 2 6 3 5 4 4 5 11 6 9 7 10 8 2 9 1 10 3 11
REMARK H PARENT
REMARK Flexibility Score: inf
ROOT
ATOM      1  C   UNL     1     -11.220 -21.944  20.387  1.00  0.00     0.048 C 
ATOM      2  C   UNL     1     -12.571 -21.814  21.036  1.00  0.00    -0.012 C 
ATOM      3  C   UNL     1     -12.670 -21.403  22.312  1.00  0.00    -0.019 C 
ATOM      4  C   UNL     1     -13.992 -21.334  23.030  1.00  0.00     0.036 C 
ATOM      5  C   UNL     1     -15.142 -21.034  22.049  1.00  0.00     0.025 C 
ATOM      6  C   UNL     1     -15.152 -22.062  20.904  1.00  0.00     0.089 C 
ATOM      7  C   UNL     1     -13.792 -22.165  20.270  1.00  0.00     0.158 C 
ATOM      8  O   UNL     1     -13.696 -22.596  19.090  1.00  0.00    -0.295 OA
ENDROOT
BRANCH   5   9
ATOM      9  C   UNL     1     -16.485 -20.984  22.765  1.00  0.00    -0.077 C 
ATOM     10  C   UNL     1     -17.597 -21.397  22.136  1.00  0.00     0.008 C 
ATOM     11  C   UNL     1     -16.603 -20.480  24.181  1.00  0.00     0.039 C 
ENDBRANCH   5   9
TORSDOF 1
ENDMDL
MODEL 9
REMARK VINA RESULT:    -4.626      2.946      6.086
REMARK INTER + INTRA:          -4.992
REMARK INTER:                  -4.896
REMARK INTRA:                  -0.096
REMARK UNBOUND:                -0.096
REMARK SMILES C=C(C)[C@H]1CC=C(C)C(=O)C1
REMARK SMILES IDX 8 1 7 2 6 3 5 4 4 5 11 6 9 7 10 8 2 9 1 10 3 11
REMARK H PARENT
REMARK Flexibility Score: inf
ROOT
ATOM      1  C   UNL     1     -13.105 -23.182  23.137  1.00  0.00     0.048 C 
ATOM      2  C   UNL     1     -12.088 -22.865  22.075  1.00  0.00    -0.012 C 
ATOM      3  C   UNL     1     -10.787 -23.125  22.287  1.00  0.00    -0.019 C 
ATOM      4  C   UNL     1      -9.724 -22.752  21.288  1.00  0.00     0.036 C 
ATOM      5  C   UNL     1     -10.276 -22.790  19.850  1.00  0.00     0.025 C 
ATOM      6  C   UNL     1     -11.525 -21.899  19.732  1.00  0.00     0.089 C 
ATOM      7  C   UNL     1     -12.526 -22.243  20.801  1.00  0.00     0.158 C 
ATOM      8  O   UNL     1     -13.740 -21.955  20.622  1.00  0.00    -0.295 OA
ENDROOT
BRANCH   5   9
ATOM      9  C   UNL     1      -9.212 -22.393  18.835  1.00  0.00    -0.077 C 
ATOM     10  C   UNL     1      -7.945 -22.810  18.990  1.00  0.00     0.008 C 
ATOM     11  C   UNL     1      -9.546 -21.535  17.640  1.00  0.00     0.039 C 
ENDBRANCH   5   9
TORSDOF 1
ENDMDL
