MODEL 1
REMARK VINA RESULT:    -4.006      0.000      0.000
REMARK INTER + INTRA:          -5.004
REMARK INTER:                  -4.709
REMARK INTRA:                  -0.295
REMARK UNBOUND:                -0.295
REMARK SMILES O=c1cc(-c2ccc(O)c(O)c2)oc2cc(O)cc(O)c12
REMARK SMILES IDX 4 1 3 2 2 3 1 4 21 5 19 6 18 7 16 8 15 9 14 10 13 11 5 12
REMARK SMILES IDX 6 13 7 14 8 15 12 16 10 17 9 18 11 20 20 22 17 24
REMARK H PARENT 9 19 11 21 20 23 17 25
REMARK Flexibility Score: inf
ROOT
ATOM      1  C   UNL     1      -6.656  -2.213  -9.957  1.00  0.00     0.138 A 
ATOM      2  C   UNL     1      -8.026  -1.916  -9.980  1.00  0.00     0.100 A 
ATOM      3  C   UNL     1      -8.442  -0.584  -9.996  1.00  0.00     0.197 A 
ATOM      4  O   UNL     1      -9.675  -0.349 -10.078  1.00  0.00    -0.289 OA
ATOM      5  C   UNL     1      -7.481   0.454  -9.958  1.00  0.00     0.107 A 
ATOM      6  C   UNL     1      -7.791   1.847  -9.929  1.00  0.00     0.134 A 
ATOM      7  C   UNL     1      -6.754   2.786 -10.010  1.00  0.00     0.093 A 
ATOM      8  C   UNL     1      -5.418   2.382 -10.058  1.00  0.00     0.123 A 
ATOM      9  C   UNL     1      -5.103   1.025 -10.032  1.00  0.00     0.094 A 
ATOM     10  C   UNL     1      -6.115   0.064  -9.986  1.00  0.00     0.146 A 
ATOM     11  O   UNL     1      -5.773  -1.219  -9.977  1.00  0.00    -0.456 OA
ENDROOT
BRANCH   1  12
ATOM     12  C   UNL     1      -6.158  -3.612  -9.938  1.00  0.00     0.021 A 
ATOM     13  C   UNL     1      -4.783  -3.906  -9.865  1.00  0.00     0.016 A 
ATOM     14  C   UNL     1      -4.342  -5.232  -9.859  1.00  0.00     0.051 A 
ATOM     15  C   UNL     1      -5.261  -6.285  -9.935  1.00  0.00     0.157 A 
ATOM     16  C   UNL     1      -7.074  -4.675 -10.028  1.00  0.00     0.062 A 
ATOM     17  C   UNL     1      -6.635  -6.004 -10.021  1.00  0.00     0.158 A 
BRANCH  15  18
ATOM     18  O   UNL     1      -4.817  -7.606  -9.928  1.00  0.00    -0.504 OA
ATOM     19  H   UNL     1      -4.472  -8.055 -10.768  1.00  0.00     0.293 HD
ENDBRANCH  15  18
BRANCH  17  20
ATOM     20  O   UNL     1      -7.575  -7.029 -10.103  1.00  0.00    -0.504 OA
ATOM     21  H   UNL     1      -8.567  -6.861  -9.983  1.00  0.00     0.293 HD
ENDBRANCH  17  20
ENDBRANCH   1  12
BRANCH   6  22
ATOM     22  O   UNL     1      -9.085   2.357  -9.798  1.00  0.00    -0.507 OA
ATOM     23  H   UNL     1      -9.469   2.745  -8.950  1.00  0.00     0.293 HD
ENDBRANCH   6  22
BRANCH   8  24
ATOM     24  O   UNL     1      -4.393   3.324 -10.123  1.00  0.00    -0.508 OA
ATOM     25  H   UNL     1      -4.226   3.868 -10.961  1.00  0.00     0.293 HD
ENDBRANCH   8  24
TORSDOF 5
ENDMDL
MODEL 2
REMARK VINA RESULT:    -3.705      2.279      6.809
REMARK INTER + INTRA:          -4.649
REMARK INTER:                  -4.356
REMARK INTRA:                  -0.294
REMARK UNBOUND:                -0.295
REMARK SMILES O=c1cc(-c2ccc(O)c(O)c2)oc2cc(O)cc(O)c12
REMARK SMILES IDX 4 1 3 2 2 3 1 4 21 5 19 6 18 7 16 8 15 9 14 10 13 11 5 12
REMARK SMILES IDX 6 13 7 14 8 15 12 16 10 17 9 18 11 20 20 22 17 24
REMARK H PARENT 9 19 11 21 20 23 17 25
REMARK Flexibility Score: inf
ROOT
ATOM      1  C   UNL     1      -5.335  -2.749  -9.944  1.00  0.00     0.138 A 
ATOM      2  C   UNL     1      -6.705  -2.496 -10.102  1.00  0.00     0.100 A 
ATOM      3  C   UNL     1      -7.613  -3.553 -10.042  1.00  0.00     0.197 A 
ATOM      4  O   UNL     1      -8.840  -3.287 -10.125  1.00  0.00    -0.289 OA
ATOM      5  C   UNL     1      -7.143  -4.874  -9.853  1.00  0.00     0.107 A 
ATOM      6  C   UNL     1      -7.973  -6.035  -9.816  1.00  0.00     0.134 A 
ATOM      7  C   UNL     1      -7.407  -7.278  -9.506  1.00  0.00     0.093 A 
ATOM      8  C   UNL     1      -6.034  -7.412  -9.293  1.00  0.00     0.123 A 
ATOM      9  C   UNL     1      -5.207  -6.294  -9.381  1.00  0.00     0.094 A 
ATOM     10  C   UNL     1      -5.745  -5.034  -9.653  1.00  0.00     0.146 A 
ATOM     11  O   UNL     1      -4.924  -3.992  -9.714  1.00  0.00    -0.456 OA
ENDROOT
BRANCH   1  12
ATOM     12  C   UNL     1      -4.325  -1.662 -10.001  1.00  0.00     0.021 A 
ATOM     13  C   UNL     1      -2.944  -1.935 -10.026  1.00  0.00     0.016 A 
ATOM     14  C   UNL     1      -2.016  -0.892 -10.069  1.00  0.00     0.051 A 
ATOM     15  C   UNL     1      -2.448   0.440 -10.078  1.00  0.00     0.157 A 
ATOM     16  C   UNL     1      -4.750  -0.320  -9.997  1.00  0.00     0.062 A 
ATOM     17  C   UNL     1      -3.822   0.726 -10.041  1.00  0.00     0.158 A 
BRANCH  15  18
ATOM     18  O   UNL     1      -1.518   1.478 -10.122  1.00  0.00    -0.504 OA
ATOM     19  H   UNL     1      -1.756   2.388 -10.498  1.00  0.00     0.293 HD
ENDBRANCH  15  18
BRANCH  17  20
ATOM     20  O   UNL     1      -4.284   2.041 -10.045  1.00  0.00    -0.504 OA
ATOM     21  H   UNL     1      -4.374   2.579 -10.899  1.00  0.00     0.293 HD
ENDBRANCH  17  20
ENDBRANCH   1  12
BRANCH   6  22
ATOM     22  O   UNL     1      -9.343  -6.025 -10.097  1.00  0.00    -0.507 OA
ATOM     23  H   UNL     1     -10.073  -5.984  -9.403  1.00  0.00     0.293 HD
ENDBRANCH   6  22
BRANCH   8  24
ATOM     24  O   UNL     1      -5.478  -8.656  -9.001  1.00  0.00    -0.508 OA
ATOM     25  H   UNL     1      -4.683  -8.749  -8.379  1.00  0.00     0.293 HD
ENDBRANCH   8  24
TORSDOF 5
ENDMDL
MODEL 3
REMARK VINA RESULT:    -3.069      1.898      2.463
REMARK INTER + INTRA:          -3.902
REMARK INTER:                  -3.617
REMARK INTRA:                  -0.285
REMARK UNBOUND:                -0.295
REMARK SMILES O=c1cc(-c2ccc(O)c(O)c2)oc2cc(O)cc(O)c12
REMARK SMILES IDX 4 1 3 2 2 3 1 4 21 5 19 6 18 7 16 8 15 9 14 10 13 11 5 12
REMARK SMILES IDX 6 13 7 14 8 15 12 16 10 17 9 18 11 20 20 22 17 24
REMARK H PARENT 9 19 11 21 20 23 17 25
REMARK Flexibility Score: inf
ROOT
ATOM      1  C   UNL     1      -5.771  -3.834  -9.708  1.00  0.00     0.138 A 
ATOM      2  C   UNL     1      -6.942  -3.077  -9.849  1.00  0.00     0.100 A 
ATOM      3  C   UNL     1      -6.857  -1.686  -9.936  1.00  0.00     0.197 A 
ATOM      4  O   UNL     1      -7.919  -1.038 -10.125  1.00  0.00    -0.289 OA
ATOM      5  C   UNL     1      -5.596  -1.052  -9.849  1.00  0.00     0.107 A 
ATOM      6  C   UNL     1      -5.393   0.361  -9.883  1.00  0.00     0.134 A 
ATOM      7  C   UNL     1      -4.088   0.870  -9.906  1.00  0.00     0.093 A 
ATOM      8  C   UNL     1      -2.981   0.021  -9.834  1.00  0.00     0.123 A 
ATOM      9  C   UNL     1      -3.171  -1.357  -9.744  1.00  0.00     0.094 A 
ATOM     10  C   UNL     1      -4.458  -1.898  -9.755  1.00  0.00     0.146 A 
ATOM     11  O   UNL     1      -4.594  -3.217  -9.683  1.00  0.00    -0.456 OA
ENDROOT
BRANCH   1  12
ATOM     12  C   UNL     1      -5.803  -5.315  -9.610  1.00  0.00     0.021 A 
ATOM     13  C   UNL     1      -4.764  -6.114 -10.125  1.00  0.00     0.016 A 
ATOM     14  C   UNL     1      -4.825  -7.506 -10.028  1.00  0.00     0.051 A 
ATOM     15  C   UNL     1      -5.926  -8.126  -9.425  1.00  0.00     0.157 A 
ATOM     16  C   UNL     1      -6.912  -5.947  -9.017  1.00  0.00     0.062 A 
ATOM     17  C   UNL     1      -6.975  -7.342  -8.918  1.00  0.00     0.158 A 
BRANCH  15  18
ATOM     18  O   UNL     1      -5.982  -9.516  -9.329  1.00  0.00    -0.504 OA
ATOM     19  H   UNL     1      -6.818  -9.992  -9.013  1.00  0.00     0.293 HD
ENDBRANCH  15  18
BRANCH  17  20
ATOM     20  O   UNL     1      -8.087  -7.928  -8.315  1.00  0.00    -0.504 OA
ATOM     21  H   UNL     1      -8.064  -8.273  -7.363  1.00  0.00     0.293 HD
ENDBRANCH  17  20
ENDBRANCH   1  12
BRANCH   6  22
ATOM     22  O   UNL     1      -6.428   1.300  -9.872  1.00  0.00    -0.507 OA
ATOM     23  H   UNL     1      -6.316   2.279  -9.660  1.00  0.00     0.293 HD
ENDBRANCH   6  22
BRANCH   8  24
ATOM     24  O   UNL     1      -1.687   0.538  -9.841  1.00  0.00    -0.508 OA
ATOM     25  H   UNL     1      -0.907   0.016  -9.460  1.00  0.00     0.293 HD
ENDBRANCH   8  24
TORSDOF 5
ENDMDL
