MODEL 1
REMARK VINA RESULT:    -4.954      0.000      0.000
REMARK INTER + INTRA:          -8.083
REMARK INTER:                  -7.561
REMARK INTRA:                  -0.522
REMARK UNBOUND:                -0.522
REMARK SMILES O=C([O-])CCCCCCCCC(=O)[O-]
REMARK SMILES IDX 7 1 6 2 5 3 4 4 2 5 1 6 3 7 8 8 9 9 10 10 11 11 12 12 13 13
REMARK SMILES IDX 14 14
REMARK H PARENT
REMARK Flexibility Score: inf
ROOT
ATOM      1  C   UNL     1      11.789  28.329  60.359  1.00  0.00     0.000 C 
ENDROOT
BRANCH   1   2
ATOM      2  C   UNL     1      11.467  29.721  59.790  1.00  0.00     0.000 C 
BRANCH   2   3
ATOM      3  C   UNL     1       9.995  29.863  59.361  1.00  0.00     0.006 C 
BRANCH   3   4
ATOM      4  C   UNL     1       9.026  28.920  60.092  1.00  0.00     0.053 C 
BRANCH   4   5
ATOM      5  C   UNL     1       8.387  29.580  61.275  1.00  0.00     0.041 C 
ATOM      6  O   UNL     1       8.922  29.495  62.412  1.00  0.00    -0.550 OA
ATOM      7  O   UNL     1       7.186  30.260  61.128  1.00  0.00    -0.550 OA
ENDBRANCH   4   5
ENDBRANCH   3   4
ENDBRANCH   2   3
ENDBRANCH   1   2
BRANCH   1   8
ATOM      8  C   UNL     1      12.747  28.388  61.559  1.00  0.00     0.000 C 
BRANCH   8   9
ATOM      9  C   UNL     1      13.476  29.736  61.671  1.00  0.00     0.000 C 
BRANCH   9  10
ATOM     10  C   UNL     1      14.889  29.550  62.246  1.00  0.00     0.006 C 
BRANCH  10  11
ATOM     11  C   UNL     1      14.989  28.318  63.154  1.00  0.00     0.053 C 
BRANCH  11  12
ATOM     12  C   UNL     1      16.411  27.889  63.353  1.00  0.00     0.041 C 
ATOM     13  O   UNL     1      17.298  28.234  62.530  1.00  0.00    -0.550 OA
ATOM     14  O   UNL     1      16.761  27.136  64.468  1.00  0.00    -0.550 OA
ENDBRANCH  11  12
ENDBRANCH  10  11
ENDBRANCH   9  10
ENDBRANCH   8   9
ENDBRANCH   1   8
TORSDOF 9
ENDMDL
MODEL 2
REMARK VINA RESULT:    -4.840      1.341      1.742
REMARK INTER + INTRA:          -7.908
REMARK INTER:                  -7.513
REMARK INTRA:                  -0.395
REMARK UNBOUND:                -0.522
REMARK SMILES O=C([O-])CCCCCCCCC(=O)[O-]
REMARK SMILES IDX 7 1 6 2 5 3 4 4 2 5 1 6 3 7 8 8 9 9 10 10 11 11 12 12 13 13
REMARK SMILES IDX 14 14
REMARK H PARENT
REMARK Flexibility Score: inf
ROOT
ATOM      1  C   UNL     1      12.842  29.477  59.697  1.00  0.00     0.000 C 
ENDROOT
BRANCH   1   2
ATOM      2  C   UNL     1      11.994  30.483  58.900  1.00  0.00     0.000 C 
BRANCH   2   3
ATOM      3  C   UNL     1      10.497  30.121  58.887  1.00  0.00     0.006 C 
BRANCH   3   4
ATOM      4  C   UNL     1      10.108  28.989  59.851  1.00  0.00     0.053 C 
BRANCH   4   5
ATOM      5  C   UNL     1       9.550  29.516  61.138  1.00  0.00     0.041 C 
ATOM      6  O   UNL     1       8.311  29.706  61.260  1.00  0.00    -0.550 OA
ATOM      7  O   UNL     1      10.401  29.826  62.190  1.00  0.00    -0.550 OA
ENDBRANCH   4   5
ENDBRANCH   3   4
ENDBRANCH   2   3
ENDBRANCH   1   2
BRANCH   1   8
ATOM      8  C   UNL     1      14.139  30.097  60.239  1.00  0.00     0.000 C 
BRANCH   8   9
ATOM      9  C   UNL     1      14.313  29.882  61.751  1.00  0.00     0.000 C 
BRANCH   9  10
ATOM     10  C   UNL     1      15.693  29.284  62.064  1.00  0.00     0.006 C 
BRANCH  10  11
ATOM     11  C   UNL     1      15.930  29.126  63.572  1.00  0.00     0.053 C 
BRANCH  11  12
ATOM     12  C   UNL     1      15.731  27.711  64.021  1.00  0.00     0.041 C 
ATOM     13  O   UNL     1      14.581  27.198  64.009  1.00  0.00    -0.550 OA
ATOM     14  O   UNL     1      16.821  26.948  64.421  1.00  0.00    -0.550 OA
ENDBRANCH  11  12
ENDBRANCH  10  11
ENDBRANCH   9  10
ENDBRANCH   8   9
ENDBRANCH   1   8
TORSDOF 9
ENDMDL
MODEL 3
REMARK VINA RESULT:    -4.837      0.967      6.946
REMARK INTER + INTRA:          -7.903
REMARK INTER:                  -7.459
REMARK INTRA:                  -0.444
REMARK UNBOUND:                -0.522
REMARK SMILES O=C([O-])CCCCCCCCC(=O)[O-]
REMARK SMILES IDX 7 1 6 2 5 3 4 4 2 5 1 6 3 7 8 8 9 9 10 10 11 11 12 12 13 13
REMARK SMILES IDX 14 14
REMARK H PARENT
REMARK Flexibility Score: inf
ROOT
ATOM      1  C   UNL     1      12.471  29.766  61.915  1.00  0.00     0.000 C 
ENDROOT
BRANCH   1   2
ATOM      2  C   UNL     1      13.840  30.311  62.355  1.00  0.00     0.000 C 
BRANCH   2   3
ATOM      3  C   UNL     1      14.999  29.354  62.018  1.00  0.00     0.006 C 
BRANCH   3   4
ATOM      4  C   UNL     1      15.990  29.126  63.170  1.00  0.00     0.053 C 
BRANCH   4   5
ATOM      5  C   UNL     1      15.787  27.796  63.830  1.00  0.00     0.041 C 
ATOM      6  O   UNL     1      16.778  27.120  64.210  1.00  0.00    -0.550 OA
ATOM      7  O   UNL     1      14.504  27.291  63.995  1.00  0.00    -0.550 OA
ENDBRANCH   4   5
ENDBRANCH   3   4
ENDBRANCH   2   3
ENDBRANCH   1   2
BRANCH   1   8
ATOM      8  C   UNL     1      12.527  29.059  60.552  1.00  0.00     0.000 C 
BRANCH   8   9
ATOM      9  C   UNL     1      11.313  29.379  59.666  1.00  0.00     0.000 C 
BRANCH   9  10
ATOM     10  C   UNL     1      10.043  28.709  60.213  1.00  0.00     0.006 C 
BRANCH  10  11
ATOM     11  C   UNL     1       8.797  29.585  60.028  1.00  0.00     0.053 C 
BRANCH  11  12
ATOM     12  C   UNL     1       8.076  29.807  61.322  1.00  0.00     0.041 C 
ATOM     13  O   UNL     1       8.618  29.489  62.412  1.00  0.00    -0.550 OA
ATOM     14  O   UNL     1       6.817  30.396  61.325  1.00  0.00    -0.550 OA
ENDBRANCH  11  12
ENDBRANCH  10  11
ENDBRANCH   9  10
ENDBRANCH   8   9
ENDBRANCH   1   8
TORSDOF 9
ENDMDL
MODEL 4
REMARK VINA RESULT:    -4.829      1.622      2.110
REMARK INTER + INTRA:          -7.892
REMARK INTER:                  -7.370
REMARK INTRA:                  -0.522
REMARK UNBOUND:                -0.522
REMARK SMILES O=C([O-])CCCCCCCCC(=O)[O-]
REMARK SMILES IDX 7 1 6 2 5 3 4 4 2 5 1 6 3 7 8 8 9 9 10 10 11 11 12 12 13 13
REMARK SMILES IDX 14 14
REMARK H PARENT
REMARK Flexibility Score: inf
ROOT
ATOM      1  C   UNL     1      12.195  29.685  61.879  1.00  0.00     0.000 C 
ENDROOT
BRANCH   1   2
ATOM      2  C   UNL     1      12.186  28.951  60.527  1.00  0.00     0.000 C 
BRANCH   2   3
ATOM      3  C   UNL     1      10.763  28.670  60.012  1.00  0.00     0.006 C 
BRANCH   3   4
ATOM      4  C   UNL     1       9.729  29.745  60.383  1.00  0.00     0.053 C 
BRANCH   4   5
ATOM      5  C   UNL     1       9.035  30.296  59.175  1.00  0.00     0.041 C 
ATOM      6  O   UNL     1       8.165  31.198  59.301  1.00  0.00    -0.550 OA
ATOM      7  O   UNL     1       9.327  29.792  57.914  1.00  0.00    -0.550 OA
ENDBRANCH   4   5
ENDBRANCH   3   4
ENDBRANCH   2   3
ENDBRANCH   1   2
BRANCH   1   8
ATOM      8  C   UNL     1      13.578  30.257  62.231  1.00  0.00     0.000 C 
BRANCH   8   9
ATOM      9  C   UNL     1      14.660  29.865  61.213  1.00  0.00     0.000 C 
BRANCH   9  10
ATOM     10  C   UNL     1      15.902  29.303  61.922  1.00  0.00     0.006 C 
BRANCH  10  11
ATOM     11  C   UNL     1      15.710  29.204  63.441  1.00  0.00     0.053 C 
BRANCH  11  12
ATOM     12  C   UNL     1      15.683  27.781  63.907  1.00  0.00     0.041 C 
ATOM     13  O   UNL     1      16.759  27.165  64.124  1.00  0.00    -0.550 OA
ATOM     14  O   UNL     1      14.469  27.145  64.133  1.00  0.00    -0.550 OA
ENDBRANCH  11  12
ENDBRANCH  10  11
ENDBRANCH   9  10
ENDBRANCH   8   9
ENDBRANCH   1   8
TORSDOF 9
ENDMDL
MODEL 5
REMARK VINA RESULT:    -4.805      1.549      6.779
REMARK INTER + INTRA:          -7.855
REMARK INTER:                  -7.265
REMARK INTRA:                  -0.590
REMARK UNBOUND:                -0.522
REMARK SMILES O=C([O-])CCCCCCCCC(=O)[O-]
REMARK SMILES IDX 7 1 6 2 5 3 4 4 2 5 1 6 3 7 8 8 9 9 10 10 11 11 12 12 13 13
REMARK SMILES IDX 14 14
REMARK H PARENT
REMARK Flexibility Score: inf
ROOT
ATOM      1  C   UNL     1      14.914  29.961  60.761  1.00  0.00     0.000 C 
ENDROOT
BRANCH   1   2
ATOM      2  C   UNL     1      15.901  29.091  61.558  1.00  0.00     0.000 C 
BRANCH   2   3
ATOM      3  C   UNL     1      16.453  29.807  62.805  1.00  0.00     0.006 C 
BRANCH   3   4
ATOM      4  C   UNL     1      15.982  29.209  64.141  1.00  0.00     0.053 C 
BRANCH   4   5
ATOM      5  C   UNL     1      15.896  27.714  64.087  1.00  0.00     0.041 C 
ATOM      6  O   UNL     1      16.946  27.019  64.069  1.00  0.00    -0.550 OA
ATOM      7  O   UNL     1      14.656  27.091  64.025  1.00  0.00    -0.550 OA
ENDBRANCH   4   5
ENDBRANCH   3   4
ENDBRANCH   2   3
ENDBRANCH   1   2
BRANCH   1   8
ATOM      8  C   UNL     1      13.536  30.059  61.434  1.00  0.00     0.000 C 
BRANCH   8   9
ATOM      9  C   UNL     1      12.845  28.694  61.574  1.00  0.00     0.000 C 
BRANCH   9  10
ATOM     10  C   UNL     1      11.982  28.388  60.340  1.00  0.00     0.006 C 
BRANCH  10  11
ATOM     11  C   UNL     1      11.321  29.647  59.765  1.00  0.00     0.053 C 
BRANCH  11  12
ATOM     12  C   UNL     1       9.844  29.469  59.589  1.00  0.00     0.041 C 
ATOM     13  O   UNL     1       9.042  29.973  60.418  1.00  0.00    -0.550 OA
ATOM     14  O   UNL     1       9.353  28.774  58.490  1.00  0.00    -0.550 OA
ENDBRANCH  11  12
ENDBRANCH  10  11
ENDBRANCH   9  10
ENDBRANCH   8   9
ENDBRANCH   1   8
TORSDOF 9
ENDMDL
MODEL 6
REMARK VINA RESULT:    -4.759      1.383      6.890
REMARK INTER + INTRA:          -7.786
REMARK INTER:                  -7.363
REMARK INTRA:                  -0.422
REMARK UNBOUND:                -0.522
REMARK SMILES O=C([O-])CCCCCCCCC(=O)[O-]
REMARK SMILES IDX 7 1 6 2 5 3 4 4 2 5 1 6 3 7 8 8 9 9 10 10 11 11 12 12 13 13
REMARK SMILES IDX 14 14
REMARK H PARENT
REMARK Flexibility Score: inf
ROOT
ATOM      1  C   UNL     1      12.246  28.022  61.056  1.00  0.00     0.000 C 
ENDROOT
BRANCH   1   2
ATOM      2  C   UNL     1      13.186  27.897  62.267  1.00  0.00     0.000 C 
BRANCH   2   3
ATOM      3  C   UNL     1      14.119  29.111  62.425  1.00  0.00     0.006 C 
BRANCH   3   4
ATOM      4  C   UNL     1      15.611  28.757  62.532  1.00  0.00     0.053 C 
BRANCH   4   5
ATOM      5  C   UNL     1      16.462  29.655  61.687  1.00  0.00     0.041 C 
ATOM      6  O   UNL     1      17.451  30.249  62.192  1.00  0.00    -0.550 OA
ATOM      7  O   UNL     1      16.144  29.861  60.351  1.00  0.00    -0.550 OA
ENDBRANCH   4   5
ENDBRANCH   3   4
ENDBRANCH   2   3
ENDBRANCH   1   2
BRANCH   1   8
ATOM      8  C   UNL     1      11.802  29.472  60.800  1.00  0.00     0.000 C 
BRANCH   8   9
ATOM      9  C   UNL     1      11.245  29.681  59.384  1.00  0.00     0.000 C 
BRANCH   9  10
ATOM     10  C   UNL     1       9.774  30.123  59.433  1.00  0.00     0.006 C 
BRANCH  10  11
ATOM     11  C   UNL     1       8.877  29.082  60.115  1.00  0.00     0.053 C 
BRANCH  11  12
ATOM     12  C   UNL     1       8.154  29.658  61.294  1.00  0.00     0.041 C 
ATOM     13  O   UNL     1       7.096  30.320  61.128  1.00  0.00    -0.550 OA
ATOM     14  O   UNL     1       8.631  29.435  62.580  1.00  0.00    -0.550 OA
ENDBRANCH  11  12
ENDBRANCH  10  11
ENDBRANCH   9  10
ENDBRANCH   8   9
ENDBRANCH   1   8
TORSDOF 9
ENDMDL
MODEL 7
REMARK VINA RESULT:    -4.695      1.777      6.121
REMARK INTER + INTRA:          -7.688
REMARK INTER:                  -6.946
REMARK INTRA:                  -0.742
REMARK UNBOUND:                -0.522
REMARK SMILES O=C([O-])CCCCCCCCC(=O)[O-]
REMARK SMILES IDX 7 1 6 2 5 3 4 4 2 5 1 6 3 7 8 8 9 9 10 10 11 11 12 12 13 13
REMARK SMILES IDX 14 14
REMARK H PARENT
REMARK Flexibility Score: inf
ROOT
ATOM      1  C   UNL     1      15.394  30.232  59.325  1.00  0.00     0.000 C 
ENDROOT
BRANCH   1   2
ATOM      2  C   UNL     1      15.821  29.788  60.734  1.00  0.00     0.000 C 
BRANCH   2   3
ATOM      3  C   UNL     1      14.674  29.870  61.758  1.00  0.00     0.006 C 
BRANCH   3   4
ATOM      4  C   UNL     1      14.416  28.566  62.529  1.00  0.00     0.053 C 
BRANCH   4   5
ATOM      5  C   UNL     1      15.393  28.373  63.648  1.00  0.00     0.041 C 
ATOM      6  O   UNL     1      16.009  29.362  64.128  1.00  0.00    -0.550 OA
ATOM      7  O   UNL     1      15.648  27.099  64.138  1.00  0.00    -0.550 OA
ENDBRANCH   4   5
ENDBRANCH   3   4
ENDBRANCH   2   3
ENDBRANCH   1   2
BRANCH   1   8
ATOM      8  C   UNL     1      13.981  29.753  58.957  1.00  0.00     0.000 C 
BRANCH   8   9
ATOM      9  C   UNL     1      12.997  30.914  58.747  1.00  0.00     0.000 C 
BRANCH   9  10
ATOM     10  C   UNL     1      11.543  30.430  58.868  1.00  0.00     0.006 C 
BRANCH  10  11
ATOM     11  C   UNL     1      11.417  29.185  59.756  1.00  0.00     0.053 C 
BRANCH  11  12
ATOM     12  C   UNL     1      10.537  29.435  60.942  1.00  0.00     0.041 C 
ATOM     13  O   UNL     1       9.299  29.217  60.870  1.00  0.00    -0.550 OA
ATOM     14  O   UNL     1      11.089  29.878  62.138  1.00  0.00    -0.550 OA
ENDBRANCH  11  12
ENDBRANCH  10  11
ENDBRANCH   9  10
ENDBRANCH   8   9
ENDBRANCH   1   8
TORSDOF 9
ENDMDL
MODEL 8
REMARK VINA RESULT:    -4.523      1.725      2.221
REMARK INTER + INTRA:          -7.425
REMARK INTER:                  -6.960
REMARK INTRA:                  -0.465
REMARK UNBOUND:                -0.522
REMARK SMILES O=C([O-])CCCCCCCCC(=O)[O-]
REMARK SMILES IDX 7 1 6 2 5 3 4 4 2 5 1 6 3 7 8 8 9 9 10 10 11 11 12 12 13 13
REMARK SMILES IDX 14 14
REMARK H PARENT
REMARK Flexibility Score: inf
ROOT
ATOM      1  C   UNL     1      12.520  29.128  61.515  1.00  0.00     0.000 C 
ENDROOT
BRANCH   1   2
ATOM      2  C   UNL     1      12.418  28.964  59.989  1.00  0.00     0.000 C 
BRANCH   2   3
ATOM      3  C   UNL     1      11.484  30.002  59.340  1.00  0.00     0.006 C 
BRANCH   3   4
ATOM      4  C   UNL     1      10.074  29.477  59.022  1.00  0.00     0.053 C 
BRANCH   4   5
ATOM      5  C   UNL     1       9.040  30.059  59.936  1.00  0.00     0.041 C 
ATOM      6  O   UNL     1       8.260  30.956  59.519  1.00  0.00    -0.550 OA
ATOM      7  O   UNL     1       8.959  29.634  61.255  1.00  0.00    -0.550 OA
ENDBRANCH   4   5
ENDBRANCH   3   4
ENDBRANCH   2   3
ENDBRANCH   1   2
BRANCH   1   8
ATOM      8  C   UNL     1      13.090  27.880  62.207  1.00  0.00     0.000 C 
BRANCH   8   9
ATOM      9  C   UNL     1      14.468  28.130  62.839  1.00  0.00     0.000 C 
BRANCH   9  10
ATOM     10  C   UNL     1      14.805  29.629  62.846  1.00  0.00     0.006 C 
BRANCH  10  11
ATOM     11  C   UNL     1      16.293  29.890  63.116  1.00  0.00     0.053 C 
BRANCH  11  12
ATOM     12  C   UNL     1      17.077  30.006  61.845  1.00  0.00     0.041 C 
ATOM     13  O   UNL     1      16.493  29.939  60.732  1.00  0.00    -0.550 OA
ATOM     14  O   UNL     1      18.449  30.223  61.890  1.00  0.00    -0.550 OA
ENDBRANCH  11  12
ENDBRANCH  10  11
ENDBRANCH   9  10
ENDBRANCH   8   9
ENDBRANCH   1   8
TORSDOF 9
ENDMDL
MODEL 9
REMARK VINA RESULT:    -4.450      2.021      7.921
REMARK INTER + INTRA:          -7.314
REMARK INTER:                  -6.954
REMARK INTRA:                  -0.360
REMARK UNBOUND:                -0.522
REMARK SMILES O=C([O-])CCCCCCCCC(=O)[O-]
REMARK SMILES IDX 7 1 6 2 5 3 4 4 2 5 1 6 3 7 8 8 9 9 10 10 11 11 12 12 13 13
REMARK SMILES IDX 14 14
REMARK H PARENT
REMARK Flexibility Score: inf
ROOT
ATOM      1  C   UNL     1      14.865  28.488  63.125  1.00  0.00     0.000 C 
ENDROOT
BRANCH   1   2
ATOM      2  C   UNL     1      16.115  28.455  64.021  1.00  0.00     0.000 C 
BRANCH   2   3
ATOM      3  C   UNL     1      16.855  27.106  63.961  1.00  0.00     0.006 C 
BRANCH   3   4
ATOM      4  C   UNL     1      17.961  27.035  62.895  1.00  0.00     0.053 C 
BRANCH   4   5
ATOM      5  C   UNL     1      19.014  26.029  63.246  1.00  0.00     0.041 C 
ATOM      6  O   UNL     1      18.864  25.278  64.245  1.00  0.00    -0.550 OA
ATOM      7  O   UNL     1      20.175  25.945  62.488  1.00  0.00    -0.550 OA
ENDBRANCH   4   5
ENDBRANCH   3   4
ENDBRANCH   2   3
ENDBRANCH   1   2
BRANCH   1   8
ATOM      8  C   UNL     1      14.993  29.494  61.970  1.00  0.00     0.000 C 
BRANCH   8   9
ATOM      9  C   UNL     1      13.633  30.032  61.499  1.00  0.00     0.000 C 
BRANCH   9  10
ATOM     10  C   UNL     1      12.510  29.031  61.809  1.00  0.00     0.006 C 
BRANCH  10  11
ATOM     11  C   UNL     1      11.162  29.724  62.047  1.00  0.00     0.053 C 
BRANCH  11  12
ATOM     12  C   UNL     1      10.198  29.466  60.929  1.00  0.00     0.041 C 
ATOM     13  O   UNL     1       8.969  29.682  61.090  1.00  0.00    -0.550 OA
ATOM     14  O   UNL     1      10.663  29.018  59.699  1.00  0.00    -0.550 OA
ENDBRANCH  11  12
ENDBRANCH  10  11
ENDBRANCH   9  10
ENDBRANCH   8   9
ENDBRANCH   1   8
TORSDOF 9
ENDMDL
