MODEL 1
REMARK VINA RESULT:    -8.056      0.000      0.000
REMARK INTER + INTRA:         -13.474
REMARK INTER:                 -12.530
REMARK INTRA:                  -0.944
REMARK UNBOUND:                -0.944
REMARK SMILES C[C@@]12C[C@@]3(O)O[C@@H](O1)[C@]1(COC(=O)c4ccccc4)[C@H]3C[C@@]12O[C@@H]1O[C@@H](CO)[C@H](O)[C@H](O)[C@@H]1O
REMARK SMILES IDX 1 1 2 2 3 3 4 4 20 5 21 6 22 7 9 8 7 9 8 10 6 11 23 12 24 13
REMARK SMILES IDX 33 14 25 15 31 16 26 17 29 18 34 19 32 21 27 23 28 24 30 26
REMARK SMILES IDX 5 28 10 30 11 31 12 32 13 33 14 34 15 35 19 36 16 37 18 38
REMARK SMILES IDX 17 39
REMARK H PARENT 34 20 32 22 28 25 30 27 5 29
REMARK Flexibility Score: inf
ROOT
ATOM      1  C   UNL     1     169.533 149.702 146.121  1.00  0.00     0.046 C 
ATOM      2  C   UNL     1     168.878 150.600 147.173  1.00  0.00     0.104 C 
ATOM      3  C   UNL     1     169.718 151.921 147.357  1.00  0.00     0.104 C 
ATOM      4  C   UNL     1     168.976 152.678 148.511  1.00  0.00     0.175 C 
ATOM      5  C   UNL     1     168.713 151.717 149.712  1.00  0.00     0.070 C 
ATOM      6  C   UNL     1     169.579 150.452 149.660  1.00  0.00     0.050 C 
ATOM      7  C   UNL     1     168.612 149.930 148.586  1.00  0.00     0.115 C 
ATOM      8  C   UNL     1     167.561 150.915 149.111  1.00  0.00     0.096 C 
ATOM      9  C   UNL     1     167.078 151.706 147.904  1.00  0.00     0.267 C 
ATOM     10  O   UNL     1     167.597 151.040 146.756  1.00  0.00    -0.342 OA
ATOM     11  O   UNL     1     167.690 152.980 148.012  1.00  0.00    -0.320 OA
ENDROOT
BRANCH   7  12
ATOM     12  O   UNL     1     168.397 148.523 148.715  1.00  0.00    -0.339 OA
BRANCH  12  13
ATOM     13  C   UNL     1     169.550 147.747 149.024  1.00  0.00     0.282 C 
ATOM     14  C   UNL     1     169.224 146.695 150.118  1.00  0.00     0.202 C 
ATOM     15  O   UNL     1     170.055 147.092 147.871  1.00  0.00    -0.341 OA
ATOM     16  C   UNL     1     168.263 145.609 149.596  1.00  0.00     0.179 C 
ATOM     17  C   UNL     1     169.118 146.191 147.297  1.00  0.00     0.178 C 
ATOM     18  C   UNL     1     168.807 145.036 148.278  1.00  0.00     0.177 C 
BRANCH  14  19
ATOM     19  O   UNL     1     168.731 147.281 151.297  1.00  0.00    -0.385 OA
ATOM     20  H   UNL     1     168.602 148.249 151.128  1.00  0.00     0.211 HD
ENDBRANCH  14  19
BRANCH  16  21
ATOM     21  O   UNL     1     166.978 146.148 149.400  1.00  0.00    -0.387 OA
ATOM     22  H   UNL     1     166.629 145.770 148.551  1.00  0.00     0.211 HD
ENDBRANCH  16  21
BRANCH  17  23
ATOM     23  C   UNL     1     169.723 145.654 145.989  1.00  0.00     0.191 C 
BRANCH  23  24
ATOM     24  O   UNL     1     170.659 144.642 146.251  1.00  0.00    -0.394 OA
ATOM     25  H   UNL     1     171.119 144.438 145.396  1.00  0.00     0.210 HD
ENDBRANCH  23  24
ENDBRANCH  17  23
BRANCH  18  26
ATOM     26  O   UNL     1     167.867 144.157 147.715  1.00  0.00    -0.387 OA
ATOM     27  H   UNL     1     167.047 144.222 148.270  1.00  0.00     0.211 HD
ENDBRANCH  18  26
ENDBRANCH  12  13
ENDBRANCH   7  12
BRANCH   4  28
ATOM     28  O   UNL     1     169.642 153.850 148.896  1.00  0.00    -0.365 OA
ATOM     29  H   UNL     1     170.595 153.606 149.028  1.00  0.00     0.214 HD
ENDBRANCH   4  28
BRANCH   8  30
ATOM     30  C   UNL     1     166.497 150.486 150.136  1.00  0.00     0.249 C 
BRANCH  30  31
ATOM     31  O   UNL     1     165.239 151.047 149.776  1.00  0.00    -0.461 OA
BRANCH  31  32
ATOM     32  C   UNL     1     164.362 151.614 150.707  1.00  0.00     0.338 C 
ATOM     33  O   UNL     1     163.379 150.951 151.135  1.00  0.00    -0.246 OA
BRANCH  32  34
ATOM     34  C   UNL     1     164.597 152.993 151.188  1.00  0.00     0.060 A 
ATOM     35  C   UNL     1     163.815 153.523 152.231  1.00  0.00     0.015 A 
ATOM     36  C   UNL     1     165.601 153.795 150.613  1.00  0.00     0.015 A 
ATOM     37  C   UNL     1     164.034 154.826 152.687  1.00  0.00     0.001 A 
ATOM     38  C   UNL     1     165.816 155.097 151.075  1.00  0.00     0.001 A 
ATOM     39  C   UNL     1     165.033 155.613 152.110  1.00  0.00     0.000 A 
ENDBRANCH  32  34
ENDBRANCH  31  32
ENDBRANCH  30  31
ENDBRANCH   8  30
TORSDOF 12
ENDMDL
MODEL 2
REMARK VINA RESULT:    -7.783      1.451      2.725
REMARK INTER + INTRA:         -13.050
REMARK INTER:                 -12.690
REMARK INTRA:                  -0.360
REMARK UNBOUND:                -0.944
REMARK SMILES C[C@@]12C[C@@]3(O)O[C@@H](O1)[C@]1(COC(=O)c4ccccc4)[C@H]3C[C@@]12O[C@@H]1O[C@@H](CO)[C@H](O)[C@H](O)[C@@H]1O
REMARK SMILES IDX 1 1 2 2 3 3 4 4 20 5 21 6 22 7 9 8 7 9 8 10 6 11 23 12 24 13
REMARK SMILES IDX 33 14 25 15 31 16 26 17 29 18 34 19 32 21 27 23 28 24 30 26
REMARK SMILES IDX 5 28 10 30 11 31 12 32 13 33 14 34 15 35 19 36 16 37 18 38
REMARK SMILES IDX 17 39
REMARK H PARENT 34 20 32 22 28 25 30 27 5 29
REMARK Flexibility Score: inf
ROOT
ATOM      1  C   UNL     1     170.024 148.755 147.179  1.00  0.00     0.046 C 
ATOM      2  C   UNL     1     169.177 149.879 147.782  1.00  0.00     0.104 C 
ATOM      3  C   UNL     1     169.810 151.280 147.433  1.00  0.00     0.104 C 
ATOM      4  C   UNL     1     168.890 152.302 148.185  1.00  0.00     0.175 C 
ATOM      5  C   UNL     1     168.681 151.859 149.666  1.00  0.00     0.070 C 
ATOM      6  C   UNL     1     169.716 150.827 150.129  1.00  0.00     0.050 C 
ATOM      7  C   UNL     1     168.910 149.783 149.342  1.00  0.00     0.115 C 
ATOM      8  C   UNL     1     167.697 150.717 149.423  1.00  0.00     0.096 C 
ATOM      9  C   UNL     1     167.194 150.887 147.996  1.00  0.00     0.267 C 
ATOM     10  O   UNL     1     167.881 149.916 147.213  1.00  0.00    -0.342 OA
ATOM     11  O   UNL     1     167.613 152.181 147.595  1.00  0.00    -0.320 OA
ENDROOT
BRANCH   7  12
ATOM     12  O   UNL     1     168.885 148.523 150.017  1.00  0.00    -0.339 OA
BRANCH  12  13
ATOM     13  C   UNL     1     167.607 147.906 150.127  1.00  0.00     0.282 C 
ATOM     14  C   UNL     1     167.569 146.579 149.323  1.00  0.00     0.202 C 
ATOM     15  O   UNL     1     167.274 147.649 151.483  1.00  0.00    -0.341 OA
ATOM     16  C   UNL     1     168.476 145.504 149.953  1.00  0.00     0.179 C 
ATOM     17  C   UNL     1     168.191 146.767 152.116  1.00  0.00     0.178 C 
ATOM     18  C   UNL     1     168.150 145.372 151.449  1.00  0.00     0.177 C 
BRANCH  14  19
ATOM     19  O   UNL     1     167.876 146.766 147.964  1.00  0.00    -0.385 OA
ATOM     20  H   UNL     1     168.684 146.229 147.755  1.00  0.00     0.211 HD
ENDBRANCH  14  19
BRANCH  16  21
ATOM     21  O   UNL     1     169.830 145.845 149.777  1.00  0.00    -0.387 OA
ATOM     22  H   UNL     1     169.865 146.822 149.602  1.00  0.00     0.211 HD
ENDBRANCH  16  21
BRANCH  17  23
ATOM     23  C   UNL     1     167.808 146.678 153.602  1.00  0.00     0.191 C 
BRANCH  23  24
ATOM     24  O   UNL     1     166.854 145.670 153.812  1.00  0.00    -0.394 OA
ATOM     25  H   UNL     1     166.457 145.452 152.928  1.00  0.00     0.210 HD
ENDBRANCH  23  24
ENDBRANCH  17  23
BRANCH  18  26
ATOM     26  O   UNL     1     169.071 144.509 152.064  1.00  0.00    -0.387 OA
ATOM     27  H   UNL     1     169.966 144.743 151.706  1.00  0.00     0.211 HD
ENDBRANCH  18  26
ENDBRANCH  12  13
ENDBRANCH   7  12
BRANCH   4  28
ATOM     28  O   UNL     1     169.358 153.620 148.079  1.00  0.00    -0.365 OA
ATOM     29  H   UNL     1     170.120 153.704 148.710  1.00  0.00     0.214 HD
ENDBRANCH   4  28
BRANCH   8  30
ATOM     30  C   UNL     1     166.634 150.563 150.524  1.00  0.00     0.249 C 
BRANCH  30  31
ATOM     31  O   UNL     1     165.364 150.956 150.016  1.00  0.00    -0.461 OA
BRANCH  31  32
ATOM     32  C   UNL     1     164.405 151.621 150.787  1.00  0.00     0.338 C 
ATOM     33  O   UNL     1     163.371 151.010 151.175  1.00  0.00    -0.246 OA
BRANCH  32  34
ATOM     34  C   UNL     1     164.611 153.040 151.149  1.00  0.00     0.060 A 
ATOM     35  C   UNL     1     163.862 153.622 152.188  1.00  0.00     0.015 A 
ATOM     36  C   UNL     1     165.555 153.827 150.464  1.00  0.00     0.015 A 
ATOM     37  C   UNL     1     164.053 154.963 152.532  1.00  0.00     0.001 A 
ATOM     38  C   UNL     1     165.743 155.168 150.814  1.00  0.00     0.001 A 
ATOM     39  C   UNL     1     164.993 155.736 151.846  1.00  0.00     0.000 A 
ENDBRANCH  32  34
ENDBRANCH  31  32
ENDBRANCH  30  31
ENDBRANCH   8  30
TORSDOF 12
ENDMDL
MODEL 3
REMARK VINA RESULT:    -7.738      2.067      5.054
REMARK INTER + INTRA:         -12.980
REMARK INTER:                 -11.638
REMARK INTRA:                  -1.342
REMARK UNBOUND:                -0.944
REMARK SMILES C[C@@]12C[C@@]3(O)O[C@@H](O1)[C@]1(COC(=O)c4ccccc4)[C@H]3C[C@@]12O[C@@H]1O[C@@H](CO)[C@H](O)[C@H](O)[C@@H]1O
REMARK SMILES IDX 1 1 2 2 3 3 4 4 20 5 21 6 22 7 9 8 7 9 8 10 6 11 23 12 24 13
REMARK SMILES IDX 33 14 25 15 31 16 26 17 29 18 34 19 32 21 27 23 28 24 30 26
REMARK SMILES IDX 5 28 10 30 11 31 12 32 13 33 14 34 15 35 19 36 16 37 18 38
REMARK SMILES IDX 17 39
REMARK H PARENT 34 20 32 22 28 25 30 27 5 29
REMARK Flexibility Score: inf
ROOT
ATOM      1  C   UNL     1     167.805 146.484 148.399  1.00  0.00     0.046 C 
ATOM      2  C   UNL     1     166.539 147.311 148.639  1.00  0.00     0.104 C 
ATOM      3  C   UNL     1     165.260 146.453 148.302  1.00  0.00     0.104 C 
ATOM      4  C   UNL     1     164.073 147.454 148.510  1.00  0.00     0.175 C 
ATOM      5  C   UNL     1     164.359 148.799 147.771  1.00  0.00     0.070 C 
ATOM      6  C   UNL     1     165.466 148.673 146.717  1.00  0.00     0.050 C 
ATOM      7  C   UNL     1     166.468 148.703 147.881  1.00  0.00     0.115 C 
ATOM      8  C   UNL     1     165.390 149.374 148.740  1.00  0.00     0.096 C 
ATOM      9  C   UNL     1     165.283 148.547 150.013  1.00  0.00     0.267 C 
ATOM     10  O   UNL     1     166.394 147.656 150.005  1.00  0.00    -0.342 OA
ATOM     11  O   UNL     1     164.089 147.794 149.881  1.00  0.00    -0.320 OA
ENDROOT
BRANCH   7  12
ATOM     12  O   UNL     1     167.653 149.423 147.534  1.00  0.00    -0.339 OA
BRANCH  12  13
ATOM     13  C   UNL     1     168.728 149.328 148.462  1.00  0.00     0.282 C 
ATOM     14  C   UNL     1     170.093 149.354 147.722  1.00  0.00     0.202 C 
ATOM     15  O   UNL     1     168.684 150.381 149.412  1.00  0.00    -0.341 OA
ATOM     16  C   UNL     1     170.369 150.729 147.083  1.00  0.00     0.179 C 
ATOM     17  C   UNL     1     168.794 151.665 148.814  1.00  0.00     0.178 C 
ATOM     18  C   UNL     1     170.175 151.831 148.137  1.00  0.00     0.177 C 
BRANCH  14  19
ATOM     19  O   UNL     1     170.209 148.324 146.773  1.00  0.00    -0.385 OA
ATOM     20  H   UNL     1     169.334 147.862 146.712  1.00  0.00     0.211 HD
ENDBRANCH  14  19
BRANCH  16  21
ATOM     21  O   UNL     1     169.507 150.940 145.991  1.00  0.00    -0.387 OA
ATOM     22  H   UNL     1     169.089 150.066 145.775  1.00  0.00     0.211 HD
ENDBRANCH  16  21
BRANCH  17  23
ATOM     23  C   UNL     1     168.594 152.717 149.918  1.00  0.00     0.191 C 
BRANCH  23  24
ATOM     24  O   UNL     1     168.520 154.007 149.370  1.00  0.00    -0.394 OA
ATOM     25  H   UNL     1     168.556 154.649 150.125  1.00  0.00     0.210 HD
ENDBRANCH  23  24
ENDBRANCH  17  23
BRANCH  18  26
ATOM     26  O   UNL     1     170.273 153.094 147.530  1.00  0.00    -0.387 OA
ATOM     27  H   UNL     1     171.234 153.242 147.333  1.00  0.00     0.211 HD
ENDBRANCH  18  26
ENDBRANCH  12  13
ENDBRANCH   7  12
BRANCH   4  28
ATOM     28  O   UNL     1     162.837 146.898 148.155  1.00  0.00    -0.365 OA
ATOM     29  H   UNL     1     162.908 145.920 148.312  1.00  0.00     0.214 HD
ENDBRANCH   4  28
BRANCH   8  30
ATOM     30  C   UNL     1     165.319 150.903 148.893  1.00  0.00     0.249 C 
BRANCH  30  31
ATOM     31  O   UNL     1     165.326 151.242 150.275  1.00  0.00    -0.461 OA
BRANCH  31  32
ATOM     32  C   UNL     1     164.272 151.918 150.900  1.00  0.00     0.338 C 
ATOM     33  O   UNL     1     163.181 151.325 151.117  1.00  0.00    -0.246 OA
BRANCH  32  34
ATOM     34  C   UNL     1     164.447 153.329 151.309  1.00  0.00     0.060 A 
ATOM     35  C   UNL     1     163.713 153.850 152.391  1.00  0.00     0.015 A 
ATOM     36  C   UNL     1     165.345 154.170 150.625  1.00  0.00     0.015 A 
ATOM     37  C   UNL     1     163.876 155.182 152.779  1.00  0.00     0.001 A 
ATOM     38  C   UNL     1     165.504 155.502 151.019  1.00  0.00     0.001 A 
ATOM     39  C   UNL     1     164.770 156.009 152.094  1.00  0.00     0.000 A 
ENDBRANCH  32  34
ENDBRANCH  31  32
ENDBRANCH  30  31
ENDBRANCH   8  30
TORSDOF 12
ENDMDL
MODEL 4
REMARK VINA RESULT:    -7.612      2.268      7.082
REMARK INTER + INTRA:         -12.784
REMARK INTER:                 -11.986
REMARK INTRA:                  -0.798
REMARK UNBOUND:                -0.944
REMARK SMILES C[C@@]12C[C@@]3(O)O[C@@H](O1)[C@]1(COC(=O)c4ccccc4)[C@H]3C[C@@]12O[C@@H]1O[C@@H](CO)[C@H](O)[C@H](O)[C@@H]1O
REMARK SMILES IDX 1 1 2 2 3 3 4 4 20 5 21 6 22 7 9 8 7 9 8 10 6 11 23 12 24 13
REMARK SMILES IDX 33 14 25 15 31 16 26 17 29 18 34 19 32 21 27 23 28 24 30 26
REMARK SMILES IDX 5 28 10 30 11 31 12 32 13 33 14 34 15 35 19 36 16 37 18 38
REMARK SMILES IDX 17 39
REMARK H PARENT 34 20 32 22 28 25 30 27 5 29
REMARK Flexibility Score: inf
ROOT
ATOM      1  C   UNL     1     169.182 152.846 149.368  1.00  0.00     0.046 C 
ATOM      2  C   UNL     1     169.146 151.406 148.849  1.00  0.00     0.104 C 
ATOM      3  C   UNL     1     170.021 151.280 147.544  1.00  0.00     0.104 C 
ATOM      4  C   UNL     1     169.811 149.792 147.097  1.00  0.00     0.175 C 
ATOM      5  C   UNL     1     168.292 149.436 147.087  1.00  0.00     0.070 C 
ATOM      6  C   UNL     1     167.391 150.677 147.092  1.00  0.00     0.050 C 
ATOM      7  C   UNL     1     167.704 150.799 148.591  1.00  0.00     0.115 C 
ATOM      8  C   UNL     1     168.078 149.313 148.594  1.00  0.00     0.096 C 
ATOM      9  C   UNL     1     169.466 149.224 149.212  1.00  0.00     0.267 C 
ATOM     10  O   UNL     1     169.737 150.507 149.770  1.00  0.00    -0.342 OA
ATOM     11  O   UNL     1     170.353 148.997 148.130  1.00  0.00    -0.320 OA
ENDROOT
BRANCH   7  12
ATOM     12  O   UNL     1     166.564 151.248 149.329  1.00  0.00    -0.339 OA
BRANCH  12  13
ATOM     13  C   UNL     1     165.746 152.212 148.676  1.00  0.00     0.282 C 
ATOM     14  C   UNL     1     164.268 151.741 148.641  1.00  0.00     0.202 C 
ATOM     15  O   UNL     1     165.825 153.475 149.319  1.00  0.00    -0.341 OA
ATOM     16  C   UNL     1     163.641 151.719 150.048  1.00  0.00     0.179 C 
ATOM     17  C   UNL     1     165.382 153.433 150.669  1.00  0.00     0.178 C 
ATOM     18  C   UNL     1     163.879 153.074 150.734  1.00  0.00     0.177 C 
BRANCH  14  19
ATOM     19  O   UNL     1     164.116 150.498 148.002  1.00  0.00    -0.385 OA
ATOM     20  H   UNL     1     163.168 150.409 147.725  1.00  0.00     0.211 HD
ENDBRANCH  14  19
BRANCH  16  21
ATOM     21  O   UNL     1     164.199 150.680 150.814  1.00  0.00    -0.387 OA
ATOM     22  H   UNL     1     165.017 150.375 150.340  1.00  0.00     0.211 HD
ENDBRANCH  16  21
BRANCH  17  23
ATOM     23  C   UNL     1     165.645 154.814 151.293  1.00  0.00     0.191 C 
BRANCH  23  24
ATOM     24  O   UNL     1     164.450 155.538 151.423  1.00  0.00    -0.394 OA
ATOM     25  H   UNL     1     164.612 156.256 152.089  1.00  0.00     0.210 HD
ENDBRANCH  23  24
ENDBRANCH  17  23
BRANCH  18  26
ATOM     26  O   UNL     1     163.449 153.015 152.070  1.00  0.00    -0.387 OA
ATOM     27  H   UNL     1     164.170 153.416 152.621  1.00  0.00     0.211 HD
ENDBRANCH  18  26
ENDBRANCH  12  13
ENDBRANCH   7  12
BRANCH   4  28
ATOM     28  O   UNL     1     170.438 149.508 145.876  1.00  0.00    -0.365 OA
ATOM     29  H   UNL     1     169.747 149.608 145.170  1.00  0.00     0.214 HD
ENDBRANCH   4  28
BRANCH   8  30
ATOM     30  C   UNL     1     167.065 148.228 148.995  1.00  0.00     0.249 C 
BRANCH  30  31
ATOM     31  O   UNL     1     167.365 147.758 150.305  1.00  0.00    -0.461 OA
BRANCH  31  32
ATOM     32  C   UNL     1     167.745 146.440 150.575  1.00  0.00     0.338 C 
ATOM     33  O   UNL     1     167.871 145.612 149.632  1.00  0.00    -0.246 OA
BRANCH  32  34
ATOM     34  C   UNL     1     168.001 146.022 151.970  1.00  0.00     0.060 A 
ATOM     35  C   UNL     1     167.825 146.935 153.027  1.00  0.00     0.015 A 
ATOM     36  C   UNL     1     168.423 144.712 152.264  1.00  0.00     0.015 A 
ATOM     37  C   UNL     1     168.067 146.544 154.347  1.00  0.00     0.001 A 
ATOM     38  C   UNL     1     168.663 144.327 153.586  1.00  0.00     0.001 A 
ATOM     39  C   UNL     1     168.486 145.241 154.627  1.00  0.00     0.000 A 
ENDBRANCH  32  34
ENDBRANCH  31  32
ENDBRANCH  30  31
ENDBRANCH   8  30
TORSDOF 12
ENDMDL
MODEL 5
REMARK VINA RESULT:    -7.556      1.915      5.373
REMARK INTER + INTRA:         -12.696
REMARK INTER:                 -11.428
REMARK INTRA:                  -1.269
REMARK UNBOUND:                -0.944
REMARK SMILES C[C@@]12C[C@@]3(O)O[C@@H](O1)[C@]1(COC(=O)c4ccccc4)[C@H]3C[C@@]12O[C@@H]1O[C@@H](CO)[C@H](O)[C@H](O)[C@@H]1O
REMARK SMILES IDX 1 1 2 2 3 3 4 4 20 5 21 6 22 7 9 8 7 9 8 10 6 11 23 12 24 13
REMARK SMILES IDX 33 14 25 15 31 16 26 17 29 18 34 19 32 21 27 23 28 24 30 26
REMARK SMILES IDX 5 28 10 30 11 31 12 32 13 33 14 34 15 35 19 36 16 37 18 38
REMARK SMILES IDX 17 39
REMARK H PARENT 34 20 32 22 28 25 30 27 5 29
REMARK Flexibility Score: inf
ROOT
ATOM      1  C   UNL     1     167.612 153.378 150.119  1.00  0.00     0.046 C 
ATOM      2  C   UNL     1     166.323 152.605 149.830  1.00  0.00     0.104 C 
ATOM      3  C   UNL     1     165.175 153.086 150.798  1.00  0.00     0.104 C 
ATOM      4  C   UNL     1     163.969 152.152 150.439  1.00  0.00     0.175 C 
ATOM      5  C   UNL     1     164.425 150.660 150.410  1.00  0.00     0.070 C 
ATOM      6  C   UNL     1     165.763 150.435 151.125  1.00  0.00     0.050 C 
ATOM      7  C   UNL     1     166.438 151.024 149.877  1.00  0.00     0.115 C 
ATOM      8  C   UNL     1     165.175 150.680 149.080  1.00  0.00     0.096 C 
ATOM      9  C   UNL     1     164.754 151.962 148.375  1.00  0.00     0.267 C 
ATOM     10  O   UNL     1     165.835 152.876 148.528  1.00  0.00    -0.342 OA
ATOM     11  O   UNL     1     163.636 152.447 149.099  1.00  0.00    -0.320 OA
ENDROOT
BRANCH   7  12
ATOM     12  O   UNL     1     167.669 150.358 149.584  1.00  0.00    -0.339 OA
BRANCH  12  13
ATOM     13  C   UNL     1     168.479 150.968 148.585  1.00  0.00     0.282 C 
ATOM     14  C   UNL     1     169.983 150.829 148.940  1.00  0.00     0.202 C 
ATOM     15  O   UNL     1     168.238 150.398 147.307  1.00  0.00    -0.341 OA
ATOM     16  C   UNL     1     170.456 149.364 148.856  1.00  0.00     0.179 C 
ATOM     17  C   UNL     1     168.537 149.010 147.261  1.00  0.00     0.178 C 
ATOM     18  C   UNL     1     170.046 148.772 147.498  1.00  0.00     0.177 C 
BRANCH  14  19
ATOM     19  O   UNL     1     170.294 151.388 150.191  1.00  0.00    -0.385 OA
ATOM     20  H   UNL     1     171.265 151.267 150.350  1.00  0.00     0.211 HD
ENDBRANCH  14  19
BRANCH  16  21
ATOM     21  O   UNL     1     169.898 148.611 149.905  1.00  0.00    -0.387 OA
ATOM     22  H   UNL     1     170.033 149.130 150.741  1.00  0.00     0.211 HD
ENDBRANCH  16  21
BRANCH  17  23
ATOM     23  C   UNL     1     168.107 148.483 145.882  1.00  0.00     0.191 C 
BRANCH  23  24
ATOM     24  O   UNL     1     167.896 147.096 145.922  1.00  0.00    -0.394 OA
ATOM     25  H   UNL     1     168.385 146.702 145.153  1.00  0.00     0.210 HD
ENDBRANCH  23  24
ENDBRANCH  17  23
BRANCH  18  26
ATOM     26  O   UNL     1     170.335 147.398 147.470  1.00  0.00    -0.387 OA
ATOM     27  H   UNL     1     169.797 147.007 146.734  1.00  0.00     0.211 HD
ENDBRANCH  18  26
ENDBRANCH  12  13
ENDBRANCH   7  12
BRANCH   4  28
ATOM     28  O   UNL     1     162.865 152.360 151.277  1.00  0.00    -0.365 OA
ATOM     29  H   UNL     1     163.164 152.149 152.201  1.00  0.00     0.214 HD
ENDBRANCH   4  28
BRANCH   8  30
ATOM     30  C   UNL     1     165.060 149.372 148.278  1.00  0.00     0.249 C 
BRANCH  30  31
ATOM     31  O   UNL     1     165.193 148.262 149.160  1.00  0.00    -0.461 OA
BRANCH  31  32
ATOM     32  C   UNL     1     165.908 147.106 148.830  1.00  0.00     0.338 C 
ATOM     33  O   UNL     1     165.680 146.511 147.741  1.00  0.00    -0.246 OA
BRANCH  32  34
ATOM     34  C   UNL     1     166.933 146.588 149.761  1.00  0.00     0.060 A 
ATOM     35  C   UNL     1     166.936 146.992 151.109  1.00  0.00     0.015 A 
ATOM     36  C   UNL     1     167.920 145.688 149.317  1.00  0.00     0.015 A 
ATOM     37  C   UNL     1     167.904 146.505 151.992  1.00  0.00     0.001 A 
ATOM     38  C   UNL     1     168.885 145.203 150.205  1.00  0.00     0.001 A 
ATOM     39  C   UNL     1     168.878 145.611 151.541  1.00  0.00     0.000 A 
ENDBRANCH  32  34
ENDBRANCH  31  32
ENDBRANCH  30  31
ENDBRANCH   8  30
TORSDOF 12
ENDMDL
MODEL 6
REMARK VINA RESULT:    -7.475      2.059      7.429
REMARK INTER + INTRA:         -12.571
REMARK INTER:                 -11.928
REMARK INTRA:                  -0.643
REMARK UNBOUND:                -0.944
REMARK SMILES C[C@@]12C[C@@]3(O)O[C@@H](O1)[C@]1(COC(=O)c4ccccc4)[C@H]3C[C@@]12O[C@@H]1O[C@@H](CO)[C@H](O)[C@H](O)[C@@H]1O
REMARK SMILES IDX 1 1 2 2 3 3 4 4 20 5 21 6 22 7 9 8 7 9 8 10 6 11 23 12 24 13
REMARK SMILES IDX 33 14 25 15 31 16 26 17 29 18 34 19 32 21 27 23 28 24 30 26
REMARK SMILES IDX 5 28 10 30 11 31 12 32 13 33 14 34 15 35 19 36 16 37 18 38
REMARK SMILES IDX 17 39
REMARK H PARENT 34 20 32 22 28 25 30 27 5 29
REMARK Flexibility Score: inf
ROOT
ATOM      1  C   UNL     1     169.372 152.245 148.207  1.00  0.00     0.046 C 
ATOM      2  C   UNL     1     169.417 150.724 148.370  1.00  0.00     0.104 C 
ATOM      3  C   UNL     1     170.052 150.060 147.089  1.00  0.00     0.104 C 
ATOM      4  C   UNL     1     169.945 148.523 147.374  1.00  0.00     0.175 C 
ATOM      5  C   UNL     1     168.503 148.154 147.842  1.00  0.00     0.070 C 
ATOM      6  C   UNL     1     167.476 149.244 147.511  1.00  0.00     0.050 C 
ATOM      7  C   UNL     1     168.035 150.023 148.711  1.00  0.00     0.115 C 
ATOM      8  C   UNL     1     168.580 148.702 149.265  1.00  0.00     0.096 C 
ATOM      9  C   UNL     1     170.057 148.936 149.549  1.00  0.00     0.267 C 
ATOM     10  O   UNL     1     170.268 150.340 149.436  1.00  0.00    -0.342 OA
ATOM     11  O   UNL     1     170.756 148.281 148.505  1.00  0.00    -0.320 OA
ENDROOT
BRANCH   7  12
ATOM     12  O   UNL     1     167.001 150.718 149.413  1.00  0.00    -0.339 OA
BRANCH  12  13
ATOM     13  C   UNL     1     165.980 151.288 148.602  1.00  0.00     0.282 C 
ATOM     14  C   UNL     1     164.576 150.928 149.159  1.00  0.00     0.202 C 
ATOM     15  O   UNL     1     166.112 152.699 148.524  1.00  0.00    -0.341 OA
ATOM     16  C   UNL     1     164.305 151.616 150.511  1.00  0.00     0.179 C 
ATOM     17  C   UNL     1     166.005 153.332 149.792  1.00  0.00     0.178 C 
ATOM     18  C   UNL     1     164.594 153.120 150.386  1.00  0.00     0.177 C 
BRANCH  14  19
ATOM     19  O   UNL     1     164.374 149.540 149.248  1.00  0.00    -0.385 OA
ATOM     20  H   UNL     1     164.374 149.170 148.328  1.00  0.00     0.211 HD
ENDBRANCH  14  19
BRANCH  16  21
ATOM     21  O   UNL     1     165.107 151.046 151.517  1.00  0.00    -0.387 OA
ATOM     22  H   UNL     1     166.039 151.031 151.173  1.00  0.00     0.211 HD
ENDBRANCH  16  21
BRANCH  17  23
ATOM     23  C   UNL     1     166.302 154.828 149.597  1.00  0.00     0.191 C 
BRANCH  23  24
ATOM     24  O   UNL     1     166.606 155.105 148.255  1.00  0.00    -0.394 OA
ATOM     25  H   UNL     1     167.543 154.817 148.101  1.00  0.00     0.210 HD
ENDBRANCH  23  24
ENDBRANCH  17  23
BRANCH  18  26
ATOM     26  O   UNL     1     164.498 153.731 151.648  1.00  0.00    -0.387 OA
ATOM     27  H   UNL     1     164.500 154.711 151.492  1.00  0.00     0.211 HD
ENDBRANCH  18  26
ENDBRANCH  12  13
ENDBRANCH   7  12
BRANCH   4  28
ATOM     28  O   UNL     1     170.373 147.747 146.287  1.00  0.00    -0.365 OA
ATOM     29  H   UNL     1     170.492 148.369 145.523  1.00  0.00     0.214 HD
ENDBRANCH   4  28
BRANCH   8  30
ATOM     30  C   UNL     1     167.793 147.876 150.296  1.00  0.00     0.249 C 
BRANCH  30  31
ATOM     31  O   UNL     1     168.692 147.047 151.026  1.00  0.00    -0.461 OA
BRANCH  31  32
ATOM     32  C   UNL     1     168.274 146.164 152.027  1.00  0.00     0.338 C 
ATOM     33  O   UNL     1     167.877 146.609 153.138  1.00  0.00    -0.246 OA
BRANCH  32  34
ATOM     34  C   UNL     1     168.297 144.707 151.773  1.00  0.00     0.060 A 
ATOM     35  C   UNL     1     168.103 143.800 152.832  1.00  0.00     0.015 A 
ATOM     36  C   UNL     1     168.512 144.205 150.476  1.00  0.00     0.015 A 
ATOM     37  C   UNL     1     168.125 142.423 152.596  1.00  0.00     0.001 A 
ATOM     38  C   UNL     1     168.532 142.826 150.246  1.00  0.00     0.001 A 
ATOM     39  C   UNL     1     168.339 141.935 151.305  1.00  0.00     0.000 A 
ENDBRANCH  32  34
ENDBRANCH  31  32
ENDBRANCH  30  31
ENDBRANCH   8  30
TORSDOF 12
ENDMDL
MODEL 7
REMARK VINA RESULT:    -7.326      2.079      3.799
REMARK INTER + INTRA:         -12.339
REMARK INTER:                 -11.224
REMARK INTRA:                  -1.114
REMARK UNBOUND:                -0.944
REMARK SMILES C[C@@]12C[C@@]3(O)O[C@@H](O1)[C@]1(COC(=O)c4ccccc4)[C@H]3C[C@@]12O[C@@H]1O[C@@H](CO)[C@H](O)[C@H](O)[C@@H]1O
REMARK SMILES IDX 1 1 2 2 3 3 4 4 20 5 21 6 22 7 9 8 7 9 8 10 6 11 23 12 24 13
REMARK SMILES IDX 33 14 25 15 31 16 26 17 29 18 34 19 32 21 27 23 28 24 30 26
REMARK SMILES IDX 5 28 10 30 11 31 12 32 13 33 14 34 15 35 19 36 16 37 18 38
REMARK SMILES IDX 17 39
REMARK H PARENT 34 20 32 22 28 25 30 27 5 29
REMARK Flexibility Score: inf
ROOT
ATOM      1  C   UNL     1     169.039 149.902 145.943  1.00  0.00     0.046 C 
ATOM      2  C   UNL     1     168.536 150.714 147.140  1.00  0.00     0.104 C 
ATOM      3  C   UNL     1     169.350 152.059 147.261  1.00  0.00     0.104 C 
ATOM      4  C   UNL     1     168.783 152.720 148.564  1.00  0.00     0.175 C 
ATOM      5  C   UNL     1     168.756 151.686 149.733  1.00  0.00     0.070 C 
ATOM      6  C   UNL     1     169.645 150.466 149.465  1.00  0.00     0.050 C 
ATOM      7  C   UNL     1     168.532 149.959 148.535  1.00  0.00     0.115 C 
ATOM      8  C   UNL     1     167.549 150.867 149.282  1.00  0.00     0.096 C 
ATOM      9  C   UNL     1     166.846 151.699 148.219  1.00  0.00     0.267 C 
ATOM     10  O   UNL     1     167.190 151.118 146.965  1.00  0.00    -0.342 OA
ATOM     11  O   UNL     1     167.422 152.992 148.301  1.00  0.00    -0.320 OA
ENDROOT
BRANCH   7  12
ATOM     12  O   UNL     1     168.390 148.538 148.613  1.00  0.00    -0.339 OA
BRANCH  12  13
ATOM     13  C   UNL     1     169.583 147.813 148.887  1.00  0.00     0.282 C 
ATOM     14  C   UNL     1     169.341 146.766 150.008  1.00  0.00     0.202 C 
ATOM     15  O   UNL     1     170.067 147.158 147.724  1.00  0.00    -0.341 OA
ATOM     16  C   UNL     1     168.404 145.636 149.541  1.00  0.00     0.179 C 
ATOM     17  C   UNL     1     169.144 146.213 147.202  1.00  0.00     0.178 C 
ATOM     18  C   UNL     1     168.916 145.063 148.211  1.00  0.00     0.177 C 
BRANCH  14  19
ATOM     19  O   UNL     1     168.874 147.352 151.197  1.00  0.00    -0.385 OA
ATOM     20  H   UNL     1     168.792 146.638 151.880  1.00  0.00     0.211 HD
ENDBRANCH  14  19
BRANCH  16  21
ATOM     21  O   UNL     1     167.092 146.123 149.390  1.00  0.00    -0.387 OA
ATOM     22  H   UNL     1     167.028 146.960 149.921  1.00  0.00     0.211 HD
ENDBRANCH  16  21
BRANCH  17  23
ATOM     23  C   UNL     1     169.716 145.678 145.878  1.00  0.00     0.191 C 
BRANCH  23  24
ATOM     24  O   UNL     1     170.617 144.628 146.113  1.00  0.00    -0.394 OA
ATOM     25  H   UNL     1     170.129 143.930 146.623  1.00  0.00     0.210 HD
ENDBRANCH  23  24
ENDBRANCH  17  23
BRANCH  18  26
ATOM     26  O   UNL     1     167.989 144.140 147.699  1.00  0.00    -0.387 OA
ATOM     27  H   UNL     1     168.455 143.631 146.987  1.00  0.00     0.211 HD
ENDBRANCH  18  26
ENDBRANCH  12  13
ENDBRANCH   7  12
BRANCH   4  28
ATOM     28  O   UNL     1     169.462 153.898 148.904  1.00  0.00    -0.365 OA
ATOM     29  H   UNL     1     170.341 153.864 148.442  1.00  0.00     0.214 HD
ENDBRANCH   4  28
BRANCH   8  30
ATOM     30  C   UNL     1     166.685 150.338 150.439  1.00  0.00     0.249 C 
BRANCH  30  31
ATOM     31  O   UNL     1     166.009 149.156 150.024  1.00  0.00    -0.461 OA
BRANCH  31  32
ATOM     32  C   UNL     1     164.840 149.174 149.257  1.00  0.00     0.338 C 
ATOM     33  O   UNL     1     163.997 150.100 149.411  1.00  0.00    -0.246 OA
BRANCH  32  34
ATOM     34  C   UNL     1     164.599 148.106 148.264  1.00  0.00     0.060 A 
ATOM     35  C   UNL     1     165.360 148.052 147.081  1.00  0.00     0.015 A 
ATOM     36  C   UNL     1     163.608 147.130 148.482  1.00  0.00     0.015 A 
ATOM     37  C   UNL     1     165.135 147.044 146.140  1.00  0.00     0.001 A 
ATOM     38  C   UNL     1     163.388 146.123 147.536  1.00  0.00     0.001 A 
ATOM     39  C   UNL     1     164.150 146.080 146.366  1.00  0.00     0.000 A 
ENDBRANCH  32  34
ENDBRANCH  31  32
ENDBRANCH  30  31
ENDBRANCH   8  30
TORSDOF 12
ENDMDL
MODEL 8
REMARK VINA RESULT:    -7.303      1.970      2.524
REMARK INTER + INTRA:         -12.303
REMARK INTER:                 -11.872
REMARK INTRA:                  -0.431
REMARK UNBOUND:                -0.944
REMARK SMILES C[C@@]12C[C@@]3(O)O[C@@H](O1)[C@]1(COC(=O)c4ccccc4)[C@H]3C[C@@]12O[C@@H]1O[C@@H](CO)[C@H](O)[C@H](O)[C@@H]1O
REMARK SMILES IDX 1 1 2 2 3 3 4 4 20 5 21 6 22 7 9 8 7 9 8 10 6 11 23 12 24 13
REMARK SMILES IDX 33 14 25 15 31 16 26 17 29 18 34 19 32 21 27 23 28 24 30 26
REMARK SMILES IDX 5 28 10 30 11 31 12 32 13 33 14 34 15 35 19 36 16 37 18 38
REMARK SMILES IDX 17 39
REMARK H PARENT 34 20 32 22 28 25 30 27 5 29
REMARK Flexibility Score: inf
ROOT
ATOM      1  C   UNL     1     170.018 148.206 147.903  1.00  0.00     0.046 C 
ATOM      2  C   UNL     1     169.453 149.596 148.205  1.00  0.00     0.104 C 
ATOM      3  C   UNL     1     170.236 150.249 149.407  1.00  0.00     0.104 C 
ATOM      4  C   UNL     1     169.491 151.607 149.643  1.00  0.00     0.175 C 
ATOM      5  C   UNL     1     167.949 151.377 149.715  1.00  0.00     0.070 C 
ATOM      6  C   UNL     1     167.580 149.910 149.962  1.00  0.00     0.050 C 
ATOM      7  C   UNL     1     167.893 149.665 148.478  1.00  0.00     0.115 C 
ATOM      8  C   UNL     1     167.683 151.162 148.227  1.00  0.00     0.096 C 
ATOM      9  C   UNL     1     168.928 151.650 147.499  1.00  0.00     0.267 C 
ATOM     10  O   UNL     1     169.651 150.484 147.119  1.00  0.00    -0.342 OA
ATOM     11  O   UNL     1     169.681 152.364 148.465  1.00  0.00    -0.320 OA
ENDROOT
BRANCH   7  12
ATOM     12  O   UNL     1     166.993 148.713 147.903  1.00  0.00    -0.339 OA
BRANCH  12  13
ATOM     13  C   UNL     1     166.404 147.792 148.813  1.00  0.00     0.282 C 
ATOM     14  C   UNL     1     164.908 147.563 148.468  1.00  0.00     0.202 C 
ATOM     15  O   UNL     1     167.088 146.548 148.803  1.00  0.00    -0.341 OA
ATOM     16  C   UNL     1     164.738 146.815 147.132  1.00  0.00     0.179 C 
ATOM     17  C   UNL     1     167.060 145.916 147.530  1.00  0.00     0.178 C 
ATOM     18  C   UNL     1     165.609 145.548 147.141  1.00  0.00     0.177 C 
BRANCH  14  19
ATOM     19  O   UNL     1     164.167 148.757 148.475  1.00  0.00    -0.385 OA
ATOM     20  H   UNL     1     164.039 149.034 149.419  1.00  0.00     0.211 HD
ENDBRANCH  14  19
BRANCH  16  21
ATOM     21  O   UNL     1     165.101 147.648 146.057  1.00  0.00    -0.387 OA
ATOM     22  H   UNL     1     165.406 147.056 145.320  1.00  0.00     0.211 HD
ENDBRANCH  16  21
BRANCH  17  23
ATOM     23  C   UNL     1     167.944 144.661 147.610  1.00  0.00     0.191 C 
BRANCH  23  24
ATOM     24  O   UNL     1     168.293 144.215 146.325  1.00  0.00    -0.394 OA
ATOM     25  H   UNL     1     167.533 144.427 145.724  1.00  0.00     0.210 HD
ENDBRANCH  23  24
ENDBRANCH  17  23
BRANCH  18  26
ATOM     26  O   UNL     1     165.582 144.940 145.875  1.00  0.00    -0.387 OA
ATOM     27  H   UNL     1     165.602 145.672 145.206  1.00  0.00     0.211 HD
ENDBRANCH  18  26
ENDBRANCH  12  13
ENDBRANCH   7  12
BRANCH   4  28
ATOM     28  O   UNL     1     169.984 152.300 150.757  1.00  0.00    -0.365 OA
ATOM     29  H   UNL     1     169.210 152.766 151.169  1.00  0.00     0.214 HD
ENDBRANCH   4  28
BRANCH   8  30
ATOM     30  C   UNL     1     166.331 151.717 147.748  1.00  0.00     0.249 C 
BRANCH  30  31
ATOM     31  O   UNL     1     165.912 152.764 148.617  1.00  0.00    -0.461 OA
BRANCH  31  32
ATOM     32  C   UNL     1     164.862 152.625 149.529  1.00  0.00     0.338 C 
ATOM     33  O   UNL     1     164.055 151.661 149.423  1.00  0.00    -0.246 OA
BRANCH  32  34
ATOM     34  C   UNL     1     164.704 153.611 150.620  1.00  0.00     0.060 A 
ATOM     35  C   UNL     1     163.708 153.432 151.598  1.00  0.00     0.015 A 
ATOM     36  C   UNL     1     165.541 154.739 150.697  1.00  0.00     0.015 A 
ATOM     37  C   UNL     1     163.555 154.363 152.630  1.00  0.00     0.001 A 
ATOM     38  C   UNL     1     165.385 155.666 151.733  1.00  0.00     0.001 A 
ATOM     39  C   UNL     1     164.392 155.479 152.698  1.00  0.00     0.000 A 
ENDBRANCH  32  34
ENDBRANCH  31  32
ENDBRANCH  30  31
ENDBRANCH   8  30
TORSDOF 12
ENDMDL
MODEL 9
REMARK VINA RESULT:    -7.279      2.835      4.809
REMARK INTER + INTRA:         -12.266
REMARK INTER:                 -11.761
REMARK INTRA:                  -0.505
REMARK UNBOUND:                -0.944
REMARK SMILES C[C@@]12C[C@@]3(O)O[C@@H](O1)[C@]1(COC(=O)c4ccccc4)[C@H]3C[C@@]12O[C@@H]1O[C@@H](CO)[C@H](O)[C@H](O)[C@@H]1O
REMARK SMILES IDX 1 1 2 2 3 3 4 4 20 5 21 6 22 7 9 8 7 9 8 10 6 11 23 12 24 13
REMARK SMILES IDX 33 14 25 15 31 16 26 17 29 18 34 19 32 21 27 23 28 24 30 26
REMARK SMILES IDX 5 28 10 30 11 31 12 32 13 33 14 34 15 35 19 36 16 37 18 38
REMARK SMILES IDX 17 39
REMARK H PARENT 34 20 32 22 28 25 30 27 5 29
REMARK Flexibility Score: inf
ROOT
ATOM      1  C   UNL     1     168.467 143.463 148.322  1.00  0.00     0.046 C 
ATOM      2  C   UNL     1     168.476 144.993 148.375  1.00  0.00     0.104 C 
ATOM      3  C   UNL     1     169.344 145.570 147.192  1.00  0.00     0.104 C 
ATOM      4  C   UNL     1     169.324 147.118 147.436  1.00  0.00     0.175 C 
ATOM      5  C   UNL     1     169.673 147.440 148.923  1.00  0.00     0.070 C 
ATOM      6  C   UNL     1     170.341 146.262 149.643  1.00  0.00     0.050 C 
ATOM      7  C   UNL     1     168.942 145.636 149.748  1.00  0.00     0.115 C 
ATOM      8  C   UNL     1     168.345 147.035 149.559  1.00  0.00     0.096 C 
ATOM      9  C   UNL     1     167.345 146.920 148.416  1.00  0.00     0.267 C 
ATOM     10  O   UNL     1     167.181 145.528 148.168  1.00  0.00    -0.342 OA
ATOM     11  O   UNL     1     167.976 147.516 147.295  1.00  0.00    -0.320 OA
ENDROOT
BRANCH   7  12
ATOM     12  O   UNL     1     168.767 144.948 150.989  1.00  0.00    -0.339 OA
BRANCH  12  13
ATOM     13  C   UNL     1     169.961 144.644 151.701  1.00  0.00     0.282 C 
ATOM     14  C   UNL     1     169.724 144.735 153.232  1.00  0.00     0.202 C 
ATOM     15  O   UNL     1     170.442 143.350 151.372  1.00  0.00    -0.341 OA
ATOM     16  C   UNL     1     168.785 143.620 153.731  1.00  0.00     0.179 C 
ATOM     17  C   UNL     1     169.518 142.321 151.699  1.00  0.00     0.178 C 
ATOM     18  C   UNL     1     169.295 142.260 153.228  1.00  0.00     0.177 C 
BRANCH  14  19
ATOM     19  O   UNL     1     169.259 146.001 153.629  1.00  0.00    -0.385 OA
ATOM     20  H   UNL     1     169.805 146.688 153.166  1.00  0.00     0.211 HD
ENDBRANCH  14  19
BRANCH  16  21
ATOM     21  O   UNL     1     167.473 143.847 153.277  1.00  0.00    -0.387 OA
ATOM     22  H   UNL     1     167.520 143.956 152.291  1.00  0.00     0.211 HD
ENDBRANCH  16  21
BRANCH  17  23
ATOM     23  C   UNL     1     170.087 140.994 151.172  1.00  0.00     0.191 C 
BRANCH  23  24
ATOM     24  O   UNL     1     171.484 141.062 151.053  1.00  0.00    -0.394 OA
ATOM     25  H   UNL     1     171.850 141.211 151.964  1.00  0.00     0.210 HD
ENDBRANCH  23  24
ENDBRANCH  17  23
BRANCH  18  26
ATOM     26  O   UNL     1     168.367 141.255 153.546  1.00  0.00    -0.387 OA
ATOM     27  H   UNL     1     168.884 140.417 153.672  1.00  0.00     0.211 HD
ENDBRANCH  18  26
ENDBRANCH  12  13
ENDBRANCH   7  12
BRANCH   4  28
ATOM     28  O   UNL     1     170.139 147.812 146.531  1.00  0.00    -0.365 OA
ATOM     29  H   UNL     1     170.494 148.603 147.015  1.00  0.00     0.214 HD
ENDBRANCH   4  28
BRANCH   8  30
ATOM     30  C   UNL     1     167.936 147.904 150.760  1.00  0.00     0.249 C 
BRANCH  30  31
ATOM     31  O   UNL     1     166.877 148.776 150.376  1.00  0.00    -0.461 OA
BRANCH  31  32
ATOM     32  C   UNL     1     167.067 150.136 150.108  1.00  0.00     0.338 C 
ATOM     33  O   UNL     1     168.161 150.539 149.626  1.00  0.00    -0.246 OA
BRANCH  32  34
ATOM     34  C   UNL     1     165.979 151.096 150.388  1.00  0.00     0.060 A 
ATOM     35  C   UNL     1     166.257 152.471 150.498  1.00  0.00     0.015 A 
ATOM     36  C   UNL     1     164.652 150.654 150.549  1.00  0.00     0.015 A 
ATOM     37  C   UNL     1     165.231 153.382 150.763  1.00  0.00     0.001 A 
ATOM     38  C   UNL     1     163.629 151.570 150.814  1.00  0.00     0.001 A 
ATOM     39  C   UNL     1     163.918 152.932 150.921  1.00  0.00     0.000 A 
ENDBRANCH  32  34
ENDBRANCH  31  32
ENDBRANCH  30  31
ENDBRANCH   8  30
TORSDOF 12
ENDMDL
