MODEL 1
REMARK VINA RESULT:    30.718      0.000      0.000
REMARK INTER + INTRA:          46.945
REMARK INTER:                  45.084
REMARK INTRA:                   1.860
REMARK UNBOUND:                 1.860
REMARK SMILES Cc1cc2c(C(C)C)c(O)c(O)c(C=O)c2c(O)c1-c1c(C)cc2c(C(C)C)c(O)c(O)c(C=O)c2c1O
REMARK SMILES IDX 1 1 2 2 3 3 4 4 16 5 13 6 11 7 9 8 5 9 17 10 19 11 20 12
REMARK SMILES IDX 37 13 21 14 36 15 23 16 22 17 24 18 33 19 25 20 31 21 29 22
REMARK SMILES IDX 38 23 34 25 35 26 26 27 27 28 28 29 32 30 30 32 18 34 6 36
REMARK SMILES IDX 7 37 8 38 14 39 15 40 10 41 12 43
REMARK H PARENT 38 24 32 31 30 33 18 35 10 42 12 44
REMARK Flexibility Score: inf
ROOT
ATOM      1  C   UNL     1      -3.795  40.196  21.600  1.00  0.00     0.045 C 
ATOM      2  C   UNL     1      -4.163  38.888  22.258  1.00  0.00    -0.039 A 
ATOM      3  C   UNL     1      -4.444  38.865  23.625  1.00  0.00     0.013 A 
ATOM      4  C   UNL     1      -4.773  37.676  24.304  1.00  0.00    -0.006 A 
ATOM      5  C   UNL     1      -4.898  36.469  23.546  1.00  0.00     0.039 A 
ATOM      6  C   UNL     1      -5.259  35.267  24.221  1.00  0.00     0.072 A 
ATOM      7  C   UNL     1      -5.668  35.318  25.564  1.00  0.00     0.169 A 
ATOM      8  C   UNL     1      -5.601  36.512  26.287  1.00  0.00     0.162 A 
ATOM      9  C   UNL     1      -5.013  37.667  25.715  1.00  0.00     0.008 A 
ATOM     10  C   UNL     1      -4.701  36.515  22.133  1.00  0.00     0.132 A 
ATOM     11  C   UNL     1      -4.293  37.710  21.506  1.00  0.00     0.031 A 
ENDROOT
BRANCH  11  12
ATOM     12  C   UNL     1      -4.040  37.739  20.042  1.00  0.00     0.031 A 
ATOM     13  C   UNL     1      -2.926  37.063  19.499  1.00  0.00     0.132 A 
ATOM     14  C   UNL     1      -4.907  38.453  19.201  1.00  0.00    -0.039 A 
ATOM     15  C   UNL     1      -2.669  37.106  18.095  1.00  0.00     0.039 A 
ATOM     16  C   UNL     1      -4.711  38.415  17.819  1.00  0.00     0.013 A 
ATOM     17  C   UNL     1      -6.067  39.238  19.766  1.00  0.00     0.045 C 
ATOM     18  C   UNL     1      -3.648  37.693  17.238  1.00  0.00    -0.006 A 
ATOM     19  C   UNL     1      -1.478  36.572  17.517  1.00  0.00     0.072 A 
ATOM     20  C   UNL     1      -3.527  37.569  15.820  1.00  0.00     0.008 A 
ATOM     21  C   UNL     1      -1.289  36.633  16.120  1.00  0.00     0.169 A 
ATOM     22  C   UNL     1      -2.303  37.115  15.285  1.00  0.00     0.162 A 
BRANCH  13  23
ATOM     23  O   UNL     1      -2.089  36.330  20.349  1.00  0.00    -0.507 OA
ATOM     24  H   UNL     1      -1.078  36.361  20.312  1.00  0.00     0.293 HD
ENDBRANCH  13  23
BRANCH  19  25
ATOM     25  C   UNL     1      -0.378  36.041  18.349  1.00  0.00     0.264 C 
ATOM     26  O   UNL     1       0.217  36.784  19.174  1.00  0.00    -0.298 OA
ENDBRANCH  19  25
BRANCH  20  27
ATOM     27  C   UNL     1      -4.686  37.933  14.876  1.00  0.00     0.017 C 
ATOM     28  C   UNL     1      -4.409  39.255  14.153  1.00  0.00     0.012 C 
ATOM     29  C   UNL     1      -5.047  36.815  13.880  1.00  0.00     0.012 C 
ENDBRANCH  20  27
BRANCH  21  30
ATOM     30  O   UNL     1      -0.085  36.237  15.526  1.00  0.00    -0.504 OA
ATOM     31  H   UNL     1       0.493  35.480  15.865  1.00  0.00     0.293 HD
ENDBRANCH  21  30
BRANCH  22  32
ATOM     32  O   UNL     1      -2.084  37.168  13.907  1.00  0.00    -0.504 OA
ATOM     33  H   UNL     1      -2.816  37.019  13.224  1.00  0.00     0.293 HD
ENDBRANCH  22  32
ENDBRANCH  11  12
BRANCH  10  34
ATOM     34  O   UNL     1      -4.956  35.385  21.347  1.00  0.00    -0.507 OA
ATOM     35  H   UNL     1      -4.282  34.973  20.714  1.00  0.00     0.293 HD
ENDBRANCH  10  34
BRANCH   9  36
ATOM     36  C   UNL     1      -4.598  38.813  26.659  1.00  0.00     0.017 C 
ATOM     37  C   UNL     1      -5.047  40.188  26.144  1.00  0.00     0.012 C 
ATOM     38  C   UNL     1      -3.115  38.789  27.084  1.00  0.00     0.012 C 
ENDBRANCH   9  36
BRANCH   6  39
ATOM     39  C   UNL     1      -5.157  33.933  23.578  1.00  0.00     0.264 C 
ATOM     40  O   UNL     1      -5.558  33.747  22.399  1.00  0.00    -0.298 OA
ENDBRANCH   6  39
BRANCH   8  41
ATOM     41  O   UNL     1      -6.125  36.512  27.584  1.00  0.00    -0.504 OA
ATOM     42  H   UNL     1      -5.770  35.940  28.339  1.00  0.00     0.293 HD
ENDBRANCH   8  41
BRANCH   7  43
ATOM     43  O   UNL     1      -6.125  34.154  26.191  1.00  0.00    -0.504 OA
ATOM     44  H   UNL     1      -5.688  33.765  27.017  1.00  0.00     0.293 HD
ENDBRANCH   7  43
TORSDOF 11
ENDMDL
