MODEL 1
REMARK VINA RESULT:    -7.785      0.000      0.000
REMARK INTER + INTRA:         -11.492
REMARK INTER:                 -10.516
REMARK INTRA:                  -0.976
REMARK UNBOUND:                -0.976
REMARK SMILES O=c1c(-c2ccc(O)cc2)coc2c([C@H]3O[C@@H](CO)[C@H](O)[C@H](O)[C@H]3O)c(O)ccc12
REMARK SMILES IDX 3 1 11 2 12 3 13 4 30 5 2 6 1 7 29 8 28 9 26 10 14 11 4 12
REMARK SMILES IDX 5 13 6 14 7 15 10 16 9 17 8 18 15 20 24 21 16 22 22 23 17 24
REMARK SMILES IDX 20 25 25 26 23 28 18 30 19 31 21 33 27 35
REMARK H PARENT 8 19 25 27 23 29 19 32 21 34 27 36
REMARK Flexibility Score: inf
ROOT
ATOM      1  C   UNL     1      -5.486  -3.710  13.859  1.00  0.00     0.065 A 
ATOM      2  C   UNL     1      -5.837  -2.533  13.183  1.00  0.00     0.208 A 
ATOM      3  O   UNL     1      -5.004  -1.967  12.319  1.00  0.00    -0.463 OA
ATOM      4  C   UNL     1      -3.800  -2.461  12.036  1.00  0.00     0.147 A 
ATOM      5  C   UNL     1      -3.360  -3.639  12.683  1.00  0.00     0.066 A 
ATOM      6  C   UNL     1      -4.217  -4.264  13.606  1.00  0.00     0.200 A 
ATOM      7  O   UNL     1      -3.845  -5.302  14.221  1.00  0.00    -0.288 OA
ATOM      8  C   UNL     1      -2.082  -4.148  12.402  1.00  0.00     0.020 A 
ATOM      9  C   UNL     1      -1.248  -3.491  11.501  1.00  0.00     0.047 A 
ATOM     10  C   UNL     1      -1.672  -2.323  10.857  1.00  0.00     0.125 A 
ATOM     11  C   UNL     1      -2.964  -1.805  11.098  1.00  0.00     0.069 A 
ENDROOT
BRANCH   1  12
ATOM     12  C   UNL     1      -6.439  -4.329  14.813  1.00  0.00    -0.011 A 
ATOM     13  C   UNL     1      -6.392  -4.009  16.182  1.00  0.00     0.013 A 
ATOM     14  C   UNL     1      -7.286  -4.603  17.077  1.00  0.00     0.047 A 
ATOM     15  C   UNL     1      -8.235  -5.527  16.619  1.00  0.00     0.115 A 
ATOM     16  C   UNL     1      -7.388  -5.263  14.363  1.00  0.00     0.013 A 
ATOM     17  C   UNL     1      -8.281  -5.854  15.261  1.00  0.00     0.047 A 
BRANCH  15  18
ATOM     18  O   UNL     1      -9.130  -6.123  17.502  1.00  0.00    -0.508 OA
ATOM     19  H   UNL     1      -9.074  -5.965  18.502  1.00  0.00     0.293 HD
ENDBRANCH  15  18
ENDBRANCH   1  12
BRANCH  11  20
ATOM     20  C   UNL     1      -3.402  -0.519  10.408  1.00  0.00     0.188 C 
ATOM     21  C   UNL     1      -4.175  -0.839   9.109  1.00  0.00     0.179 C 
ATOM     22  O   UNL     1      -2.277   0.302  10.133  1.00  0.00    -0.362 OA
ATOM     23  C   UNL     1      -4.613   0.470   8.430  1.00  0.00     0.177 C 
ATOM     24  C   UNL     1      -2.678   1.573   9.646  1.00  0.00     0.176 C 
ATOM     25  C   UNL     1      -3.406   1.423   8.286  1.00  0.00     0.177 C 
BRANCH  21  26
ATOM     26  O   UNL     1      -3.362  -1.583   8.235  1.00  0.00    -0.387 OA
ATOM     27  H   UNL     1      -3.496  -2.540   8.462  1.00  0.00     0.211 HD
ENDBRANCH  21  26
BRANCH  23  28
ATOM     28  O   UNL     1      -5.627   1.073   9.195  1.00  0.00    -0.387 OA
ATOM     29  H   UNL     1      -5.573   2.050   9.031  1.00  0.00     0.211 HD
ENDBRANCH  23  28
BRANCH  24  30
ATOM     30  C   UNL     1      -1.421   2.443   9.517  1.00  0.00     0.191 C 
BRANCH  30  31
ATOM     31  O   UNL     1      -1.748   3.800   9.635  1.00  0.00    -0.394 OA
ATOM     32  H   UNL     1      -1.189   4.278   8.969  1.00  0.00     0.210 HD
ENDBRANCH  30  31
ENDBRANCH  24  30
BRANCH  25  33
ATOM     33  O   UNL     1      -3.837   2.677   7.826  1.00  0.00    -0.388 OA
ATOM     34  H   UNL     1      -3.028   3.248   7.749  1.00  0.00     0.211 HD
ENDBRANCH  25  33
ENDBRANCH  11  20
BRANCH  10  35
ATOM     35  O   UNL     1      -0.806  -1.673   9.978  1.00  0.00    -0.507 OA
ATOM     36  H   UNL     1      -0.593  -0.685  10.072  1.00  0.00     0.293 HD
ENDBRANCH  10  35
TORSDOF 9
ENDMDL
MODEL 2
REMARK VINA RESULT:    -7.705      2.003      3.167
REMARK INTER + INTRA:         -11.384
REMARK INTER:                 -10.466
REMARK INTRA:                  -0.918
REMARK UNBOUND:                -0.976
REMARK SMILES O=c1c(-c2ccc(O)cc2)coc2c([C@H]3O[C@@H](CO)[C@H](O)[C@H](O)[C@H]3O)c(O)ccc12
REMARK SMILES IDX 3 1 11 2 12 3 13 4 30 5 2 6 1 7 29 8 28 9 26 10 14 11 4 12
REMARK SMILES IDX 5 13 6 14 7 15 10 16 9 17 8 18 15 20 24 21 16 22 22 23 17 24
REMARK SMILES IDX 20 25 25 26 23 28 18 30 19 31 21 33 27 35
REMARK H PARENT 8 19 25 27 23 29 19 32 21 34 27 36
REMARK Flexibility Score: inf
ROOT
ATOM      1  C   UNL     1      -5.670  -3.554  13.744  1.00  0.00     0.065 A 
ATOM      2  C   UNL     1      -4.544  -2.721  13.673  1.00  0.00     0.208 A 
ATOM      3  O   UNL     1      -4.311  -1.980  12.597  1.00  0.00    -0.463 OA
ATOM      4  C   UNL     1      -5.107  -1.971  11.531  1.00  0.00     0.147 A 
ATOM      5  C   UNL     1      -6.258  -2.792  11.512  1.00  0.00     0.066 A 
ATOM      6  C   UNL     1      -6.535  -3.593  12.636  1.00  0.00     0.200 A 
ATOM      7  O   UNL     1      -7.540  -4.358  12.642  1.00  0.00    -0.288 OA
ATOM      8  C   UNL     1      -7.086  -2.801  10.379  1.00  0.00     0.020 A 
ATOM      9  C   UNL     1      -6.770  -2.015   9.274  1.00  0.00     0.047 A 
ATOM     10  C   UNL     1      -5.632  -1.201   9.279  1.00  0.00     0.125 A 
ATOM     11  C   UNL     1      -4.797  -1.150  10.418  1.00  0.00     0.069 A 
ENDROOT
BRANCH   1  12
ATOM     12  C   UNL     1      -5.914  -4.367  14.962  1.00  0.00    -0.011 A 
ATOM     13  C   UNL     1      -5.380  -5.662  15.078  1.00  0.00     0.013 A 
ATOM     14  C   UNL     1      -5.622  -6.427  16.223  1.00  0.00     0.047 A 
ATOM     15  C   UNL     1      -6.403  -5.909  17.265  1.00  0.00     0.115 A 
ATOM     16  C   UNL     1      -6.703  -3.858  16.008  1.00  0.00     0.013 A 
ATOM     17  C   UNL     1      -6.943  -4.624  17.152  1.00  0.00     0.047 A 
BRANCH  15  18
ATOM     18  O   UNL     1      -6.650  -6.661  18.410  1.00  0.00    -0.508 OA
ATOM     19  H   UNL     1      -7.502  -6.546  18.946  1.00  0.00     0.293 HD
ENDBRANCH  15  18
ENDBRANCH   1  12
BRANCH  11  20
ATOM     20  C   UNL     1      -3.548  -0.276  10.398  1.00  0.00     0.188 C 
ATOM     21  C   UNL     1      -3.829   1.082  11.079  1.00  0.00     0.179 C 
ATOM     22  O   UNL     1      -3.098  -0.088   9.066  1.00  0.00    -0.362 OA
ATOM     23  C   UNL     1      -2.556   1.947  11.054  1.00  0.00     0.177 C 
ATOM     24  C   UNL     1      -1.845   0.578   9.039  1.00  0.00     0.176 C 
ATOM     25  C   UNL     1      -1.983   2.008   9.621  1.00  0.00     0.177 C 
BRANCH  21  26
ATOM     26  O   UNL     1      -4.872   1.749  10.413  1.00  0.00    -0.387 OA
ATOM     27  H   UNL     1      -5.179   1.148   9.685  1.00  0.00     0.211 HD
ENDBRANCH  21  26
BRANCH  23  28
ATOM     28  O   UNL     1      -1.609   1.402  11.940  1.00  0.00    -0.387 OA
ATOM     29  H   UNL     1      -0.739   1.834  11.737  1.00  0.00     0.211 HD
ENDBRANCH  23  28
BRANCH  24  30
ATOM     30  C   UNL     1      -1.363   0.610   7.583  1.00  0.00     0.191 C 
BRANCH  30  31
ATOM     31  O   UNL     1       0.037   0.613   7.529  1.00  0.00    -0.394 OA
ATOM     32  H   UNL     1       0.349   0.798   8.452  1.00  0.00     0.210 HD
ENDBRANCH  30  31
ENDBRANCH  24  30
BRANCH  25  33
ATOM     33  O   UNL     1      -0.735   2.651   9.631  1.00  0.00    -0.388 OA
ATOM     34  H   UNL     1      -0.785   3.385   8.964  1.00  0.00     0.211 HD
ENDBRANCH  25  33
ENDBRANCH  11  20
BRANCH  10  35
ATOM     35  O   UNL     1      -5.327  -0.443   8.148  1.00  0.00    -0.507 OA
ATOM     36  H   UNL     1      -5.527   0.550   8.101  1.00  0.00     0.293 HD
ENDBRANCH  10  35
TORSDOF 9
ENDMDL
MODEL 3
REMARK VINA RESULT:    -7.631      2.032      3.192
REMARK INTER + INTRA:         -11.284
REMARK INTER:                 -10.355
REMARK INTRA:                  -0.929
REMARK UNBOUND:                -0.976
REMARK SMILES O=c1c(-c2ccc(O)cc2)coc2c([C@H]3O[C@@H](CO)[C@H](O)[C@H](O)[C@H]3O)c(O)ccc12
REMARK SMILES IDX 3 1 11 2 12 3 13 4 30 5 2 6 1 7 29 8 28 9 26 10 14 11 4 12
REMARK SMILES IDX 5 13 6 14 7 15 10 16 9 17 8 18 15 20 24 21 16 22 22 23 17 24
REMARK SMILES IDX 20 25 25 26 23 28 18 30 19 31 21 33 27 35
REMARK H PARENT 8 19 25 27 23 29 19 32 21 34 27 36
REMARK Flexibility Score: inf
ROOT
ATOM      1  C   UNL     1      -5.452  -3.474  13.986  1.00  0.00     0.065 A 
ATOM      2  C   UNL     1      -4.930  -3.540  12.686  1.00  0.00     0.208 A 
ATOM      3  O   UNL     1      -4.436  -2.460  12.094  1.00  0.00    -0.463 OA
ATOM      4  C   UNL     1      -4.398  -1.263  12.674  1.00  0.00     0.147 A 
ATOM      5  C   UNL     1      -4.915  -1.104  13.981  1.00  0.00     0.066 A 
ATOM      6  C   UNL     1      -5.450  -2.227  14.637  1.00  0.00     0.200 A 
ATOM      7  O   UNL     1      -5.944  -2.115  15.794  1.00  0.00    -0.288 OA
ATOM      8  C   UNL     1      -4.896   0.163  14.585  1.00  0.00     0.020 A 
ATOM      9  C   UNL     1      -4.382   1.260  13.898  1.00  0.00     0.047 A 
ATOM     10  C   UNL     1      -3.870   1.116  12.604  1.00  0.00     0.125 A 
ATOM     11  C   UNL     1      -3.849  -0.154  11.983  1.00  0.00     0.069 A 
ENDROOT
BRANCH   1  12
ATOM     12  C   UNL     1      -5.992  -4.697  14.630  1.00  0.00    -0.011 A 
ATOM     13  C   UNL     1      -7.374  -4.956  14.631  1.00  0.00     0.013 A 
ATOM     14  C   UNL     1      -7.877  -6.106  15.248  1.00  0.00     0.047 A 
ATOM     15  C   UNL     1      -7.008  -7.008  15.875  1.00  0.00     0.115 A 
ATOM     16  C   UNL     1      -5.127  -5.604  15.268  1.00  0.00     0.013 A 
ATOM     17  C   UNL     1      -5.634  -6.752  15.884  1.00  0.00     0.047 A 
BRANCH  15  18
ATOM     18  O   UNL     1      -7.499  -8.155  16.492  1.00  0.00    -0.508 OA
ATOM     19  H   UNL     1      -7.448  -8.280  17.497  1.00  0.00     0.293 HD
ENDBRANCH  15  18
ENDBRANCH   1  12
BRANCH  11  20
ATOM     20  C   UNL     1      -3.310  -0.290  10.564  1.00  0.00     0.188 C 
ATOM     21  C   UNL     1      -1.821  -0.702  10.588  1.00  0.00     0.179 C 
ATOM     22  O   UNL     1      -3.484   0.924   9.851  1.00  0.00    -0.362 OA
ATOM     23  C   UNL     1      -1.298  -0.840   9.148  1.00  0.00     0.177 C 
ATOM     24  C   UNL     1      -3.145   0.766   8.482  1.00  0.00     0.176 C 
ATOM     25  C   UNL     1      -1.640   0.428   8.335  1.00  0.00     0.177 C 
BRANCH  21  26
ATOM     26  O   UNL     1      -1.066   0.260  11.282  1.00  0.00    -0.387 OA
ATOM     27  H   UNL     1      -0.552  -0.225  11.979  1.00  0.00     0.211 HD
ENDBRANCH  21  26
BRANCH  23  28
ATOM     28  O   UNL     1      -1.873  -1.976   8.553  1.00  0.00    -0.387 OA
ATOM     29  H   UNL     1      -1.321  -2.200   7.759  1.00  0.00     0.211 HD
ENDBRANCH  23  28
BRANCH  24  30
ATOM     30  C   UNL     1      -3.499   2.073   7.758  1.00  0.00     0.191 C 
BRANCH  30  31
ATOM     31  O   UNL     1      -3.882   1.814   6.436  1.00  0.00    -0.394 OA
ATOM     32  H   UNL     1      -4.874   1.813   6.431  1.00  0.00     0.210 HD
ENDBRANCH  30  31
ENDBRANCH  24  30
BRANCH  25  33
ATOM     33  O   UNL     1      -1.316   0.233   6.983  1.00  0.00    -0.388 OA
ATOM     34  H   UNL     1      -0.723   0.984   6.719  1.00  0.00     0.211 HD
ENDBRANCH  25  33
ENDBRANCH  11  20
BRANCH  10  35
ATOM     35  O   UNL     1      -3.384   2.237  11.930  1.00  0.00    -0.507 OA
ATOM     36  H   UNL     1      -3.229   3.119  12.405  1.00  0.00     0.293 HD
ENDBRANCH  10  35
TORSDOF 9
ENDMDL
MODEL 4
REMARK VINA RESULT:    -6.372      2.293      3.730
REMARK INTER + INTRA:          -9.583
REMARK INTER:                  -9.638
REMARK INTRA:                   0.056
REMARK UNBOUND:                -0.976
REMARK SMILES O=c1c(-c2ccc(O)cc2)coc2c([C@H]3O[C@@H](CO)[C@H](O)[C@H](O)[C@H]3O)c(O)ccc12
REMARK SMILES IDX 3 1 11 2 12 3 13 4 30 5 2 6 1 7 29 8 28 9 26 10 14 11 4 12
REMARK SMILES IDX 5 13 6 14 7 15 10 16 9 17 8 18 15 20 24 21 16 22 22 23 17 24
REMARK SMILES IDX 20 25 25 26 23 28 18 30 19 31 21 33 27 35
REMARK H PARENT 8 19 25 27 23 29 19 32 21 34 27 36
REMARK Flexibility Score: inf
ROOT
ATOM      1  C   UNL     1      -5.593  -4.087  13.932  1.00  0.00     0.065 A 
ATOM      2  C   UNL     1      -4.250  -3.776  13.677  1.00  0.00     0.208 A 
ATOM      3  O   UNL     1      -3.900  -3.104  12.588  1.00  0.00    -0.463 OA
ATOM      4  C   UNL     1      -4.775  -2.683  11.678  1.00  0.00     0.147 A 
ATOM      5  C   UNL     1      -6.150  -2.964  11.849  1.00  0.00     0.066 A 
ATOM      6  C   UNL     1      -6.557  -3.678  12.991  1.00  0.00     0.200 A 
ATOM      7  O   UNL     1      -7.773  -3.969  13.163  1.00  0.00    -0.288 OA
ATOM      8  C   UNL     1      -7.072  -2.541  10.879  1.00  0.00     0.020 A 
ATOM      9  C   UNL     1      -6.633  -1.858   9.747  1.00  0.00     0.047 A 
ATOM     10  C   UNL     1      -5.275  -1.576   9.564  1.00  0.00     0.125 A 
ATOM     11  C   UNL     1      -4.329  -1.965  10.540  1.00  0.00     0.069 A 
ENDROOT
BRANCH   1  12
ATOM     12  C   UNL     1      -5.961  -4.833  15.161  1.00  0.00    -0.011 A 
ATOM     13  C   UNL     1      -6.729  -4.221  16.168  1.00  0.00     0.013 A 
ATOM     14  C   UNL     1      -7.064  -4.926  17.328  1.00  0.00     0.047 A 
ATOM     15  C   UNL     1      -6.632  -6.249  17.499  1.00  0.00     0.115 A 
ATOM     16  C   UNL     1      -5.526  -6.157  15.344  1.00  0.00     0.013 A 
ATOM     17  C   UNL     1      -5.863  -6.860  16.504  1.00  0.00     0.047 A 
BRANCH  15  18
ATOM     18  O   UNL     1      -6.961  -6.960  18.650  1.00  0.00    -0.508 OA
ATOM     19  H   UNL     1      -7.409  -7.868  18.601  1.00  0.00     0.293 HD
ENDBRANCH  15  18
ENDBRANCH   1  12
BRANCH  11  20
ATOM     20  C   UNL     1      -2.850  -1.672  10.315  1.00  0.00     0.188 C 
ATOM     21  C   UNL     1      -2.311  -2.499   9.126  1.00  0.00     0.179 C 
ATOM     22  O   UNL     1      -2.109  -1.943  11.493  1.00  0.00    -0.362 OA
ATOM     23  C   UNL     1      -0.820  -2.186   8.911  1.00  0.00     0.177 C 
ATOM     24  C   UNL     1      -0.762  -1.518  11.358  1.00  0.00     0.176 C 
ATOM     25  C   UNL     1      -0.051  -2.326  10.244  1.00  0.00     0.177 C 
BRANCH  21  26
ATOM     26  O   UNL     1      -2.480  -3.872   9.377  1.00  0.00    -0.387 OA
ATOM     27  H   UNL     1      -2.917  -3.950  10.266  1.00  0.00     0.211 HD
ENDBRANCH  21  26
BRANCH  23  28
ATOM     28  O   UNL     1      -0.689  -0.881   8.403  1.00  0.00    -0.387 OA
ATOM     29  H   UNL     1      -1.116  -0.269   9.058  1.00  0.00     0.211 HD
ENDBRANCH  23  28
BRANCH  24  30
ATOM     30  C   UNL     1      -0.072  -1.709  12.716  1.00  0.00     0.191 C 
BRANCH  30  31
ATOM     31  O   UNL     1      -1.021  -1.917  13.725  1.00  0.00    -0.394 OA
ATOM     32  H   UNL     1      -1.192  -2.894  13.746  1.00  0.00     0.210 HD
ENDBRANCH  30  31
ENDBRANCH  24  30
BRANCH  25  33
ATOM     33  O   UNL     1       1.270  -1.876  10.084  1.00  0.00    -0.388 OA
ATOM     34  H   UNL     1       1.438  -1.219  10.810  1.00  0.00     0.211 HD
ENDBRANCH  25  33
ENDBRANCH  11  20
BRANCH  10  35
ATOM     35  O   UNL     1      -4.862  -0.913   8.409  1.00  0.00    -0.507 OA
ATOM     36  H   UNL     1      -4.111  -1.270   7.828  1.00  0.00     0.293 HD
ENDBRANCH  10  35
TORSDOF 9
ENDMDL
MODEL 5
REMARK VINA RESULT:    -6.290      1.987      3.066
REMARK INTER + INTRA:          -9.472
REMARK INTER:                  -9.495
REMARK INTRA:                   0.023
REMARK UNBOUND:                -0.976
REMARK SMILES O=c1c(-c2ccc(O)cc2)coc2c([C@H]3O[C@@H](CO)[C@H](O)[C@H](O)[C@H]3O)c(O)ccc12
REMARK SMILES IDX 3 1 11 2 12 3 13 4 30 5 2 6 1 7 29 8 28 9 26 10 14 11 4 12
REMARK SMILES IDX 5 13 6 14 7 15 10 16 9 17 8 18 15 20 24 21 16 22 22 23 17 24
REMARK SMILES IDX 20 25 25 26 23 28 18 30 19 31 21 33 27 35
REMARK H PARENT 8 19 25 27 23 29 19 32 21 34 27 36
REMARK Flexibility Score: inf
ROOT
ATOM      1  C   UNL     1      -5.449  -3.774  14.404  1.00  0.00     0.065 A 
ATOM      2  C   UNL     1      -5.589  -2.389  14.237  1.00  0.00     0.208 A 
ATOM      3  O   UNL     1      -4.744  -1.704  13.477  1.00  0.00    -0.463 OA
ATOM      4  C   UNL     1      -3.724  -2.265  12.831  1.00  0.00     0.147 A 
ATOM      5  C   UNL     1      -3.501  -3.657  12.954  1.00  0.00     0.066 A 
ATOM      6  C   UNL     1      -4.377  -4.413  13.755  1.00  0.00     0.200 A 
ATOM      7  O   UNL     1      -4.191  -5.652  13.908  1.00  0.00    -0.288 OA
ATOM      8  C   UNL     1      -2.413  -4.246  12.293  1.00  0.00     0.020 A 
ATOM      9  C   UNL     1      -1.550  -3.464  11.528  1.00  0.00     0.047 A 
ATOM     10  C   UNL     1      -1.759  -2.086  11.401  1.00  0.00     0.125 A 
ATOM     11  C   UNL     1      -2.863  -1.472  12.032  1.00  0.00     0.069 A 
ENDROOT
BRANCH   1  12
ATOM     12  C   UNL     1      -6.412  -4.519  15.252  1.00  0.00    -0.011 A 
ATOM     13  C   UNL     1      -7.373  -5.366  14.671  1.00  0.00     0.013 A 
ATOM     14  C   UNL     1      -8.283  -6.058  15.475  1.00  0.00     0.047 A 
ATOM     15  C   UNL     1      -8.249  -5.910  16.868  1.00  0.00     0.115 A 
ATOM     16  C   UNL     1      -6.389  -4.370  16.650  1.00  0.00     0.013 A 
ATOM     17  C   UNL     1      -7.301  -5.064  17.451  1.00  0.00     0.047 A 
BRANCH  15  18
ATOM     18  O   UNL     1      -9.151  -6.595  17.678  1.00  0.00    -0.508 OA
ATOM     19  H   UNL     1      -9.441  -6.227  18.576  1.00  0.00     0.293 HD
ENDBRANCH  15  18
ENDBRANCH   1  12
BRANCH  11  20
ATOM     20  C   UNL     1      -3.063   0.034  11.904  1.00  0.00     0.188 C 
ATOM     21  C   UNL     1      -1.869   0.793  12.526  1.00  0.00     0.179 C 
ATOM     22  O   UNL     1      -4.281   0.425  12.518  1.00  0.00    -0.362 OA
ATOM     23  C   UNL     1      -2.087   2.309  12.382  1.00  0.00     0.177 C 
ATOM     24  C   UNL     1      -4.568   1.791  12.262  1.00  0.00     0.176 C 
ATOM     25  C   UNL     1      -3.487   2.696  12.905  1.00  0.00     0.177 C 
BRANCH  21  26
ATOM     26  O   UNL     1      -1.738   0.455  13.885  1.00  0.00    -0.387 OA
ATOM     27  H   UNL     1      -0.902  -0.073  13.971  1.00  0.00     0.211 HD
ENDBRANCH  21  26
BRANCH  23  28
ATOM     28  O   UNL     1      -1.950   2.670  11.029  1.00  0.00    -0.387 OA
ATOM     29  H   UNL     1      -2.744   2.315  10.552  1.00  0.00     0.211 HD
ENDBRANCH  23  28
BRANCH  24  30
ATOM     30  C   UNL     1      -5.961   2.091  12.830  1.00  0.00     0.191 C 
BRANCH  30  31
ATOM     31  O   UNL     1      -6.472   0.972  13.499  1.00  0.00    -0.394 OA
ATOM     32  H   UNL     1      -7.323   0.742  13.044  1.00  0.00     0.210 HD
ENDBRANCH  30  31
ENDBRANCH  24  30
BRANCH  25  33
ATOM     33  O   UNL     1      -3.750   4.045  12.617  1.00  0.00    -0.388 OA
ATOM     34  H   UNL     1      -3.046   4.346  11.985  1.00  0.00     0.211 HD
ENDBRANCH  25  33
ENDBRANCH  11  20
BRANCH  10  35
ATOM     35  O   UNL     1      -0.864  -1.324  10.649  1.00  0.00    -0.507 OA
ATOM     36  H   UNL     1      -0.726  -1.488   9.658  1.00  0.00     0.293 HD
ENDBRANCH  10  35
TORSDOF 9
ENDMDL
MODEL 6
REMARK VINA RESULT:    -6.149      2.127      3.261
REMARK INTER + INTRA:          -9.282
REMARK INTER:                  -8.749
REMARK INTRA:                  -0.533
REMARK UNBOUND:                -0.976
REMARK SMILES O=c1c(-c2ccc(O)cc2)coc2c([C@H]3O[C@@H](CO)[C@H](O)[C@H](O)[C@H]3O)c(O)ccc12
REMARK SMILES IDX 3 1 11 2 12 3 13 4 30 5 2 6 1 7 29 8 28 9 26 10 14 11 4 12
REMARK SMILES IDX 5 13 6 14 7 15 10 16 9 17 8 18 15 20 24 21 16 22 22 23 17 24
REMARK SMILES IDX 20 25 25 26 23 28 18 30 19 31 21 33 27 35
REMARK H PARENT 8 19 25 27 23 29 19 32 21 34 27 36
REMARK Flexibility Score: inf
ROOT
ATOM      1  C   UNL     1      -5.924  -3.640  13.942  1.00  0.00     0.065 A 
ATOM      2  C   UNL     1      -4.926  -2.661  13.824  1.00  0.00     0.208 A 
ATOM      3  O   UNL     1      -4.800  -1.947  12.713  1.00  0.00    -0.463 OA
ATOM      4  C   UNL     1      -5.591  -2.099  11.653  1.00  0.00     0.147 A 
ATOM      5  C   UNL     1      -6.615  -3.073  11.682  1.00  0.00     0.066 A 
ATOM      6  C   UNL     1      -6.776  -3.852  12.842  1.00  0.00     0.200 A 
ATOM      7  O   UNL     1      -7.663  -4.748  12.892  1.00  0.00    -0.288 OA
ATOM      8  C   UNL     1      -7.435  -3.252  10.556  1.00  0.00     0.020 A 
ATOM      9  C   UNL     1      -7.233  -2.481   9.413  1.00  0.00     0.047 A 
ATOM     10  C   UNL     1      -6.221  -1.516   9.372  1.00  0.00     0.125 A 
ATOM     11  C   UNL     1      -5.400  -1.296  10.501  1.00  0.00     0.069 A 
ENDROOT
BRANCH   1  12
ATOM     12  C   UNL     1      -6.050  -4.421  15.197  1.00  0.00    -0.011 A 
ATOM     13  C   UNL     1      -5.512  -5.717  15.293  1.00  0.00     0.013 A 
ATOM     14  C   UNL     1      -5.643  -6.451  16.475  1.00  0.00     0.047 A 
ATOM     15  C   UNL     1      -6.317  -5.903  17.575  1.00  0.00     0.115 A 
ATOM     16  C   UNL     1      -6.730  -3.881  16.303  1.00  0.00     0.013 A 
ATOM     17  C   UNL     1      -6.859  -4.618  17.484  1.00  0.00     0.047 A 
BRANCH  15  18
ATOM     18  O   UNL     1      -6.452  -6.625  18.757  1.00  0.00    -0.508 OA
ATOM     19  H   UNL     1      -6.049  -6.298  19.628  1.00  0.00     0.293 HD
ENDBRANCH  15  18
ENDBRANCH   1  12
BRANCH  11  20
ATOM     20  C   UNL     1      -4.286  -0.258  10.432  1.00  0.00     0.188 C 
ATOM     21  C   UNL     1      -2.933  -0.937  10.120  1.00  0.00     0.179 C 
ATOM     22  O   UNL     1      -4.214   0.471  11.647  1.00  0.00    -0.362 OA
ATOM     23  C   UNL     1      -1.824   0.127  10.049  1.00  0.00     0.177 C 
ATOM     24  C   UNL     1      -3.300   1.551  11.542  1.00  0.00     0.176 C 
ATOM     25  C   UNL     1      -1.863   1.020  11.308  1.00  0.00     0.177 C 
BRANCH  21  26
ATOM     26  O   UNL     1      -2.627  -1.882  11.115  1.00  0.00    -0.387 OA
ATOM     27  H   UNL     1      -2.764  -1.432  11.990  1.00  0.00     0.211 HD
ENDBRANCH  21  26
BRANCH  23  28
ATOM     28  O   UNL     1      -2.000   0.903   8.890  1.00  0.00    -0.387 OA
ATOM     29  H   UNL     1      -1.775   0.325   8.115  1.00  0.00     0.211 HD
ENDBRANCH  23  28
BRANCH  24  30
ATOM     30  C   UNL     1      -3.391   2.369  12.837  1.00  0.00     0.191 C 
BRANCH  30  31
ATOM     31  O   UNL     1      -3.026   3.701  12.604  1.00  0.00    -0.394 OA
ATOM     32  H   UNL     1      -2.499   3.986  13.394  1.00  0.00     0.210 HD
ENDBRANCH  30  31
ENDBRANCH  24  30
BRANCH  25  33
ATOM     33  O   UNL     1      -0.967   2.091  11.165  1.00  0.00    -0.388 OA
ATOM     34  H   UNL     1      -0.910   2.538  12.050  1.00  0.00     0.211 HD
ENDBRANCH  25  33
ENDBRANCH  11  20
BRANCH  10  35
ATOM     35  O   UNL     1      -6.026  -0.777   8.205  1.00  0.00    -0.507 OA
ATOM     36  H   UNL     1      -5.125  -0.374   7.973  1.00  0.00     0.293 HD
ENDBRANCH  10  35
TORSDOF 9
ENDMDL
MODEL 7
REMARK VINA RESULT:    -6.145      1.355      2.526
REMARK INTER + INTRA:          -9.276
REMARK INTER:                  -8.815
REMARK INTRA:                  -0.461
REMARK UNBOUND:                -0.976
REMARK SMILES O=c1c(-c2ccc(O)cc2)coc2c([C@H]3O[C@@H](CO)[C@H](O)[C@H](O)[C@H]3O)c(O)ccc12
REMARK SMILES IDX 3 1 11 2 12 3 13 4 30 5 2 6 1 7 29 8 28 9 26 10 14 11 4 12
REMARK SMILES IDX 5 13 6 14 7 15 10 16 9 17 8 18 15 20 24 21 16 22 22 23 17 24
REMARK SMILES IDX 20 25 25 26 23 28 18 30 19 31 21 33 27 35
REMARK H PARENT 8 19 25 27 23 29 19 32 21 34 27 36
REMARK Flexibility Score: inf
ROOT
ATOM      1  C   UNL     1      -5.707  -4.212  13.964  1.00  0.00     0.065 A 
ATOM      2  C   UNL     1      -6.132  -3.316  12.973  1.00  0.00     0.208 A 
ATOM      3  O   UNL     1      -5.287  -2.859  12.058  1.00  0.00    -0.463 OA
ATOM      4  C   UNL     1      -4.003  -3.207  12.012  1.00  0.00     0.147 A 
ATOM      5  C   UNL     1      -3.487  -4.098  12.981  1.00  0.00     0.066 A 
ATOM      6  C   UNL     1      -4.354  -4.600  13.968  1.00  0.00     0.200 A 
ATOM      7  O   UNL     1      -3.920  -5.376  14.865  1.00  0.00    -0.288 OA
ATOM      8  C   UNL     1      -2.128  -4.448  12.948  1.00  0.00     0.020 A 
ATOM      9  C   UNL     1      -1.290  -3.913  11.972  1.00  0.00     0.047 A 
ATOM     10  C   UNL     1      -1.789  -3.029  11.009  1.00  0.00     0.125 A 
ATOM     11  C   UNL     1      -3.159  -2.682  11.001  1.00  0.00     0.069 A 
ENDROOT
BRANCH   1  12
ATOM     12  C   UNL     1      -6.673  -4.716  14.971  1.00  0.00    -0.011 A 
ATOM     13  C   UNL     1      -6.651  -4.231  16.291  1.00  0.00     0.013 A 
ATOM     14  C   UNL     1      -7.558  -4.717  17.238  1.00  0.00     0.047 A 
ATOM     15  C   UNL     1      -8.494  -5.696  16.880  1.00  0.00     0.115 A 
ATOM     16  C   UNL     1      -7.611  -5.704  14.623  1.00  0.00     0.013 A 
ATOM     17  C   UNL     1      -8.516  -6.187  15.572  1.00  0.00     0.047 A 
BRANCH  15  18
ATOM     18  O   UNL     1      -9.402  -6.186  17.815  1.00  0.00    -0.508 OA
ATOM     19  H   UNL     1      -9.685  -7.159  17.819  1.00  0.00     0.293 HD
ENDBRANCH  15  18
ENDBRANCH   1  12
BRANCH  11  20
ATOM     20  C   UNL     1      -3.682  -1.699   9.961  1.00  0.00     0.188 C 
ATOM     21  C   UNL     1      -3.770  -0.276  10.558  1.00  0.00     0.179 C 
ATOM     22  O   UNL     1      -4.947  -2.120   9.476  1.00  0.00    -0.362 OA
ATOM     23  C   UNL     1      -4.295   0.701   9.492  1.00  0.00     0.177 C 
ATOM     24  C   UNL     1      -5.372  -1.314   8.388  1.00  0.00     0.176 C 
ATOM     25  C   UNL     1      -5.589   0.148   8.854  1.00  0.00     0.177 C 
BRANCH  21  26
ATOM     26  O   UNL     1      -4.628  -0.274  11.672  1.00  0.00    -0.387 OA
ATOM     27  H   UNL     1      -4.898   0.670  11.825  1.00  0.00     0.211 HD
ENDBRANCH  21  26
BRANCH  23  28
ATOM     28  O   UNL     1      -3.306   0.891   8.510  1.00  0.00    -0.387 OA
ATOM     29  H   UNL     1      -3.762   0.870   7.629  1.00  0.00     0.211 HD
ENDBRANCH  23  28
BRANCH  24  30
ATOM     30  C   UNL     1      -6.667  -1.922   7.832  1.00  0.00     0.191 C 
BRANCH  30  31
ATOM     31  O   UNL     1      -7.042  -1.279   6.646  1.00  0.00    -0.394 OA
ATOM     32  H   UNL     1      -7.350  -0.373   6.908  1.00  0.00     0.210 HD
ENDBRANCH  30  31
ENDBRANCH  24  30
BRANCH  25  33
ATOM     33  O   UNL     1      -5.970   0.952   7.768  1.00  0.00    -0.388 OA
ATOM     34  H   UNL     1      -6.091   1.872   8.122  1.00  0.00     0.211 HD
ENDBRANCH  25  33
ENDBRANCH  11  20
BRANCH  10  35
ATOM     35  O   UNL     1      -0.922  -2.490  10.059  1.00  0.00    -0.507 OA
ATOM     36  H   UNL     1      -0.087  -1.979  10.327  1.00  0.00     0.293 HD
ENDBRANCH  10  35
TORSDOF 9
ENDMDL
MODEL 8
REMARK VINA RESULT:    -6.142      2.560      3.728
REMARK INTER + INTRA:          -9.272
REMARK INTER:                  -9.253
REMARK INTRA:                  -0.019
REMARK UNBOUND:                -0.976
REMARK SMILES O=c1c(-c2ccc(O)cc2)coc2c([C@H]3O[C@@H](CO)[C@H](O)[C@H](O)[C@H]3O)c(O)ccc12
REMARK SMILES IDX 3 1 11 2 12 3 13 4 30 5 2 6 1 7 29 8 28 9 26 10 14 11 4 12
REMARK SMILES IDX 5 13 6 14 7 15 10 16 9 17 8 18 15 20 24 21 16 22 22 23 17 24
REMARK SMILES IDX 20 25 25 26 23 28 18 30 19 31 21 33 27 35
REMARK H PARENT 8 19 25 27 23 29 19 32 21 34 27 36
REMARK Flexibility Score: inf
ROOT
ATOM      1  C   UNL     1      -5.951  -3.508  14.573  1.00  0.00     0.065 A 
ATOM      2  C   UNL     1      -5.966  -3.618  13.176  1.00  0.00     0.208 A 
ATOM      3  O   UNL     1      -5.574  -2.610  12.407  1.00  0.00    -0.463 OA
ATOM      4  C   UNL     1      -5.148  -1.446  12.893  1.00  0.00     0.147 A 
ATOM      5  C   UNL     1      -5.114  -1.244  14.292  1.00  0.00     0.066 A 
ATOM      6  C   UNL     1      -5.525  -2.291  15.136  1.00  0.00     0.200 A 
ATOM      7  O   UNL     1      -5.532  -2.135  16.389  1.00  0.00    -0.288 OA
ATOM      8  C   UNL     1      -4.687  -0.009  14.805  1.00  0.00     0.020 A 
ATOM      9  C   UNL     1      -4.310   1.016  13.940  1.00  0.00     0.047 A 
ATOM     10  C   UNL     1      -4.342   0.829  12.554  1.00  0.00     0.125 A 
ATOM     11  C   UNL     1      -4.740  -0.413  12.011  1.00  0.00     0.069 A 
ENDROOT
BRANCH   1  12
ATOM     12  C   UNL     1      -6.387  -4.653  15.412  1.00  0.00    -0.011 A 
ATOM     13  C   UNL     1      -7.653  -4.653  16.023  1.00  0.00     0.013 A 
ATOM     14  C   UNL     1      -8.053  -5.730  16.819  1.00  0.00     0.047 A 
ATOM     15  C   UNL     1      -7.192  -6.818  17.018  1.00  0.00     0.115 A 
ATOM     16  C   UNL     1      -5.526  -5.745  15.622  1.00  0.00     0.013 A 
ATOM     17  C   UNL     1      -5.930  -6.821  16.418  1.00  0.00     0.047 A 
BRANCH  15  18
ATOM     18  O   UNL     1      -7.581  -7.896  17.809  1.00  0.00    -0.508 OA
ATOM     19  H   UNL     1      -6.983  -8.706  17.932  1.00  0.00     0.293 HD
ENDBRANCH  15  18
ENDBRANCH   1  12
BRANCH  11  20
ATOM     20  C   UNL     1      -4.793  -0.594  10.499  1.00  0.00     0.188 C 
ATOM     21  C   UNL     1      -5.919   0.274   9.890  1.00  0.00     0.179 C 
ATOM     22  O   UNL     1      -4.979  -1.961  10.170  1.00  0.00    -0.362 OA
ATOM     23  C   UNL     1      -5.953   0.082   8.364  1.00  0.00     0.177 C 
ATOM     24  C   UNL     1      -4.861  -2.172   8.772  1.00  0.00     0.176 C 
ATOM     25  C   UNL     1      -5.989  -1.423   8.018  1.00  0.00     0.177 C 
BRANCH  21  26
ATOM     26  O   UNL     1      -7.159  -0.089  10.445  1.00  0.00    -0.387 OA
ATOM     27  H   UNL     1      -7.303  -1.046  10.226  1.00  0.00     0.211 HD
ENDBRANCH  21  26
BRANCH  23  28
ATOM     28  O   UNL     1      -4.819   0.690   7.796  1.00  0.00    -0.387 OA
ATOM     29  H   UNL     1      -4.030   0.370   8.306  1.00  0.00     0.211 HD
ENDBRANCH  23  28
BRANCH  24  30
ATOM     30  C   UNL     1      -4.927  -3.684   8.519  1.00  0.00     0.191 C 
BRANCH  30  31
ATOM     31  O   UNL     1      -4.754  -4.391   9.716  1.00  0.00    -0.394 OA
ATOM     32  H   UNL     1      -5.639  -4.781   9.937  1.00  0.00     0.210 HD
ENDBRANCH  30  31
ENDBRANCH  24  30
BRANCH  25  33
ATOM     33  O   UNL     1      -5.847  -1.600   6.632  1.00  0.00    -0.388 OA
ATOM     34  H   UNL     1      -6.670  -2.057   6.316  1.00  0.00     0.211 HD
ENDBRANCH  25  33
ENDBRANCH  11  20
BRANCH  10  35
ATOM     35  O   UNL     1      -3.983   1.882  11.712  1.00  0.00    -0.507 OA
ATOM     36  H   UNL     1      -4.080   2.851  11.997  1.00  0.00     0.293 HD
ENDBRANCH  10  35
TORSDOF 9
ENDMDL
MODEL 9
REMARK VINA RESULT:    -6.100      2.157      3.706
REMARK INTER + INTRA:          -9.215
REMARK INTER:                  -8.803
REMARK INTRA:                  -0.412
REMARK UNBOUND:                -0.976
REMARK SMILES O=c1c(-c2ccc(O)cc2)coc2c([C@H]3O[C@@H](CO)[C@H](O)[C@H](O)[C@H]3O)c(O)ccc12
REMARK SMILES IDX 3 1 11 2 12 3 13 4 30 5 2 6 1 7 29 8 28 9 26 10 14 11 4 12
REMARK SMILES IDX 5 13 6 14 7 15 10 16 9 17 8 18 15 20 24 21 16 22 22 23 17 24
REMARK SMILES IDX 20 25 25 26 23 28 18 30 19 31 21 33 27 35
REMARK H PARENT 8 19 25 27 23 29 19 32 21 34 27 36
REMARK Flexibility Score: inf
ROOT
ATOM      1  C   UNL     1      -5.359  -3.893  14.466  1.00  0.00     0.065 A 
ATOM      2  C   UNL     1      -4.445  -3.950  13.404  1.00  0.00     0.208 A 
ATOM      3  O   UNL     1      -3.852  -2.852  12.955  1.00  0.00    -0.463 OA
ATOM      4  C   UNL     1      -4.074  -1.642  13.464  1.00  0.00     0.147 A 
ATOM      5  C   UNL     1      -4.992  -1.491  14.529  1.00  0.00     0.066 A 
ATOM      6  C   UNL     1      -5.641  -2.635  15.028  1.00  0.00     0.200 A 
ATOM      7  O   UNL     1      -6.487  -2.533  15.961  1.00  0.00    -0.288 OA
ATOM      8  C   UNL     1      -5.245  -0.213  15.052  1.00  0.00     0.020 A 
ATOM      9  C   UNL     1      -4.603   0.902  14.517  1.00  0.00     0.047 A 
ATOM     10  C   UNL     1      -3.695   0.765  13.462  1.00  0.00     0.125 A 
ATOM     11  C   UNL     1      -3.400  -0.513  12.936  1.00  0.00     0.069 A 
ENDROOT
BRANCH   1  12
ATOM     12  C   UNL     1      -6.004  -5.137  14.956  1.00  0.00    -0.011 A 
ATOM     13  C   UNL     1      -5.243  -6.137  15.587  1.00  0.00     0.013 A 
ATOM     14  C   UNL     1      -5.854  -7.311  16.038  1.00  0.00     0.047 A 
ATOM     15  C   UNL     1      -7.231  -7.502  15.862  1.00  0.00     0.115 A 
ATOM     16  C   UNL     1      -7.383  -5.339  14.777  1.00  0.00     0.013 A 
ATOM     17  C   UNL     1      -7.992  -6.513  15.230  1.00  0.00     0.047 A 
BRANCH  15  18
ATOM     18  O   UNL     1      -7.850  -8.666  16.309  1.00  0.00    -0.508 OA
ATOM     19  H   UNL     1      -8.065  -9.428  15.676  1.00  0.00     0.293 HD
ENDBRANCH  15  18
ENDBRANCH   1  12
BRANCH  11  20
ATOM     20  C   UNL     1      -2.426  -0.642  11.770  1.00  0.00     0.188 C 
ATOM     21  C   UNL     1      -3.193  -0.690  10.429  1.00  0.00     0.179 C 
ATOM     22  O   UNL     1      -1.617  -1.796  11.928  1.00  0.00    -0.362 OA
ATOM     23  C   UNL     1      -2.194  -0.815   9.266  1.00  0.00     0.177 C 
ATOM     24  C   UNL     1      -0.594  -1.842  10.946  1.00  0.00     0.176 C 
ATOM     25  C   UNL     1      -1.211  -1.977   9.532  1.00  0.00     0.177 C 
BRANCH  21  26
ATOM     26  O   UNL     1      -4.078  -1.783  10.419  1.00  0.00    -0.387 OA
ATOM     27  H   UNL     1      -4.188  -2.055   9.470  1.00  0.00     0.211 HD
ENDBRANCH  21  26
BRANCH  23  28
ATOM     28  O   UNL     1      -1.494   0.397   9.123  1.00  0.00    -0.387 OA
ATOM     29  H   UNL     1      -0.722   0.361   9.745  1.00  0.00     0.211 HD
ENDBRANCH  23  28
BRANCH  24  30
ATOM     30  C   UNL     1       0.319  -3.031  11.276  1.00  0.00     0.191 C 
BRANCH  30  31
ATOM     31  O   UNL     1       1.429  -3.050  10.422  1.00  0.00    -0.394 OA
ATOM     32  H   UNL     1       1.414  -3.932   9.968  1.00  0.00     0.210 HD
ENDBRANCH  30  31
ENDBRANCH  24  30
BRANCH  25  33
ATOM     33  O   UNL     1      -0.199  -1.982   8.558  1.00  0.00    -0.388 OA
ATOM     34  H   UNL     1       0.664  -1.895   9.042  1.00  0.00     0.211 HD
ENDBRANCH  25  33
ENDBRANCH  11  20
BRANCH  10  35
ATOM     35  O   UNL     1      -3.087   1.903  12.930  1.00  0.00    -0.507 OA
ATOM     36  H   UNL     1      -3.481   2.397  12.137  1.00  0.00     0.293 HD
ENDBRANCH  10  35
TORSDOF 9
ENDMDL
