MODEL 1
REMARK VINA RESULT:    -3.014      0.000      0.000
REMARK INTER + INTRA:          -3.669
REMARK INTER:                  -3.542
REMARK INTRA:                  -0.127
REMARK UNBOUND:                -0.127
REMARK SMILES O=C([O-])CCC(=O)[O-]
REMARK SMILES IDX 4 1 2 2 1 3 3 4 5 5 6 6 7 7 8 8
REMARK H PARENT
REMARK Flexibility Score: inf
ROOT
ATOM      1  C   UNL     1      28.229  52.347 179.500  1.00  0.00     0.059 C 
ENDROOT
BRANCH   1   2
ATOM      2  C   UNL     1      27.897  51.042 180.152  1.00  0.00     0.042 C 
ATOM      3  O   UNL     1      26.872  50.401 179.801  1.00  0.00    -0.550 OA
ATOM      4  O   UNL     1      28.747  50.508 181.112  1.00  0.00    -0.550 OA
ENDBRANCH   1   2
BRANCH   1   5
ATOM      5  C   UNL     1      28.922  52.113 178.156  1.00  0.00     0.059 C 
BRANCH   5   6
ATOM      6  C   UNL     1      30.405  52.037 178.338  1.00  0.00     0.042 C 
ATOM      7  O   UNL     1      30.986  52.817 179.138  1.00  0.00    -0.550 OA
ATOM      8  O   UNL     1      31.139  51.071 177.663  1.00  0.00    -0.550 OA
ENDBRANCH   5   6
ENDBRANCH   1   5
TORSDOF 3
ENDMDL
MODEL 2
REMARK VINA RESULT:    -3.012      0.057      3.661
REMARK INTER + INTRA:          -3.667
REMARK INTER:                  -3.535
REMARK INTRA:                  -0.132
REMARK UNBOUND:                -0.127
REMARK SMILES O=C([O-])CCC(=O)[O-]
REMARK SMILES IDX 4 1 2 2 1 3 3 4 5 5 6 6 7 7 8 8
REMARK H PARENT
REMARK Flexibility Score: inf
ROOT
ATOM      1  C   UNL     1      28.941  52.107 178.122  1.00  0.00     0.059 C 
ENDROOT
BRANCH   1   2
ATOM      2  C   UNL     1      30.417  51.988 178.344  1.00  0.00     0.042 C 
ATOM      3  O   UNL     1      30.991  52.721 179.191  1.00  0.00    -0.550 OA
ATOM      4  O   UNL     1      31.149  51.032 177.650  1.00  0.00    -0.550 OA
ENDBRANCH   1   2
BRANCH   1   5
ATOM      5  C   UNL     1      28.219  52.355 179.448  1.00  0.00     0.059 C 
BRANCH   5   6
ATOM      6  C   UNL     1      27.900  51.058 180.120  1.00  0.00     0.042 C 
ATOM      7  O   UNL     1      26.888  50.395 179.770  1.00  0.00    -0.550 OA
ATOM      8  O   UNL     1      28.746  50.556 181.100  1.00  0.00    -0.550 OA
ENDBRANCH   5   6
ENDBRANCH   1   5
TORSDOF 3
ENDMDL
MODEL 3
REMARK VINA RESULT:    -2.997     11.170     11.842
REMARK INTER + INTRA:          -3.649
REMARK INTER:                  -3.529
REMARK INTRA:                  -0.120
REMARK UNBOUND:                -0.127
REMARK SMILES O=C([O-])CCC(=O)[O-]
REMARK SMILES IDX 4 1 2 2 1 3 3 4 5 5 6 6 7 7 8 8
REMARK H PARENT
REMARK Flexibility Score: inf
ROOT
ATOM      1  C   UNL     1      23.847  52.035 170.003  1.00  0.00     0.059 C 
ENDROOT
BRANCH   1   2
ATOM      2  C   UNL     1      22.843  53.072 169.606  1.00  0.00     0.042 C 
ATOM      3  O   UNL     1      23.217  54.240 169.323  1.00  0.00    -0.550 OA
ATOM      4  O   UNL     1      21.500  52.734 169.501  1.00  0.00    -0.550 OA
ENDBRANCH   1   2
BRANCH   1   5
ATOM      5  C   UNL     1      24.043  51.020 168.876  1.00  0.00     0.059 C 
BRANCH   5   6
ATOM      6  C   UNL     1      23.638  49.653 169.327  1.00  0.00     0.042 C 
ATOM      7  O   UNL     1      24.406  48.672 169.143  1.00  0.00    -0.550 OA
ATOM      8  O   UNL     1      22.435  49.469 169.995  1.00  0.00    -0.550 OA
ENDBRANCH   5   6
ENDBRANCH   1   5
TORSDOF 3
ENDMDL
MODEL 4
REMARK VINA RESULT:    -2.940      1.533      3.902
REMARK INTER + INTRA:          -3.582
REMARK INTER:                  -3.544
REMARK INTRA:                  -0.038
REMARK UNBOUND:                -0.127
REMARK SMILES O=C([O-])CCC(=O)[O-]
REMARK SMILES IDX 4 1 2 2 1 3 3 4 5 5 6 6 7 7 8 8
REMARK H PARENT
REMARK Flexibility Score: inf
ROOT
ATOM      1  C   UNL     1      30.678  51.710 178.524  1.00  0.00     0.059 C 
ENDROOT
BRANCH   1   2
ATOM      2  C   UNL     1      31.490  50.998 177.488  1.00  0.00     0.042 C 
ATOM      3  O   UNL     1      30.956  50.624 176.411  1.00  0.00    -0.550 OA
ATOM      4  O   UNL     1      32.849  50.792 177.691  1.00  0.00    -0.550 OA
ENDBRANCH   1   2
BRANCH   1   5
ATOM      5  C   UNL     1      29.271  51.995 177.997  1.00  0.00     0.059 C 
BRANCH   5   6
ATOM      6  C   UNL     1      28.318  52.197 179.132  1.00  0.00     0.042 C 
ATOM      7  O   UNL     1      27.555  51.262 179.493  1.00  0.00    -0.550 OA
ATOM      8  O   UNL     1      28.307  53.400 179.825  1.00  0.00    -0.550 OA
ENDBRANCH   5   6
ENDBRANCH   1   5
TORSDOF 3
ENDMDL
MODEL 5
REMARK VINA RESULT:    -2.876      5.660      7.222
REMARK INTER + INTRA:          -3.507
REMARK INTER:                  -3.470
REMARK INTRA:                  -0.037
REMARK UNBOUND:                -0.127
REMARK SMILES O=C([O-])CCC(=O)[O-]
REMARK SMILES IDX 4 1 2 2 1 3 3 4 5 5 6 6 7 7 8 8
REMARK H PARENT
REMARK Flexibility Score: inf
ROOT
ATOM      1  C   UNL     1      33.194  47.774 176.910  1.00  0.00     0.059 C 
ENDROOT
BRANCH   1   2
ATOM      2  C   UNL     1      33.105  49.268 176.892  1.00  0.00     0.042 C 
ATOM      3  O   UNL     1      32.077  49.836 176.438  1.00  0.00    -0.550 OA
ATOM      4  O   UNL     1      34.137  50.033 177.422  1.00  0.00    -0.550 OA
ENDBRANCH   1   2
BRANCH   1   5
ATOM      5  C   UNL     1      34.371  47.298 176.058  1.00  0.00     0.059 C 
BRANCH   5   6
ATOM      6  C   UNL     1      34.048  45.994 175.402  1.00  0.00     0.042 C 
ATOM      7  O   UNL     1      33.065  45.313 175.796  1.00  0.00    -0.550 OA
ATOM      8  O   UNL     1      34.803  45.552 174.323  1.00  0.00    -0.550 OA
ENDBRANCH   5   6
ENDBRANCH   1   5
TORSDOF 3
ENDMDL
MODEL 6
REMARK VINA RESULT:    -2.848      1.560      2.588
REMARK INTER + INTRA:          -3.475
REMARK INTER:                  -3.439
REMARK INTRA:                  -0.035
REMARK UNBOUND:                -0.127
REMARK SMILES O=C([O-])CCC(=O)[O-]
REMARK SMILES IDX 4 1 2 2 1 3 3 4 5 5 6 6 7 7 8 8
REMARK H PARENT
REMARK Flexibility Score: inf
ROOT
ATOM      1  C   UNL     1      29.508  51.806 177.871  1.00  0.00     0.059 C 
ENDROOT
BRANCH   1   2
ATOM      2  C   UNL     1      28.674  52.355 178.986  1.00  0.00     0.042 C 
ATOM      3  O   UNL     1      28.874  53.523 179.410  1.00  0.00    -0.550 OA
ATOM      4  O   UNL     1      27.642  51.595 179.522  1.00  0.00    -0.550 OA
ENDBRANCH   1   2
BRANCH   1   5
ATOM      5  C   UNL     1      30.975  51.719 178.293  1.00  0.00     0.059 C 
BRANCH   5   6
ATOM      6  C   UNL     1      31.770  50.968 177.273  1.00  0.00     0.042 C 
ATOM      7  O   UNL     1      31.199  50.466 176.269  1.00  0.00    -0.550 OA
ATOM      8  O   UNL     1      33.148  50.864 177.405  1.00  0.00    -0.550 OA
ENDBRANCH   5   6
ENDBRANCH   1   5
TORSDOF 3
ENDMDL
MODEL 7
REMARK VINA RESULT:    -2.814      5.670      7.400
REMARK INTER + INTRA:          -3.434
REMARK INTER:                  -3.402
REMARK INTRA:                  -0.033
REMARK UNBOUND:                -0.127
REMARK SMILES O=C([O-])CCC(=O)[O-]
REMARK SMILES IDX 4 1 2 2 1 3 3 4 5 5 6 6 7 7 8 8
REMARK H PARENT
REMARK Flexibility Score: inf
ROOT
ATOM      1  C   UNL     1      34.465  47.357 176.038  1.00  0.00     0.059 C 
ENDROOT
BRANCH   1   2
ATOM      2  C   UNL     1      34.162  46.085 175.310  1.00  0.00     0.042 C 
ATOM      3  O   UNL     1      34.889  45.715 174.351  1.00  0.00    -0.550 OA
ATOM      4  O   UNL     1      33.105  45.283 175.722  1.00  0.00    -0.550 OA
ENDBRANCH   1   2
BRANCH   1   5
ATOM      5  C   UNL     1      33.240  47.828 176.823  1.00  0.00     0.059 C 
BRANCH   5   6
ATOM      6  C   UNL     1      33.189  49.322 176.866  1.00  0.00     0.042 C 
ATOM      7  O   UNL     1      32.156  49.932 176.481  1.00  0.00    -0.550 OA
ATOM      8  O   UNL     1      34.263  50.040 177.376  1.00  0.00    -0.550 OA
ENDBRANCH   5   6
ENDBRANCH   1   5
TORSDOF 3
ENDMDL
MODEL 8
REMARK VINA RESULT:    -2.805      2.407      4.145
REMARK INTER + INTRA:          -3.423
REMARK INTER:                  -3.299
REMARK INTRA:                  -0.124
REMARK UNBOUND:                -0.127
REMARK SMILES O=C([O-])CCC(=O)[O-]
REMARK SMILES IDX 4 1 2 2 1 3 3 4 5 5 6 6 7 7 8 8
REMARK H PARENT
REMARK Flexibility Score: inf
ROOT
ATOM      1  C   UNL     1      32.263  51.532 177.554  1.00  0.00     0.059 C 
ENDROOT
BRANCH   1   2
ATOM      2  C   UNL     1      32.037  50.411 176.589  1.00  0.00     0.042 C 
ATOM      3  O   UNL     1      31.268  50.568 175.605  1.00  0.00    -0.550 OA
ATOM      4  O   UNL     1      32.714  49.209 176.749  1.00  0.00    -0.550 OA
ENDBRANCH   1   2
BRANCH   1   5
ATOM      5  C   UNL     1      31.318  51.408 178.750  1.00  0.00     0.059 C 
BRANCH   5   6
ATOM      6  C   UNL     1      30.185  52.377 178.624  1.00  0.00     0.042 C 
ATOM      7  O   UNL     1      30.245  53.499 179.191  1.00  0.00    -0.550 OA
ATOM      8  O   UNL     1      29.084  52.060 177.839  1.00  0.00    -0.550 OA
ENDBRANCH   5   6
ENDBRANCH   1   5
TORSDOF 3
ENDMDL
MODEL 9
REMARK VINA RESULT:    -2.655      7.900      9.217
REMARK INTER + INTRA:          -3.247
REMARK INTER:                  -3.214
REMARK INTRA:                  -0.033
REMARK UNBOUND:                -0.127
REMARK SMILES O=C([O-])CCC(=O)[O-]
REMARK SMILES IDX 4 1 2 2 1 3 3 4 5 5 6 6 7 7 8 8
REMARK H PARENT
REMARK Flexibility Score: inf
ROOT
ATOM      1  C   UNL     1      34.969  46.550 175.407  1.00  0.00     0.059 C 
ENDROOT
BRANCH   1   2
ATOM      2  C   UNL     1      33.595  46.461 175.995  1.00  0.00     0.042 C 
ATOM      3  O   UNL     1      32.919  45.407 175.867  1.00  0.00    -0.550 OA
ATOM      4  O   UNL     1      33.082  47.524 176.727  1.00  0.00    -0.550 OA
ENDBRANCH   1   2
BRANCH   1   5
ATOM      5  C   UNL     1      35.036  45.781 174.087  1.00  0.00     0.059 C 
BRANCH   5   6
ATOM      6  C   UNL     1      36.373  45.965 173.441  1.00  0.00     0.042 C 
ATOM      7  O   UNL     1      37.426  45.690 174.075  1.00  0.00    -0.550 OA
ATOM      8  O   UNL     1      36.455  46.392 172.123  1.00  0.00    -0.550 OA
ENDBRANCH   5   6
ENDBRANCH   1   5
TORSDOF 3
ENDMDL
