MODEL 1
REMARK VINA RESULT:    -4.208      0.000      0.000
REMARK INTER + INTRA:          -4.758
REMARK INTER:                  -4.700
REMARK INTRA:                  -0.058
REMARK UNBOUND:                -0.058
REMARK SMILES COc1ccc(C(=O)[O-])cc1
REMARK SMILES IDX 6 1 5 2 10 3 4 4 11 5 3 6 7 7 8 8 9 9 2 10 1 11
REMARK H PARENT
REMARK Flexibility Score: inf
ROOT
ATOM      1  C   UNL     1      43.700   8.843 117.201  1.00  0.00    -0.003 A 
ATOM      2  C   UNL     1      43.713   7.700 116.382  1.00  0.00     0.014 A 
ATOM      3  C   UNL     1      43.686  10.112 116.599  1.00  0.00     0.014 A 
ATOM      4  C   UNL     1      43.712   7.825 114.990  1.00  0.00     0.047 A 
ATOM      5  C   UNL     1      43.685  10.235 115.206  1.00  0.00     0.047 A 
ATOM      6  C   UNL     1      43.698   9.099 114.391  1.00  0.00     0.118 A 
ENDROOT
BRANCH   1   7
ATOM      7  C   UNL     1      43.701   8.715 118.676  1.00  0.00     0.071 C 
ATOM      8  O   UNL     1      44.726   8.305 119.283  1.00  0.00    -0.545 OA
ATOM      9  O   UNL     1      42.569   9.048 119.411  1.00  0.00    -0.545 OA
ENDBRANCH   1   7
BRANCH   6  10
ATOM     10  O   UNL     1      43.695   9.276 112.999  1.00  0.00    -0.497 OA
ATOM     11  C   UNL     1      42.852  10.190 112.306  1.00  0.00     0.278 C 
ENDBRANCH   6  10
TORSDOF 2
ENDMDL
MODEL 2
REMARK VINA RESULT:    -4.160      1.723      4.677
REMARK INTER + INTRA:          -4.704
REMARK INTER:                  -4.641
REMARK INTRA:                  -0.063
REMARK UNBOUND:                -0.058
REMARK SMILES COc1ccc(C(=O)[O-])cc1
REMARK SMILES IDX 6 1 5 2 10 3 4 4 11 5 3 6 7 7 8 8 9 9 2 10 1 11
REMARK H PARENT
REMARK Flexibility Score: inf
ROOT
ATOM      1  C   UNL     1      44.581   8.125 115.275  1.00  0.00    -0.003 A 
ATOM      2  C   UNL     1      44.161   9.455 115.093  1.00  0.00     0.014 A 
ATOM      3  C   UNL     1      44.553   7.573 116.567  1.00  0.00     0.014 A 
ATOM      4  C   UNL     1      43.725  10.217 116.181  1.00  0.00     0.047 A 
ATOM      5  C   UNL     1      44.116   8.337 117.654  1.00  0.00     0.047 A 
ATOM      6  C   UNL     1      43.699   9.660 117.474  1.00  0.00     0.118 A 
ENDROOT
BRANCH   1   7
ATOM      7  C   UNL     1      45.043   7.315 114.126  1.00  0.00     0.071 C 
ATOM      8  O   UNL     1      44.614   6.143 113.955  1.00  0.00    -0.545 OA
ATOM      9  O   UNL     1      45.958   7.838 113.219  1.00  0.00    -0.545 OA
ENDBRANCH   1   7
BRANCH   6  10
ATOM     10  O   UNL     1      43.269  10.383 118.596  1.00  0.00    -0.497 OA
ATOM     11  C   UNL     1      42.617   9.807 119.723  1.00  0.00     0.278 C 
ENDBRANCH   6  10
TORSDOF 2
ENDMDL
MODEL 3
REMARK VINA RESULT:    -4.153      6.311      7.609
REMARK INTER + INTRA:          -4.696
REMARK INTER:                  -4.640
REMARK INTRA:                  -0.057
REMARK UNBOUND:                -0.058
REMARK SMILES COc1ccc(C(=O)[O-])cc1
REMARK SMILES IDX 6 1 5 2 10 3 4 4 11 5 3 6 7 7 8 8 9 9 2 10 1 11
REMARK H PARENT
REMARK Flexibility Score: inf
ROOT
ATOM      1  C   UNL     1      41.048  15.982 114.178  1.00  0.00    -0.003 A 
ATOM      2  C   UNL     1      40.750  16.194 112.820  1.00  0.00     0.014 A 
ATOM      3  C   UNL     1      41.812  14.860 114.540  1.00  0.00     0.014 A 
ATOM      4  C   UNL     1      41.207  15.302 111.846  1.00  0.00     0.047 A 
ATOM      5  C   UNL     1      42.268  13.969 113.564  1.00  0.00     0.047 A 
ATOM      6  C   UNL     1      41.972  14.179 112.214  1.00  0.00     0.118 A 
ENDROOT
BRANCH   1   7
ATOM      7  C   UNL     1      40.566  16.924 115.213  1.00  0.00     0.071 C 
ATOM      8  O   UNL     1      39.341  16.993 115.496  1.00  0.00    -0.545 OA
ATOM      9  O   UNL     1      41.462  17.745 115.889  1.00  0.00    -0.545 OA
ENDBRANCH   1   7
BRANCH   6  10
ATOM     10  O   UNL     1      42.454  13.257 111.273  1.00  0.00    -0.497 OA
ATOM     11  C   UNL     1      42.298  11.845 111.377  1.00  0.00     0.278 C 
ENDBRANCH   6  10
TORSDOF 2
ENDMDL
MODEL 4
REMARK VINA RESULT:    -4.142      6.228      7.496
REMARK INTER + INTRA:          -4.684
REMARK INTER:                  -4.629
REMARK INTRA:                  -0.055
REMARK UNBOUND:                -0.058
REMARK SMILES COc1ccc(C(=O)[O-])cc1
REMARK SMILES IDX 6 1 5 2 10 3 4 4 11 5 3 6 7 7 8 8 9 9 2 10 1 11
REMARK H PARENT
REMARK Flexibility Score: inf
ROOT
ATOM      1  C   UNL     1      41.049  15.937 114.210  1.00  0.00    -0.003 A 
ATOM      2  C   UNL     1      41.801  14.819 114.611  1.00  0.00     0.014 A 
ATOM      3  C   UNL     1      40.766  16.114 112.846  1.00  0.00     0.014 A 
ATOM      4  C   UNL     1      42.262  13.898 113.666  1.00  0.00     0.047 A 
ATOM      5  C   UNL     1      41.228  15.191 111.901  1.00  0.00     0.047 A 
ATOM      6  C   UNL     1      41.976  14.079 112.299  1.00  0.00     0.118 A 
ENDROOT
BRANCH   1   7
ATOM      7  C   UNL     1      40.559  16.915 115.208  1.00  0.00     0.071 C 
ATOM      8  O   UNL     1      39.330  17.000 115.471  1.00  0.00    -0.545 OA
ATOM      9  O   UNL     1      41.450  17.752 115.868  1.00  0.00    -0.545 OA
ENDBRANCH   1   7
BRANCH   6  10
ATOM     10  O   UNL     1      42.415  13.182 111.313  1.00  0.00    -0.497 OA
ATOM     11  C   UNL     1      42.323  11.766 111.417  1.00  0.00     0.278 C 
ENDBRANCH   6  10
TORSDOF 2
ENDMDL
MODEL 5
REMARK VINA RESULT:    -4.073      1.440      2.337
REMARK INTER + INTRA:          -4.607
REMARK INTER:                  -4.544
REMARK INTRA:                  -0.063
REMARK UNBOUND:                -0.058
REMARK SMILES COc1ccc(C(=O)[O-])cc1
REMARK SMILES IDX 6 1 5 2 10 3 4 4 11 5 3 6 7 7 8 8 9 9 2 10 1 11
REMARK H PARENT
REMARK Flexibility Score: inf
ROOT
ATOM      1  C   UNL     1      43.654   9.247 117.340  1.00  0.00    -0.003 A 
ATOM      2  C   UNL     1      43.672  10.166 116.275  1.00  0.00     0.014 A 
ATOM      3  C   UNL     1      44.120   7.940 117.118  1.00  0.00     0.014 A 
ATOM      4  C   UNL     1      44.144   9.785 115.016  1.00  0.00     0.047 A 
ATOM      5  C   UNL     1      44.592   7.561 115.858  1.00  0.00     0.047 A 
ATOM      6  C   UNL     1      44.609   8.474 114.799  1.00  0.00     0.118 A 
ENDROOT
BRANCH   1   7
ATOM      7  C   UNL     1      43.155   9.646 118.675  1.00  0.00     0.071 C 
ATOM      8  O   UNL     1      42.676   8.788 119.462  1.00  0.00    -0.545 OA
ATOM      9  O   UNL     1      43.211  10.976 119.078  1.00  0.00    -0.545 OA
ENDBRANCH   1   7
BRANCH   6  10
ATOM     10  O   UNL     1      45.093   8.045 113.554  1.00  0.00    -0.497 OA
ATOM     11  C   UNL     1      46.329   7.365 113.363  1.00  0.00     0.278 C 
ENDBRANCH   6  10
TORSDOF 2
ENDMDL
MODEL 6
REMARK VINA RESULT:    -4.055      2.155      4.844
REMARK INTER + INTRA:          -4.587
REMARK INTER:                  -4.535
REMARK INTRA:                  -0.052
REMARK UNBOUND:                -0.058
REMARK SMILES COc1ccc(C(=O)[O-])cc1
REMARK SMILES IDX 6 1 5 2 10 3 4 4 11 5 3 6 7 7 8 8 9 9 2 10 1 11
REMARK H PARENT
REMARK Flexibility Score: inf
ROOT
ATOM      1  C   UNL     1      43.384   9.709 113.690  1.00  0.00    -0.003 A 
ATOM      2  C   UNL     1      44.491   8.843 113.658  1.00  0.00     0.014 A 
ATOM      3  C   UNL     1      43.115  10.428 114.866  1.00  0.00     0.014 A 
ATOM      4  C   UNL     1      45.312   8.699 114.781  1.00  0.00     0.047 A 
ATOM      5  C   UNL     1      43.937  10.282 115.988  1.00  0.00     0.047 A 
ATOM      6  C   UNL     1      45.038   9.421 115.958  1.00  0.00     0.118 A 
ENDROOT
BRANCH   1   7
ATOM      7  C   UNL     1      42.513   9.864 112.503  1.00  0.00     0.071 C 
ATOM      8  O   UNL     1      42.905  10.522 111.503  1.00  0.00    -0.545 OA
ATOM      9  O   UNL     1      41.249   9.285 112.477  1.00  0.00    -0.545 OA
ENDBRANCH   1   7
BRANCH   6  10
ATOM     10  O   UNL     1      45.832   9.311 117.109  1.00  0.00    -0.497 OA
ATOM     11  C   UNL     1      47.109   9.920 117.267  1.00  0.00     0.278 C 
ENDBRANCH   6  10
TORSDOF 2
ENDMDL
MODEL 7
REMARK VINA RESULT:    -4.045      2.548      3.312
REMARK INTER + INTRA:          -4.575
REMARK INTER:                  -4.515
REMARK INTRA:                  -0.061
REMARK UNBOUND:                -0.058
REMARK SMILES COc1ccc(C(=O)[O-])cc1
REMARK SMILES IDX 6 1 5 2 10 3 4 4 11 5 3 6 7 7 8 8 9 9 2 10 1 11
REMARK H PARENT
REMARK Flexibility Score: inf
ROOT
ATOM      1  C   UNL     1      45.032   8.819 114.912  1.00  0.00    -0.003 A 
ATOM      2  C   UNL     1      44.410   8.744 113.652  1.00  0.00     0.014 A 
ATOM      3  C   UNL     1      44.556   9.749 115.851  1.00  0.00     0.014 A 
ATOM      4  C   UNL     1      43.337   9.582 113.339  1.00  0.00     0.047 A 
ATOM      5  C   UNL     1      43.482  10.588 115.536  1.00  0.00     0.047 A 
ATOM      6  C   UNL     1      42.864  10.514 114.284  1.00  0.00     0.118 A 
ENDROOT
BRANCH   1   7
ATOM      7  C   UNL     1      46.169   7.933 115.247  1.00  0.00     0.071 C 
ATOM      8  O   UNL     1      47.158   7.840 114.473  1.00  0.00    -0.545 OA
ATOM      9  O   UNL     1      46.159   7.191 116.423  1.00  0.00    -0.545 OA
ENDBRANCH   1   7
BRANCH   6  10
ATOM     10  O   UNL     1      41.790  11.376 114.017  1.00  0.00    -0.497 OA
ATOM     11  C   UNL     1      41.745  12.747 114.397  1.00  0.00     0.278 C 
ENDBRANCH   6  10
TORSDOF 2
ENDMDL
MODEL 8
REMARK VINA RESULT:    -4.001      3.028      3.699
REMARK INTER + INTRA:          -4.527
REMARK INTER:                  -4.465
REMARK INTRA:                  -0.062
REMARK UNBOUND:                -0.058
REMARK SMILES COc1ccc(C(=O)[O-])cc1
REMARK SMILES IDX 6 1 5 2 10 3 4 4 11 5 3 6 7 7 8 8 9 9 2 10 1 11
REMARK H PARENT
REMARK Flexibility Score: inf
ROOT
ATOM      1  C   UNL     1      44.813   9.426 115.396  1.00  0.00    -0.003 A 
ATOM      2  C   UNL     1      46.060   9.189 116.001  1.00  0.00     0.014 A 
ATOM      3  C   UNL     1      44.541   8.845 114.147  1.00  0.00     0.014 A 
ATOM      4  C   UNL     1      47.015   8.389 115.368  1.00  0.00     0.047 A 
ATOM      5  C   UNL     1      45.498   8.045 113.515  1.00  0.00     0.047 A 
ATOM      6  C   UNL     1      46.738   7.809 114.116  1.00  0.00     0.118 A 
ENDROOT
BRANCH   1   7
ATOM      7  C   UNL     1      43.799  10.273 116.063  1.00  0.00     0.071 C 
ATOM      8  O   UNL     1      43.610  10.188 117.306  1.00  0.00    -0.545 OA
ATOM      9  O   UNL     1      43.041  11.177 115.326  1.00  0.00    -0.545 OA
ENDBRANCH   1   7
BRANCH   6  10
ATOM     10  O   UNL     1      47.663   6.998 113.441  1.00  0.00    -0.497 OA
ATOM     11  C   UNL     1      47.939   7.080 112.047  1.00  0.00     0.278 C 
ENDBRANCH   6  10
TORSDOF 2
ENDMDL
MODEL 9
REMARK VINA RESULT:    -3.999      2.786      4.417
REMARK INTER + INTRA:          -4.524
REMARK INTER:                  -4.458
REMARK INTRA:                  -0.065
REMARK UNBOUND:                -0.058
REMARK SMILES COc1ccc(C(=O)[O-])cc1
REMARK SMILES IDX 6 1 5 2 10 3 4 4 11 5 3 6 7 7 8 8 9 9 2 10 1 11
REMARK H PARENT
REMARK Flexibility Score: inf
ROOT
ATOM      1  C   UNL     1      42.799  10.711 114.300  1.00  0.00    -0.003 A 
ATOM      2  C   UNL     1      43.194   9.811 113.294  1.00  0.00     0.014 A 
ATOM      3  C   UNL     1      43.436  10.656 115.551  1.00  0.00     0.014 A 
ATOM      4  C   UNL     1      44.204   8.876 113.535  1.00  0.00     0.047 A 
ATOM      5  C   UNL     1      44.446   9.719 115.791  1.00  0.00     0.047 A 
ATOM      6  C   UNL     1      44.840   8.824 114.791  1.00  0.00     0.118 A 
ENDROOT
BRANCH   1   7
ATOM      7  C   UNL     1      41.730  11.703 114.049  1.00  0.00     0.071 C 
ATOM      8  O   UNL     1      40.796  11.448 113.243  1.00  0.00    -0.545 OA
ATOM      9  O   UNL     1      41.741  12.930 114.702  1.00  0.00    -0.545 OA
ENDBRANCH   1   7
BRANCH   6  10
ATOM     10  O   UNL     1      45.859   7.905 115.081  1.00  0.00    -0.497 OA
ATOM     11  C   UNL     1      46.098   7.348 116.369  1.00  0.00     0.278 C 
ENDBRANCH   6  10
TORSDOF 2
ENDMDL
