MODEL 1
REMARK VINA RESULT:    -6.054      0.000      0.000
REMARK INTER + INTRA:         -10.188
REMARK INTER:                  -9.239
REMARK INTRA:                  -0.949
REMARK UNBOUND:                -0.949
REMARK SMILES CC(=O)CCC=C(C)CCC=C(C)CCC=C(C)C
REMARK SMILES IDX 10 1 11 2 12 3 13 4 14 5 15 6 16 7 18 8 17 9 19 10 9 11 7 12
REMARK SMILES IDX 6 13 8 14 5 15 4 16 2 17 3 18 1 19
REMARK H PARENT
REMARK Flexibility Score: inf
ROOT
ATOM      1  C   UNL     1      87.957  37.928  24.555  1.00  0.00     0.032 C 
ENDROOT
BRANCH   1   2
ATOM      2  C   UNL     1      88.125  37.920  26.056  1.00  0.00    -0.028 C 
ATOM      3  C   UNL     1      88.809  38.849  26.760  1.00  0.00    -0.077 C 
ATOM      4  C   UNL     1      89.570  39.965  26.083  1.00  0.00     0.039 C 
BRANCH   3   5
ATOM      5  C   UNL     1      88.828  38.759  28.272  1.00  0.00     0.034 C 
BRANCH   5   6
ATOM      6  C   UNL     1      87.570  38.070  28.822  1.00  0.00     0.032 C 
BRANCH   6   7
ATOM      7  C   UNL     1      86.704  39.027  29.605  1.00  0.00    -0.028 C 
ATOM      8  C   UNL     1      85.283  37.209  30.580  1.00  0.00     0.039 C 
ATOM      9  C   UNL     1      85.650  38.657  30.366  1.00  0.00    -0.080 C 
ATOM     10  C   UNL     1      84.835  39.706  31.079  1.00  0.00     0.039 C 
ENDBRANCH   6   7
ENDBRANCH   5   6
ENDBRANCH   3   5
ENDBRANCH   1   2
BRANCH   1  11
ATOM     11  C   UNL     1      87.439  36.584  24.018  1.00  0.00     0.034 C 
BRANCH  11  12
ATOM     12  C   UNL     1      86.017  36.690  23.504  1.00  0.00    -0.077 C 
ATOM     13  C   UNL     1      85.618  35.888  22.494  1.00  0.00    -0.028 C 
ATOM     14  C   UNL     1      85.083  37.702  24.122  1.00  0.00     0.039 C 
BRANCH  13  15
ATOM     15  C   UNL     1      84.231  35.932  21.898  1.00  0.00     0.035 C 
BRANCH  15  16
ATOM     16  C   UNL     1      84.233  36.536  20.487  1.00  0.00     0.079 C 
BRANCH  16  17
ATOM     17  C   UNL     1      83.425  37.808  20.421  1.00  0.00     0.130 C 
ATOM     18  O   UNL     1      82.248  37.758  20.093  1.00  0.00    -0.300 OA
ATOM     19  C   UNL     1      84.034  39.138  20.757  1.00  0.00     0.087 C 
ENDBRANCH  16  17
ENDBRANCH  15  16
ENDBRANCH  13  15
ENDBRANCH  11  12
ENDBRANCH   1  11
TORSDOF 9
ENDMDL
MODEL 2
REMARK VINA RESULT:    -5.972      4.540      7.077
REMARK INTER + INTRA:         -10.063
REMARK INTER:                  -8.665
REMARK INTRA:                  -1.398
REMARK UNBOUND:                -0.949
REMARK SMILES CC(=O)CCC=C(C)CCC=C(C)CCC=C(C)C
REMARK SMILES IDX 10 1 11 2 12 3 13 4 14 5 15 6 16 7 18 8 17 9 19 10 9 11 7 12
REMARK SMILES IDX 6 13 8 14 5 15 4 16 2 17 3 18 1 19
REMARK H PARENT
REMARK Flexibility Score: inf
ROOT
ATOM      1  C   UNL     1      85.797  36.367  29.898  1.00  0.00     0.032 C 
ENDROOT
BRANCH   1   2
ATOM      2  C   UNL     1      86.729  35.645  30.842  1.00  0.00    -0.028 C 
ATOM      3  C   UNL     1      87.298  34.444  30.594  1.00  0.00    -0.077 C 
ATOM      4  C   UNL     1      86.975  33.647  29.352  1.00  0.00     0.039 C 
BRANCH   3   5
ATOM      5  C   UNL     1      88.278  33.874  31.599  1.00  0.00     0.034 C 
BRANCH   5   6
ATOM      6  C   UNL     1      87.718  33.903  33.028  1.00  0.00     0.032 C 
BRANCH   6   7
ATOM      7  C   UNL     1      86.514  33.004  33.177  1.00  0.00    -0.028 C 
ATOM      8  C   UNL     1      85.018  34.851  33.966  1.00  0.00     0.039 C 
ATOM      9  C   UNL     1      85.308  33.409  33.635  1.00  0.00    -0.080 C 
ATOM     10  C   UNL     1      84.186  32.411  33.772  1.00  0.00     0.039 C 
ENDBRANCH   6   7
ENDBRANCH   5   6
ENDBRANCH   3   5
ENDBRANCH   1   2
BRANCH   1  11
ATOM     11  C   UNL     1      86.316  37.763  29.519  1.00  0.00     0.034 C 
BRANCH  11  12
ATOM     12  C   UNL     1      87.089  37.745  28.216  1.00  0.00    -0.077 C 
ATOM     13  C   UNL     1      88.226  38.467  28.112  1.00  0.00    -0.028 C 
ATOM     14  C   UNL     1      86.564  36.933  27.058  1.00  0.00     0.039 C 
BRANCH  13  15
ATOM     15  C   UNL     1      89.055  38.532  26.851  1.00  0.00     0.035 C 
BRANCH  15  16
ATOM     16  C   UNL     1      89.264  39.976  26.376  1.00  0.00     0.079 C 
BRANCH  16  17
ATOM     17  C   UNL     1      90.726  40.345  26.332  1.00  0.00     0.130 C 
ATOM     18  O   UNL     1      91.071  41.372  25.766  1.00  0.00    -0.300 OA
ATOM     19  C   UNL     1      91.769  39.479  26.975  1.00  0.00     0.087 C 
ENDBRANCH  16  17
ENDBRANCH  15  16
ENDBRANCH  13  15
ENDBRANCH  11  12
ENDBRANCH   1  11
TORSDOF 9
ENDMDL
MODEL 3
REMARK VINA RESULT:    -5.888      3.050      7.017
REMARK INTER + INTRA:          -9.935
REMARK INTER:                  -8.357
REMARK INTRA:                  -1.578
REMARK UNBOUND:                -0.949
REMARK SMILES CC(=O)CCC=C(C)CCC=C(C)CCC=C(C)C
REMARK SMILES IDX 10 1 11 2 12 3 13 4 14 5 15 6 16 7 18 8 17 9 19 10 9 11 7 12
REMARK SMILES IDX 6 13 8 14 5 15 4 16 2 17 3 18 1 19
REMARK H PARENT
REMARK Flexibility Score: inf
ROOT
ATOM      1  C   UNL     1      88.417  39.125  26.728  1.00  0.00     0.032 C 
ENDROOT
BRANCH   1   2
ATOM      2  C   UNL     1      88.842  38.237  25.585  1.00  0.00    -0.028 C 
ATOM      3  C   UNL     1      88.000  37.503  24.823  1.00  0.00    -0.077 C 
ATOM      4  C   UNL     1      86.519  37.431  25.112  1.00  0.00     0.039 C 
BRANCH   3   5
ATOM      5  C   UNL     1      88.560  36.718  23.655  1.00  0.00     0.034 C 
BRANCH   5   6
ATOM      6  C   UNL     1      87.615  35.590  23.215  1.00  0.00     0.032 C 
BRANCH   6   7
ATOM      7  C   UNL     1      88.236  34.228  23.414  1.00  0.00    -0.028 C 
ATOM      8  C   UNL     1      86.796  33.672  25.387  1.00  0.00     0.039 C 
ATOM      9  C   UNL     1      87.905  33.374  24.409  1.00  0.00    -0.080 C 
ATOM     10  C   UNL     1      88.617  32.051  24.528  1.00  0.00     0.039 C 
ENDBRANCH   6   7
ENDBRANCH   5   6
ENDBRANCH   3   5
ENDBRANCH   1   2
BRANCH   1  11
ATOM     11  C   UNL     1      88.765  38.521  28.098  1.00  0.00     0.034 C 
BRANCH  11  12
ATOM     12  C   UNL     1      87.526  38.244  28.926  1.00  0.00    -0.077 C 
ATOM     13  C   UNL     1      86.927  39.262  29.581  1.00  0.00    -0.028 C 
ATOM     14  C   UNL     1      86.999  36.832  29.014  1.00  0.00     0.039 C 
BRANCH  13  15
ATOM     15  C   UNL     1      85.703  39.084  30.448  1.00  0.00     0.035 C 
BRANCH  15  16
ATOM     16  C   UNL     1      84.444  39.661  29.788  1.00  0.00     0.079 C 
BRANCH  16  17
ATOM     17  C   UNL     1      83.653  38.599  29.066  1.00  0.00     0.130 C 
ATOM     18  O   UNL     1      83.291  38.795  27.915  1.00  0.00    -0.300 OA
ATOM     19  C   UNL     1      83.305  37.299  29.730  1.00  0.00     0.087 C 
ENDBRANCH  16  17
ENDBRANCH  15  16
ENDBRANCH  13  15
ENDBRANCH  11  12
ENDBRANCH   1  11
TORSDOF 9
ENDMDL
MODEL 4
REMARK VINA RESULT:    -5.859      3.124      4.160
REMARK INTER + INTRA:          -9.891
REMARK INTER:                  -8.323
REMARK INTRA:                  -1.568
REMARK UNBOUND:                -0.949
REMARK SMILES CC(=O)CCC=C(C)CCC=C(C)CCC=C(C)C
REMARK SMILES IDX 10 1 11 2 12 3 13 4 14 5 15 6 16 7 18 8 17 9 19 10 9 11 7 12
REMARK SMILES IDX 6 13 8 14 5 15 4 16 2 17 3 18 1 19
REMARK H PARENT
REMARK Flexibility Score: inf
ROOT
ATOM      1  C   UNL     1      89.083  38.282  27.012  1.00  0.00     0.032 C 
ENDROOT
BRANCH   1   2
ATOM      2  C   UNL     1      88.253  39.060  28.005  1.00  0.00    -0.028 C 
ATOM      3  C   UNL     1      87.382  38.509  28.880  1.00  0.00    -0.077 C 
ATOM      4  C   UNL     1      87.081  37.029  28.885  1.00  0.00     0.039 C 
BRANCH   3   5
ATOM      5  C   UNL     1      86.675  39.406  29.876  1.00  0.00     0.034 C 
BRANCH   5   6
ATOM      6  C   UNL     1      85.363  38.785  30.377  1.00  0.00     0.032 C 
BRANCH   6   7
ATOM      7  C   UNL     1      84.163  39.609  29.975  1.00  0.00    -0.028 C 
ATOM      8  C   UNL     1      83.619  38.165  28.001  1.00  0.00     0.039 C 
ATOM      9  C   UNL     1      83.396  39.365  28.889  1.00  0.00    -0.080 C 
ATOM     10  C   UNL     1      82.239  40.277  28.569  1.00  0.00     0.039 C 
ENDBRANCH   6   7
ENDBRANCH   5   6
ENDBRANCH   3   5
ENDBRANCH   1   2
BRANCH   1  11
ATOM     11  C   UNL     1      88.769  38.670  25.558  1.00  0.00     0.034 C 
BRANCH  11  12
ATOM     12  C   UNL     1      87.987  37.589  24.840  1.00  0.00    -0.077 C 
ATOM     13  C   UNL     1      88.609  36.825  23.915  1.00  0.00    -0.028 C 
ATOM     14  C   UNL     1      86.524  37.401  25.161  1.00  0.00     0.039 C 
BRANCH  13  15
ATOM     15  C   UNL     1      87.911  35.739  23.131  1.00  0.00     0.035 C 
BRANCH  15  16
ATOM     16  C   UNL     1      88.314  34.338  23.609  1.00  0.00     0.079 C 
BRANCH  16  17
ATOM     17  C   UNL     1      87.115  33.519  24.017  1.00  0.00     0.130 C 
ATOM     18  O   UNL     1      87.281  32.419  24.523  1.00  0.00    -0.300 OA
ATOM     19  C   UNL     1      85.718  34.030  23.820  1.00  0.00     0.087 C 
ENDBRANCH  16  17
ENDBRANCH  15  16
ENDBRANCH  13  15
ENDBRANCH  11  12
ENDBRANCH   1  11
TORSDOF 9
ENDMDL
MODEL 5
REMARK VINA RESULT:    -5.844      1.719      2.475
REMARK INTER + INTRA:          -9.869
REMARK INTER:                  -8.529
REMARK INTRA:                  -1.339
REMARK UNBOUND:                -0.949
REMARK SMILES CC(=O)CCC=C(C)CCC=C(C)CCC=C(C)C
REMARK SMILES IDX 10 1 11 2 12 3 13 4 14 5 15 6 16 7 18 8 17 9 19 10 9 11 7 12
REMARK SMILES IDX 6 13 8 14 5 15 4 16 2 17 3 18 1 19
REMARK H PARENT
REMARK Flexibility Score: inf
ROOT
ATOM      1  C   UNL     1      88.128  38.081  24.529  1.00  0.00     0.032 C 
ENDROOT
BRANCH   1   2
ATOM      2  C   UNL     1      87.865  38.051  26.015  1.00  0.00    -0.028 C 
ATOM      3  C   UNL     1      88.670  38.601  26.952  1.00  0.00    -0.077 C 
ATOM      4  C   UNL     1      89.993  39.237  26.595  1.00  0.00     0.039 C 
BRANCH   3   5
ATOM      5  C   UNL     1      88.240  38.565  28.404  1.00  0.00     0.034 C 
BRANCH   5   6
ATOM      6  C   UNL     1      86.906  37.827  28.590  1.00  0.00     0.032 C 
BRANCH   6   7
ATOM      7  C   UNL     1      87.091  36.504  29.295  1.00  0.00    -0.028 C 
ATOM      8  C   UNL     1      86.339  35.154  27.323  1.00  0.00     0.039 C 
ATOM      9  C   UNL     1      86.802  35.301  28.751  1.00  0.00    -0.080 C 
ATOM     10  C   UNL     1      86.997  34.046  29.564  1.00  0.00     0.039 C 
ENDBRANCH   6   7
ENDBRANCH   5   6
ENDBRANCH   3   5
ENDBRANCH   1   2
BRANCH   1  11
ATOM     11  C   UNL     1      88.638  36.731  23.999  1.00  0.00     0.034 C 
BRANCH  11  12
ATOM     12  C   UNL     1      87.519  35.892  23.416  1.00  0.00    -0.077 C 
ATOM     13  C   UNL     1      86.302  36.449  23.232  1.00  0.00    -0.028 C 
ATOM     14  C   UNL     1      87.784  34.448  23.069  1.00  0.00     0.039 C 
BRANCH  13  15
ATOM     15  C   UNL     1      85.118  35.691  22.679  1.00  0.00     0.035 C 
BRANCH  15  16
ATOM     16  C   UNL     1      83.973  36.631  22.278  1.00  0.00     0.079 C 
BRANCH  16  17
ATOM     17  C   UNL     1      84.145  37.158  20.876  1.00  0.00     0.130 C 
ATOM     18  O   UNL     1      84.402  36.381  19.968  1.00  0.00    -0.300 OA
ATOM     19  C   UNL     1      83.999  38.619  20.568  1.00  0.00     0.087 C 
ENDBRANCH  16  17
ENDBRANCH  15  16
ENDBRANCH  13  15
ENDBRANCH  11  12
ENDBRANCH   1  11
TORSDOF 9
ENDMDL
MODEL 6
REMARK VINA RESULT:    -5.823      4.994      7.685
REMARK INTER + INTRA:          -9.836
REMARK INTER:                  -8.718
REMARK INTRA:                  -1.118
REMARK UNBOUND:                -0.949
REMARK SMILES CC(=O)CCC=C(C)CCC=C(C)CCC=C(C)C
REMARK SMILES IDX 10 1 11 2 12 3 13 4 14 5 15 6 16 7 18 8 17 9 19 10 9 11 7 12
REMARK SMILES IDX 6 13 8 14 5 15 4 16 2 17 3 18 1 19
REMARK H PARENT
REMARK Flexibility Score: inf
ROOT
ATOM      1  C   UNL     1      85.836  35.850  30.737  1.00  0.00     0.032 C 
ENDROOT
BRANCH   1   2
ATOM      2  C   UNL     1      87.030  34.931  30.830  1.00  0.00    -0.028 C 
ATOM      3  C   UNL     1      87.494  34.385  31.977  1.00  0.00    -0.077 C 
ATOM      4  C   UNL     1      86.900  34.726  33.323  1.00  0.00     0.039 C 
BRANCH   3   5
ATOM      5  C   UNL     1      88.656  33.414  31.911  1.00  0.00     0.034 C 
BRANCH   5   6
ATOM      6  C   UNL     1      88.283  32.122  31.171  1.00  0.00     0.032 C 
BRANCH   6   7
ATOM      7  C   UNL     1      89.291  31.776  30.101  1.00  0.00    -0.028 C 
ATOM      8  C   UNL     1      87.768  32.422  28.219  1.00  0.00     0.039 C 
ATOM      9  C   UNL     1      89.058  31.869  28.772  1.00  0.00    -0.080 C 
ATOM     10  C   UNL     1      90.132  31.465  27.794  1.00  0.00     0.039 C 
ENDBRANCH   6   7
ENDBRANCH   5   6
ENDBRANCH   3   5
ENDBRANCH   1   2
BRANCH   1  11
ATOM     11  C   UNL     1      85.672  36.454  29.333  1.00  0.00     0.034 C 
BRANCH  11  12
ATOM     12  C   UNL     1      86.515  37.700  29.151  1.00  0.00    -0.077 C 
ATOM     13  C   UNL     1      87.617  37.645  28.373  1.00  0.00    -0.028 C 
ATOM     14  C   UNL     1      86.112  38.972  29.857  1.00  0.00     0.039 C 
BRANCH  13  15
ATOM     15  C   UNL     1      88.533  38.825  28.147  1.00  0.00     0.035 C 
BRANCH  15  16
ATOM     16  C   UNL     1      88.932  38.967  26.672  1.00  0.00     0.079 C 
BRANCH  16  17
ATOM     17  C   UNL     1      90.187  39.786  26.507  1.00  0.00     0.130 C 
ATOM     18  O   UNL     1      90.110  40.929  26.080  1.00  0.00    -0.300 OA
ATOM     19  C   UNL     1      91.534  39.229  26.863  1.00  0.00     0.087 C 
ENDBRANCH  16  17
ENDBRANCH  15  16
ENDBRANCH  13  15
ENDBRANCH  11  12
ENDBRANCH   1  11
TORSDOF 9
ENDMDL
MODEL 7
REMARK VINA RESULT:    -5.818      2.707      7.524
REMARK INTER + INTRA:          -9.828
REMARK INTER:                  -8.991
REMARK INTRA:                  -0.837
REMARK UNBOUND:                -0.949
REMARK SMILES CC(=O)CCC=C(C)CCC=C(C)CCC=C(C)C
REMARK SMILES IDX 10 1 11 2 12 3 13 4 14 5 15 6 16 7 18 8 17 9 19 10 9 11 7 12
REMARK SMILES IDX 6 13 8 14 5 15 4 16 2 17 3 18 1 19
REMARK H PARENT
REMARK Flexibility Score: inf
ROOT
ATOM      1  C   UNL     1      88.496  37.169  24.438  1.00  0.00     0.032 C 
ENDROOT
BRANCH   1   2
ATOM      2  C   UNL     1      87.096  36.810  24.003  1.00  0.00    -0.028 C 
ATOM      3  C   UNL     1      86.773  35.730  23.257  1.00  0.00    -0.077 C 
ATOM      4  C   UNL     1      87.825  34.803  22.695  1.00  0.00     0.039 C 
BRANCH   3   5
ATOM      5  C   UNL     1      85.314  35.450  22.961  1.00  0.00     0.034 C 
BRANCH   5   6
ATOM      6  C   UNL     1      84.744  36.416  21.913  1.00  0.00     0.032 C 
BRANCH   6   7
ATOM      7  C   UNL     1      83.957  37.536  22.550  1.00  0.00    -0.028 C 
ATOM      8  C   UNL     1      83.992  38.962  20.491  1.00  0.00     0.039 C 
ATOM      9  C   UNL     1      83.647  38.700  21.936  1.00  0.00    -0.080 C 
ATOM     10  C   UNL     1      82.883  39.761  22.685  1.00  0.00     0.039 C 
ENDBRANCH   6   7
ENDBRANCH   5   6
ENDBRANCH   3   5
ENDBRANCH   1   2
BRANCH   1  11
ATOM     11  C   UNL     1      88.585  38.596  25.001  1.00  0.00     0.034 C 
BRANCH  11  12
ATOM     12  C   UNL     1      88.864  38.601  26.490  1.00  0.00    -0.077 C 
ATOM     13  C   UNL     1      87.875  38.273  27.350  1.00  0.00    -0.028 C 
ATOM     14  C   UNL     1      90.238  38.988  26.982  1.00  0.00     0.039 C 
BRANCH  13  15
ATOM     15  C   UNL     1      88.047  38.269  28.850  1.00  0.00     0.035 C 
BRANCH  15  16
ATOM     16  C   UNL     1      87.148  39.309  29.533  1.00  0.00     0.079 C 
BRANCH  16  17
ATOM     17  C   UNL     1      85.893  38.686  30.089  1.00  0.00     0.130 C 
ATOM     18  O   UNL     1      85.811  37.470  30.174  1.00  0.00    -0.300 OA
ATOM     19  C   UNL     1      84.741  39.530  30.550  1.00  0.00     0.087 C 
ENDBRANCH  16  17
ENDBRANCH  15  16
ENDBRANCH  13  15
ENDBRANCH  11  12
ENDBRANCH   1  11
TORSDOF 9
ENDMDL
MODEL 8
REMARK VINA RESULT:    -5.815      2.600      4.918
REMARK INTER + INTRA:          -9.823
REMARK INTER:                  -8.406
REMARK INTRA:                  -1.417
REMARK UNBOUND:                -0.949
REMARK SMILES CC(=O)CCC=C(C)CCC=C(C)CCC=C(C)C
REMARK SMILES IDX 10 1 11 2 12 3 13 4 14 5 15 6 16 7 18 8 17 9 19 10 9 11 7 12
REMARK SMILES IDX 6 13 8 14 5 15 4 16 2 17 3 18 1 19
REMARK H PARENT
REMARK Flexibility Score: inf
ROOT
ATOM      1  C   UNL     1      84.477  37.332  28.402  1.00  0.00     0.032 C 
ENDROOT
BRANCH   1   2
ATOM      2  C   UNL     1      85.967  37.556  28.310  1.00  0.00    -0.028 C 
ATOM      3  C   UNL     1      86.664  38.433  29.068  1.00  0.00    -0.077 C 
ATOM      4  C   UNL     1      85.983  39.362  30.045  1.00  0.00     0.039 C 
BRANCH   3   5
ATOM      5  C   UNL     1      88.171  38.495  28.922  1.00  0.00     0.034 C 
BRANCH   5   6
ATOM      6  C   UNL     1      88.621  38.212  27.482  1.00  0.00     0.032 C 
BRANCH   6   7
ATOM      7  C   UNL     1      89.079  39.468  26.780  1.00  0.00    -0.028 C 
ATOM      8  C   UNL     1      91.512  38.948  27.074  1.00  0.00     0.039 C 
ATOM      9  C   UNL     1      90.372  39.829  26.625  1.00  0.00    -0.080 C 
ATOM     10  C   UNL     1      90.710  41.125  25.933  1.00  0.00     0.039 C 
ENDBRANCH   6   7
ENDBRANCH   5   6
ENDBRANCH   3   5
ENDBRANCH   1   2
BRANCH   1  11
ATOM     11  C   UNL     1      83.761  37.604  27.070  1.00  0.00     0.034 C 
BRANCH  11  12
ATOM     12  C   UNL     1      84.413  36.869  25.916  1.00  0.00    -0.077 C 
ATOM     13  C   UNL     1      85.130  37.566  25.008  1.00  0.00    -0.028 C 
ATOM     14  C   UNL     1      84.232  35.375  25.798  1.00  0.00     0.039 C 
BRANCH  13  15
ATOM     15  C   UNL     1      85.798  36.928  23.813  1.00  0.00     0.035 C 
BRANCH  15  16
ATOM     16  C   UNL     1      87.269  36.591  24.091  1.00  0.00     0.079 C 
BRANCH  16  17
ATOM     17  C   UNL     1      87.672  35.280  23.463  1.00  0.00     0.130 C 
ATOM     18  O   UNL     1      88.506  35.271  22.570  1.00  0.00    -0.300 OA
ATOM     19  C   UNL     1      87.075  33.981  23.919  1.00  0.00     0.087 C 
ENDBRANCH  16  17
ENDBRANCH  15  16
ENDBRANCH  13  15
ENDBRANCH  11  12
ENDBRANCH   1  11
TORSDOF 9
ENDMDL
MODEL 9
REMARK VINA RESULT:    -5.768      3.473      7.444
REMARK INTER + INTRA:          -9.753
REMARK INTER:                  -8.393
REMARK INTRA:                  -1.359
REMARK UNBOUND:                -0.949
REMARK SMILES CC(=O)CCC=C(C)CCC=C(C)CCC=C(C)C
REMARK SMILES IDX 10 1 11 2 12 3 13 4 14 5 15 6 16 7 18 8 17 9 19 10 9 11 7 12
REMARK SMILES IDX 6 13 8 14 5 15 4 16 2 17 3 18 1 19
REMARK H PARENT
REMARK Flexibility Score: inf
ROOT
ATOM      1  C   UNL     1      88.474  38.599  28.586  1.00  0.00     0.032 C 
ENDROOT
BRANCH   1   2
ATOM      2  C   UNL     1      88.243  38.201  27.148  1.00  0.00    -0.028 C 
ATOM      3  C   UNL     1      88.819  38.799  26.081  1.00  0.00    -0.077 C 
ATOM      4  C   UNL     1      89.704  40.014  26.226  1.00  0.00     0.039 C 
BRANCH   3   5
ATOM      5  C   UNL     1      88.556  38.243  24.696  1.00  0.00     0.034 C 
BRANCH   5   6
ATOM      6  C   UNL     1      87.528  37.102  24.721  1.00  0.00     0.032 C 
BRANCH   6   7
ATOM      7  C   UNL     1      86.214  37.518  24.104  1.00  0.00    -0.028 C 
ATOM      8  C   UNL     1      84.919  37.187  26.223  1.00  0.00     0.039 C 
ATOM      9  C   UNL     1      85.030  37.522  24.756  1.00  0.00    -0.080 C 
ATOM     10  C   UNL     1      83.774  37.926  24.026  1.00  0.00     0.039 C 
ENDBRANCH   6   7
ENDBRANCH   5   6
ENDBRANCH   3   5
ENDBRANCH   1   2
BRANCH   1  11
ATOM     11  C   UNL     1      87.183  39.058  29.281  1.00  0.00     0.034 C 
BRANCH  11  12
ATOM     12  C   UNL     1      86.302  37.887  29.669  1.00  0.00    -0.077 C 
ATOM     13  C   UNL     1      86.826  36.642  29.688  1.00  0.00    -0.028 C 
ATOM     14  C   UNL     1      84.853  38.136  30.010  1.00  0.00     0.039 C 
BRANCH  13  15
ATOM     15  C   UNL     1      86.026  35.411  30.040  1.00  0.00     0.035 C 
BRANCH  15  16
ATOM     16  C   UNL     1      86.308  34.933  31.471  1.00  0.00     0.079 C 
BRANCH  16  17
ATOM     17  C   UNL     1      87.574  34.119  31.551  1.00  0.00     0.130 C 
ATOM     18  O   UNL     1      87.914  33.438  30.595  1.00  0.00    -0.300 OA
ATOM     19  C   UNL     1      88.434  34.133  32.780  1.00  0.00     0.087 C 
ENDBRANCH  16  17
ENDBRANCH  15  16
ENDBRANCH  13  15
ENDBRANCH  11  12
ENDBRANCH   1  11
TORSDOF 9
ENDMDL
