MODEL 1
REMARK VINA RESULT:    -7.157      0.000      0.000
REMARK INTER + INTRA:         -15.308
REMARK INTER:                 -12.386
REMARK INTRA:                  -2.921
REMARK UNBOUND:                -2.921
REMARK SMILES OC[C@@H]1O[C@H](O[C@H]2[C@H](O)[C@H](O)[C@@H](O[C@@H]3[C@H](O)[C@H](O)[C@@H](O)O[C@H]3CO)O[C@@H]2CO)[C@H](O)[C@@H](O)[C@H]1O
REMARK SMILES IDX 7 1 26 2 25 3 12 4 10 5 8 6 6 7 5 8 3 9 33 10 4 11 31 12
REMARK SMILES IDX 29 13 2 14 1 15 34 17 32 19 30 21 27 23 28 24 9 26 11 28
REMARK SMILES IDX 13 30 14 31 22 32 15 33 21 34 17 35 19 36 23 37 24 38 16 40
REMARK SMILES IDX 18 42 20 44
REMARK H PARENT 1 16 34 18 32 20 30 22 28 25 9 27 11 29 24 39 16 41 18 43
REMARK H PARENT 20 45
REMARK Flexibility Score: inf
ROOT
ATOM      1  C   UNL     1     -38.046   6.092 -45.100  1.00  0.00     0.184 C 
ATOM      2  C   UNL     1     -36.529   5.964 -45.341  1.00  0.00     0.178 C 
ATOM      3  O   UNL     1     -35.826   6.671 -44.333  1.00  0.00    -0.341 OA
ATOM      4  C   UNL     1     -35.857   5.962 -43.105  1.00  0.00     0.282 C 
ATOM      5  C   UNL     1     -37.319   5.713 -42.622  1.00  0.00     0.202 C 
ATOM      6  C   UNL     1     -38.392   6.297 -43.589  1.00  0.00     0.180 C 
ENDROOT
BRANCH   1   7
ATOM      7  O   UNL     1     -38.784   5.140 -45.862  1.00  0.00    -0.341 OA
BRANCH   7   8
ATOM      8  C   UNL     1     -38.389   3.774 -45.915  1.00  0.00     0.282 C 
ATOM      9  C   UNL     1     -38.442   1.643 -45.014  1.00  0.00     0.178 C 
ATOM     10  C   UNL     1     -39.313   0.961 -46.100  1.00  0.00     0.177 C 
ATOM     11  O   UNL     1     -38.860   2.989 -44.838  1.00  0.00    -0.341 OA
ATOM     12  C   UNL     1     -39.532   1.883 -47.335  1.00  0.00     0.179 C 
ATOM     13  C   UNL     1     -38.650   3.167 -47.336  1.00  0.00     0.202 C 
BRANCH   9  14
ATOM     14  C   UNL     1     -38.457   0.874 -43.669  1.00  0.00     0.191 C 
BRANCH  14  15
ATOM     15  O   UNL     1     -37.399  -0.040 -43.586  1.00  0.00    -0.394 OA
ATOM     16  H   UNL     1     -36.593   0.491 -43.382  1.00  0.00     0.210 HD
ENDBRANCH  14  15
ENDBRANCH   9  14
BRANCH  10  17
ATOM     17  O   UNL     1     -38.709  -0.252 -46.494  1.00  0.00    -0.387 OA
ATOM     18  H   UNL     1     -37.746  -0.067 -46.691  1.00  0.00     0.211 HD
ENDBRANCH  10  17
BRANCH  12  19
ATOM     19  O   UNL     1     -39.313   1.159 -48.518  1.00  0.00    -0.387 OA
ATOM     20  H   UNL     1     -38.485   0.630 -48.391  1.00  0.00     0.211 HD
ENDBRANCH  12  19
BRANCH  13  21
ATOM     21  O   UNL     1     -39.214   4.149 -48.170  1.00  0.00    -0.385 OA
ATOM     22  H   UNL     1     -38.468   4.734 -48.478  1.00  0.00     0.211 HD
ENDBRANCH  13  21
ENDBRANCH   7   8
ENDBRANCH   1   7
BRANCH   2  23
ATOM     23  C   UNL     1     -36.110   6.528 -46.711  1.00  0.00     0.191 C 
BRANCH  23  24
ATOM     24  O   UNL     1     -36.386   5.590 -47.731  1.00  0.00    -0.394 OA
ATOM     25  H   UNL     1     -36.536   4.727 -47.268  1.00  0.00     0.210 HD
ENDBRANCH  23  24
ENDBRANCH   2  23
BRANCH   6  26
ATOM     26  O   UNL     1     -38.507   7.677 -43.343  1.00  0.00    -0.387 OA
ATOM     27  H   UNL     1     -38.925   8.091 -44.149  1.00  0.00     0.211 HD
ENDBRANCH   6  26
BRANCH   5  28
ATOM     28  O   UNL     1     -37.483   6.251 -41.326  1.00  0.00    -0.385 OA
ATOM     29  H   UNL     1     -38.218   5.746 -40.889  1.00  0.00     0.211 HD
ENDBRANCH   5  28
BRANCH   4  30
ATOM     30  O   UNL     1     -35.138   4.733 -43.245  1.00  0.00    -0.341 OA
BRANCH  30  31
ATOM     31  C   UNL     1     -34.862   4.062 -42.023  1.00  0.00     0.184 C 
ATOM     32  C   UNL     1     -35.553   2.668 -42.097  1.00  0.00     0.178 C 
ATOM     33  C   UNL     1     -33.343   3.874 -41.763  1.00  0.00     0.180 C 
ATOM     34  O   UNL     1     -34.911   1.749 -42.972  1.00  0.00    -0.342 OA
ATOM     35  C   UNL     1     -32.733   2.882 -42.752  1.00  0.00     0.201 C 
ATOM     36  C   UNL     1     -33.523   1.566 -42.718  1.00  0.00     0.279 C 
BRANCH  32  37
ATOM     37  C   UNL     1     -35.952   2.024 -40.744  1.00  0.00     0.191 C 
BRANCH  37  38
ATOM     38  O   UNL     1     -36.308   0.670 -40.866  1.00  0.00    -0.394 OA
ATOM     39  H   UNL     1     -35.941   0.349 -41.728  1.00  0.00     0.210 HD
ENDBRANCH  37  38
ENDBRANCH  32  37
BRANCH  33  40
ATOM     40  O   UNL     1     -32.666   5.107 -41.823  1.00  0.00    -0.387 OA
ATOM     41  H   UNL     1     -32.479   5.376 -40.885  1.00  0.00     0.211 HD
ENDBRANCH  33  40
BRANCH  35  42
ATOM     42  O   UNL     1     -32.757   3.422 -44.048  1.00  0.00    -0.385 OA
ATOM     43  H   UNL     1     -31.823   3.662 -44.291  1.00  0.00     0.211 HD
ENDBRANCH  35  42
BRANCH  36  44
ATOM     44  O   UNL     1     -33.305   0.899 -41.506  1.00  0.00    -0.366 OA
ATOM     45  H   UNL     1     -34.186   0.845 -41.055  1.00  0.00     0.213 HD
ENDBRANCH  36  44
ENDBRANCH  30  31
ENDBRANCH   4  30
TORSDOF 18
ENDMDL
MODEL 2
REMARK VINA RESULT:    -7.021      1.086      1.997
REMARK INTER + INTRA:         -15.073
REMARK INTER:                 -12.842
REMARK INTRA:                  -2.231
REMARK UNBOUND:                -2.921
REMARK SMILES OC[C@@H]1O[C@H](O[C@H]2[C@H](O)[C@H](O)[C@@H](O[C@@H]3[C@H](O)[C@H](O)[C@@H](O)O[C@H]3CO)O[C@@H]2CO)[C@H](O)[C@@H](O)[C@H]1O
REMARK SMILES IDX 7 1 26 2 25 3 12 4 10 5 8 6 6 7 5 8 3 9 33 10 4 11 31 12
REMARK SMILES IDX 29 13 2 14 1 15 34 17 32 19 30 21 27 23 28 24 9 26 11 28
REMARK SMILES IDX 13 30 14 31 22 32 15 33 21 34 17 35 19 36 23 37 24 38 16 40
REMARK SMILES IDX 18 42 20 44
REMARK H PARENT 1 16 34 18 32 20 30 22 28 25 9 27 11 29 24 39 16 41 18 43
REMARK H PARENT 20 45
REMARK Flexibility Score: inf
ROOT
ATOM      1  C   UNL     1     -38.262   5.650 -45.034  1.00  0.00     0.184 C 
ATOM      2  C   UNL     1     -36.762   5.324 -45.177  1.00  0.00     0.178 C 
ATOM      3  O   UNL     1     -36.015   6.107 -44.261  1.00  0.00    -0.341 OA
ATOM      4  C   UNL     1     -36.164   5.616 -42.939  1.00  0.00     0.282 C 
ATOM      5  C   UNL     1     -37.659   5.606 -42.494  1.00  0.00     0.202 C 
ATOM      6  C   UNL     1     -38.629   6.135 -43.593  1.00  0.00     0.180 C 
ENDROOT
BRANCH   1   7
ATOM      7  O   UNL     1     -39.078   4.670 -45.669  1.00  0.00    -0.341 OA
BRANCH   7   8
ATOM      8  C   UNL     1     -38.623   3.332 -45.844  1.00  0.00     0.282 C 
ATOM      9  C   UNL     1     -38.633   1.116 -45.179  1.00  0.00     0.178 C 
ATOM     10  C   UNL     1     -39.414   0.524 -46.381  1.00  0.00     0.177 C 
ATOM     11  O   UNL     1     -39.118   2.419 -44.886  1.00  0.00    -0.341 OA
ATOM     12  C   UNL     1     -39.604   1.567 -47.522  1.00  0.00     0.179 C 
ATOM     13  C   UNL     1     -38.780   2.875 -47.334  1.00  0.00     0.202 C 
BRANCH   9  14
ATOM     14  C   UNL     1     -38.689   0.206 -43.927  1.00  0.00     0.191 C 
BRANCH  14  15
ATOM     15  O   UNL     1     -37.832  -0.896 -44.052  1.00  0.00    -0.394 OA
ATOM     16  H   UNL     1     -38.041  -1.309 -44.922  1.00  0.00     0.210 HD
ENDBRANCH  14  15
ENDBRANCH   9  14
BRANCH  10  17
ATOM     17  O   UNL     1     -38.738  -0.616 -46.866  1.00  0.00    -0.387 OA
ATOM     18  H   UNL     1     -38.968  -0.722 -47.833  1.00  0.00     0.211 HD
ENDBRANCH  10  17
BRANCH  12  19
ATOM     19  O   UNL     1     -39.290   0.984 -48.760  1.00  0.00    -0.387 OA
ATOM     20  H   UNL     1     -40.129   0.940 -49.286  1.00  0.00     0.211 HD
ENDBRANCH  12  19
BRANCH  13  21
ATOM     21  O   UNL     1     -39.339   3.920 -48.091  1.00  0.00    -0.385 OA
ATOM     22  H   UNL     1     -40.322   3.907 -47.926  1.00  0.00     0.211 HD
ENDBRANCH  13  21
ENDBRANCH   7   8
ENDBRANCH   1   7
BRANCH   2  23
ATOM     23  C   UNL     1     -36.240   5.608 -46.597  1.00  0.00     0.191 C 
BRANCH  23  24
ATOM     24  O   UNL     1     -37.287   6.087 -47.415  1.00  0.00    -0.394 OA
ATOM     25  H   UNL     1     -37.516   5.340 -48.024  1.00  0.00     0.210 HD
ENDBRANCH  23  24
ENDBRANCH   2  23
BRANCH   6  26
ATOM     26  O   UNL     1     -38.595   7.540 -43.576  1.00  0.00    -0.387 OA
ATOM     27  H   UNL     1     -37.645   7.819 -43.699  1.00  0.00     0.211 HD
ENDBRANCH   6  26
BRANCH   5  28
ATOM     28  O   UNL     1     -37.801   6.363 -41.310  1.00  0.00    -0.385 OA
ATOM     29  H   UNL     1     -38.186   5.760 -40.620  1.00  0.00     0.211 HD
ENDBRANCH   5  28
BRANCH   4  30
ATOM     30  O   UNL     1     -35.584   4.312 -42.846  1.00  0.00    -0.341 OA
BRANCH  30  31
ATOM     31  C   UNL     1     -34.172   4.274 -43.002  1.00  0.00     0.184 C 
ATOM     32  C   UNL     1     -33.553   4.196 -41.575  1.00  0.00     0.178 C 
ATOM     33  C   UNL     1     -33.686   3.063 -43.844  1.00  0.00     0.180 C 
ATOM     34  O   UNL     1     -33.712   2.932 -40.943  1.00  0.00    -0.342 OA
ATOM     35  C   UNL     1     -33.903   1.749 -43.097  1.00  0.00     0.201 C 
ATOM     36  C   UNL     1     -33.248   1.828 -41.711  1.00  0.00     0.279 C 
BRANCH  32  37
ATOM     37  C   UNL     1     -32.121   4.769 -41.414  1.00  0.00     0.191 C 
BRANCH  37  38
ATOM     38  O   UNL     1     -32.093   6.174 -41.393  1.00  0.00    -0.394 OA
ATOM     39  H   UNL     1     -33.029   6.482 -41.288  1.00  0.00     0.210 HD
ENDBRANCH  37  38
ENDBRANCH  32  37
BRANCH  33  40
ATOM     40  O   UNL     1     -34.332   3.030 -45.095  1.00  0.00    -0.387 OA
ATOM     41  H   UNL     1     -35.175   2.520 -44.969  1.00  0.00     0.211 HD
ENDBRANCH  33  40
BRANCH  35  42
ATOM     42  O   UNL     1     -35.278   1.496 -42.962  1.00  0.00    -0.385 OA
ATOM     43  H   UNL     1     -35.710   2.336 -42.651  1.00  0.00     0.211 HD
ENDBRANCH  35  42
BRANCH  36  44
ATOM     44  O   UNL     1     -31.852   1.835 -41.834  1.00  0.00    -0.366 OA
ATOM     45  H   UNL     1     -31.520   2.517 -41.196  1.00  0.00     0.213 HD
ENDBRANCH  36  44
ENDBRANCH  30  31
ENDBRANCH   4  30
TORSDOF 18
ENDMDL
MODEL 3
REMARK VINA RESULT:    -6.639     13.874     16.028
REMARK INTER + INTRA:         -14.412
REMARK INTER:                 -12.009
REMARK INTRA:                  -2.403
REMARK UNBOUND:                -2.921
REMARK SMILES OC[C@@H]1O[C@H](O[C@H]2[C@H](O)[C@H](O)[C@@H](O[C@@H]3[C@H](O)[C@H](O)[C@@H](O)O[C@H]3CO)O[C@@H]2CO)[C@H](O)[C@@H](O)[C@H]1O
REMARK SMILES IDX 7 1 26 2 25 3 12 4 10 5 8 6 6 7 5 8 3 9 33 10 4 11 31 12
REMARK SMILES IDX 29 13 2 14 1 15 34 17 32 19 30 21 27 23 28 24 9 26 11 28
REMARK SMILES IDX 13 30 14 31 22 32 15 33 21 34 17 35 19 36 23 37 24 38 16 40
REMARK SMILES IDX 18 42 20 44
REMARK H PARENT 1 16 34 18 32 20 30 22 28 25 9 27 11 29 24 39 16 41 18 43
REMARK H PARENT 20 45
REMARK Flexibility Score: inf
ROOT
ATOM      1  C   UNL     1     -23.717   3.267 -36.317  1.00  0.00     0.184 C 
ATOM      2  C   UNL     1     -24.391   4.635 -36.542  1.00  0.00     0.178 C 
ATOM      3  O   UNL     1     -23.800   5.602 -35.690  1.00  0.00    -0.341 OA
ATOM      4  C   UNL     1     -22.515   5.973 -36.163  1.00  0.00     0.282 C 
ATOM      5  C   UNL     1     -21.564   4.742 -36.267  1.00  0.00     0.202 C 
ATOM      6  C   UNL     1     -22.238   3.407 -35.829  1.00  0.00     0.180 C 
ENDROOT
BRANCH   1   7
ATOM      7  O   UNL     1     -24.023   2.350 -37.364  1.00  0.00    -0.341 OA
BRANCH   7   8
ATOM      8  C   UNL     1     -23.128   1.297 -37.708  1.00  0.00     0.282 C 
ATOM      9  C   UNL     1     -22.569  -0.948 -37.651  1.00  0.00     0.178 C 
ATOM     10  C   UNL     1     -22.808  -1.276 -39.147  1.00  0.00     0.177 C 
ATOM     11  O   UNL     1     -23.508   0.027 -37.218  1.00  0.00    -0.341 OA
ATOM     12  C   UNL     1     -23.054   0.007 -39.994  1.00  0.00     0.179 C 
ATOM     13  C   UNL     1     -22.772   1.336 -39.232  1.00  0.00     0.202 C 
BRANCH   9  14
ATOM     14  C   UNL     1     -22.618  -2.207 -36.750  1.00  0.00     0.191 C 
BRANCH  14  15
ATOM     15  O   UNL     1     -22.902  -3.361 -37.492  1.00  0.00    -0.394 OA
ATOM     16  H   UNL     1     -23.882  -3.463 -37.476  1.00  0.00     0.210 HD
ENDBRANCH  14  15
ENDBRANCH   9  14
BRANCH  10  17
ATOM     17  O   UNL     1     -21.702  -1.993 -39.654  1.00  0.00    -0.387 OA
ATOM     18  H   UNL     1     -21.903  -2.969 -39.568  1.00  0.00     0.211 HD
ENDBRANCH  10  17
BRANCH  12  19
ATOM     19  O   UNL     1     -22.285  -0.039 -41.167  1.00  0.00    -0.387 OA
ATOM     20  H   UNL     1     -21.533   0.596 -41.052  1.00  0.00     0.211 HD
ENDBRANCH  12  19
BRANCH  13  21
ATOM     21  O   UNL     1     -23.447   2.407 -39.846  1.00  0.00    -0.385 OA
ATOM     22  H   UNL     1     -23.073   3.247 -39.461  1.00  0.00     0.211 HD
ENDBRANCH  13  21
ENDBRANCH   7   8
ENDBRANCH   1   7
BRANCH   2  23
ATOM     23  C   UNL     1     -25.902   4.591 -36.251  1.00  0.00     0.191 C 
BRANCH  23  24
ATOM     24  O   UNL     1     -26.278   3.301 -35.815  1.00  0.00    -0.394 OA
ATOM     25  H   UNL     1     -27.198   3.394 -35.460  1.00  0.00     0.210 HD
ENDBRANCH  23  24
ENDBRANCH   2  23
BRANCH   6  26
ATOM     26  O   UNL     1     -22.226   3.343 -34.425  1.00  0.00    -0.387 OA
ATOM     27  H   UNL     1     -22.966   2.735 -34.146  1.00  0.00     0.211 HD
ENDBRANCH   6  26
BRANCH   5  28
ATOM     28  O   UNL     1     -20.403   4.979 -35.498  1.00  0.00    -0.385 OA
ATOM     29  H   UNL     1     -20.693   5.098 -34.556  1.00  0.00     0.211 HD
ENDBRANCH   5  28
BRANCH   4  30
ATOM     30  O   UNL     1     -22.644   6.640 -37.421  1.00  0.00    -0.341 OA
BRANCH  30  31
ATOM     31  C   UNL     1     -21.557   6.442 -38.315  1.00  0.00     0.184 C 
ATOM     32  C   UNL     1     -22.096   5.616 -39.521  1.00  0.00     0.178 C 
ATOM     33  C   UNL     1     -20.945   7.772 -38.831  1.00  0.00     0.180 C 
ATOM     34  O   UNL     1     -22.937   6.354 -40.398  1.00  0.00    -0.342 OA
ATOM     35  C   UNL     1     -21.916   8.504 -39.756  1.00  0.00     0.201 C 
ATOM     36  C   UNL     1     -22.364   7.563 -40.883  1.00  0.00     0.279 C 
BRANCH  32  37
ATOM     37  C   UNL     1     -21.060   4.745 -40.277  1.00  0.00     0.191 C 
BRANCH  37  38
ATOM     38  O   UNL     1     -21.571   4.195 -41.465  1.00  0.00    -0.394 OA
ATOM     39  H   UNL     1     -22.169   4.874 -41.867  1.00  0.00     0.210 HD
ENDBRANCH  37  38
ENDBRANCH  32  37
BRANCH  33  40
ATOM     40  O   UNL     1     -20.569   8.602 -37.758  1.00  0.00    -0.387 OA
ATOM     41  H   UNL     1     -19.778   9.121 -38.061  1.00  0.00     0.211 HD
ENDBRANCH  33  40
BRANCH  35  42
ATOM     42  O   UNL     1     -23.033   8.944 -39.027  1.00  0.00    -0.385 OA
ATOM     43  H   UNL     1     -23.344   8.184 -38.466  1.00  0.00     0.211 HD
ENDBRANCH  35  42
BRANCH  36  44
ATOM     44  O   UNL     1     -21.300   7.314 -41.760  1.00  0.00    -0.366 OA
ATOM     45  H   UNL     1     -21.366   7.993 -42.479  1.00  0.00     0.213 HD
ENDBRANCH  36  44
ENDBRANCH  30  31
ENDBRANCH   4  30
TORSDOF 18
ENDMDL
MODEL 4
REMARK VINA RESULT:    -6.615     13.541     16.011
REMARK INTER + INTRA:         -14.370
REMARK INTER:                 -12.314
REMARK INTRA:                  -2.056
REMARK UNBOUND:                -2.921
REMARK SMILES OC[C@@H]1O[C@H](O[C@H]2[C@H](O)[C@H](O)[C@@H](O[C@@H]3[C@H](O)[C@H](O)[C@@H](O)O[C@H]3CO)O[C@@H]2CO)[C@H](O)[C@@H](O)[C@H]1O
REMARK SMILES IDX 7 1 26 2 25 3 12 4 10 5 8 6 6 7 5 8 3 9 33 10 4 11 31 12
REMARK SMILES IDX 29 13 2 14 1 15 34 17 32 19 30 21 27 23 28 24 9 26 11 28
REMARK SMILES IDX 13 30 14 31 22 32 15 33 21 34 17 35 19 36 23 37 24 38 16 40
REMARK SMILES IDX 18 42 20 44
REMARK H PARENT 1 16 34 18 32 20 30 22 28 25 9 27 11 29 24 39 16 41 18 43
REMARK H PARENT 20 45
REMARK Flexibility Score: inf
ROOT
ATOM      1  C   UNL     1     -22.526   3.031 -40.601  1.00  0.00     0.184 C 
ATOM      2  C   UNL     1     -21.250   3.865 -40.365  1.00  0.00     0.178 C 
ATOM      3  O   UNL     1     -21.333   5.078 -41.094  1.00  0.00    -0.341 OA
ATOM      4  C   UNL     1     -22.235   5.979 -40.473  1.00  0.00     0.282 C 
ATOM      5  C   UNL     1     -23.663   5.367 -40.345  1.00  0.00     0.202 C 
ATOM      6  C   UNL     1     -23.766   3.925 -40.927  1.00  0.00     0.180 C 
ENDROOT
BRANCH   1   7
ATOM      7  O   UNL     1     -22.653   1.981 -39.646  1.00  0.00    -0.341 OA
BRANCH   7   8
ATOM      8  C   UNL     1     -22.775   0.623 -40.055  1.00  0.00     0.282 C 
ATOM      9  C   UNL     1     -21.889  -1.229 -41.122  1.00  0.00     0.178 C 
ATOM     10  C   UNL     1     -21.628  -2.106 -39.870  1.00  0.00     0.177 C 
ATOM     11  O   UNL     1     -21.677   0.139 -40.802  1.00  0.00    -0.341 OA
ATOM     12  C   UNL     1     -22.262  -1.492 -38.587  1.00  0.00     0.179 C 
ATOM     13  C   UNL     1     -23.212  -0.288 -38.859  1.00  0.00     0.202 C 
BRANCH   9  14
ATOM     14  C   UNL     1     -21.029  -1.657 -42.337  1.00  0.00     0.191 C 
BRANCH  14  15
ATOM     15  O   UNL     1     -20.093  -2.640 -41.986  1.00  0.00    -0.394 OA
ATOM     16  H   UNL     1     -20.476  -3.120 -41.215  1.00  0.00     0.210 HD
ENDBRANCH  14  15
ENDBRANCH   9  14
BRANCH  10  17
ATOM     17  O   UNL     1     -22.132  -3.405 -40.092  1.00  0.00    -0.387 OA
ATOM     18  H   UNL     1     -21.698  -3.767 -40.917  1.00  0.00     0.211 HD
ENDBRANCH  10  17
BRANCH  12  19
ATOM     19  O   UNL     1     -22.949  -2.485 -37.871  1.00  0.00    -0.387 OA
ATOM     20  H   UNL     1     -23.286  -3.143 -38.530  1.00  0.00     0.211 HD
ENDBRANCH  12  19
BRANCH  13  21
ATOM     21  O   UNL     1     -23.356   0.495 -37.699  1.00  0.00    -0.385 OA
ATOM     22  H   UNL     1     -22.798   1.311 -37.827  1.00  0.00     0.211 HD
ENDBRANCH  13  21
ENDBRANCH   7   8
ENDBRANCH   1   7
BRANCH   2  23
ATOM     23  C   UNL     1     -19.979   3.118 -40.810  1.00  0.00     0.191 C 
BRANCH  23  24
ATOM     24  O   UNL     1     -20.139   2.621 -42.123  1.00  0.00    -0.394 OA
ATOM     25  H   UNL     1     -19.747   1.712 -42.116  1.00  0.00     0.210 HD
ENDBRANCH  23  24
ENDBRANCH   2  23
BRANCH   6  26
ATOM     26  O   UNL     1     -23.891   4.018 -42.325  1.00  0.00    -0.387 OA
ATOM     27  H   UNL     1     -23.087   4.499 -42.667  1.00  0.00     0.211 HD
ENDBRANCH   6  26
BRANCH   5  28
ATOM     28  O   UNL     1     -24.597   6.218 -40.978  1.00  0.00    -0.385 OA
ATOM     29  H   UNL     1     -24.482   6.104 -41.957  1.00  0.00     0.211 HD
ENDBRANCH   5  28
BRANCH   4  30
ATOM     30  O   UNL     1     -21.719   6.366 -39.196  1.00  0.00    -0.341 OA
BRANCH  30  31
ATOM     31  C   UNL     1     -22.694   6.484 -38.169  1.00  0.00     0.184 C 
ATOM     32  C   UNL     1     -22.320   5.456 -37.060  1.00  0.00     0.178 C 
ATOM     33  C   UNL     1     -22.762   7.908 -37.554  1.00  0.00     0.180 C 
ATOM     34  O   UNL     1     -21.183   5.824 -36.290  1.00  0.00    -0.342 OA
ATOM     35  C   UNL     1     -21.499   8.224 -36.755  1.00  0.00     0.201 C 
ATOM     36  C   UNL     1     -21.258   7.123 -35.713  1.00  0.00     0.279 C 
BRANCH  32  37
ATOM     37  C   UNL     1     -23.489   4.930 -36.186  1.00  0.00     0.191 C 
BRANCH  37  38
ATOM     38  O   UNL     1     -23.049   4.246 -35.040  1.00  0.00    -0.394 OA
ATOM     39  H   UNL     1     -22.887   3.306 -35.306  1.00  0.00     0.210 HD
ENDBRANCH  37  38
ENDBRANCH  32  37
BRANCH  33  40
ATOM     40  O   UNL     1     -22.966   8.878 -38.554  1.00  0.00    -0.387 OA
ATOM     41  H   UNL     1     -23.623   9.529 -38.192  1.00  0.00     0.211 HD
ENDBRANCH  33  40
BRANCH  35  42
ATOM     42  O   UNL     1     -20.395   8.316 -37.619  1.00  0.00    -0.385 OA
ATOM     43  H   UNL     1     -19.885   9.133 -37.370  1.00  0.00     0.211 HD
ENDBRANCH  35  42
BRANCH  36  44
ATOM     44  O   UNL     1     -22.230   7.185 -34.707  1.00  0.00    -0.366 OA
ATOM     45  H   UNL     1     -22.611   6.273 -34.630  1.00  0.00     0.213 HD
ENDBRANCH  36  44
ENDBRANCH  30  31
ENDBRANCH   4  30
TORSDOF 18
ENDMDL
MODEL 5
REMARK VINA RESULT:    -6.356      1.443      5.759
REMARK INTER + INTRA:         -13.922
REMARK INTER:                 -11.292
REMARK INTRA:                  -2.631
REMARK UNBOUND:                -2.921
REMARK SMILES OC[C@@H]1O[C@H](O[C@H]2[C@H](O)[C@H](O)[C@@H](O[C@@H]3[C@H](O)[C@H](O)[C@@H](O)O[C@H]3CO)O[C@@H]2CO)[C@H](O)[C@@H](O)[C@H]1O
REMARK SMILES IDX 7 1 26 2 25 3 12 4 10 5 8 6 6 7 5 8 3 9 33 10 4 11 31 12
REMARK SMILES IDX 29 13 2 14 1 15 34 17 32 19 30 21 27 23 28 24 9 26 11 28
REMARK SMILES IDX 13 30 14 31 22 32 15 33 21 34 17 35 19 36 23 37 24 38 16 40
REMARK SMILES IDX 18 42 20 44
REMARK H PARENT 1 16 34 18 32 20 30 22 28 25 9 27 11 29 24 39 16 41 18 43
REMARK H PARENT 20 45
REMARK Flexibility Score: inf
ROOT
ATOM      1  C   UNL     1     -36.666   6.799 -43.909  1.00  0.00     0.184 C 
ATOM      2  C   UNL     1     -38.090   6.210 -43.949  1.00  0.00     0.178 C 
ATOM      3  O   UNL     1     -38.607   6.307 -45.266  1.00  0.00    -0.341 OA
ATOM      4  C   UNL     1     -38.007   5.342 -46.115  1.00  0.00     0.282 C 
ATOM      5  C   UNL     1     -36.457   5.507 -46.167  1.00  0.00     0.202 C 
ATOM      6  C   UNL     1     -35.936   6.682 -45.286  1.00  0.00     0.180 C 
ENDROOT
BRANCH   1   7
ATOM      7  O   UNL     1     -35.975   6.427 -42.719  1.00  0.00    -0.341 OA
BRANCH   7   8
ATOM      8  C   UNL     1     -35.492   5.102 -42.530  1.00  0.00     0.282 C 
ATOM      9  C   UNL     1     -33.718   3.646 -42.227  1.00  0.00     0.178 C 
ATOM     10  C   UNL     1     -33.986   3.273 -40.746  1.00  0.00     0.177 C 
ATOM     11  O   UNL     1     -34.084   5.001 -42.453  1.00  0.00    -0.341 OA
ATOM     12  C   UNL     1     -35.360   3.809 -40.248  1.00  0.00     0.179 C 
ATOM     13  C   UNL     1     -36.268   4.378 -41.378  1.00  0.00     0.202 C 
BRANCH   9  14
ATOM     14  C   UNL     1     -32.252   3.387 -42.651  1.00  0.00     0.191 C 
BRANCH  14  15
ATOM     15  O   UNL     1     -32.011   2.023 -42.867  1.00  0.00    -0.394 OA
ATOM     16  H   UNL     1     -32.261   1.565 -42.031  1.00  0.00     0.210 HD
ENDBRANCH  14  15
ENDBRANCH   9  14
BRANCH  10  17
ATOM     17  O   UNL     1     -33.922   1.871 -40.596  1.00  0.00    -0.387 OA
ATOM     18  H   UNL     1     -32.959   1.603 -40.607  1.00  0.00     0.211 HD
ENDBRANCH  10  17
BRANCH  12  19
ATOM     19  O   UNL     1     -36.045   2.799 -39.555  1.00  0.00    -0.387 OA
ATOM     20  H   UNL     1     -36.844   3.214 -39.142  1.00  0.00     0.211 HD
ENDBRANCH  12  19
BRANCH  13  21
ATOM     21  O   UNL     1     -37.232   5.251 -40.840  1.00  0.00    -0.385 OA
ATOM     22  H   UNL     1     -37.872   4.693 -40.318  1.00  0.00     0.211 HD
ENDBRANCH  13  21
ENDBRANCH   7   8
ENDBRANCH   1   7
BRANCH   2  23
ATOM     23  C   UNL     1     -39.049   6.947 -42.996  1.00  0.00     0.191 C 
BRANCH  23  24
ATOM     24  O   UNL     1     -38.337   7.886 -42.217  1.00  0.00    -0.394 OA
ATOM     25  H   UNL     1     -38.552   8.773 -42.603  1.00  0.00     0.210 HD
ENDBRANCH  23  24
ENDBRANCH   2  23
BRANCH   6  26
ATOM     26  O   UNL     1     -36.124   7.884 -45.992  1.00  0.00    -0.387 OA
ATOM     27  H   UNL     1     -36.375   7.646 -46.928  1.00  0.00     0.211 HD
ENDBRANCH   6  26
BRANCH   5  28
ATOM     28  O   UNL     1     -36.048   5.682 -47.508  1.00  0.00    -0.385 OA
ATOM     29  H   UNL     1     -35.231   5.134 -47.640  1.00  0.00     0.211 HD
ENDBRANCH   5  28
BRANCH   4  30
ATOM     30  O   UNL     1     -38.377   4.030 -45.684  1.00  0.00    -0.341 OA
BRANCH  30  31
ATOM     31  C   UNL     1     -37.428   3.014 -45.982  1.00  0.00     0.184 C 
ATOM     32  C   UNL     1     -36.817   2.542 -44.630  1.00  0.00     0.178 C 
ATOM     33  C   UNL     1     -38.051   1.799 -46.722  1.00  0.00     0.180 C 
ATOM     34  O   UNL     1     -37.700   1.757 -43.839  1.00  0.00    -0.342 OA
ATOM     35  C   UNL     1     -38.991   1.019 -45.805  1.00  0.00     0.201 C 
ATOM     36  C   UNL     1     -38.253   0.633 -44.515  1.00  0.00     0.279 C 
BRANCH  32  37
ATOM     37  C   UNL     1     -35.384   1.954 -44.690  1.00  0.00     0.191 C 
BRANCH  37  38
ATOM     38  O   UNL     1     -35.091   1.114 -43.601  1.00  0.00    -0.394 OA
ATOM     39  H   UNL     1     -34.292   0.583 -43.849  1.00  0.00     0.210 HD
ENDBRANCH  37  38
ENDBRANCH  32  37
BRANCH  33  40
ATOM     40  O   UNL     1     -38.729   2.212 -47.885  1.00  0.00    -0.387 OA
ATOM     41  H   UNL     1     -39.700   2.123 -47.696  1.00  0.00     0.211 HD
ENDBRANCH  33  40
BRANCH  35  42
ATOM     42  O   UNL     1     -40.118   1.800 -45.497  1.00  0.00    -0.385 OA
ATOM     43  H   UNL     1     -40.925   1.272 -45.738  1.00  0.00     0.211 HD
ENDBRANCH  35  42
BRANCH  36  44
ATOM     44  O   UNL     1     -37.280  -0.337 -44.785  1.00  0.00    -0.366 OA
ATOM     45  H   UNL     1     -36.406   0.129 -44.757  1.00  0.00     0.213 HD
ENDBRANCH  36  44
ENDBRANCH  30  31
ENDBRANCH   4  30
TORSDOF 18
ENDMDL
MODEL 6
REMARK VINA RESULT:    -6.337     13.291     15.962
REMARK INTER + INTRA:         -13.889
REMARK INTER:                 -11.122
REMARK INTRA:                  -2.767
REMARK UNBOUND:                -2.921
REMARK SMILES OC[C@@H]1O[C@H](O[C@H]2[C@H](O)[C@H](O)[C@@H](O[C@@H]3[C@H](O)[C@H](O)[C@@H](O)O[C@H]3CO)O[C@@H]2CO)[C@H](O)[C@@H](O)[C@H]1O
REMARK SMILES IDX 7 1 26 2 25 3 12 4 10 5 8 6 6 7 5 8 3 9 33 10 4 11 31 12
REMARK SMILES IDX 29 13 2 14 1 15 34 17 32 19 30 21 27 23 28 24 9 26 11 28
REMARK SMILES IDX 13 30 14 31 22 32 15 33 21 34 17 35 19 36 23 37 24 38 16 40
REMARK SMILES IDX 18 42 20 44
REMARK H PARENT 1 16 34 18 32 20 30 22 28 25 9 27 11 29 24 39 16 41 18 43
REMARK H PARENT 20 45
REMARK Flexibility Score: inf
ROOT
ATOM      1  C   UNL     1     -23.076   2.680 -35.692  1.00  0.00     0.184 C 
ATOM      2  C   UNL     1     -23.880   3.642 -36.589  1.00  0.00     0.178 C 
ATOM      3  O   UNL     1     -23.483   4.978 -36.330  1.00  0.00    -0.341 OA
ATOM      4  C   UNL     1     -22.213   5.247 -36.900  1.00  0.00     0.282 C 
ATOM      5  C   UNL     1     -21.120   4.279 -36.350  1.00  0.00     0.202 C 
ATOM      6  C   UNL     1     -21.673   3.257 -35.312  1.00  0.00     0.180 C 
ENDROOT
BRANCH   1   7
ATOM      7  O   UNL     1     -23.179   1.331 -36.139  1.00  0.00    -0.341 OA
BRANCH   7   8
ATOM      8  C   UNL     1     -23.261   1.018 -37.525  1.00  0.00     0.282 C 
ATOM      9  C   UNL     1     -22.424   1.225 -39.673  1.00  0.00     0.178 C 
ATOM     10  C   UNL     1     -21.886  -0.219 -39.844  1.00  0.00     0.177 C 
ATOM     11  O   UNL     1     -22.270   1.637 -38.321  1.00  0.00    -0.341 OA
ATOM     12  C   UNL     1     -22.340  -1.152 -38.683  1.00  0.00     0.179 C 
ATOM     13  C   UNL     1     -23.415  -0.525 -37.746  1.00  0.00     0.202 C 
BRANCH   9  14
ATOM     14  C   UNL     1     -21.751   2.229 -40.641  1.00  0.00     0.191 C 
BRANCH  14  15
ATOM     15  O   UNL     1     -22.442   2.316 -41.857  1.00  0.00    -0.394 OA
ATOM     16  H   UNL     1     -22.763   1.405 -42.055  1.00  0.00     0.210 HD
ENDBRANCH  14  15
ENDBRANCH   9  14
BRANCH  10  17
ATOM     17  O   UNL     1     -22.316  -0.736 -41.085  1.00  0.00    -0.387 OA
ATOM     18  H   UNL     1     -21.855  -0.223 -41.809  1.00  0.00     0.211 HD
ENDBRANCH  10  17
BRANCH  12  19
ATOM     19  O   UNL     1     -22.815  -2.366 -39.202  1.00  0.00    -0.387 OA
ATOM     20  H   UNL     1     -23.797  -2.379 -39.069  1.00  0.00     0.211 HD
ENDBRANCH  12  19
BRANCH  13  21
ATOM     21  O   UNL     1     -23.422  -1.180 -36.501  1.00  0.00    -0.385 OA
ATOM     22  H   UNL     1     -22.516  -1.575 -36.373  1.00  0.00     0.211 HD
ENDBRANCH  13  21
ENDBRANCH   7   8
ENDBRANCH   1   7
BRANCH   2  23
ATOM     23  C   UNL     1     -25.397   3.530 -36.346  1.00  0.00     0.191 C 
BRANCH  23  24
ATOM     24  O   UNL     1     -26.104   4.257 -37.329  1.00  0.00    -0.394 OA
ATOM     25  H   UNL     1     -26.495   3.580 -37.935  1.00  0.00     0.210 HD
ENDBRANCH  23  24
ENDBRANCH   2  23
BRANCH   6  26
ATOM     26  O   UNL     1     -21.781   3.901 -34.067  1.00  0.00    -0.387 OA
ATOM     27  H   UNL     1     -21.102   3.495 -33.459  1.00  0.00     0.211 HD
ENDBRANCH   6  26
BRANCH   5  28
ATOM     28  O   UNL     1     -20.069   5.032 -35.783  1.00  0.00    -0.385 OA
ATOM     29  H   UNL     1     -19.661   5.566 -36.514  1.00  0.00     0.211 HD
ENDBRANCH   5  28
BRANCH   4  30
ATOM     30  O   UNL     1     -22.303   5.173 -38.325  1.00  0.00    -0.341 OA
BRANCH  30  31
ATOM     31  C   UNL     1     -22.451   6.426 -38.979  1.00  0.00     0.184 C 
ATOM     32  C   UNL     1     -21.632   6.355 -40.302  1.00  0.00     0.178 C 
ATOM     33  C   UNL     1     -23.930   6.772 -39.304  1.00  0.00     0.180 C 
ATOM     34  O   UNL     1     -22.224   5.541 -41.306  1.00  0.00    -0.342 OA
ATOM     35  C   UNL     1     -24.489   5.845 -40.382  1.00  0.00     0.201 C 
ATOM     36  C   UNL     1     -23.573   5.874 -41.614  1.00  0.00     0.279 C 
BRANCH  32  37
ATOM     37  C   UNL     1     -21.104   7.702 -40.859  1.00  0.00     0.191 C 
BRANCH  37  38
ATOM     38  O   UNL     1     -20.582   7.590 -42.159  1.00  0.00    -0.394 OA
ATOM     39  H   UNL     1     -19.638   7.304 -42.070  1.00  0.00     0.210 HD
ENDBRANCH  37  38
ENDBRANCH  32  37
BRANCH  33  40
ATOM     40  O   UNL     1     -24.726   6.713 -38.144  1.00  0.00    -0.387 OA
ATOM     41  H   UNL     1     -24.982   5.762 -38.020  1.00  0.00     0.211 HD
ENDBRANCH  33  40
BRANCH  35  42
ATOM     42  O   UNL     1     -24.583   4.535 -39.885  1.00  0.00    -0.385 OA
ATOM     43  H   UNL     1     -23.815   4.390 -39.270  1.00  0.00     0.211 HD
ENDBRANCH  35  42
BRANCH  36  44
ATOM     44  O   UNL     1     -23.664   7.115 -42.258  1.00  0.00    -0.366 OA
ATOM     45  H   UNL     1     -24.151   6.953 -43.106  1.00  0.00     0.213 HD
ENDBRANCH  36  44
ENDBRANCH  30  31
ENDBRANCH   4  30
TORSDOF 18
ENDMDL
MODEL 7
REMARK VINA RESULT:    -6.290      2.113      6.870
REMARK INTER + INTRA:         -13.807
REMARK INTER:                 -11.625
REMARK INTRA:                  -2.183
REMARK UNBOUND:                -2.921
REMARK SMILES OC[C@@H]1O[C@H](O[C@H]2[C@H](O)[C@H](O)[C@@H](O[C@@H]3[C@H](O)[C@H](O)[C@@H](O)O[C@H]3CO)O[C@@H]2CO)[C@H](O)[C@@H](O)[C@H]1O
REMARK SMILES IDX 7 1 26 2 25 3 12 4 10 5 8 6 6 7 5 8 3 9 33 10 4 11 31 12
REMARK SMILES IDX 29 13 2 14 1 15 34 17 32 19 30 21 27 23 28 24 9 26 11 28
REMARK SMILES IDX 13 30 14 31 22 32 15 33 21 34 17 35 19 36 23 37 24 38 16 40
REMARK SMILES IDX 18 42 20 44
REMARK H PARENT 1 16 34 18 32 20 30 22 28 25 9 27 11 29 24 39 16 41 18 43
REMARK H PARENT 20 45
REMARK Flexibility Score: inf
ROOT
ATOM      1  C   UNL     1     -36.070   1.401 -43.175  1.00  0.00     0.184 C 
ATOM      2  C   UNL     1     -35.403   2.043 -44.407  1.00  0.00     0.178 C 
ATOM      3  O   UNL     1     -36.008   1.546 -45.589  1.00  0.00    -0.341 OA
ATOM      4  C   UNL     1     -37.290   2.122 -45.779  1.00  0.00     0.282 C 
ATOM      5  C   UNL     1     -38.233   1.837 -44.569  1.00  0.00     0.202 C 
ATOM      6  C   UNL     1     -37.554   0.994 -43.449  1.00  0.00     0.180 C 
ENDROOT
BRANCH   1   7
ATOM      7  O   UNL     1     -35.748   2.102 -41.976  1.00  0.00    -0.341 OA
BRANCH   7   8
ATOM      8  C   UNL     1     -36.765   2.552 -41.089  1.00  0.00     0.282 C 
ATOM      9  C   UNL     1     -37.631   2.689 -38.947  1.00  0.00     0.178 C 
ATOM     10  C   UNL     1     -37.384   4.200 -38.701  1.00  0.00     0.177 C 
ATOM     11  O   UNL     1     -36.584   2.154 -39.744  1.00  0.00    -0.341 OA
ATOM     12  C   UNL     1     -36.930   4.934 -39.997  1.00  0.00     0.179 C 
ATOM     13  C   UNL     1     -37.055   4.078 -41.291  1.00  0.00     0.202 C 
BRANCH   9  14
ATOM     14  C   UNL     1     -37.792   1.890 -37.630  1.00  0.00     0.191 C 
BRANCH  14  15
ATOM     15  O   UNL     1     -37.488   2.676 -36.509  1.00  0.00    -0.394 OA
ATOM     16  H   UNL     1     -37.140   2.056 -35.826  1.00  0.00     0.210 HD
ENDBRANCH  14  15
ENDBRANCH   9  14
BRANCH  10  17
ATOM     17  O   UNL     1     -38.557   4.791 -38.187  1.00  0.00    -0.387 OA
ATOM     18  H   UNL     1     -39.213   4.878 -38.937  1.00  0.00     0.211 HD
ENDBRANCH  10  17
BRANCH  12  19
ATOM     19  O   UNL     1     -37.652   6.128 -40.147  1.00  0.00    -0.387 OA
ATOM     20  H   UNL     1     -37.297   6.589 -40.949  1.00  0.00     0.211 HD
ENDBRANCH  12  19
BRANCH  13  21
ATOM     21  O   UNL     1     -36.215   4.586 -42.299  1.00  0.00    -0.385 OA
ATOM     22  H   UNL     1     -35.917   3.810 -42.849  1.00  0.00     0.211 HD
ENDBRANCH  13  21
ENDBRANCH   7   8
ENDBRANCH   1   7
BRANCH   2  23
ATOM     23  C   UNL     1     -33.894   1.742 -44.472  1.00  0.00     0.191 C 
BRANCH  23  24
ATOM     24  O   UNL     1     -33.468   1.121 -43.277  1.00  0.00    -0.394 OA
ATOM     25  H   UNL     1     -32.520   1.381 -43.161  1.00  0.00     0.210 HD
ENDBRANCH  23  24
ENDBRANCH   2  23
BRANCH   6  26
ATOM     26  O   UNL     1     -37.579  -0.358 -43.833  1.00  0.00    -0.387 OA
ATOM     27  H   UNL     1     -37.290  -0.900 -43.046  1.00  0.00     0.211 HD
ENDBRANCH   6  26
BRANCH   5  28
ATOM     28  O   UNL     1     -39.402   1.191 -45.027  1.00  0.00    -0.385 OA
ATOM     29  H   UNL     1     -39.462   0.320 -44.555  1.00  0.00     0.211 HD
ENDBRANCH   5  28
BRANCH   4  30
ATOM     30  O   UNL     1     -37.154   3.526 -46.013  1.00  0.00    -0.341 OA
BRANCH  30  31
ATOM     31  C   UNL     1     -38.341   4.282 -45.816  1.00  0.00     0.184 C 
ATOM     32  C   UNL     1     -37.934   5.595 -45.083  1.00  0.00     0.178 C 
ATOM     33  C   UNL     1     -39.066   4.633 -47.143  1.00  0.00     0.180 C 
ATOM     34  O   UNL     1     -37.245   6.528 -45.906  1.00  0.00    -0.342 OA
ATOM     35  C   UNL     1     -38.254   5.629 -47.969  1.00  0.00     0.201 C 
ATOM     36  C   UNL     1     -37.922   6.860 -47.113  1.00  0.00     0.279 C 
BRANCH  32  37
ATOM     37  C   UNL     1     -39.027   6.263 -44.209  1.00  0.00     0.191 C 
BRANCH  37  38
ATOM     38  O   UNL     1     -38.680   7.561 -43.797  1.00  0.00    -0.394 OA
ATOM     39  H   UNL     1     -38.022   7.468 -43.062  1.00  0.00     0.210 HD
ENDBRANCH  37  38
ENDBRANCH  32  37
BRANCH  33  40
ATOM     40  O   UNL     1     -39.329   3.471 -47.895  1.00  0.00    -0.387 OA
ATOM     41  H   UNL     1     -39.302   2.708 -47.260  1.00  0.00     0.211 HD
ENDBRANCH  33  40
BRANCH  35  42
ATOM     42  O   UNL     1     -37.068   5.025 -48.418  1.00  0.00    -0.385 OA
ATOM     43  H   UNL     1     -36.357   5.721 -48.417  1.00  0.00     0.211 HD
ENDBRANCH  35  42
BRANCH  36  44
ATOM     44  O   UNL     1     -39.082   7.605 -46.865  1.00  0.00    -0.366 OA
ATOM     45  H   UNL     1     -38.793   8.414 -46.369  1.00  0.00     0.213 HD
ENDBRANCH  36  44
ENDBRANCH  30  31
ENDBRANCH   4  30
TORSDOF 18
ENDMDL
MODEL 8
REMARK VINA RESULT:    -6.265      1.954      5.560
REMARK INTER + INTRA:         -13.764
REMARK INTER:                 -10.653
REMARK INTRA:                  -3.111
REMARK UNBOUND:                -2.921
REMARK SMILES OC[C@@H]1O[C@H](O[C@H]2[C@H](O)[C@H](O)[C@@H](O[C@@H]3[C@H](O)[C@H](O)[C@@H](O)O[C@H]3CO)O[C@@H]2CO)[C@H](O)[C@@H](O)[C@H]1O
REMARK SMILES IDX 7 1 26 2 25 3 12 4 10 5 8 6 6 7 5 8 3 9 33 10 4 11 31 12
REMARK SMILES IDX 29 13 2 14 1 15 34 17 32 19 30 21 27 23 28 24 9 26 11 28
REMARK SMILES IDX 13 30 14 31 22 32 15 33 21 34 17 35 19 36 23 37 24 38 16 40
REMARK SMILES IDX 18 42 20 44
REMARK H PARENT 1 16 34 18 32 20 30 22 28 25 9 27 11 29 24 39 16 41 18 43
REMARK H PARENT 20 45
REMARK Flexibility Score: inf
ROOT
ATOM      1  C   UNL     1     -35.859   1.464 -44.128  1.00  0.00     0.184 C 
ATOM      2  C   UNL     1     -37.049   1.262 -43.168  1.00  0.00     0.178 C 
ATOM      3  O   UNL     1     -36.569   1.098 -41.844  1.00  0.00    -0.341 OA
ATOM      4  C   UNL     1     -36.136   2.338 -41.308  1.00  0.00     0.282 C 
ATOM      5  C   UNL     1     -35.011   2.978 -42.178  1.00  0.00     0.202 C 
ATOM      6  C   UNL     1     -34.628   2.115 -43.417  1.00  0.00     0.180 C 
ENDROOT
BRANCH   1   7
ATOM      7  O   UNL     1     -36.282   1.967 -45.393  1.00  0.00    -0.341 OA
BRANCH   7   8
ATOM      8  C   UNL     1     -36.855   3.263 -45.517  1.00  0.00     0.282 C 
ATOM      9  C   UNL     1     -36.664   5.480 -46.156  1.00  0.00     0.178 C 
ATOM     10  C   UNL     1     -37.611   5.441 -47.383  1.00  0.00     0.177 C 
ATOM     11  O   UNL     1     -35.978   4.240 -46.041  1.00  0.00    -0.341 OA
ATOM     12  C   UNL     1     -38.395   4.099 -47.473  1.00  0.00     0.179 C 
ATOM     13  C   UNL     1     -38.257   3.195 -46.212  1.00  0.00     0.202 C 
BRANCH   9  14
ATOM     14  C   UNL     1     -35.668   6.665 -46.210  1.00  0.00     0.191 C 
BRANCH  14  15
ATOM     15  O   UNL     1     -36.308   7.887 -45.966  1.00  0.00    -0.394 OA
ATOM     16  H   UNL     1     -37.041   7.949 -46.623  1.00  0.00     0.210 HD
ENDBRANCH  14  15
ENDBRANCH   9  14
BRANCH  10  17
ATOM     17  O   UNL     1     -38.508   6.529 -47.319  1.00  0.00    -0.387 OA
ATOM     18  H   UNL     1     -39.103   6.392 -46.526  1.00  0.00     0.211 HD
ENDBRANCH  10  17
BRANCH  12  19
ATOM     19  O   UNL     1     -39.752   4.353 -47.727  1.00  0.00    -0.387 OA
ATOM     20  H   UNL     1     -39.794   5.059 -48.421  1.00  0.00     0.211 HD
ENDBRANCH  12  19
BRANCH  13  21
ATOM     21  O   UNL     1     -38.559   1.859 -46.531  1.00  0.00    -0.385 OA
ATOM     22  H   UNL     1     -38.588   1.353 -45.672  1.00  0.00     0.211 HD
ENDBRANCH  13  21
ENDBRANCH   7   8
ENDBRANCH   1   7
BRANCH   2  23
ATOM     23  C   UNL     1     -37.887   0.023 -43.537  1.00  0.00     0.191 C 
BRANCH  23  24
ATOM     24  O   UNL     1     -37.628  -0.361 -44.872  1.00  0.00    -0.394 OA
ATOM     25  H   UNL     1     -38.054   0.331 -45.438  1.00  0.00     0.210 HD
ENDBRANCH  23  24
ENDBRANCH   2  23
BRANCH   6  26
ATOM     26  O   UNL     1     -33.766   1.088 -42.994  1.00  0.00    -0.387 OA
ATOM     27  H   UNL     1     -32.847   1.471 -42.937  1.00  0.00     0.211 HD
ENDBRANCH   6  26
BRANCH   5  28
ATOM     28  O   UNL     1     -33.873   3.213 -41.375  1.00  0.00    -0.385 OA
ATOM     29  H   UNL     1     -33.101   3.337 -41.987  1.00  0.00     0.211 HD
ENDBRANCH   5  28
BRANCH   4  30
ATOM     30  O   UNL     1     -37.255   3.218 -41.175  1.00  0.00    -0.341 OA
BRANCH  30  31
ATOM     31  C   UNL     1     -36.924   4.598 -41.098  1.00  0.00     0.184 C 
ATOM     32  C   UNL     1     -37.719   5.326 -42.222  1.00  0.00     0.178 C 
ATOM     33  C   UNL     1     -37.271   5.231 -39.724  1.00  0.00     0.180 C 
ATOM     34  O   UNL     1     -39.111   5.446 -41.961  1.00  0.00    -0.342 OA
ATOM     35  C   UNL     1     -38.783   5.312 -39.521  1.00  0.00     0.201 C 
ATOM     36  C   UNL     1     -39.425   6.044 -40.708  1.00  0.00     0.279 C 
BRANCH  32  37
ATOM     37  C   UNL     1     -37.097   6.638 -42.766  1.00  0.00     0.191 C 
BRANCH  37  38
ATOM     38  O   UNL     1     -38.000   7.394 -43.534  1.00  0.00    -0.394 OA
ATOM     39  H   UNL     1     -37.489   7.773 -44.294  1.00  0.00     0.210 HD
ENDBRANCH  37  38
ENDBRANCH  32  37
BRANCH  33  40
ATOM     40  O   UNL     1     -36.673   4.511 -38.672  1.00  0.00    -0.387 OA
ATOM     41  H   UNL     1     -35.832   4.986 -38.442  1.00  0.00     0.211 HD
ENDBRANCH  33  40
BRANCH  35  42
ATOM     42  O   UNL     1     -39.322   4.020 -39.407  1.00  0.00    -0.385 OA
ATOM     43  H   UNL     1     -38.915   3.594 -38.607  1.00  0.00     0.211 HD
ENDBRANCH  35  42
BRANCH  36  44
ATOM     44  O   UNL     1     -39.081   7.402 -40.684  1.00  0.00    -0.366 OA
ATOM     45  H   UNL     1     -39.871   7.884 -40.328  1.00  0.00     0.213 HD
ENDBRANCH  36  44
ENDBRANCH  30  31
ENDBRANCH   4  30
TORSDOF 18
ENDMDL
MODEL 9
REMARK VINA RESULT:    -6.263      2.146      6.309
REMARK INTER + INTRA:         -13.761
REMARK INTER:                 -11.163
REMARK INTRA:                  -2.598
REMARK UNBOUND:                -2.921
REMARK SMILES OC[C@@H]1O[C@H](O[C@H]2[C@H](O)[C@H](O)[C@@H](O[C@@H]3[C@H](O)[C@H](O)[C@@H](O)O[C@H]3CO)O[C@@H]2CO)[C@H](O)[C@@H](O)[C@H]1O
REMARK SMILES IDX 7 1 26 2 25 3 12 4 10 5 8 6 6 7 5 8 3 9 33 10 4 11 31 12
REMARK SMILES IDX 29 13 2 14 1 15 34 17 32 19 30 21 27 23 28 24 9 26 11 28
REMARK SMILES IDX 13 30 14 31 22 32 15 33 21 34 17 35 19 36 23 37 24 38 16 40
REMARK SMILES IDX 18 42 20 44
REMARK H PARENT 1 16 34 18 32 20 30 22 28 25 9 27 11 29 24 39 16 41 18 43
REMARK H PARENT 20 45
REMARK Flexibility Score: inf
ROOT
ATOM      1  C   UNL     1     -37.500   3.748 -40.351  1.00  0.00     0.184 C 
ATOM      2  C   UNL     1     -38.548   3.206 -41.344  1.00  0.00     0.178 C 
ATOM      3  O   UNL     1     -39.591   4.154 -41.498  1.00  0.00    -0.341 OA
ATOM      4  C   UNL     1     -39.164   5.248 -42.293  1.00  0.00     0.282 C 
ATOM      5  C   UNL     1     -37.922   5.959 -41.672  1.00  0.00     0.202 C 
ATOM      6  C   UNL     1     -37.448   5.311 -40.337  1.00  0.00     0.180 C 
ENDROOT
BRANCH   1   7
ATOM      7  O   UNL     1     -36.283   3.010 -40.414  1.00  0.00    -0.341 OA
BRANCH   7   8
ATOM      8  C   UNL     1     -35.261   3.350 -41.346  1.00  0.00     0.282 C 
ATOM      9  C   UNL     1     -33.117   4.110 -41.771  1.00  0.00     0.178 C 
ATOM     10  C   UNL     1     -32.503   2.779 -42.277  1.00  0.00     0.177 C 
ATOM     11  O   UNL     1     -34.075   3.842 -40.756  1.00  0.00    -0.341 OA
ATOM     12  C   UNL     1     -33.587   1.682 -42.490  1.00  0.00     0.179 C 
ATOM     13  C   UNL     1     -35.051   2.204 -42.393  1.00  0.00     0.202 C 
BRANCH   9  14
ATOM     14  C   UNL     1     -32.044   5.110 -41.273  1.00  0.00     0.191 C 
BRANCH  14  15
ATOM     15  O   UNL     1     -32.477   6.437 -41.400  1.00  0.00    -0.394 OA
ATOM     16  H   UNL     1     -32.287   6.699 -42.331  1.00  0.00     0.210 HD
ENDBRANCH  14  15
ENDBRANCH   9  14
BRANCH  10  17
ATOM     17  O   UNL     1     -31.799   3.013 -43.477  1.00  0.00    -0.387 OA
ATOM     18  H   UNL     1     -32.377   3.574 -44.070  1.00  0.00     0.211 HD
ENDBRANCH  10  17
BRANCH  12  19
ATOM     19  O   UNL     1     -33.390   1.050 -43.728  1.00  0.00    -0.387 OA
ATOM     20  H   UNL     1     -34.195   1.225 -44.279  1.00  0.00     0.211 HD
ENDBRANCH  12  19
BRANCH  13  21
ATOM     21  O   UNL     1     -35.933   1.144 -42.115  1.00  0.00    -0.385 OA
ATOM     22  H   UNL     1     -35.588   0.343 -42.598  1.00  0.00     0.211 HD
ENDBRANCH  13  21
ENDBRANCH   7   8
ENDBRANCH   1   7
BRANCH   2  23
ATOM     23  C   UNL     1     -39.165   1.879 -40.867  1.00  0.00     0.191 C 
BRANCH  23  24
ATOM     24  O   UNL     1     -38.148   0.974 -40.491  1.00  0.00    -0.394 OA
ATOM     25  H   UNL     1     -37.369   1.193 -41.062  1.00  0.00     0.210 HD
ENDBRANCH  23  24
ENDBRANCH   2  23
BRANCH   6  26
ATOM     26  O   UNL     1     -38.277   5.772 -39.300  1.00  0.00    -0.387 OA
ATOM     27  H   UNL     1     -37.689   6.176 -38.602  1.00  0.00     0.211 HD
ENDBRANCH   6  26
BRANCH   5  28
ATOM     28  O   UNL     1     -38.215   7.327 -41.475  1.00  0.00    -0.385 OA
ATOM     29  H   UNL     1     -37.543   7.682 -40.835  1.00  0.00     0.211 HD
ENDBRANCH   5  28
BRANCH   4  30
ATOM     30  O   UNL     1     -38.894   4.797 -43.623  1.00  0.00    -0.341 OA
BRANCH  30  31
ATOM     31  C   UNL     1     -37.698   5.308 -44.196  1.00  0.00     0.184 C 
ATOM     32  C   UNL     1     -37.023   4.140 -44.973  1.00  0.00     0.178 C 
ATOM     33  C   UNL     1     -37.947   6.498 -45.162  1.00  0.00     0.180 C 
ATOM     34  O   UNL     1     -37.683   3.792 -46.183  1.00  0.00    -0.342 OA
ATOM     35  C   UNL     1     -38.669   6.039 -46.427  1.00  0.00     0.201 C 
ATOM     36  C   UNL     1     -37.893   4.882 -47.074  1.00  0.00     0.279 C 
BRANCH  32  37
ATOM     37  C   UNL     1     -35.483   4.219 -45.135  1.00  0.00     0.191 C 
BRANCH  37  38
ATOM     38  O   UNL     1     -34.915   3.009 -45.569  1.00  0.00    -0.394 OA
ATOM     39  H   UNL     1     -34.062   3.233 -46.021  1.00  0.00     0.210 HD
ENDBRANCH  37  38
ENDBRANCH  32  37
BRANCH  33  40
ATOM     40  O   UNL     1     -38.676   7.520 -44.524  1.00  0.00    -0.387 OA
ATOM     41  H   UNL     1     -39.637   7.336 -44.696  1.00  0.00     0.211 HD
ENDBRANCH  33  40
BRANCH  35  42
ATOM     42  O   UNL     1     -39.973   5.623 -46.111  1.00  0.00    -0.385 OA
ATOM     43  H   UNL     1     -40.486   5.570 -46.962  1.00  0.00     0.211 HD
ENDBRANCH  35  42
BRANCH  36  44
ATOM     44  O   UNL     1     -36.686   5.348 -47.611  1.00  0.00    -0.366 OA
ATOM     45  H   UNL     1     -36.266   4.574 -48.065  1.00  0.00     0.213 HD
ENDBRANCH  36  44
ENDBRANCH  30  31
ENDBRANCH   4  30
TORSDOF 18
ENDMDL
