MODEL 1
REMARK VINA RESULT:    -3.048      0.000      0.000
REMARK INTER + INTRA:          -8.253
REMARK INTER:                  -5.543
REMARK INTRA:                  -2.710
REMARK UNBOUND:                -2.710
REMARK SMILES CCCCCCCCCCCCCC[C@@H](C)C(=O)[O-]
REMARK SMILES IDX 9 1 10 2 11 3 12 4 13 5 14 6 15 7 16 8 17 9 18 10 19 11 8 12
REMARK SMILES IDX 7 13 6 14 5 15 4 16 3 17 2 18 1 19
REMARK H PARENT
REMARK Flexibility Score: inf
ROOT
ATOM      1  C   UNL     1       3.534   9.734   1.017  1.00  0.00     0.000 C 
ENDROOT
BRANCH   1   2
ATOM      2  C   UNL     1       3.206   9.396   2.480  1.00  0.00     0.000 C 
BRANCH   2   3
ATOM      3  C   UNL     1       3.803   8.050   2.923  1.00  0.00     0.000 C 
BRANCH   3   4
ATOM      4  C   UNL     1       5.136   8.217   3.675  1.00  0.00     0.000 C 
BRANCH   4   5
ATOM      5  C   UNL     1       6.343   7.740   2.852  1.00  0.00     0.001 C 
BRANCH   5   6
ATOM      6  C   UNL     1       5.924   6.997   1.568  1.00  0.00     0.009 C 
BRANCH   6   7
ATOM      7  C   UNL     1       6.560   7.556   0.275  1.00  0.00     0.032 C 
ATOM      8  C   UNL     1       7.908   8.248   0.530  1.00  0.00     0.014 C 
BRANCH   7   9
ATOM      9  C   UNL     1       6.660   6.502  -0.797  1.00  0.00     0.044 C 
ATOM     10  O   UNL     1       6.146   5.363  -0.638  1.00  0.00    -0.550 OA
ATOM     11  O   UNL     1       7.284   6.805  -2.001  1.00  0.00    -0.550 OA
ENDBRANCH   7   9
ENDBRANCH   6   7
ENDBRANCH   5   6
ENDBRANCH   4   5
ENDBRANCH   3   4
ENDBRANCH   2   3
ENDBRANCH   1   2
BRANCH   1  12
ATOM     12  C   UNL     1       3.854  11.224   0.805  1.00  0.00     0.000 C 
BRANCH  12  13
ATOM     13  C   UNL     1       4.837  11.797   1.847  1.00  0.00    -0.000 C 
BRANCH  13  14
ATOM     14  C   UNL     1       6.260  11.239   1.674  1.00  0.00    -0.000 C 
BRANCH  14  15
ATOM     15  C   UNL     1       7.159  12.155   0.830  1.00  0.00    -0.000 C 
BRANCH  15  16
ATOM     16  C   UNL     1       7.355  11.637  -0.603  1.00  0.00    -0.000 C 
BRANCH  16  17
ATOM     17  C   UNL     1       6.573  12.497  -1.607  1.00  0.00    -0.000 C 
BRANCH  17  18
ATOM     18  C   UNL     1       5.558  11.678  -2.422  1.00  0.00    -0.003 C 
ATOM     19  C   UNL     1       5.678  10.175  -2.175  1.00  0.00     0.004 C 
ENDBRANCH  17  18
ENDBRANCH  16  17
ENDBRANCH  15  16
ENDBRANCH  14  15
ENDBRANCH  13  14
ENDBRANCH  12  13
ENDBRANCH   1  12
TORSDOF 14
ENDMDL
MODEL 2
REMARK VINA RESULT:    -2.911      2.557      5.326
REMARK INTER + INTRA:          -8.004
REMARK INTER:                  -5.367
REMARK INTRA:                  -2.637
REMARK UNBOUND:                -2.710
REMARK SMILES CCCCCCCCCCCCCC[C@@H](C)C(=O)[O-]
REMARK SMILES IDX 9 1 10 2 11 3 12 4 13 5 14 6 15 7 16 8 17 9 18 10 19 11 8 12
REMARK SMILES IDX 7 13 6 14 5 15 4 16 3 17 2 18 1 19
REMARK H PARENT
REMARK Flexibility Score: inf
ROOT
ATOM      1  C   UNL     1       5.361  11.904   2.019  1.00  0.00     0.000 C 
ENDROOT
BRANCH   1   2
ATOM      2  C   UNL     1       4.912  11.781   0.554  1.00  0.00     0.000 C 
BRANCH   2   3
ATOM      3  C   UNL     1       3.952  10.602   0.328  1.00  0.00     0.000 C 
BRANCH   3   4
ATOM      4  C   UNL     1       4.063  10.015  -1.090  1.00  0.00     0.000 C 
BRANCH   4   5
ATOM      5  C   UNL     1       5.365  10.420  -1.797  1.00  0.00     0.001 C 
BRANCH   5   6
ATOM      6  C   UNL     1       5.114  11.032  -3.190  1.00  0.00     0.009 C 
BRANCH   6   7
ATOM      7  C   UNL     1       6.128  12.125  -3.596  1.00  0.00     0.032 C 
ATOM      8  C   UNL     1       7.307  12.232  -2.615  1.00  0.00     0.014 C 
BRANCH   7   9
ATOM      9  C   UNL     1       6.591  11.955  -5.019  1.00  0.00     0.044 C 
ATOM     10  O   UNL     1       7.719  12.376  -5.391  1.00  0.00    -0.550 OA
ATOM     11  O   UNL     1       5.784  11.278  -5.927  1.00  0.00    -0.550 OA
ENDBRANCH   7   9
ENDBRANCH   6   7
ENDBRANCH   5   6
ENDBRANCH   4   5
ENDBRANCH   3   4
ENDBRANCH   2   3
ENDBRANCH   1   2
BRANCH   1  12
ATOM     12  C   UNL     1       6.814  11.450   2.238  1.00  0.00     0.000 C 
BRANCH  12  13
ATOM     13  C   UNL     1       7.591  11.212   0.926  1.00  0.00    -0.000 C 
BRANCH  13  14
ATOM     14  C   UNL     1       8.028   9.745   0.766  1.00  0.00    -0.000 C 
BRANCH  14  15
ATOM     15  C   UNL     1       7.297   8.799   1.732  1.00  0.00    -0.000 C 
BRANCH  15  16
ATOM     16  C   UNL     1       6.317   7.859   1.012  1.00  0.00    -0.000 C 
BRANCH  16  17
ATOM     17  C   UNL     1       5.390   7.161   2.018  1.00  0.00    -0.000 C 
BRANCH  17  18
ATOM     18  C   UNL     1       5.360   7.867   3.382  1.00  0.00    -0.003 C 
ATOM     19  C   UNL     1       4.038   8.586   3.647  1.00  0.00     0.004 C 
ENDBRANCH  17  18
ENDBRANCH  16  17
ENDBRANCH  15  16
ENDBRANCH  14  15
ENDBRANCH  13  14
ENDBRANCH  12  13
ENDBRANCH   1  12
TORSDOF 14
ENDMDL
MODEL 3
REMARK VINA RESULT:    -2.910      1.982      5.465
REMARK INTER + INTRA:          -8.001
REMARK INTER:                  -5.479
REMARK INTRA:                  -2.522
REMARK UNBOUND:                -2.710
REMARK SMILES CCCCCCCCCCCCCC[C@@H](C)C(=O)[O-]
REMARK SMILES IDX 9 1 10 2 11 3 12 4 13 5 14 6 15 7 16 8 17 9 18 10 19 11 8 12
REMARK SMILES IDX 7 13 6 14 5 15 4 16 3 17 2 18 1 19
REMARK H PARENT
REMARK Flexibility Score: inf
ROOT
ATOM      1  C   UNL     1       7.696   7.707   0.006  1.00  0.00     0.000 C 
ENDROOT
BRANCH   1   2
ATOM      2  C   UNL     1       7.879   8.645   1.209  1.00  0.00     0.000 C 
BRANCH   2   3
ATOM      3  C   UNL     1       7.998  10.121   0.794  1.00  0.00     0.000 C 
BRANCH   3   4
ATOM      4  C   UNL     1       6.846  10.981   1.341  1.00  0.00     0.000 C 
BRANCH   4   5
ATOM      5  C   UNL     1       6.813  12.387   0.722  1.00  0.00     0.001 C 
BRANCH   5   6
ATOM      6  C   UNL     1       6.600  12.355  -0.805  1.00  0.00     0.009 C 
BRANCH   6   7
ATOM      7  C   UNL     1       5.339  11.584  -1.254  1.00  0.00     0.032 C 
ATOM      8  C   UNL     1       4.037  12.264  -0.802  1.00  0.00     0.014 C 
BRANCH   7   9
ATOM      9  C   UNL     1       5.350  11.315  -2.736  1.00  0.00     0.044 C 
ATOM     10  O   UNL     1       6.109  10.440  -3.233  1.00  0.00    -0.550 OA
ATOM     11  O   UNL     1       4.475  12.006  -3.566  1.00  0.00    -0.550 OA
ENDBRANCH   7   9
ENDBRANCH   6   7
ENDBRANCH   5   6
ENDBRANCH   4   5
ENDBRANCH   3   4
ENDBRANCH   2   3
ENDBRANCH   1   2
BRANCH   1  12
ATOM     12  C   UNL     1       6.328   7.873  -0.679  1.00  0.00     0.000 C 
BRANCH  12  13
ATOM     13  C   UNL     1       5.134   7.538   0.240  1.00  0.00    -0.000 C 
BRANCH  13  14
ATOM     14  C   UNL     1       4.045   8.624   0.198  1.00  0.00    -0.000 C 
BRANCH  14  15
ATOM     15  C   UNL     1       3.610   9.084   1.597  1.00  0.00    -0.000 C 
BRANCH  15  16
ATOM     16  C   UNL     1       3.745   7.976   2.653  1.00  0.00    -0.000 C 
BRANCH  16  17
ATOM     17  C   UNL     1       4.478   8.494   3.900  1.00  0.00    -0.000 C 
BRANCH  17  18
ATOM     18  C   UNL     1       5.969   8.121   3.906  1.00  0.00    -0.003 C 
ATOM     19  C   UNL     1       6.203   6.617   3.774  1.00  0.00     0.004 C 
ENDBRANCH  17  18
ENDBRANCH  16  17
ENDBRANCH  15  16
ENDBRANCH  14  15
ENDBRANCH  13  14
ENDBRANCH  12  13
ENDBRANCH   1  12
TORSDOF 14
ENDMDL
MODEL 4
REMARK VINA RESULT:    -2.864      2.059      4.870
REMARK INTER + INTRA:          -7.918
REMARK INTER:                  -5.859
REMARK INTRA:                  -2.059
REMARK UNBOUND:                -2.710
REMARK SMILES CCCCCCCCCCCCCC[C@@H](C)C(=O)[O-]
REMARK SMILES IDX 9 1 10 2 11 3 12 4 13 5 14 6 15 7 16 8 17 9 18 10 19 11 8 12
REMARK SMILES IDX 7 13 6 14 5 15 4 16 3 17 2 18 1 19
REMARK H PARENT
REMARK Flexibility Score: inf
ROOT
ATOM      1  C   UNL     1       4.256  10.078   1.346  1.00  0.00     0.000 C 
ENDROOT
BRANCH   1   2
ATOM      2  C   UNL     1       5.156  11.301   1.585  1.00  0.00     0.000 C 
BRANCH   2   3
ATOM      3  C   UNL     1       6.628  10.916   1.804  1.00  0.00     0.000 C 
BRANCH   3   4
ATOM      4  C   UNL     1       7.453  10.983   0.506  1.00  0.00     0.000 C 
BRANCH   4   5
ATOM      5  C   UNL     1       6.723  11.729  -0.621  1.00  0.00     0.001 C 
BRANCH   5   6
ATOM      6  C   UNL     1       6.243  10.782  -1.740  1.00  0.00     0.009 C 
BRANCH   6   7
ATOM      7  C   UNL     1       5.593  11.500  -2.943  1.00  0.00     0.032 C 
ATOM      8  C   UNL     1       6.412  11.351  -4.235  1.00  0.00     0.014 C 
BRANCH   7   9
ATOM      9  C   UNL     1       4.158  11.081  -3.133  1.00  0.00     0.044 C 
ATOM     10  O   UNL     1       3.560  11.284  -4.224  1.00  0.00    -0.550 OA
ATOM     11  O   UNL     1       3.497  10.413  -2.109  1.00  0.00    -0.550 OA
ENDBRANCH   7   9
ENDBRANCH   6   7
ENDBRANCH   5   6
ENDBRANCH   4   5
ENDBRANCH   3   4
ENDBRANCH   2   3
ENDBRANCH   1   2
BRANCH   1  12
ATOM     12  C   UNL     1       3.468   9.663   2.601  1.00  0.00     0.000 C 
BRANCH  12  13
ATOM     13  C   UNL     1       3.821   8.251   3.112  1.00  0.00    -0.000 C 
BRANCH  13  14
ATOM     14  C   UNL     1       5.125   8.237   3.930  1.00  0.00    -0.000 C 
BRANCH  14  15
ATOM     15  C   UNL     1       6.201   7.328   3.317  1.00  0.00    -0.000 C 
BRANCH  15  16
ATOM     16  C   UNL     1       5.817   6.814   1.921  1.00  0.00    -0.000 C 
BRANCH  16  17
ATOM     17  C   UNL     1       6.757   7.387   0.849  1.00  0.00    -0.000 C 
BRANCH  17  18
ATOM     18  C   UNL     1       6.209   7.205  -0.575  1.00  0.00    -0.003 C 
ATOM     19  C   UNL     1       7.165   6.433  -1.483  1.00  0.00     0.004 C 
ENDBRANCH  17  18
ENDBRANCH  16  17
ENDBRANCH  15  16
ENDBRANCH  14  15
ENDBRANCH  13  14
ENDBRANCH  12  13
ENDBRANCH   1  12
TORSDOF 14
ENDMDL
MODEL 5
REMARK VINA RESULT:    -2.857      1.783      4.237
REMARK INTER + INTRA:          -7.906
REMARK INTER:                  -5.341
REMARK INTRA:                  -2.565
REMARK UNBOUND:                -2.710
REMARK SMILES CCCCCCCCCCCCCC[C@@H](C)C(=O)[O-]
REMARK SMILES IDX 9 1 10 2 11 3 12 4 13 5 14 6 15 7 16 8 17 9 18 10 19 11 8 12
REMARK SMILES IDX 7 13 6 14 5 15 4 16 3 17 2 18 1 19
REMARK H PARENT
REMARK Flexibility Score: inf
ROOT
ATOM      1  C   UNL     1       7.756  11.401   1.047  1.00  0.00     0.000 C 
ENDROOT
BRANCH   1   2
ATOM      2  C   UNL     1       6.567  11.228   2.005  1.00  0.00     0.000 C 
BRANCH   2   3
ATOM      3  C   UNL     1       5.604  12.426   1.972  1.00  0.00     0.000 C 
BRANCH   3   4
ATOM      4  C   UNL     1       4.134  12.005   2.149  1.00  0.00     0.000 C 
BRANCH   4   5
ATOM      5  C   UNL     1       3.904  10.516   1.844  1.00  0.00     0.001 C 
BRANCH   5   6
ATOM      6  C   UNL     1       3.501   9.713   3.097  1.00  0.00     0.009 C 
BRANCH   6   7
ATOM      7  C   UNL     1       3.747   8.192   2.982  1.00  0.00     0.032 C 
ATOM      8  C   UNL     1       3.270   7.615   1.640  1.00  0.00     0.014 C 
BRANCH   7   9
ATOM      9  C   UNL     1       5.183   7.838   3.270  1.00  0.00     0.044 C 
ATOM     10  O   UNL     1       5.872   8.520   4.075  1.00  0.00    -0.550 OA
ATOM     11  O   UNL     1       5.745   6.712   2.678  1.00  0.00    -0.550 OA
ENDBRANCH   7   9
ENDBRANCH   6   7
ENDBRANCH   5   6
ENDBRANCH   4   5
ENDBRANCH   3   4
ENDBRANCH   2   3
ENDBRANCH   1   2
BRANCH   1  12
ATOM     12  C   UNL     1       7.577  12.584   0.079  1.00  0.00     0.000 C 
BRANCH  12  13
ATOM     13  C   UNL     1       7.317  12.152  -1.380  1.00  0.00    -0.000 C 
BRANCH  13  14
ATOM     14  C   UNL     1       5.842  12.323  -1.783  1.00  0.00    -0.000 C 
BRANCH  14  15
ATOM     15  C   UNL     1       5.030  11.029  -1.624  1.00  0.00    -0.000 C 
BRANCH  15  16
ATOM     16  C   UNL     1       5.886   9.766  -1.807  1.00  0.00    -0.000 C 
BRANCH  16  17
ATOM     17  C   UNL     1       5.693   8.798  -0.630  1.00  0.00    -0.000 C 
BRANCH  17  18
ATOM     18  C   UNL     1       6.825   7.764  -0.524  1.00  0.00    -0.003 C 
ATOM     19  C   UNL     1       6.332   6.328  -0.701  1.00  0.00     0.004 C 
ENDBRANCH  17  18
ENDBRANCH  16  17
ENDBRANCH  15  16
ENDBRANCH  14  15
ENDBRANCH  13  14
ENDBRANCH  12  13
ENDBRANCH   1  12
TORSDOF 14
ENDMDL
MODEL 6
REMARK VINA RESULT:    -2.846      1.842      4.240
REMARK INTER + INTRA:          -7.884
REMARK INTER:                  -5.441
REMARK INTRA:                  -2.443
REMARK UNBOUND:                -2.710
REMARK SMILES CCCCCCCCCCCCCC[C@@H](C)C(=O)[O-]
REMARK SMILES IDX 9 1 10 2 11 3 12 4 13 5 14 6 15 7 16 8 17 9 18 10 19 11 8 12
REMARK SMILES IDX 7 13 6 14 5 15 4 16 3 17 2 18 1 19
REMARK H PARENT
REMARK Flexibility Score: inf
ROOT
ATOM      1  C   UNL     1       5.501  12.019  -1.985  1.00  0.00     0.000 C 
ENDROOT
BRANCH   1   2
ATOM      2  C   UNL     1       4.507  11.309  -1.052  1.00  0.00     0.000 C 
BRANCH   2   3
ATOM      3  C   UNL     1       3.673  12.295  -0.218  1.00  0.00     0.000 C 
BRANCH   3   4
ATOM      4  C   UNL     1       3.365  11.760   1.192  1.00  0.00     0.000 C 
BRANCH   4   5
ATOM      5  C   UNL     1       3.544  10.238   1.299  1.00  0.00     0.001 C 
BRANCH   5   6
ATOM      6  C   UNL     1       3.837   9.780   2.743  1.00  0.00     0.009 C 
BRANCH   6   7
ATOM      7  C   UNL     1       3.897   8.246   2.922  1.00  0.00     0.032 C 
ATOM      8  C   UNL     1       3.384   7.486   1.688  1.00  0.00     0.014 C 
BRANCH   7   9
ATOM      9  C   UNL     1       5.271   7.788   3.336  1.00  0.00     0.044 C 
ATOM     10  O   UNL     1       5.957   8.452   4.159  1.00  0.00    -0.550 OA
ATOM     11  O   UNL     1       5.772   6.588   2.844  1.00  0.00    -0.550 OA
ENDBRANCH   7   9
ENDBRANCH   6   7
ENDBRANCH   5   6
ENDBRANCH   4   5
ENDBRANCH   3   4
ENDBRANCH   2   3
ENDBRANCH   1   2
BRANCH   1  12
ATOM     12  C   UNL     1       6.961  11.880  -1.521  1.00  0.00     0.000 C 
BRANCH  12  13
ATOM     13  C   UNL     1       7.165  12.197  -0.024  1.00  0.00    -0.000 C 
BRANCH  13  14
ATOM     14  C   UNL     1       8.056  11.156   0.675  1.00  0.00    -0.000 C 
BRANCH  14  15
ATOM     15  C   UNL     1       7.255   9.979   1.251  1.00  0.00    -0.000 C 
BRANCH  15  16
ATOM     16  C   UNL     1       7.528   8.659   0.513  1.00  0.00    -0.000 C 
BRANCH  16  17
ATOM     17  C   UNL     1       6.300   8.221  -0.300  1.00  0.00    -0.000 C 
BRANCH  17  18
ATOM     18  C   UNL     1       6.320   6.722  -0.638  1.00  0.00    -0.003 C 
ATOM     19  C   UNL     1       7.386   6.364  -1.673  1.00  0.00     0.004 C 
ENDBRANCH  17  18
ENDBRANCH  16  17
ENDBRANCH  15  16
ENDBRANCH  14  15
ENDBRANCH  13  14
ENDBRANCH  12  13
ENDBRANCH   1  12
TORSDOF 14
ENDMDL
MODEL 7
REMARK VINA RESULT:    -2.829      1.935      4.629
REMARK INTER + INTRA:          -7.854
REMARK INTER:                  -5.622
REMARK INTRA:                  -2.232
REMARK UNBOUND:                -2.710
REMARK SMILES CCCCCCCCCCCCCC[C@@H](C)C(=O)[O-]
REMARK SMILES IDX 9 1 10 2 11 3 12 4 13 5 14 6 15 7 16 8 17 9 18 10 19 11 8 12
REMARK SMILES IDX 7 13 6 14 5 15 4 16 3 17 2 18 1 19
REMARK H PARENT
REMARK Flexibility Score: inf
ROOT
ATOM      1  C   UNL     1       2.875   8.897   1.871  1.00  0.00     0.000 C 
ENDROOT
BRANCH   1   2
ATOM      2  C   UNL     1       3.131  10.390   2.133  1.00  0.00     0.000 C 
BRANCH   2   3
ATOM      3  C   UNL     1       3.585  11.141   0.871  1.00  0.00     0.000 C 
BRANCH   3   4
ATOM      4  C   UNL     1       4.003  10.188  -0.263  1.00  0.00     0.000 C 
BRANCH   4   5
ATOM      5  C   UNL     1       4.835  10.889  -1.348  1.00  0.00     0.001 C 
BRANCH   5   6
ATOM      6  C   UNL     1       6.322  10.482  -1.304  1.00  0.00     0.009 C 
BRANCH   6   7
ATOM      7  C   UNL     1       7.213  11.425  -0.465  1.00  0.00     0.032 C 
ATOM      8  C   UNL     1       6.622  12.838  -0.335  1.00  0.00     0.014 C 
BRANCH   7   9
ATOM      9  C   UNL     1       7.547  10.827   0.877  1.00  0.00     0.044 C 
ATOM     10  O   UNL     1       6.945  11.195   1.921  1.00  0.00    -0.550 OA
ATOM     11  O   UNL     1       8.498   9.816   0.960  1.00  0.00    -0.550 OA
ENDBRANCH   7   9
ENDBRANCH   6   7
ENDBRANCH   5   6
ENDBRANCH   4   5
ENDBRANCH   3   4
ENDBRANCH   2   3
ENDBRANCH   1   2
BRANCH   1  12
ATOM     12  C   UNL     1       3.385   7.995   3.008  1.00  0.00     0.000 C 
BRANCH  12  13
ATOM     13  C   UNL     1       4.441   8.672   3.906  1.00  0.00    -0.000 C 
BRANCH  13  14
ATOM     14  C   UNL     1       5.873   8.228   3.556  1.00  0.00    -0.000 C 
BRANCH  14  15
ATOM     15  C   UNL     1       6.033   6.701   3.536  1.00  0.00    -0.000 C 
BRANCH  15  16
ATOM     16  C   UNL     1       6.256   6.148   2.120  1.00  0.00    -0.000 C 
BRANCH  16  17
ATOM     17  C   UNL     1       6.343   7.288   1.094  1.00  0.00    -0.000 C 
BRANCH  17  18
ATOM     18  C   UNL     1       5.853   6.866  -0.300  1.00  0.00    -0.003 C 
ATOM     19  C   UNL     1       7.000   6.603  -1.276  1.00  0.00     0.004 C 
ENDBRANCH  17  18
ENDBRANCH  16  17
ENDBRANCH  15  16
ENDBRANCH  14  15
ENDBRANCH  13  14
ENDBRANCH  12  13
ENDBRANCH   1  12
TORSDOF 14
ENDMDL
MODEL 8
REMARK VINA RESULT:    -2.769      1.836      3.612
REMARK INTER + INTRA:          -7.744
REMARK INTER:                  -5.169
REMARK INTRA:                  -2.575
REMARK UNBOUND:                -2.710
REMARK SMILES CCCCCCCCCCCCCC[C@@H](C)C(=O)[O-]
REMARK SMILES IDX 9 1 10 2 11 3 12 4 13 5 14 6 15 7 16 8 17 9 18 10 19 11 8 12
REMARK SMILES IDX 7 13 6 14 5 15 4 16 3 17 2 18 1 19
REMARK H PARENT
REMARK Flexibility Score: inf
ROOT
ATOM      1  C   UNL     1       6.360  12.253   1.966  1.00  0.00     0.000 C 
ENDROOT
BRANCH   1   2
ATOM      2  C   UNL     1       7.009  12.447   0.586  1.00  0.00     0.000 C 
BRANCH   2   3
ATOM      3  C   UNL     1       7.692  11.171   0.070  1.00  0.00     0.000 C 
BRANCH   3   4
ATOM      4  C   UNL     1       7.835  10.097   1.164  1.00  0.00     0.000 C 
BRANCH   4   5
ATOM      5  C   UNL     1       7.516   8.684   0.651  1.00  0.00     0.001 C 
BRANCH   5   6
ATOM      6  C   UNL     1       6.006   8.467   0.424  1.00  0.00     0.009 C 
BRANCH   6   7
ATOM      7  C   UNL     1       5.198   8.228   1.719  1.00  0.00     0.032 C 
ATOM      8  C   UNL     1       3.726   7.884   1.443  1.00  0.00     0.014 C 
BRANCH   7   9
ATOM      9  C   UNL     1       5.859   7.206   2.607  1.00  0.00     0.044 C 
ATOM     10  O   UNL     1       6.083   7.450   3.823  1.00  0.00    -0.550 OA
ATOM     11  O   UNL     1       6.184   5.957   2.092  1.00  0.00    -0.550 OA
ENDBRANCH   7   9
ENDBRANCH   6   7
ENDBRANCH   5   6
ENDBRANCH   4   5
ENDBRANCH   3   4
ENDBRANCH   2   3
ENDBRANCH   1   2
BRANCH   1  12
ATOM     12  C   UNL     1       4.829  12.129   1.894  1.00  0.00     0.000 C 
BRANCH  12  13
ATOM     13  C   UNL     1       4.263  12.294   0.467  1.00  0.00    -0.000 C 
BRANCH  13  14
ATOM     14  C   UNL     1       3.379  11.106   0.051  1.00  0.00    -0.000 C 
BRANCH  14  15
ATOM     15  C   UNL     1       3.536  10.740  -1.433  1.00  0.00    -0.000 C 
BRANCH  15  16
ATOM     16  C   UNL     1       4.686  11.501  -2.112  1.00  0.00    -0.000 C 
BRANCH  16  17
ATOM     17  C   UNL     1       5.665  10.526  -2.782  1.00  0.00    -0.000 C 
BRANCH  17  18
ATOM     18  C   UNL     1       6.471  11.184  -3.914  1.00  0.00    -0.003 C 
ATOM     19  C   UNL     1       5.604  11.556  -5.117  1.00  0.00     0.004 C 
ENDBRANCH  17  18
ENDBRANCH  16  17
ENDBRANCH  15  16
ENDBRANCH  14  15
ENDBRANCH  13  14
ENDBRANCH  12  13
ENDBRANCH   1  12
TORSDOF 14
ENDMDL
MODEL 9
REMARK VINA RESULT:    -2.752      1.020      4.502
REMARK INTER + INTRA:          -7.713
REMARK INTER:                  -5.295
REMARK INTRA:                  -2.418
REMARK UNBOUND:                -2.710
REMARK SMILES CCCCCCCCCCCCCC[C@@H](C)C(=O)[O-]
REMARK SMILES IDX 9 1 10 2 11 3 12 4 13 5 14 6 15 7 16 8 17 9 18 10 19 11 8 12
REMARK SMILES IDX 7 13 6 14 5 15 4 16 3 17 2 18 1 19
REMARK H PARENT
REMARK Flexibility Score: inf
ROOT
ATOM      1  C   UNL     1       7.008  12.994   0.243  1.00  0.00     0.000 C 
ENDROOT
BRANCH   1   2
ATOM      2  C   UNL     1       7.748  12.518  -1.018  1.00  0.00     0.000 C 
BRANCH   2   3
ATOM      3  C   UNL     1       6.788  12.154  -2.163  1.00  0.00     0.000 C 
BRANCH   3   4
ATOM      4  C   UNL     1       5.557  11.371  -1.673  1.00  0.00     0.000 C 
BRANCH   4   5
ATOM      5  C   UNL     1       5.713   9.853  -1.852  1.00  0.00     0.001 C 
BRANCH   5   6
ATOM      6  C   UNL     1       5.644   9.092  -0.512  1.00  0.00     0.009 C 
BRANCH   6   7
ATOM      7  C   UNL     1       6.851   8.164  -0.247  1.00  0.00     0.032 C 
ATOM      8  C   UNL     1       7.751   8.674   0.889  1.00  0.00     0.014 C 
BRANCH   7   9
ATOM      9  C   UNL     1       6.418   6.738  -0.028  1.00  0.00     0.044 C 
ATOM     10  O   UNL     1       6.250   5.953  -1.000  1.00  0.00    -0.550 OA
ATOM     11  O   UNL     1       6.250   6.263   1.267  1.00  0.00    -0.550 OA
ENDBRANCH   7   9
ENDBRANCH   6   7
ENDBRANCH   5   6
ENDBRANCH   4   5
ENDBRANCH   3   4
ENDBRANCH   2   3
ENDBRANCH   1   2
BRANCH   1  12
ATOM     12  C   UNL     1       7.351  12.158   1.488  1.00  0.00     0.000 C 
BRANCH  12  13
ATOM     13  C   UNL     1       6.117  11.769   2.328  1.00  0.00    -0.000 C 
BRANCH  13  14
ATOM     14  C   UNL     1       4.944  12.744   2.126  1.00  0.00    -0.000 C 
BRANCH  14  15
ATOM     15  C   UNL     1       3.583  12.033   2.078  1.00  0.00    -0.000 C 
BRANCH  15  16
ATOM     16  C   UNL     1       3.711  10.526   1.807  1.00  0.00    -0.000 C 
BRANCH  16  17
ATOM     17  C   UNL     1       3.327   9.712   3.052  1.00  0.00    -0.000 C 
BRANCH  17  18
ATOM     18  C   UNL     1       3.955   8.309   3.056  1.00  0.00    -0.003 C 
ATOM     19  C   UNL     1       5.245   8.241   3.874  1.00  0.00     0.004 C 
ENDBRANCH  17  18
ENDBRANCH  16  17
ENDBRANCH  15  16
ENDBRANCH  14  15
ENDBRANCH  13  14
ENDBRANCH  12  13
ENDBRANCH   1  12
TORSDOF 14
ENDMDL
