MODEL 1
REMARK VINA RESULT:    -3.693      0.000      0.000
REMARK INTER + INTRA:          -7.222
REMARK INTER:                  -5.853
REMARK INTRA:                  -1.370
REMARK UNBOUND:                -1.370
REMARK SMILES CCCCCCCCCCCC(=O)[O-]
REMARK SMILES IDX 7 1 8 2 9 3 10 4 11 5 12 6 13 7 14 8 6 9 5 10 4 11 3 12 2 13
REMARK SMILES IDX 1 14
REMARK H PARENT
REMARK Flexibility Score: inf
ROOT
ATOM      1  C   UNL     1      12.342 -25.458  40.405  1.00  0.00     0.000 C 
ENDROOT
BRANCH   1   2
ATOM      2  C   UNL     1      13.562 -24.706  39.834  1.00  0.00     0.000 C 
BRANCH   2   3
ATOM      3  C   UNL     1      13.201 -23.706  38.722  1.00  0.00     0.000 C 
BRANCH   3   4
ATOM      4  C   UNL     1      14.278 -22.628  38.515  1.00  0.00     0.006 C 
BRANCH   4   5
ATOM      5  C   UNL     1      13.743 -21.416  37.741  1.00  0.00     0.053 C 
BRANCH   5   6
ATOM      6  C   UNL     1      14.334 -21.333  36.367  1.00  0.00     0.041 C 
ATOM      7  O   UNL     1      13.588 -21.195  35.363  1.00  0.00    -0.550 OA
ATOM      8  O   UNL     1      15.708 -21.441  36.194  1.00  0.00    -0.550 OA
ENDBRANCH   5   6
ENDBRANCH   4   5
ENDBRANCH   3   4
ENDBRANCH   2   3
ENDBRANCH   1   2
BRANCH   1   9
ATOM      9  C   UNL     1      11.011 -24.896  39.875  1.00  0.00     0.000 C 
BRANCH   9  10
ATOM     10  C   UNL     1      10.189 -24.197  40.968  1.00  0.00    -0.000 C 
BRANCH  10  11
ATOM     11  C   UNL     1      10.089 -22.677  40.751  1.00  0.00    -0.000 C 
BRANCH  11  12
ATOM     12  C   UNL     1      11.295 -21.911  41.324  1.00  0.00    -0.000 C 
BRANCH  12  13
ATOM     13  C   UNL     1      11.883 -22.509  42.614  1.00  0.00    -0.003 C 
ATOM     14  C   UNL     1      13.386 -22.272  42.753  1.00  0.00     0.004 C 
ENDBRANCH  12  13
ENDBRANCH  11  12
ENDBRANCH  10  11
ENDBRANCH   9  10
ENDBRANCH   1   9
TORSDOF 10
ENDMDL
MODEL 2
REMARK VINA RESULT:    -3.508      2.398      3.698
REMARK INTER + INTRA:          -6.928
REMARK INTER:                  -5.641
REMARK INTRA:                  -1.287
REMARK UNBOUND:                -1.370
REMARK SMILES CCCCCCCCCCCC(=O)[O-]
REMARK SMILES IDX 7 1 8 2 9 3 10 4 11 5 12 6 13 7 14 8 6 9 5 10 4 11 3 12 2 13
REMARK SMILES IDX 1 14
REMARK H PARENT
REMARK Flexibility Score: inf
ROOT
ATOM      1  C   UNL     1      14.351 -23.572  39.616  1.00  0.00     0.000 C 
ENDROOT
BRANCH   1   2
ATOM      2  C   UNL     1      13.995 -24.533  40.770  1.00  0.00     0.000 C 
BRANCH   2   3
ATOM      3  C   UNL     1      13.175 -25.754  40.321  1.00  0.00     0.000 C 
BRANCH   3   4
ATOM      4  C   UNL     1      12.462 -25.534  38.976  1.00  0.00     0.006 C 
BRANCH   4   5
ATOM      5  C   UNL     1      12.804 -26.626  37.954  1.00  0.00     0.053 C 
BRANCH   5   6
ATOM      6  C   UNL     1      13.810 -26.150  36.952  1.00  0.00     0.041 C 
ATOM      7  O   UNL     1      13.444 -25.811  35.796  1.00  0.00    -0.550 OA
ATOM      8  O   UNL     1      15.159 -26.114  37.284  1.00  0.00    -0.550 OA
ENDBRANCH   5   6
ENDBRANCH   4   5
ENDBRANCH   3   4
ENDBRANCH   2   3
ENDBRANCH   1   2
BRANCH   1   9
ATOM      9  C   UNL     1      13.978 -22.114  39.938  1.00  0.00     0.000 C 
BRANCH   9  10
ATOM     10  C   UNL     1      12.460 -21.900  40.029  1.00  0.00    -0.000 C 
BRANCH  10  11
ATOM     11  C   UNL     1      11.979 -21.674  41.473  1.00  0.00    -0.000 C 
BRANCH  11  12
ATOM     12  C   UNL     1      10.721 -22.490  41.819  1.00  0.00    -0.000 C 
BRANCH  12  13
ATOM     13  C   UNL     1       9.850 -22.874  40.609  1.00  0.00    -0.003 C 
ATOM     14  C   UNL     1       9.427 -24.342  40.618  1.00  0.00     0.004 C 
ENDBRANCH  12  13
ENDBRANCH  11  12
ENDBRANCH  10  11
ENDBRANCH   9  10
ENDBRANCH   1   9
TORSDOF 10
ENDMDL
MODEL 3
REMARK VINA RESULT:    -3.443      1.185      2.878
REMARK INTER + INTRA:          -6.826
REMARK INTER:                  -5.676
REMARK INTRA:                  -1.150
REMARK UNBOUND:                -1.370
REMARK SMILES CCCCCCCCCCCC(=O)[O-]
REMARK SMILES IDX 7 1 8 2 9 3 10 4 11 5 12 6 13 7 14 8 6 9 5 10 4 11 3 12 2 13
REMARK SMILES IDX 1 14
REMARK H PARENT
REMARK Flexibility Score: inf
ROOT
ATOM      1  C   UNL     1      12.226 -21.641  41.736  1.00  0.00     0.000 C 
ENDROOT
BRANCH   1   2
ATOM      2  C   UNL     1      13.504 -22.506  41.754  1.00  0.00     0.000 C 
BRANCH   2   3
ATOM      3  C   UNL     1      13.989 -22.914  40.353  1.00  0.00     0.000 C 
BRANCH   3   4
ATOM      4  C   UNL     1      14.442 -21.715  39.504  1.00  0.00     0.006 C 
BRANCH   4   5
ATOM      5  C   UNL     1      13.627 -21.581  38.211  1.00  0.00     0.053 C 
BRANCH   5   6
ATOM      6  C   UNL     1      14.456 -21.881  37.000  1.00  0.00     0.041 C 
ATOM      7  O   UNL     1      15.680 -22.151  37.120  1.00  0.00    -0.550 OA
ATOM      8  O   UNL     1      13.884 -21.828  35.735  1.00  0.00    -0.550 OA
ENDBRANCH   5   6
ENDBRANCH   4   5
ENDBRANCH   3   4
ENDBRANCH   2   3
ENDBRANCH   1   2
BRANCH   1   9
ATOM      9  C   UNL     1      10.952 -22.483  41.921  1.00  0.00     0.000 C 
BRANCH   9  10
ATOM     10  C   UNL     1      10.123 -22.589  40.632  1.00  0.00    -0.000 C 
BRANCH  10  11
ATOM     11  C   UNL     1       9.704 -24.035  40.315  1.00  0.00    -0.000 C 
BRANCH  11  12
ATOM     12  C   UNL     1      10.494 -25.077  41.126  1.00  0.00    -0.000 C 
BRANCH  12  13
ATOM     13  C   UNL     1      11.082 -26.230  40.292  1.00  0.00    -0.003 C 
ATOM     14  C   UNL     1      12.003 -25.748  39.172  1.00  0.00     0.004 C 
ENDBRANCH  12  13
ENDBRANCH  11  12
ENDBRANCH  10  11
ENDBRANCH   9  10
ENDBRANCH   1   9
TORSDOF 10
ENDMDL
MODEL 4
REMARK VINA RESULT:    -3.440      2.762      4.238
REMARK INTER + INTRA:          -6.821
REMARK INTER:                  -5.765
REMARK INTRA:                  -1.056
REMARK UNBOUND:                -1.370
REMARK SMILES CCCCCCCCCCCC(=O)[O-]
REMARK SMILES IDX 7 1 8 2 9 3 10 4 11 5 12 6 13 7 14 8 6 9 5 10 4 11 3 12 2 13
REMARK SMILES IDX 1 14
REMARK H PARENT
REMARK Flexibility Score: inf
ROOT
ATOM      1  C   UNL     1      12.672 -22.167  40.012  1.00  0.00     0.000 C 
ENDROOT
BRANCH   1   2
ATOM      2  C   UNL     1      13.544 -23.419  40.245  1.00  0.00     0.000 C 
BRANCH   2   3
ATOM      3  C   UNL     1      13.296 -24.539  39.222  1.00  0.00     0.000 C 
BRANCH   3   4
ATOM      4  C   UNL     1      13.701 -25.927  39.746  1.00  0.00     0.006 C 
BRANCH   4   5
ATOM      5  C   UNL     1      15.200 -26.202  39.563  1.00  0.00     0.053 C 
BRANCH   5   6
ATOM      6  C   UNL     1      15.487 -26.846  38.242  1.00  0.00     0.041 C 
ATOM      7  O   UNL     1      15.816 -26.144  37.250  1.00  0.00    -0.550 OA
ATOM      8  O   UNL     1      15.357 -28.222  38.097  1.00  0.00    -0.550 OA
ENDBRANCH   5   6
ENDBRANCH   4   5
ENDBRANCH   3   4
ENDBRANCH   2   3
ENDBRANCH   1   2
BRANCH   1   9
ATOM      9  C   UNL     1      11.955 -21.711  41.294  1.00  0.00     0.000 C 
BRANCH   9  10
ATOM     10  C   UNL     1      10.838 -22.676  41.720  1.00  0.00    -0.000 C 
BRANCH  10  11
ATOM     11  C   UNL     1       9.744 -22.824  40.649  1.00  0.00    -0.000 C 
BRANCH  11  12
ATOM     12  C   UNL     1       9.606 -24.268  40.131  1.00  0.00    -0.000 C 
BRANCH  12  13
ATOM     13  C   UNL     1      10.032 -25.354  41.135  1.00  0.00    -0.003 C 
ATOM     14  C   UNL     1       8.932 -26.377  41.413  1.00  0.00     0.004 C 
ENDBRANCH  12  13
ENDBRANCH  11  12
ENDBRANCH  10  11
ENDBRANCH   9  10
ENDBRANCH   1   9
TORSDOF 10
ENDMDL
MODEL 5
REMARK VINA RESULT:    -3.417      3.111      4.394
REMARK INTER + INTRA:          -6.785
REMARK INTER:                  -5.292
REMARK INTRA:                  -1.493
REMARK UNBOUND:                -1.370
REMARK SMILES CCCCCCCCCCCC(=O)[O-]
REMARK SMILES IDX 7 1 8 2 9 3 10 4 11 5 12 6 13 7 14 8 6 9 5 10 4 11 3 12 2 13
REMARK SMILES IDX 1 14
REMARK H PARENT
REMARK Flexibility Score: inf
ROOT
ATOM      1  C   UNL     1      12.512 -23.044  41.495  1.00  0.00     0.000 C 
ENDROOT
BRANCH   1   2
ATOM      2  C   UNL     1      13.538 -23.767  40.597  1.00  0.00     0.000 C 
BRANCH   2   3
ATOM      3  C   UNL     1      13.165 -25.228  40.291  1.00  0.00     0.000 C 
BRANCH   3   4
ATOM      4  C   UNL     1      12.704 -25.436  38.839  1.00  0.00     0.006 C 
BRANCH   4   5
ATOM      5  C   UNL     1      12.196 -26.862  38.591  1.00  0.00     0.053 C 
BRANCH   5   6
ATOM      6  C   UNL     1      12.784 -27.450  37.345  1.00  0.00     0.041 C 
ATOM      7  O   UNL     1      12.727 -26.818  36.257  1.00  0.00    -0.550 OA
ATOM      8  O   UNL     1      13.365 -28.711  37.378  1.00  0.00    -0.550 OA
ENDBRANCH   5   6
ENDBRANCH   4   5
ENDBRANCH   3   4
ENDBRANCH   2   3
ENDBRANCH   1   2
BRANCH   1   9
ATOM      9  C   UNL     1      11.416 -22.341  40.676  1.00  0.00     0.000 C 
BRANCH   9  10
ATOM     10  C   UNL     1      10.017 -22.916  40.945  1.00  0.00    -0.000 C 
BRANCH  10  11
ATOM     11  C   UNL     1       9.565 -23.906  39.858  1.00  0.00    -0.000 C 
BRANCH  11  12
ATOM     12  C   UNL     1       9.082 -25.249  40.436  1.00  0.00    -0.000 C 
BRANCH  12  13
ATOM     13  C   UNL     1       9.841 -25.720  41.690  1.00  0.00    -0.003 C 
ATOM     14  C   UNL     1      10.119 -27.222  41.692  1.00  0.00     0.004 C 
ENDBRANCH  12  13
ENDBRANCH  11  12
ENDBRANCH  10  11
ENDBRANCH   9  10
ENDBRANCH   1   9
TORSDOF 10
ENDMDL
MODEL 6
REMARK VINA RESULT:    -3.406      2.525      3.671
REMARK INTER + INTRA:          -6.766
REMARK INTER:                  -5.358
REMARK INTRA:                  -1.409
REMARK UNBOUND:                -1.370
REMARK SMILES CCCCCCCCCCCC(=O)[O-]
REMARK SMILES IDX 7 1 8 2 9 3 10 4 11 5 12 6 13 7 14 8 6 9 5 10 4 11 3 12 2 13
REMARK SMILES IDX 1 14
REMARK H PARENT
REMARK Flexibility Score: inf
ROOT
ATOM      1  C   UNL     1       9.766 -24.182  40.124  1.00  0.00     0.000 C 
ENDROOT
BRANCH   1   2
ATOM      2  C   UNL     1      10.265 -25.299  41.065  1.00  0.00     0.000 C 
BRANCH   2   3
ATOM      3  C   UNL     1      11.507 -26.037  40.539  1.00  0.00     0.000 C 
BRANCH   3   4
ATOM      4  C   UNL     1      11.848 -25.671  39.085  1.00  0.00     0.006 C 
BRANCH   4   5
ATOM      5  C   UNL     1      12.686 -26.756  38.395  1.00  0.00     0.053 C 
BRANCH   5   6
ATOM      6  C   UNL     1      13.833 -26.167  37.633  1.00  0.00     0.041 C 
ATOM      7  O   UNL     1      13.646 -25.195  36.855  1.00  0.00    -0.550 OA
ATOM      8  O   UNL     1      15.103 -26.717  37.755  1.00  0.00    -0.550 OA
ENDBRANCH   5   6
ENDBRANCH   4   5
ENDBRANCH   3   4
ENDBRANCH   2   3
ENDBRANCH   1   2
BRANCH   1   9
ATOM      9  C   UNL     1       9.727 -22.810  40.820  1.00  0.00     0.000 C 
BRANCH   9  10
ATOM     10  C   UNL     1      10.897 -22.609  41.794  1.00  0.00    -0.000 C 
BRANCH  10  11
ATOM     11  C   UNL     1      12.000 -21.707  41.215  1.00  0.00    -0.000 C 
BRANCH  11  12
ATOM     12  C   UNL     1      13.142 -22.505  40.560  1.00  0.00    -0.000 C 
BRANCH  12  13
ATOM     13  C   UNL     1      13.944 -23.393  41.528  1.00  0.00    -0.003 C 
ATOM     14  C   UNL     1      14.869 -24.375  40.812  1.00  0.00     0.004 C 
ENDBRANCH  12  13
ENDBRANCH  11  12
ENDBRANCH  10  11
ENDBRANCH   9  10
ENDBRANCH   1   9
TORSDOF 10
ENDMDL
MODEL 7
REMARK VINA RESULT:    -3.365      1.559      3.432
REMARK INTER + INTRA:          -6.702
REMARK INTER:                  -5.286
REMARK INTRA:                  -1.416
REMARK UNBOUND:                -1.370
REMARK SMILES CCCCCCCCCCCC(=O)[O-]
REMARK SMILES IDX 7 1 8 2 9 3 10 4 11 5 12 6 13 7 14 8 6 9 5 10 4 11 3 12 2 13
REMARK SMILES IDX 1 14
REMARK H PARENT
REMARK Flexibility Score: inf
ROOT
ATOM      1  C   UNL     1       9.764 -22.731  40.591  1.00  0.00     0.000 C 
ENDROOT
BRANCH   1   2
ATOM      2  C   UNL     1      10.948 -22.319  41.492  1.00  0.00     0.000 C 
BRANCH   2   3
ATOM      3  C   UNL     1      12.310 -22.817  40.982  1.00  0.00     0.000 C 
BRANCH   3   4
ATOM      4  C   UNL     1      12.636 -22.321  39.564  1.00  0.00     0.006 C 
BRANCH   4   5
ATOM      5  C   UNL     1      12.871 -23.478  38.584  1.00  0.00     0.053 C 
BRANCH   5   6
ATOM      6  C   UNL     1      14.008 -23.190  37.651  1.00  0.00     0.041 C 
ATOM      7  O   UNL     1      13.867 -22.360  36.716  1.00  0.00    -0.550 OA
ATOM      8  O   UNL     1      15.212 -23.867  37.794  1.00  0.00    -0.550 OA
ENDBRANCH   5   6
ENDBRANCH   4   5
ENDBRANCH   3   4
ENDBRANCH   2   3
ENDBRANCH   1   2
BRANCH   1   9
ATOM      9  C   UNL     1       9.453 -24.234  40.693  1.00  0.00     0.000 C 
BRANCH   9  10
ATOM     10  C   UNL     1       9.391 -24.918  39.318  1.00  0.00    -0.000 C 
BRANCH  10  11
ATOM     11  C   UNL     1      10.277 -26.172  39.240  1.00  0.00    -0.000 C 
BRANCH  11  12
ATOM     12  C   UNL     1      10.984 -26.489  40.571  1.00  0.00    -0.000 C 
BRANCH  12  13
ATOM     13  C   UNL     1      12.521 -26.524  40.490  1.00  0.00    -0.003 C 
ATOM     14  C   UNL     1      13.039 -27.300  39.280  1.00  0.00     0.004 C 
ENDBRANCH  12  13
ENDBRANCH  11  12
ENDBRANCH  10  11
ENDBRANCH   9  10
ENDBRANCH   1   9
TORSDOF 10
ENDMDL
MODEL 8
REMARK VINA RESULT:    -3.365      2.297      3.249
REMARK INTER + INTRA:          -6.702
REMARK INTER:                  -5.661
REMARK INTRA:                  -1.041
REMARK UNBOUND:                -1.370
REMARK SMILES CCCCCCCCCCCC(=O)[O-]
REMARK SMILES IDX 7 1 8 2 9 3 10 4 11 5 12 6 13 7 14 8 6 9 5 10 4 11 3 12 2 13
REMARK SMILES IDX 1 14
REMARK H PARENT
REMARK Flexibility Score: inf
ROOT
ATOM      1  C   UNL     1      10.819 -26.802  41.337  1.00  0.00     0.000 C 
ENDROOT
BRANCH   1   2
ATOM      2  C   UNL     1      11.150 -27.887  40.289  1.00  0.00     0.000 C 
BRANCH   2   3
ATOM      3  C   UNL     1      12.019 -27.375  39.129  1.00  0.00     0.000 C 
BRANCH   3   4
ATOM      4  C   UNL     1      13.056 -26.330  39.573  1.00  0.00     0.006 C 
BRANCH   4   5
ATOM      5  C   UNL     1      12.877 -24.991  38.846  1.00  0.00     0.053 C 
BRANCH   5   6
ATOM      6  C   UNL     1      13.850 -24.842  37.717  1.00  0.00     0.041 C 
ATOM      7  O   UNL     1      13.664 -25.456  36.634  1.00  0.00    -0.550 OA
ATOM      8  O   UNL     1      14.980 -24.050  37.873  1.00  0.00    -0.550 OA
ENDBRANCH   5   6
ENDBRANCH   4   5
ENDBRANCH   3   4
ENDBRANCH   2   3
ENDBRANCH   1   2
BRANCH   1   9
ATOM      9  C   UNL     1       9.336 -26.821  41.744  1.00  0.00     0.000 C 
BRANCH   9  10
ATOM     10  C   UNL     1       8.504 -25.771  40.993  1.00  0.00    -0.000 C 
BRANCH  10  11
ATOM     11  C   UNL     1       9.376 -24.775  40.210  1.00  0.00    -0.000 C 
BRANCH  11  12
ATOM     12  C   UNL     1       9.413 -23.377  40.855  1.00  0.00    -0.000 C 
BRANCH  12  13
ATOM     13  C   UNL     1      10.720 -22.597  40.624  1.00  0.00    -0.003 C 
ATOM     14  C   UNL     1      11.436 -22.233  41.924  1.00  0.00     0.004 C 
ENDBRANCH  12  13
ENDBRANCH  11  12
ENDBRANCH  10  11
ENDBRANCH   9  10
ENDBRANCH   1   9
TORSDOF 10
ENDMDL
MODEL 9
REMARK VINA RESULT:    -3.356      2.001      3.444
REMARK INTER + INTRA:          -6.687
REMARK INTER:                  -5.122
REMARK INTRA:                  -1.565
REMARK UNBOUND:                -1.370
REMARK SMILES CCCCCCCCCCCC(=O)[O-]
REMARK SMILES IDX 7 1 8 2 9 3 10 4 11 5 12 6 13 7 14 8 6 9 5 10 4 11 3 12 2 13
REMARK SMILES IDX 1 14
REMARK H PARENT
REMARK Flexibility Score: inf
ROOT
ATOM      1  C   UNL     1      11.264 -22.823  42.208  1.00  0.00     0.000 C 
ENDROOT
BRANCH   1   2
ATOM      2  C   UNL     1      12.755 -22.456  42.050  1.00  0.00     0.000 C 
BRANCH   2   3
ATOM      3  C   UNL     1      13.525 -23.403  41.115  1.00  0.00     0.000 C 
BRANCH   3   4
ATOM      4  C   UNL     1      13.854 -22.763  39.756  1.00  0.00     0.006 C 
BRANCH   4   5
ATOM      5  C   UNL     1      13.150 -23.476  38.594  1.00  0.00     0.053 C 
BRANCH   5   6
ATOM      6  C   UNL     1      14.111 -24.282  37.775  1.00  0.00     0.041 C 
ATOM      7  O   UNL     1      15.350 -24.184  37.972  1.00  0.00    -0.550 OA
ATOM      8  O   UNL     1      13.638 -25.118  36.771  1.00  0.00    -0.550 OA
ENDBRANCH   5   6
ENDBRANCH   4   5
ENDBRANCH   3   4
ENDBRANCH   2   3
ENDBRANCH   1   2
BRANCH   1   9
ATOM      9  C   UNL     1      10.413 -22.318  41.030  1.00  0.00     0.000 C 
BRANCH   9  10
ATOM     10  C   UNL     1       9.737 -23.461  40.257  1.00  0.00    -0.000 C 
BRANCH  10  11
ATOM     11  C   UNL     1       9.960 -24.833  40.915  1.00  0.00    -0.000 C 
BRANCH  11  12
ATOM     12  C   UNL     1      10.684 -25.828  39.990  1.00  0.00    -0.000 C 
BRANCH  12  13
ATOM     13  C   UNL     1      11.630 -26.805  40.712  1.00  0.00    -0.003 C 
ATOM     14  C   UNL     1      12.984 -26.947  40.019  1.00  0.00     0.004 C 
ENDBRANCH  12  13
ENDBRANCH  11  12
ENDBRANCH  10  11
ENDBRANCH   9  10
ENDBRANCH   1   9
TORSDOF 10
ENDMDL
