MODEL 1
REMARK VINA RESULT:    -3.927      0.000      0.000
REMARK INTER + INTRA:          -9.445
REMARK INTER:                  -7.140
REMARK INTRA:                  -2.304
REMARK UNBOUND:                -2.304
REMARK SMILES CCCCCCCCCCCCCCCC(=O)[O-]
REMARK SMILES IDX 9 1 10 2 11 3 12 4 13 5 14 6 15 7 16 8 17 9 18 10 8 11 7 12
REMARK SMILES IDX 6 13 5 14 4 15 3 16 2 17 1 18
REMARK H PARENT
REMARK Flexibility Score: inf
ROOT
ATOM      1  C   UNL     1    -113.428 -40.931 -67.530  1.00  0.00     0.000 C 
ENDROOT
BRANCH   1   2
ATOM      2  C   UNL     1    -112.936 -40.730 -66.085  1.00  0.00     0.000 C 
BRANCH   2   3
ATOM      3  C   UNL     1    -113.758 -41.465 -65.010  1.00  0.00     0.000 C 
BRANCH   3   4
ATOM      4  C   UNL     1    -112.932 -42.503 -64.233  1.00  0.00     0.000 C 
BRANCH   4   5
ATOM      5  C   UNL     1    -111.565 -42.776 -64.881  1.00  0.00     0.000 C 
BRANCH   5   6
ATOM      6  C   UNL     1    -110.597 -43.503 -63.932  1.00  0.00     0.006 C 
BRANCH   6   7
ATOM      7  C   UNL     1    -109.135 -43.354 -64.372  1.00  0.00     0.053 C 
BRANCH   7   8
ATOM      8  C   UNL     1    -108.259 -42.898 -63.245  1.00  0.00     0.041 C 
ATOM      9  O   UNL     1    -107.948 -43.696 -62.322  1.00  0.00    -0.550 OA
ATOM     10  O   UNL     1    -107.764 -41.601 -63.229  1.00  0.00    -0.550 OA
ENDBRANCH   7   8
ENDBRANCH   6   7
ENDBRANCH   5   6
ENDBRANCH   4   5
ENDBRANCH   3   4
ENDBRANCH   2   3
ENDBRANCH   1   2
BRANCH   1  11
ATOM     11  C   UNL     1    -114.226 -42.235 -67.714  1.00  0.00     0.000 C 
BRANCH  11  12
ATOM     12  C   UNL     1    -113.363 -43.380 -68.267  1.00  0.00    -0.000 C 
BRANCH  12  13
ATOM     13  C   UNL     1    -112.433 -42.920 -69.404  1.00  0.00    -0.000 C 
BRANCH  13  14
ATOM     14  C   UNL     1    -111.086 -43.659 -69.399  1.00  0.00    -0.000 C 
BRANCH  14  15
ATOM     15  C   UNL     1    -110.350 -43.547 -68.054  1.00  0.00    -0.000 C 
BRANCH  15  16
ATOM     16  C   UNL     1    -109.209 -42.525 -68.136  1.00  0.00    -0.000 C 
BRANCH  16  17
ATOM     17  C   UNL     1    -109.728 -41.101 -67.908  1.00  0.00    -0.003 C 
ATOM     18  C   UNL     1    -109.169 -40.512 -66.616  1.00  0.00     0.004 C 
ENDBRANCH  16  17
ENDBRANCH  15  16
ENDBRANCH  14  15
ENDBRANCH  13  14
ENDBRANCH  12  13
ENDBRANCH  11  12
ENDBRANCH   1  11
TORSDOF 14
ENDMDL
MODEL 2
REMARK VINA RESULT:    -3.792      1.444      2.822
REMARK INTER + INTRA:          -9.201
REMARK INTER:                  -7.015
REMARK INTRA:                  -2.185
REMARK UNBOUND:                -2.304
REMARK SMILES CCCCCCCCCCCCCCCC(=O)[O-]
REMARK SMILES IDX 9 1 10 2 11 3 12 4 13 5 14 6 15 7 16 8 17 9 18 10 8 11 7 12
REMARK SMILES IDX 6 13 5 14 4 15 3 16 2 17 1 18
REMARK H PARENT
REMARK Flexibility Score: inf
ROOT
ATOM      1  C   UNL     1    -113.632 -41.622 -65.001  1.00  0.00     0.000 C 
ENDROOT
BRANCH   1   2
ATOM      2  C   UNL     1    -112.665 -42.634 -64.360  1.00  0.00     0.000 C 
BRANCH   2   3
ATOM      3  C   UNL     1    -111.277 -42.717 -65.022  1.00  0.00     0.000 C 
BRANCH   3   4
ATOM      4  C   UNL     1    -110.246 -43.461 -64.158  1.00  0.00     0.000 C 
BRANCH   4   5
ATOM      5  C   UNL     1    -108.850 -42.821 -64.221  1.00  0.00     0.000 C 
BRANCH   5   6
ATOM      6  C   UNL     1    -108.859 -41.455 -64.927  1.00  0.00     0.006 C 
BRANCH   6   7
ATOM      7  C   UNL     1    -107.466 -40.809 -64.956  1.00  0.00     0.053 C 
BRANCH   7   8
ATOM      8  C   UNL     1    -107.363 -39.669 -63.989  1.00  0.00     0.041 C 
ATOM      9  O   UNL     1    -107.302 -38.484 -64.411  1.00  0.00    -0.550 OA
ATOM     10  O   UNL     1    -107.361 -39.914 -62.622  1.00  0.00    -0.550 OA
ENDBRANCH   7   8
ENDBRANCH   6   7
ENDBRANCH   5   6
ENDBRANCH   4   5
ENDBRANCH   3   4
ENDBRANCH   2   3
ENDBRANCH   1   2
BRANCH   1  11
ATOM     11  C   UNL     1    -112.956 -40.741 -66.067  1.00  0.00     0.000 C 
BRANCH  11  12
ATOM     12  C   UNL     1    -113.501 -41.006 -67.480  1.00  0.00    -0.000 C 
BRANCH  12  13
ATOM     13  C   UNL     1    -114.158 -42.391 -67.608  1.00  0.00    -0.000 C 
BRANCH  13  14
ATOM     14  C   UNL     1    -113.365 -43.339 -68.521  1.00  0.00    -0.000 C 
BRANCH  14  15
ATOM     15  C   UNL     1    -112.023 -42.743 -68.974  1.00  0.00    -0.000 C 
BRANCH  15  16
ATOM     16  C   UNL     1    -110.850 -43.618 -68.513  1.00  0.00    -0.000 C 
BRANCH  16  17
ATOM     17  C   UNL     1    -109.573 -42.785 -68.352  1.00  0.00    -0.003 C 
ATOM     18  C   UNL     1    -109.876 -41.292 -68.429  1.00  0.00     0.004 C 
ENDBRANCH  16  17
ENDBRANCH  15  16
ENDBRANCH  14  15
ENDBRANCH  13  14
ENDBRANCH  12  13
ENDBRANCH  11  12
ENDBRANCH   1  11
TORSDOF 14
ENDMDL
MODEL 3
REMARK VINA RESULT:    -3.791      3.214      6.223
REMARK INTER + INTRA:          -9.199
REMARK INTER:                  -7.812
REMARK INTRA:                  -1.387
REMARK UNBOUND:                -2.304
REMARK SMILES CCCCCCCCCCCCCCCC(=O)[O-]
REMARK SMILES IDX 9 1 10 2 11 3 12 4 13 5 14 6 15 7 16 8 17 9 18 10 8 11 7 12
REMARK SMILES IDX 6 13 5 14 4 15 3 16 2 17 1 18
REMARK H PARENT
REMARK Flexibility Score: inf
ROOT
ATOM      1  C   UNL     1    -108.899 -43.185 -64.292  1.00  0.00     0.000 C 
ENDROOT
BRANCH   1   2
ATOM      2  C   UNL     1    -110.349 -43.474 -64.719  1.00  0.00     0.000 C 
BRANCH   2   3
ATOM      3  C   UNL     1    -111.365 -43.550 -63.564  1.00  0.00     0.000 C 
BRANCH   3   4
ATOM      4  C   UNL     1    -112.625 -42.705 -63.820  1.00  0.00     0.000 C 
BRANCH   4   5
ATOM      5  C   UNL     1    -112.453 -41.728 -64.994  1.00  0.00     0.000 C 
BRANCH   5   6
ATOM      6  C   UNL     1    -113.791 -41.141 -65.474  1.00  0.00     0.006 C 
BRANCH   6   7
ATOM      7  C   UNL     1    -114.507 -42.070 -66.464  1.00  0.00     0.053 C 
BRANCH   7   8
ATOM      8  C   UNL     1    -113.802 -42.125 -67.784  1.00  0.00     0.041 C 
ATOM      9  O   UNL     1    -113.682 -43.220 -68.395  1.00  0.00    -0.550 OA
ATOM     10  O   UNL     1    -113.300 -40.962 -68.354  1.00  0.00    -0.550 OA
ENDBRANCH   7   8
ENDBRANCH   6   7
ENDBRANCH   5   6
ENDBRANCH   4   5
ENDBRANCH   3   4
ENDBRANCH   2   3
ENDBRANCH   1   2
BRANCH   1  11
ATOM     11  C   UNL     1    -108.682 -43.334 -62.775  1.00  0.00     0.000 C 
BRANCH  11  12
ATOM     12  C   UNL     1    -107.198 -43.241 -62.382  1.00  0.00    -0.000 C 
BRANCH  12  13
ATOM     13  C   UNL     1    -106.884 -41.979 -61.561  1.00  0.00    -0.000 C 
BRANCH  13  14
ATOM     14  C   UNL     1    -106.293 -40.849 -62.419  1.00  0.00    -0.000 C 
BRANCH  14  15
ATOM     15  C   UNL     1    -107.325 -39.764 -62.766  1.00  0.00    -0.000 C 
BRANCH  15  16
ATOM     16  C   UNL     1    -107.087 -39.212 -64.178  1.00  0.00    -0.000 C 
BRANCH  16  17
ATOM     17  C   UNL     1    -107.565 -40.206 -65.243  1.00  0.00    -0.003 C 
ATOM     18  C   UNL     1    -108.943 -39.822 -65.775  1.00  0.00     0.004 C 
ENDBRANCH  16  17
ENDBRANCH  15  16
ENDBRANCH  14  15
ENDBRANCH  13  14
ENDBRANCH  12  13
ENDBRANCH  11  12
ENDBRANCH   1  11
TORSDOF 14
ENDMDL
MODEL 4
REMARK VINA RESULT:    -3.777      2.905      5.770
REMARK INTER + INTRA:          -9.173
REMARK INTER:                  -7.412
REMARK INTRA:                  -1.761
REMARK UNBOUND:                -2.304
REMARK SMILES CCCCCCCCCCCCCCCC(=O)[O-]
REMARK SMILES IDX 9 1 10 2 11 3 12 4 13 5 14 6 15 7 16 8 17 9 18 10 8 11 7 12
REMARK SMILES IDX 6 13 5 14 4 15 3 16 2 17 1 18
REMARK H PARENT
REMARK Flexibility Score: inf
ROOT
ATOM      1  C   UNL     1    -109.180 -42.642 -65.752  1.00  0.00     0.000 C 
ENDROOT
BRANCH   1   2
ATOM      2  C   UNL     1    -110.547 -43.338 -65.626  1.00  0.00     0.000 C 
BRANCH   2   3
ATOM      3  C   UNL     1    -111.145 -43.345 -64.207  1.00  0.00     0.000 C 
BRANCH   3   4
ATOM      4  C   UNL     1    -112.570 -42.767 -64.157  1.00  0.00     0.000 C 
BRANCH   4   5
ATOM      5  C   UNL     1    -112.718 -41.486 -64.994  1.00  0.00     0.000 C 
BRANCH   5   6
ATOM      6  C   UNL     1    -114.019 -41.466 -65.815  1.00  0.00     0.006 C 
BRANCH   6   7
ATOM      7  C   UNL     1    -113.770 -41.091 -67.283  1.00  0.00     0.053 C 
BRANCH   7   8
ATOM      8  C   UNL     1    -113.086 -42.194 -68.030  1.00  0.00     0.041 C 
ATOM      9  O   UNL     1    -112.004 -41.974 -68.636  1.00  0.00    -0.550 OA
ATOM     10  O   UNL     1    -113.628 -43.473 -68.033  1.00  0.00    -0.550 OA
ENDBRANCH   7   8
ENDBRANCH   6   7
ENDBRANCH   5   6
ENDBRANCH   4   5
ENDBRANCH   3   4
ENDBRANCH   2   3
ENDBRANCH   1   2
BRANCH   1  11
ATOM     11  C   UNL     1    -109.265 -41.284 -66.472  1.00  0.00     0.000 C 
BRANCH  11  12
ATOM     12  C   UNL     1    -109.316 -40.101 -65.492  1.00  0.00    -0.000 C 
BRANCH  12  13
ATOM     13  C   UNL     1    -108.003 -39.299 -65.469  1.00  0.00    -0.000 C 
BRANCH  13  14
ATOM     14  C   UNL     1    -107.322 -39.321 -64.092  1.00  0.00    -0.000 C 
BRANCH  14  15
ATOM     15  C   UNL     1    -106.914 -40.736 -63.653  1.00  0.00    -0.000 C 
BRANCH  15  16
ATOM     16  C   UNL     1    -107.224 -40.961 -62.168  1.00  0.00    -0.000 C 
BRANCH  16  17
ATOM     17  C   UNL     1    -106.938 -42.411 -61.760  1.00  0.00    -0.003 C 
ATOM     18  C   UNL     1    -107.881 -43.378 -62.470  1.00  0.00     0.004 C 
ENDBRANCH  16  17
ENDBRANCH  15  16
ENDBRANCH  14  15
ENDBRANCH  13  14
ENDBRANCH  12  13
ENDBRANCH  11  12
ENDBRANCH   1  11
TORSDOF 14
ENDMDL
MODEL 5
REMARK VINA RESULT:    -3.768      1.515      3.590
REMARK INTER + INTRA:          -9.156
REMARK INTER:                  -6.906
REMARK INTRA:                  -2.250
REMARK UNBOUND:                -2.304
REMARK SMILES CCCCCCCCCCCCCCCC(=O)[O-]
REMARK SMILES IDX 9 1 10 2 11 3 12 4 13 5 14 6 15 7 16 8 17 9 18 10 8 11 7 12
REMARK SMILES IDX 6 13 5 14 4 15 3 16 2 17 1 18
REMARK H PARENT
REMARK Flexibility Score: inf
ROOT
ATOM      1  C   UNL     1    -112.711 -43.244 -64.300  1.00  0.00     0.000 C 
ENDROOT
BRANCH   1   2
ATOM      2  C   UNL     1    -111.352 -43.401 -63.594  1.00  0.00     0.000 C 
BRANCH   2   3
ATOM      3  C   UNL     1    -110.123 -43.272 -64.513  1.00  0.00     0.000 C 
BRANCH   3   4
ATOM      4  C   UNL     1    -110.492 -43.258 -66.006  1.00  0.00     0.000 C 
BRANCH   4   5
ATOM      5  C   UNL     1    -110.078 -41.953 -66.705  1.00  0.00     0.000 C 
BRANCH   5   6
ATOM      6  C   UNL     1    -110.101 -40.742 -65.756  1.00  0.00     0.006 C 
BRANCH   6   7
ATOM      7  C   UNL     1    -108.788 -39.949 -65.799  1.00  0.00     0.053 C 
BRANCH   7   8
ATOM      8  C   UNL     1    -107.779 -40.491 -64.834  1.00  0.00     0.041 C 
ATOM      9  O   UNL     1    -107.617 -39.944 -63.711  1.00  0.00    -0.550 OA
ATOM     10  O   UNL     1    -107.037 -41.619 -65.163  1.00  0.00    -0.550 OA
ENDBRANCH   7   8
ENDBRANCH   6   7
ENDBRANCH   5   6
ENDBRANCH   4   5
ENDBRANCH   3   4
ENDBRANCH   2   3
ENDBRANCH   1   2
BRANCH   1  11
ATOM     11  C   UNL     1    -113.358 -41.869 -64.052  1.00  0.00     0.000 C 
BRANCH  11  12
ATOM     12  C   UNL     1    -113.641 -41.108 -65.358  1.00  0.00    -0.000 C 
BRANCH  12  13
ATOM     13  C   UNL     1    -114.370 -41.976 -66.398  1.00  0.00    -0.000 C 
BRANCH  13  14
ATOM     14  C   UNL     1    -113.688 -41.944 -67.775  1.00  0.00    -0.000 C 
BRANCH  14  15
ATOM     15  C   UNL     1    -113.404 -43.349 -68.331  1.00  0.00    -0.000 C 
BRANCH  15  16
ATOM     16  C   UNL     1    -113.019 -43.285 -69.814  1.00  0.00    -0.000 C 
BRANCH  16  17
ATOM     17  C   UNL     1    -111.843 -42.327 -70.036  1.00  0.00    -0.003 C 
ATOM     18  C   UNL     1    -110.536 -43.092 -70.219  1.00  0.00     0.004 C 
ENDBRANCH  16  17
ENDBRANCH  15  16
ENDBRANCH  14  15
ENDBRANCH  13  14
ENDBRANCH  12  13
ENDBRANCH  11  12
ENDBRANCH   1  11
TORSDOF 14
ENDMDL
MODEL 6
REMARK VINA RESULT:    -3.744      2.836      5.550
REMARK INTER + INTRA:          -9.113
REMARK INTER:                  -7.253
REMARK INTRA:                  -1.860
REMARK UNBOUND:                -2.304
REMARK SMILES CCCCCCCCCCCCCCCC(=O)[O-]
REMARK SMILES IDX 9 1 10 2 11 3 12 4 13 5 14 6 15 7 16 8 17 9 18 10 8 11 7 12
REMARK SMILES IDX 6 13 5 14 4 15 3 16 2 17 1 18
REMARK H PARENT
REMARK Flexibility Score: inf
ROOT
ATOM      1  C   UNL     1    -109.929 -41.943 -65.938  1.00  0.00     0.000 C 
ENDROOT
BRANCH   1   2
ATOM      2  C   UNL     1    -111.162 -41.062 -65.668  1.00  0.00     0.000 C 
BRANCH   2   3
ATOM      3  C   UNL     1    -112.393 -41.814 -65.130  1.00  0.00     0.000 C 
BRANCH   3   4
ATOM      4  C   UNL     1    -113.722 -41.159 -65.544  1.00  0.00     0.000 C 
BRANCH   4   5
ATOM      5  C   UNL     1    -114.252 -41.693 -66.884  1.00  0.00     0.000 C 
BRANCH   5   6
ATOM      6  C   UNL     1    -113.742 -43.109 -67.199  1.00  0.00     0.006 C 
BRANCH   6   7
ATOM      7  C   UNL     1    -113.395 -43.282 -68.684  1.00  0.00     0.053 C 
BRANCH   7   8
ATOM      8  C   UNL     1    -111.937 -43.054 -68.944  1.00  0.00     0.041 C 
ATOM      9  O   UNL     1    -111.506 -41.891 -69.158  1.00  0.00    -0.550 OA
ATOM     10  O   UNL     1    -111.051 -44.124 -68.923  1.00  0.00    -0.550 OA
ENDBRANCH   7   8
ENDBRANCH   6   7
ENDBRANCH   5   6
ENDBRANCH   4   5
ENDBRANCH   3   4
ENDBRANCH   2   3
ENDBRANCH   1   2
BRANCH   1  11
ATOM     11  C   UNL     1    -109.860 -43.174 -65.017  1.00  0.00     0.000 C 
BRANCH  11  12
ATOM     12  C   UNL     1    -108.522 -43.274 -64.267  1.00  0.00    -0.000 C 
BRANCH  12  13
ATOM     13  C   UNL     1    -108.689 -43.129 -62.744  1.00  0.00    -0.000 C 
BRANCH  13  14
ATOM     14  C   UNL     1    -107.535 -42.349 -62.095  1.00  0.00    -0.000 C 
BRANCH  14  15
ATOM     15  C   UNL     1    -106.742 -41.507 -63.107  1.00  0.00    -0.000 C 
BRANCH  15  16
ATOM     16  C   UNL     1    -107.010 -40.010 -62.906  1.00  0.00    -0.000 C 
BRANCH  16  17
ATOM     17  C   UNL     1    -107.796 -39.428 -64.086  1.00  0.00    -0.003 C 
ATOM     18  C   UNL     1    -107.043 -39.622 -65.399  1.00  0.00     0.004 C 
ENDBRANCH  16  17
ENDBRANCH  15  16
ENDBRANCH  14  15
ENDBRANCH  13  14
ENDBRANCH  12  13
ENDBRANCH  11  12
ENDBRANCH   1  11
TORSDOF 14
ENDMDL
MODEL 7
REMARK VINA RESULT:    -3.737      1.946      4.570
REMARK INTER + INTRA:          -9.099
REMARK INTER:                  -7.416
REMARK INTRA:                  -1.683
REMARK UNBOUND:                -2.304
REMARK SMILES CCCCCCCCCCCCCCCC(=O)[O-]
REMARK SMILES IDX 9 1 10 2 11 3 12 4 13 5 14 6 15 7 16 8 17 9 18 10 8 11 7 12
REMARK SMILES IDX 6 13 5 14 4 15 3 16 2 17 1 18
REMARK H PARENT
REMARK Flexibility Score: inf
ROOT
ATOM      1  C   UNL     1    -112.439 -41.676 -65.079  1.00  0.00     0.000 C 
ENDROOT
BRANCH   1   2
ATOM      2  C   UNL     1    -113.782 -41.173 -65.641  1.00  0.00     0.000 C 
BRANCH   2   3
ATOM      3  C   UNL     1    -114.047 -41.534 -67.114  1.00  0.00     0.000 C 
BRANCH   3   4
ATOM      4  C   UNL     1    -113.696 -42.995 -67.444  1.00  0.00     0.000 C 
BRANCH   4   5
ATOM      5  C   UNL     1    -112.825 -43.123 -68.705  1.00  0.00     0.000 C 
BRANCH   5   6
ATOM      6  C   UNL     1    -111.335 -43.315 -68.375  1.00  0.00     0.006 C 
BRANCH   6   7
ATOM      7  C   UNL     1    -110.472 -42.167 -68.916  1.00  0.00     0.053 C 
BRANCH   7   8
ATOM      8  C   UNL     1    -109.443 -41.729 -67.919  1.00  0.00     0.041 C 
ATOM      9  O   UNL     1    -109.649 -40.716 -67.200  1.00  0.00    -0.550 OA
ATOM     10  O   UNL     1    -108.269 -42.455 -67.765  1.00  0.00    -0.550 OA
ENDBRANCH   7   8
ENDBRANCH   6   7
ENDBRANCH   5   6
ENDBRANCH   4   5
ENDBRANCH   3   4
ENDBRANCH   2   3
ENDBRANCH   1   2
BRANCH   1  11
ATOM     11  C   UNL     1    -112.613 -42.714 -63.956  1.00  0.00     0.000 C 
BRANCH  11  12
ATOM     12  C   UNL     1    -111.324 -43.509 -63.686  1.00  0.00    -0.000 C 
BRANCH  12  13
ATOM     13  C   UNL     1    -110.306 -43.386 -64.832  1.00  0.00    -0.000 C 
BRANCH  13  14
ATOM     14  C   UNL     1    -108.864 -43.219 -64.326  1.00  0.00    -0.000 C 
BRANCH  14  15
ATOM     15  C   UNL     1    -108.765 -43.250 -62.793  1.00  0.00    -0.000 C 
BRANCH  15  16
ATOM     16  C   UNL     1    -107.727 -42.238 -62.290  1.00  0.00    -0.000 C 
BRANCH  16  17
ATOM     17  C   UNL     1    -107.314 -41.273 -63.407  1.00  0.00    -0.003 C 
ATOM     18  C   UNL     1    -107.256 -39.836 -62.899  1.00  0.00     0.004 C 
ENDBRANCH  16  17
ENDBRANCH  15  16
ENDBRANCH  14  15
ENDBRANCH  13  14
ENDBRANCH  12  13
ENDBRANCH  11  12
ENDBRANCH   1  11
TORSDOF 14
ENDMDL
MODEL 8
REMARK VINA RESULT:    -3.717      3.655      5.586
REMARK INTER + INTRA:          -9.064
REMARK INTER:                  -7.125
REMARK INTRA:                  -1.939
REMARK UNBOUND:                -2.304
REMARK SMILES CCCCCCCCCCCCCCCC(=O)[O-]
REMARK SMILES IDX 9 1 10 2 11 3 12 4 13 5 14 6 15 7 16 8 17 9 18 10 8 11 7 12
REMARK SMILES IDX 6 13 5 14 4 15 3 16 2 17 1 18
REMARK H PARENT
REMARK Flexibility Score: inf
ROOT
ATOM      1  C   UNL     1    -110.940 -40.848 -65.787  1.00  0.00     0.000 C 
ENDROOT
BRANCH   1   2
ATOM      2  C   UNL     1    -112.382 -40.537 -66.228  1.00  0.00     0.000 C 
BRANCH   2   3
ATOM      3  C   UNL     1    -113.479 -41.242 -65.410  1.00  0.00     0.000 C 
BRANCH   3   4
ATOM      4  C   UNL     1    -114.134 -42.409 -66.169  1.00  0.00     0.000 C 
BRANCH   4   5
ATOM      5  C   UNL     1    -114.035 -42.250 -67.694  1.00  0.00     0.000 C 
BRANCH   5   6
ATOM      6  C   UNL     1    -113.370 -43.461 -68.371  1.00  0.00     0.006 C 
BRANCH   6   7
ATOM      7  C   UNL     1    -112.385 -43.040 -69.470  1.00  0.00     0.053 C 
BRANCH   7   8
ATOM      8  C   UNL     1    -113.094 -42.628 -70.724  1.00  0.00     0.041 C 
ATOM      9  O   UNL     1    -113.794 -43.461 -71.359  1.00  0.00    -0.550 OA
ATOM     10  O   UNL     1    -113.004 -41.318 -71.177  1.00  0.00    -0.550 OA
ENDBRANCH   7   8
ENDBRANCH   6   7
ENDBRANCH   5   6
ENDBRANCH   4   5
ENDBRANCH   3   4
ENDBRANCH   2   3
ENDBRANCH   1   2
BRANCH   1  11
ATOM     11  C   UNL     1    -110.312 -42.012 -66.574  1.00  0.00     0.000 C 
BRANCH  11  12
ATOM     12  C   UNL     1    -110.420 -43.352 -65.827  1.00  0.00    -0.000 C 
BRANCH  12  13
ATOM     13  C   UNL     1    -110.035 -43.232 -64.343  1.00  0.00    -0.000 C 
BRANCH  13  14
ATOM     14  C   UNL     1    -108.528 -43.425 -64.107  1.00  0.00    -0.000 C 
BRANCH  14  15
ATOM     15  C   UNL     1    -107.847 -42.164 -63.550  1.00  0.00    -0.000 C 
BRANCH  15  16
ATOM     16  C   UNL     1    -107.408 -41.231 -64.685  1.00  0.00    -0.000 C 
BRANCH  16  17
ATOM     17  C   UNL     1    -107.528 -39.761 -64.267  1.00  0.00    -0.003 C 
ATOM     18  C   UNL     1    -107.018 -39.551 -62.844  1.00  0.00     0.004 C 
ENDBRANCH  16  17
ENDBRANCH  15  16
ENDBRANCH  14  15
ENDBRANCH  13  14
ENDBRANCH  12  13
ENDBRANCH  11  12
ENDBRANCH   1  11
TORSDOF 14
ENDMDL
MODEL 9
REMARK VINA RESULT:    -3.689     15.196     17.793
REMARK INTER + INTRA:          -9.013
REMARK INTER:                  -6.567
REMARK INTRA:                  -2.446
REMARK UNBOUND:                -2.304
REMARK SMILES CCCCCCCCCCCCCCCC(=O)[O-]
REMARK SMILES IDX 9 1 10 2 11 3 12 4 13 5 14 6 15 7 16 8 17 9 18 10 8 11 7 12
REMARK SMILES IDX 6 13 5 14 4 15 3 16 2 17 1 18
REMARK H PARENT
REMARK Flexibility Score: inf
ROOT
ATOM      1  C   UNL     1    -103.194 -25.395 -60.365  1.00  0.00     0.000 C 
ENDROOT
BRANCH   1   2
ATOM      2  C   UNL     1    -104.056 -24.152 -60.649  1.00  0.00     0.000 C 
BRANCH   2   3
ATOM      3  C   UNL     1    -105.156 -24.351 -61.707  1.00  0.00     0.000 C 
BRANCH   3   4
ATOM      4  C   UNL     1    -105.230 -25.796 -62.229  1.00  0.00     0.000 C 
BRANCH   4   5
ATOM      5  C   UNL     1    -106.558 -26.102 -62.939  1.00  0.00     0.000 C 
BRANCH   5   6
ATOM      6  C   UNL     1    -106.866 -27.608 -62.992  1.00  0.00     0.006 C 
BRANCH   6   7
ATOM      7  C   UNL     1    -106.621 -28.199 -64.387  1.00  0.00     0.053 C 
BRANCH   7   8
ATOM      8  C   UNL     1    -107.359 -29.488 -64.582  1.00  0.00     0.041 C 
ATOM      9  O   UNL     1    -107.655 -29.881 -65.741  1.00  0.00    -0.550 OA
ATOM     10  O   UNL     1    -107.696 -30.270 -63.484  1.00  0.00    -0.550 OA
ENDBRANCH   7   8
ENDBRANCH   6   7
ENDBRANCH   5   6
ENDBRANCH   4   5
ENDBRANCH   3   4
ENDBRANCH   2   3
ENDBRANCH   1   2
BRANCH   1  11
ATOM     11  C   UNL     1    -103.167 -25.777 -58.874  1.00  0.00     0.000 C 
BRANCH  11  12
ATOM     12  C   UNL     1    -103.340 -27.288 -58.651  1.00  0.00    -0.000 C 
BRANCH  12  13
ATOM     13  C   UNL     1    -103.392 -28.076 -59.971  1.00  0.00    -0.000 C 
BRANCH  13  14
ATOM     14  C   UNL     1    -104.745 -28.772 -60.190  1.00  0.00    -0.000 C 
BRANCH  14  15
ATOM     15  C   UNL     1    -105.673 -28.667 -58.970  1.00  0.00    -0.000 C 
BRANCH  15  16
ATOM     16  C   UNL     1    -106.991 -27.976 -59.340  1.00  0.00    -0.000 C 
BRANCH  16  17
ATOM     17  C   UNL     1    -106.913 -26.468 -59.080  1.00  0.00    -0.003 C 
ATOM     18  C   UNL     1    -106.694 -26.175 -57.599  1.00  0.00     0.004 C 
ENDBRANCH  16  17
ENDBRANCH  15  16
ENDBRANCH  14  15
ENDBRANCH  13  14
ENDBRANCH  12  13
ENDBRANCH  11  12
ENDBRANCH   1  11
TORSDOF 14
ENDMDL
