MODEL 1
REMARK VINA RESULT:    -4.034      0.000      0.000
REMARK INTER + INTRA:          -7.487
REMARK INTER:                  -6.392
REMARK INTRA:                  -1.095
REMARK UNBOUND:                -1.095
REMARK SMILES CCCCCCCCCCCC(=O)[O-]
REMARK SMILES IDX 7 1 8 2 9 3 10 4 11 5 12 6 13 7 14 8 6 9 5 10 4 11 3 12 2 13
REMARK SMILES IDX 1 14
REMARK H PARENT
REMARK Flexibility Score: inf
ROOT
ATOM      1  C   UNL     1      81.236  81.531  76.841  1.00  0.00     0.000 C 
ENDROOT
BRANCH   1   2
ATOM      2  C   UNL     1      80.889  82.634  75.831  1.00  0.00     0.000 C 
BRANCH   2   3
ATOM      3  C   UNL     1      79.675  82.240  74.981  1.00  0.00     0.000 C 
BRANCH   3   4
ATOM      4  C   UNL     1      78.675  83.397  74.878  1.00  0.00     0.006 C 
BRANCH   4   5
ATOM      5  C   UNL     1      77.237  82.899  75.053  1.00  0.00     0.053 C 
BRANCH   5   6
ATOM      6  C   UNL     1      76.283  84.051  75.068  1.00  0.00     0.041 C 
ATOM      7  O   UNL     1      75.081  83.874  75.401  1.00  0.00    -0.550 OA
ATOM      8  O   UNL     1      76.731  85.329  74.760  1.00  0.00    -0.550 OA
ENDBRANCH   5   6
ENDBRANCH   4   5
ENDBRANCH   3   4
ENDBRANCH   2   3
ENDBRANCH   1   2
BRANCH   1   9
ATOM      9  C   UNL     1      80.049  80.601  77.146  1.00  0.00     0.000 C 
BRANCH   9  10
ATOM     10  C   UNL     1      79.364  80.842  78.503  1.00  0.00    -0.000 C 
BRANCH  10  11
ATOM     11  C   UNL     1      78.150  81.777  78.404  1.00  0.00    -0.000 C 
BRANCH  11  12
ATOM     12  C   UNL     1      76.856  81.040  78.767  1.00  0.00    -0.000 C 
BRANCH  12  13
ATOM     13  C   UNL     1      75.623  81.845  78.338  1.00  0.00    -0.003 C 
ATOM     14  C   UNL     1      74.614  80.963  77.611  1.00  0.00     0.004 C 
ENDBRANCH  12  13
ENDBRANCH  11  12
ENDBRANCH  10  11
ENDBRANCH   9  10
ENDBRANCH   1   9
TORSDOF 10
ENDMDL
MODEL 2
REMARK VINA RESULT:    -3.965      1.182      4.186
REMARK INTER + INTRA:          -7.378
REMARK INTER:                  -6.362
REMARK INTRA:                  -1.016
REMARK UNBOUND:                -1.095
REMARK SMILES CCCCCCCCCCCC(=O)[O-]
REMARK SMILES IDX 7 1 8 2 9 3 10 4 11 5 12 6 13 7 14 8 6 9 5 10 4 11 3 12 2 13
REMARK SMILES IDX 1 14
REMARK H PARENT
REMARK Flexibility Score: inf
ROOT
ATOM      1  C   UNL     1      75.690  80.690  79.334  1.00  0.00     0.000 C 
ENDROOT
BRANCH   1   2
ATOM      2  C   UNL     1      75.280  81.836  78.398  1.00  0.00     0.000 C 
BRANCH   2   3
ATOM      3  C   UNL     1      74.709  81.295  77.082  1.00  0.00     0.000 C 
BRANCH   3   4
ATOM      4  C   UNL     1      75.409  81.930  75.875  1.00  0.00     0.006 C 
BRANCH   4   5
ATOM      5  C   UNL     1      75.954  83.318  76.223  1.00  0.00     0.053 C 
BRANCH   5   6
ATOM      6  C   UNL     1      76.703  83.892  75.062  1.00  0.00     0.041 C 
ATOM      7  O   UNL     1      77.343  83.136  74.284  1.00  0.00    -0.550 OA
ATOM      8  O   UNL     1      76.655  85.257  74.810  1.00  0.00    -0.550 OA
ENDBRANCH   5   6
ENDBRANCH   4   5
ENDBRANCH   3   4
ENDBRANCH   2   3
ENDBRANCH   1   2
BRANCH   1   9
ATOM      9  C   UNL     1      77.069  80.099  78.990  1.00  0.00     0.000 C 
BRANCH   9  10
ATOM     10  C   UNL     1      78.156  81.135  78.651  1.00  0.00    -0.000 C 
BRANCH  10  11
ATOM     11  C   UNL     1      78.858  80.852  77.315  1.00  0.00    -0.000 C 
BRANCH  11  12
ATOM     12  C   UNL     1      80.239  81.515  77.268  1.00  0.00    -0.000 C 
BRANCH  12  13
ATOM     13  C   UNL     1      80.290  82.605  76.191  1.00  0.00    -0.003 C 
ATOM     14  C   UNL     1      81.695  82.741  75.611  1.00  0.00     0.004 C 
ENDBRANCH  12  13
ENDBRANCH  11  12
ENDBRANCH  10  11
ENDBRANCH   9  10
ENDBRANCH   1   9
TORSDOF 10
ENDMDL
MODEL 3
REMARK VINA RESULT:    -3.901      1.337      2.245
REMARK INTER + INTRA:          -7.277
REMARK INTER:                  -6.084
REMARK INTRA:                  -1.192
REMARK UNBOUND:                -1.095
REMARK SMILES CCCCCCCCCCCC(=O)[O-]
REMARK SMILES IDX 7 1 8 2 9 3 10 4 11 5 12 6 13 7 14 8 6 9 5 10 4 11 3 12 2 13
REMARK SMILES IDX 1 14
REMARK H PARENT
REMARK Flexibility Score: inf
ROOT
ATOM      1  C   UNL     1      78.476  80.492  77.419  1.00  0.00     0.000 C 
ENDROOT
BRANCH   1   2
ATOM      2  C   UNL     1      78.809  80.931  75.986  1.00  0.00     0.000 C 
BRANCH   2   3
ATOM      3  C   UNL     1      79.358  82.362  75.964  1.00  0.00     0.000 C 
BRANCH   3   4
ATOM      4  C   UNL     1      78.681  83.196  74.870  1.00  0.00     0.006 C 
BRANCH   4   5
ATOM      5  C   UNL     1      77.196  82.840  74.747  1.00  0.00     0.053 C 
BRANCH   5   6
ATOM      6  C   UNL     1      76.344  84.010  75.122  1.00  0.00     0.041 C 
ATOM      7  O   UNL     1      75.273  83.836  75.760  1.00  0.00    -0.550 OA
ATOM      8  O   UNL     1      76.756  85.299  74.808  1.00  0.00    -0.550 OA
ENDBRANCH   5   6
ENDBRANCH   4   5
ENDBRANCH   3   4
ENDBRANCH   2   3
ENDBRANCH   1   2
BRANCH   1   9
ATOM      9  C   UNL     1      78.000  81.654  78.309  1.00  0.00     0.000 C 
BRANCH   9  10
ATOM     10  C   UNL     1      76.473  81.833  78.385  1.00  0.00    -0.000 C 
BRANCH  10  11
ATOM     11  C   UNL     1      75.699  80.612  77.867  1.00  0.00    -0.000 C 
BRANCH  11  12
ATOM     12  C   UNL     1      74.852  79.984  78.980  1.00  0.00    -0.000 C 
BRANCH  12  13
ATOM     13  C   UNL     1      75.663  79.842  80.274  1.00  0.00    -0.003 C 
ATOM     14  C   UNL     1      76.514  78.576  80.254  1.00  0.00     0.004 C 
ENDBRANCH  12  13
ENDBRANCH  11  12
ENDBRANCH  10  11
ENDBRANCH   9  10
ENDBRANCH   1   9
TORSDOF 10
ENDMDL
MODEL 4
REMARK VINA RESULT:    -3.826      1.222      3.567
REMARK INTER + INTRA:          -7.158
REMARK INTER:                  -5.971
REMARK INTRA:                  -1.187
REMARK UNBOUND:                -1.095
REMARK SMILES CCCCCCCCCCCC(=O)[O-]
REMARK SMILES IDX 7 1 8 2 9 3 10 4 11 5 12 6 13 7 14 8 6 9 5 10 4 11 3 12 2 13
REMARK SMILES IDX 1 14
REMARK H PARENT
REMARK Flexibility Score: inf
ROOT
ATOM      1  C   UNL     1      78.402  80.969  78.544  1.00  0.00     0.000 C 
ENDROOT
BRANCH   1   2
ATOM      2  C   UNL     1      77.772  81.766  77.393  1.00  0.00     0.000 C 
BRANCH   2   3
ATOM      3  C   UNL     1      76.703  80.937  76.671  1.00  0.00     0.000 C 
BRANCH   3   4
ATOM      4  C   UNL     1      76.427  81.494  75.270  1.00  0.00     0.006 C 
BRANCH   4   5
ATOM      5  C   UNL     1      77.203  82.793  75.031  1.00  0.00     0.053 C 
BRANCH   5   6
ATOM      6  C   UNL     1      76.265  83.954  74.945  1.00  0.00     0.041 C 
ATOM      7  O   UNL     1      75.019  83.767  74.979  1.00  0.00    -0.550 OA
ATOM      8  O   UNL     1      76.764  85.248  74.874  1.00  0.00    -0.550 OA
ENDBRANCH   5   6
ENDBRANCH   4   5
ENDBRANCH   3   4
ENDBRANCH   2   3
ENDBRANCH   1   2
BRANCH   1   9
ATOM      9  C   UNL     1      79.712  80.268  78.143  1.00  0.00     0.000 C 
BRANCH   9  10
ATOM     10  C   UNL     1      80.997  81.039  78.492  1.00  0.00    -0.000 C 
BRANCH  10  11
ATOM     11  C   UNL     1      81.834  81.401  77.256  1.00  0.00    -0.000 C 
BRANCH  11  12
ATOM     12  C   UNL     1      81.106  81.010  75.965  1.00  0.00    -0.000 C 
BRANCH  12  13
ATOM     13  C   UNL     1      81.012  82.200  75.004  1.00  0.00    -0.003 C 
ATOM     14  C   UNL     1      80.660  83.484  75.749  1.00  0.00     0.004 C 
ENDBRANCH  12  13
ENDBRANCH  11  12
ENDBRANCH  10  11
ENDBRANCH   9  10
ENDBRANCH   1   9
TORSDOF 10
ENDMDL
MODEL 5
REMARK VINA RESULT:    -3.779      1.049      3.999
REMARK INTER + INTRA:          -7.083
REMARK INTER:                  -6.189
REMARK INTRA:                  -0.894
REMARK UNBOUND:                -1.095
REMARK SMILES CCCCCCCCCCCC(=O)[O-]
REMARK SMILES IDX 7 1 8 2 9 3 10 4 11 5 12 6 13 7 14 8 6 9 5 10 4 11 3 12 2 13
REMARK SMILES IDX 1 14
REMARK H PARENT
REMARK Flexibility Score: inf
ROOT
ATOM      1  C   UNL     1      77.262  80.571  78.787  1.00  0.00     0.000 C 
ENDROOT
BRANCH   1   2
ATOM      2  C   UNL     1      76.306  81.771  78.736  1.00  0.00     0.000 C 
BRANCH   2   3
ATOM      3  C   UNL     1      74.957  81.374  78.125  1.00  0.00     0.000 C 
BRANCH   3   4
ATOM      4  C   UNL     1      74.747  82.049  76.765  1.00  0.00     0.006 C 
BRANCH   4   5
ATOM      5  C   UNL     1      75.758  83.180  76.551  1.00  0.00     0.053 C 
BRANCH   5   6
ATOM      6  C   UNL     1      75.485  83.890  75.263  1.00  0.00     0.041 C 
ATOM      7  O   UNL     1      76.214  84.851  74.902  1.00  0.00    -0.550 OA
ATOM      8  O   UNL     1      74.453  83.460  74.438  1.00  0.00    -0.550 OA
ENDBRANCH   5   6
ENDBRANCH   4   5
ENDBRANCH   3   4
ENDBRANCH   2   3
ENDBRANCH   1   2
BRANCH   1   9
ATOM      9  C   UNL     1      78.724  80.956  78.497  1.00  0.00     0.000 C 
BRANCH   9  10
ATOM     10  C   UNL     1      78.986  81.496  77.079  1.00  0.00    -0.000 C 
BRANCH  10  11
ATOM     11  C   UNL     1      80.432  81.976  76.879  1.00  0.00    -0.000 C 
BRANCH  11  12
ATOM     12  C   UNL     1      80.573  82.765  75.572  1.00  0.00    -0.000 C 
BRANCH  12  13
ATOM     13  C   UNL     1      79.200  83.178  75.028  1.00  0.00    -0.003 C 
ATOM     14  C   UNL     1      78.930  82.537  73.670  1.00  0.00     0.004 C 
ENDBRANCH  12  13
ENDBRANCH  11  12
ENDBRANCH  10  11
ENDBRANCH   9  10
ENDBRANCH   1   9
TORSDOF 10
ENDMDL
MODEL 6
REMARK VINA RESULT:    -3.774      1.323      4.212
REMARK INTER + INTRA:          -7.076
REMARK INTER:                  -6.114
REMARK INTRA:                  -0.962
REMARK UNBOUND:                -1.095
REMARK SMILES CCCCCCCCCCCC(=O)[O-]
REMARK SMILES IDX 7 1 8 2 9 3 10 4 11 5 12 6 13 7 14 8 6 9 5 10 4 11 3 12 2 13
REMARK SMILES IDX 1 14
REMARK H PARENT
REMARK Flexibility Score: inf
ROOT
ATOM      1  C   UNL     1      75.594  81.804  78.584  1.00  0.00     0.000 C 
ENDROOT
BRANCH   1   2
ATOM      2  C   UNL     1      74.666  81.466  77.408  1.00  0.00     0.000 C 
BRANCH   2   3
ATOM      3  C   UNL     1      75.451  80.838  76.251  1.00  0.00     0.000 C 
BRANCH   3   4
ATOM      4  C   UNL     1      75.464  81.762  75.028  1.00  0.00     0.006 C 
BRANCH   4   5
ATOM      5  C   UNL     1      76.761  82.574  74.965  1.00  0.00     0.053 C 
BRANCH   5   6
ATOM      6  C   UNL     1      76.473  84.034  75.111  1.00  0.00     0.041 C 
ATOM      7  O   UNL     1      77.360  84.886  74.836  1.00  0.00    -0.550 OA
ATOM      8  O   UNL     1      75.211  84.458  75.506  1.00  0.00    -0.550 OA
ENDBRANCH   5   6
ENDBRANCH   4   5
ENDBRANCH   3   4
ENDBRANCH   2   3
ENDBRANCH   1   2
BRANCH   1   9
ATOM      9  C   UNL     1      76.829  80.888  78.658  1.00  0.00     0.000 C 
BRANCH   9  10
ATOM     10  C   UNL     1      78.184  81.611  78.556  1.00  0.00    -0.000 C 
BRANCH  10  11
ATOM     11  C   UNL     1      79.130  80.969  77.530  1.00  0.00    -0.000 C 
BRANCH  11  12
ATOM     12  C   UNL     1      80.595  81.246  77.886  1.00  0.00    -0.000 C 
BRANCH  12  13
ATOM     13  C   UNL     1      81.069  80.328  79.019  1.00  0.00    -0.003 C 
ATOM     14  C   UNL     1      82.126  81.015  79.879  1.00  0.00     0.004 C 
ENDBRANCH  12  13
ENDBRANCH  11  12
ENDBRANCH  10  11
ENDBRANCH   9  10
ENDBRANCH   1   9
TORSDOF 10
ENDMDL
MODEL 7
REMARK VINA RESULT:    -3.769      1.371      2.628
REMARK INTER + INTRA:          -7.068
REMARK INTER:                  -5.731
REMARK INTRA:                  -1.338
REMARK UNBOUND:                -1.095
REMARK SMILES CCCCCCCCCCCC(=O)[O-]
REMARK SMILES IDX 7 1 8 2 9 3 10 4 11 5 12 6 13 7 14 8 6 9 5 10 4 11 3 12 2 13
REMARK SMILES IDX 1 14
REMARK H PARENT
REMARK Flexibility Score: inf
ROOT
ATOM      1  C   UNL     1      77.926  81.134  77.875  1.00  0.00     0.000 C 
ENDROOT
BRANCH   1   2
ATOM      2  C   UNL     1      78.863  81.784  76.846  1.00  0.00     0.000 C 
BRANCH   2   3
ATOM      3  C   UNL     1      78.508  81.341  75.422  1.00  0.00     0.000 C 
BRANCH   3   4
ATOM      4  C   UNL     1      78.029  82.528  74.579  1.00  0.00     0.006 C 
BRANCH   4   5
ATOM      5  C   UNL     1      76.514  82.718  74.706  1.00  0.00     0.053 C 
BRANCH   5   6
ATOM      6  C   UNL     1      76.198  84.102  75.177  1.00  0.00     0.041 C 
ATOM      7  O   UNL     1      75.213  84.304  75.937  1.00  0.00    -0.550 OA
ATOM      8  O   UNL     1      77.018  85.164  74.817  1.00  0.00    -0.550 OA
ENDBRANCH   5   6
ENDBRANCH   4   5
ENDBRANCH   3   4
ENDBRANCH   2   3
ENDBRANCH   1   2
BRANCH   1   9
ATOM      9  C   UNL     1      76.923  82.128  78.487  1.00  0.00     0.000 C 
BRANCH   9  10
ATOM     10  C   UNL     1      75.443  81.733  78.340  1.00  0.00    -0.000 C 
BRANCH  10  11
ATOM     11  C   UNL     1      75.219  80.622  77.303  1.00  0.00    -0.000 C 
BRANCH  11  12
ATOM     12  C   UNL     1      73.882  80.809  76.578  1.00  0.00    -0.000 C 
BRANCH  12  13
ATOM     13  C   UNL     1      73.071  81.950  77.203  1.00  0.00    -0.003 C 
ATOM     14  C   UNL     1      71.936  82.389  76.282  1.00  0.00     0.004 C 
ENDBRANCH  12  13
ENDBRANCH  11  12
ENDBRANCH  10  11
ENDBRANCH   9  10
ENDBRANCH   1   9
TORSDOF 10
ENDMDL
MODEL 8
REMARK VINA RESULT:    -3.752      1.943      3.609
REMARK INTER + INTRA:          -7.041
REMARK INTER:                  -5.809
REMARK INTRA:                  -1.232
REMARK UNBOUND:                -1.095
REMARK SMILES CCCCCCCCCCCC(=O)[O-]
REMARK SMILES IDX 7 1 8 2 9 3 10 4 11 5 12 6 13 7 14 8 6 9 5 10 4 11 3 12 2 13
REMARK SMILES IDX 1 14
REMARK H PARENT
REMARK Flexibility Score: inf
ROOT
ATOM      1  C   UNL     1      77.256  80.944  78.418  1.00  0.00     0.000 C 
ENDROOT
BRANCH   1   2
ATOM      2  C   UNL     1      78.690  81.478  78.548  1.00  0.00     0.000 C 
BRANCH   2   3
ATOM      3  C   UNL     1      79.516  81.148  77.300  1.00  0.00     0.000 C 
BRANCH   3   4
ATOM      4  C   UNL     1      79.586  82.349  76.351  1.00  0.00     0.006 C 
BRANCH   4   5
ATOM      5  C   UNL     1      79.569  81.897  74.888  1.00  0.00     0.053 C 
BRANCH   5   6
ATOM      6  C   UNL     1      78.755  82.838  74.058  1.00  0.00     0.041 C 
ATOM      7  O   UNL     1      78.501  82.565  72.855  1.00  0.00    -0.550 OA
ATOM      8  O   UNL     1      78.238  83.996  74.625  1.00  0.00    -0.550 OA
ENDBRANCH   5   6
ENDBRANCH   4   5
ENDBRANCH   3   4
ENDBRANCH   2   3
ENDBRANCH   1   2
BRANCH   1   9
ATOM      9  C   UNL     1      76.201  82.062  78.363  1.00  0.00     0.000 C 
BRANCH   9  10
ATOM     10  C   UNL     1      75.837  82.546  76.948  1.00  0.00    -0.000 C 
BRANCH  10  11
ATOM     11  C   UNL     1      75.867  81.420  75.904  1.00  0.00    -0.000 C 
BRANCH  11  12
ATOM     12  C   UNL     1      75.215  81.869  74.591  1.00  0.00    -0.000 C 
BRANCH  12  13
ATOM     13  C   UNL     1      74.414  83.162  74.789  1.00  0.00    -0.003 C 
ATOM     14  C   UNL     1      72.924  82.927  74.565  1.00  0.00     0.004 C 
ENDBRANCH  12  13
ENDBRANCH  11  12
ENDBRANCH  10  11
ENDBRANCH   9  10
ENDBRANCH   1   9
TORSDOF 10
ENDMDL
MODEL 9
REMARK VINA RESULT:    -3.736      2.033      4.166
REMARK INTER + INTRA:          -7.016
REMARK INTER:                  -5.854
REMARK INTRA:                  -1.162
REMARK UNBOUND:                -1.095
REMARK SMILES CCCCCCCCCCCC(=O)[O-]
REMARK SMILES IDX 7 1 8 2 9 3 10 4 11 5 12 6 13 7 14 8 6 9 5 10 4 11 3 12 2 13
REMARK SMILES IDX 1 14
REMARK H PARENT
REMARK Flexibility Score: inf
ROOT
ATOM      1  C   UNL     1      73.514  80.315  75.882  1.00  0.00     0.000 C 
ENDROOT
BRANCH   1   2
ATOM      2  C   UNL     1      74.213  81.438  75.103  1.00  0.00     0.000 C 
BRANCH   2   3
ATOM      3  C   UNL     1      75.313  80.876  74.194  1.00  0.00     0.000 C 
BRANCH   3   4
ATOM      4  C   UNL     1      76.581  81.734  74.268  1.00  0.00     0.006 C 
BRANCH   4   5
ATOM      5  C   UNL     1      76.442  82.830  75.328  1.00  0.00     0.053 C 
BRANCH   5   6
ATOM      6  C   UNL     1      77.210  84.049  74.925  1.00  0.00     0.041 C 
ATOM      7  O   UNL     1      76.629  85.164  74.837  1.00  0.00    -0.550 OA
ATOM      8  O   UNL     1      78.576  83.965  74.691  1.00  0.00    -0.550 OA
ENDBRANCH   5   6
ENDBRANCH   4   5
ENDBRANCH   3   4
ENDBRANCH   2   3
ENDBRANCH   1   2
BRANCH   1   9
ATOM      9  C   UNL     1      73.815  80.353  77.390  1.00  0.00     0.000 C 
BRANCH   9  10
ATOM     10  C   UNL     1      74.331  81.703  77.918  1.00  0.00    -0.000 C 
BRANCH  10  11
ATOM     11  C   UNL     1      75.473  81.554  78.933  1.00  0.00    -0.000 C 
BRANCH  11  12
ATOM     12  C   UNL     1      76.077  80.145  78.879  1.00  0.00    -0.000 C 
BRANCH  12  13
ATOM     13  C   UNL     1      77.598  80.205  78.693  1.00  0.00    -0.003 C 
ATOM     14  C   UNL     1      78.068  81.635  78.449  1.00  0.00     0.004 C 
ENDBRANCH  12  13
ENDBRANCH  11  12
ENDBRANCH  10  11
ENDBRANCH   9  10
ENDBRANCH   1   9
TORSDOF 10
ENDMDL
