MODEL 1
REMARK VINA RESULT:    -3.910      0.000      0.000
REMARK INTER + INTRA:          -4.581
REMARK INTER:                  -4.367
REMARK INTRA:                  -0.214
REMARK UNBOUND:                -0.214
REMARK SMILES O=C([O-])c1ccccc1C(=O)[O-]
REMARK SMILES IDX 4 1 9 2 5 3 8 4 6 5 7 6 2 7 1 8 3 9 10 10 11 11 12 12
REMARK H PARENT
REMARK Flexibility Score: inf
ROOT
ATOM      1  C   UNL     1      49.402 -29.105 -30.429  1.00  0.00     0.006 A 
ATOM      2  C   UNL     1      49.677 -28.491 -31.683  1.00  0.00     0.006 A 
ATOM      3  C   UNL     1      48.087 -29.518 -30.143  1.00  0.00     0.010 A 
ATOM      4  C   UNL     1      48.616 -28.254 -32.576  1.00  0.00     0.010 A 
ATOM      5  C   UNL     1      47.054 -29.292 -31.054  1.00  0.00     0.001 A 
ATOM      6  C   UNL     1      47.317 -28.651 -32.262  1.00  0.00     0.001 A 
ENDROOT
BRANCH   1   7
ATOM      7  C   UNL     1      50.429 -29.267 -29.374  1.00  0.00     0.072 C 
ATOM      8  O   UNL     1      50.632 -28.345 -28.540  1.00  0.00    -0.545 OA
ATOM      9  O   UNL     1      51.227 -30.404 -29.329  1.00  0.00    -0.545 OA
ENDBRANCH   1   7
BRANCH   2  10
ATOM     10  C   UNL     1      51.048 -28.148 -32.128  1.00  0.00     0.072 C 
ATOM     11  O   UNL     1      51.450 -26.956 -32.119  1.00  0.00    -0.545 OA
ATOM     12  O   UNL     1      51.932 -29.155 -32.499  1.00  0.00    -0.545 OA
ENDBRANCH   2  10
TORSDOF 2
ENDMDL
MODEL 2
REMARK VINA RESULT:    -3.897      0.091      3.001
REMARK INTER + INTRA:          -4.567
REMARK INTER:                  -4.354
REMARK INTRA:                  -0.213
REMARK UNBOUND:                -0.214
REMARK SMILES O=C([O-])c1ccccc1C(=O)[O-]
REMARK SMILES IDX 4 1 9 2 5 3 8 4 6 5 7 6 2 7 1 8 3 9 10 10 11 11 12 12
REMARK H PARENT
REMARK Flexibility Score: inf
ROOT
ATOM      1  C   UNL     1      49.636 -28.489 -31.652  1.00  0.00     0.006 A 
ATOM      2  C   UNL     1      49.363 -29.129 -30.411  1.00  0.00     0.006 A 
ATOM      3  C   UNL     1      48.571 -28.224 -32.534  1.00  0.00     0.010 A 
ATOM      4  C   UNL     1      48.047 -29.537 -30.126  1.00  0.00     0.010 A 
ATOM      5  C   UNL     1      47.270 -28.618 -32.221  1.00  0.00     0.001 A 
ATOM      6  C   UNL     1      47.011 -29.283 -31.024  1.00  0.00     0.001 A 
ENDROOT
BRANCH   1   7
ATOM      7  C   UNL     1      51.009 -28.152 -32.095  1.00  0.00     0.072 C 
ATOM      8  O   UNL     1      51.381 -26.950 -32.146  1.00  0.00    -0.545 OA
ATOM      9  O   UNL     1      51.881 -29.146 -32.522  1.00  0.00    -0.545 OA
ENDBRANCH   1   7
BRANCH   2  10
ATOM     10  C   UNL     1      50.393 -29.326 -29.363  1.00  0.00     0.072 C 
ATOM     11  O   UNL     1      51.016 -30.415 -29.269  1.00  0.00    -0.545 OA
ATOM     12  O   UNL     1      50.729 -28.279 -28.512  1.00  0.00    -0.545 OA
ENDBRANCH   2  10
TORSDOF 2
ENDMDL
MODEL 3
REMARK VINA RESULT:    -3.760      2.137      3.252
REMARK INTER + INTRA:          -4.414
REMARK INTER:                  -4.362
REMARK INTRA:                  -0.052
REMARK UNBOUND:                -0.214
REMARK SMILES O=C([O-])c1ccccc1C(=O)[O-]
REMARK SMILES IDX 4 1 9 2 5 3 8 4 6 5 7 6 2 7 1 8 3 9 10 10 11 11 12 12
REMARK H PARENT
REMARK Flexibility Score: inf
ROOT
ATOM      1  C   UNL     1      48.958 -28.939 -30.732  1.00  0.00     0.006 A 
ATOM      2  C   UNL     1      50.277 -28.732 -31.222  1.00  0.00     0.006 A 
ATOM      3  C   UNL     1      48.768 -29.762 -29.605  1.00  0.00     0.010 A 
ATOM      4  C   UNL     1      51.349 -29.407 -30.609  1.00  0.00     0.010 A 
ATOM      5  C   UNL     1      49.848 -30.404 -29.000  1.00  0.00     0.001 A 
ATOM      6  C   UNL     1      51.134 -30.236 -29.508  1.00  0.00     0.001 A 
ENDROOT
BRANCH   1   7
ATOM      7  C   UNL     1      47.758 -28.381 -31.399  1.00  0.00     0.072 C 
ATOM      8  O   UNL     1      47.150 -29.053 -32.273  1.00  0.00    -0.545 OA
ATOM      9  O   UNL     1      47.329 -27.089 -31.121  1.00  0.00    -0.545 OA
ENDBRANCH   1   7
BRANCH   2  10
ATOM     10  C   UNL     1      50.591 -27.779 -32.312  1.00  0.00     0.072 C 
ATOM     11  O   UNL     1      51.410 -26.841 -32.132  1.00  0.00    -0.545 OA
ATOM     12  O   UNL     1      50.030 -27.952 -33.572  1.00  0.00    -0.545 OA
ENDBRANCH   2  10
TORSDOF 2
ENDMDL
MODEL 4
REMARK VINA RESULT:    -3.735      2.134      3.851
REMARK INTER + INTRA:          -4.386
REMARK INTER:                  -4.358
REMARK INTRA:                  -0.028
REMARK UNBOUND:                -0.214
REMARK SMILES O=C([O-])c1ccccc1C(=O)[O-]
REMARK SMILES IDX 4 1 9 2 5 3 8 4 6 5 7 6 2 7 1 8 3 9 10 10 11 11 12 12
REMARK H PARENT
REMARK Flexibility Score: inf
ROOT
ATOM      1  C   UNL     1      50.272 -28.727 -31.250  1.00  0.00     0.006 A 
ATOM      2  C   UNL     1      48.939 -28.915 -30.789  1.00  0.00     0.006 A 
ATOM      3  C   UNL     1      51.323 -29.400 -30.598  1.00  0.00     0.010 A 
ATOM      4  C   UNL     1      48.715 -29.715 -29.654  1.00  0.00     0.010 A 
ATOM      5  C   UNL     1      51.074 -30.206 -29.487  1.00  0.00     0.001 A 
ATOM      6  C   UNL     1      49.774 -30.354 -29.010  1.00  0.00     0.001 A 
ENDROOT
BRANCH   1   7
ATOM      7  C   UNL     1      50.616 -27.794 -32.349  1.00  0.00     0.072 C 
ATOM      8  O   UNL     1      51.387 -26.821 -32.136  1.00  0.00    -0.545 OA
ATOM      9  O   UNL     1      50.043 -27.938 -33.606  1.00  0.00    -0.545 OA
ENDBRANCH   1   7
BRANCH   2  10
ATOM     10  C   UNL     1      47.759 -28.361 -31.492  1.00  0.00     0.072 C 
ATOM     11  O   UNL     1      47.074 -29.079 -32.267  1.00  0.00    -0.545 OA
ATOM     12  O   UNL     1      47.354 -27.053 -31.250  1.00  0.00    -0.545 OA
ENDBRANCH   2  10
TORSDOF 2
ENDMDL
MODEL 5
REMARK VINA RESULT:    -3.732      1.101      1.778
REMARK INTER + INTRA:          -4.383
REMARK INTER:                  -4.168
REMARK INTRA:                  -0.215
REMARK UNBOUND:                -0.214
REMARK SMILES O=C([O-])c1ccccc1C(=O)[O-]
REMARK SMILES IDX 4 1 9 2 5 3 8 4 6 5 7 6 2 7 1 8 3 9 10 10 11 11 12 12
REMARK H PARENT
REMARK Flexibility Score: inf
ROOT
ATOM      1  C   UNL     1      49.259 -29.171 -30.512  1.00  0.00     0.006 A 
ATOM      2  C   UNL     1      50.227 -28.622 -31.398  1.00  0.00     0.006 A 
ATOM      3  C   UNL     1      47.899 -29.129 -30.872  1.00  0.00     0.010 A 
ATOM      4  C   UNL     1      49.793 -27.993 -32.580  1.00  0.00     0.010 A 
ATOM      5  C   UNL     1      47.493 -28.520 -32.059  1.00  0.00     0.001 A 
ATOM      6  C   UNL     1      48.437 -27.943 -32.905  1.00  0.00     0.001 A 
ENDROOT
BRANCH   1   7
ATOM      7  C   UNL     1      49.613 -29.727 -29.184  1.00  0.00     0.072 C 
ATOM      8  O   UNL     1      49.817 -30.962 -29.048  1.00  0.00    -0.545 OA
ATOM      9  O   UNL     1      49.660 -28.908 -28.063  1.00  0.00    -0.545 OA
ENDBRANCH   1   7
BRANCH   2  10
ATOM     10  C   UNL     1      51.686 -28.741 -31.172  1.00  0.00     0.072 C 
ATOM     11  O   UNL     1      52.353 -29.650 -31.732  1.00  0.00    -0.545 OA
ATOM     12  O   UNL     1      52.348 -27.805 -30.385  1.00  0.00    -0.545 OA
ENDBRANCH   2  10
TORSDOF 2
ENDMDL
MODEL 6
REMARK VINA RESULT:    -3.678     12.660     13.634
REMARK INTER + INTRA:          -4.322
REMARK INTER:                  -4.090
REMARK INTRA:                  -0.232
REMARK UNBOUND:                -0.214
REMARK SMILES O=C([O-])c1ccccc1C(=O)[O-]
REMARK SMILES IDX 4 1 9 2 5 3 8 4 6 5 7 6 2 7 1 8 3 9 10 10 11 11 12 12
REMARK H PARENT
REMARK Flexibility Score: inf
ROOT
ATOM      1  C   UNL     1      53.153 -41.238 -31.149  1.00  0.00     0.006 A 
ATOM      2  C   UNL     1      54.227 -41.295 -30.217  1.00  0.00     0.006 A 
ATOM      3  C   UNL     1      53.408 -40.801 -32.462  1.00  0.00     0.010 A 
ATOM      4  C   UNL     1      55.501 -40.850 -30.615  1.00  0.00     0.010 A 
ATOM      5  C   UNL     1      54.685 -40.385 -32.841  1.00  0.00     0.001 A 
ATOM      6  C   UNL     1      55.726 -40.399 -31.915  1.00  0.00     0.001 A 
ENDROOT
BRANCH   1   7
ATOM      7  C   UNL     1      51.753 -41.554 -30.777  1.00  0.00     0.072 C 
ATOM      8  O   UNL     1      50.991 -40.647 -30.350  1.00  0.00    -0.545 OA
ATOM      9  O   UNL     1      51.283 -42.861 -30.831  1.00  0.00    -0.545 OA
ENDBRANCH   1   7
BRANCH   2  10
ATOM     10  C   UNL     1      54.085 -41.868 -28.858  1.00  0.00     0.072 C 
ATOM     11  O   UNL     1      53.840 -41.130 -27.869  1.00  0.00    -0.545 OA
ATOM     12  O   UNL     1      54.156 -43.244 -28.672  1.00  0.00    -0.545 OA
ENDBRANCH   2  10
TORSDOF 2
ENDMDL
MODEL 7
REMARK VINA RESULT:    -3.655     12.627     13.596
REMARK INTER + INTRA:          -4.296
REMARK INTER:                  -4.081
REMARK INTRA:                  -0.215
REMARK UNBOUND:                -0.214
REMARK SMILES O=C([O-])c1ccccc1C(=O)[O-]
REMARK SMILES IDX 4 1 9 2 5 3 8 4 6 5 7 6 2 7 1 8 3 9 10 10 11 11 12 12
REMARK H PARENT
REMARK Flexibility Score: inf
ROOT
ATOM      1  C   UNL     1      54.282 -41.446 -30.392  1.00  0.00     0.006 A 
ATOM      2  C   UNL     1      53.140 -41.278 -31.224  1.00  0.00     0.006 A 
ATOM      3  C   UNL     1      55.539 -41.020 -30.862  1.00  0.00     0.010 A 
ATOM      4  C   UNL     1      53.307 -40.752 -32.518  1.00  0.00     0.010 A 
ATOM      5  C   UNL     1      55.678 -40.481 -32.141  1.00  0.00     0.001 A 
ATOM      6  C   UNL     1      54.566 -40.358 -32.971  1.00  0.00     0.001 A 
ENDROOT
BRANCH   1   7
ATOM      7  C   UNL     1      54.221 -42.118 -29.073  1.00  0.00     0.072 C 
ATOM      8  O   UNL     1      54.088 -41.438 -28.022  1.00  0.00    -0.545 OA
ATOM      9  O   UNL     1      54.375 -43.495 -28.971  1.00  0.00    -0.545 OA
ENDBRANCH   1   7
BRANCH   2  10
ATOM     10  C   UNL     1      51.761 -41.568 -30.766  1.00  0.00     0.072 C 
ATOM     11  O   UNL     1      51.018 -40.648 -30.334  1.00  0.00    -0.545 OA
ATOM     12  O   UNL     1      51.248 -42.856 -30.871  1.00  0.00    -0.545 OA
ENDBRANCH   2  10
TORSDOF 2
ENDMDL
MODEL 8
REMARK VINA RESULT:    -3.595      2.319      4.249
REMARK INTER + INTRA:          -4.229
REMARK INTER:                  -4.025
REMARK INTRA:                  -0.204
REMARK UNBOUND:                -0.214
REMARK SMILES O=C([O-])c1ccccc1C(=O)[O-]
REMARK SMILES IDX 4 1 9 2 5 3 8 4 6 5 7 6 2 7 1 8 3 9 10 10 11 11 12 12
REMARK H PARENT
REMARK Flexibility Score: inf
ROOT
ATOM      1  C   UNL     1      49.195 -28.373 -31.598  1.00  0.00     0.006 A 
ATOM      2  C   UNL     1      49.609 -29.086 -30.438  1.00  0.00     0.006 A 
ATOM      3  C   UNL     1      50.142 -28.085 -32.599  1.00  0.00     0.010 A 
ATOM      4  C   UNL     1      50.966 -29.426 -30.293  1.00  0.00     0.010 A 
ATOM      5  C   UNL     1      51.479 -28.452 -32.443  1.00  0.00     0.001 A 
ATOM      6  C   UNL     1      51.892 -29.111 -31.288  1.00  0.00     0.001 A 
ENDROOT
BRANCH   1   7
ATOM      7  C   UNL     1      47.818 -27.853 -31.770  1.00  0.00     0.072 C 
ATOM      8  O   UNL     1      47.549 -26.661 -31.469  1.00  0.00    -0.545 OA
ATOM      9  O   UNL     1      46.794 -28.689 -32.199  1.00  0.00    -0.545 OA
ENDBRANCH   1   7
BRANCH   2  10
ATOM     10  C   UNL     1      48.662 -29.553 -29.399  1.00  0.00     0.072 C 
ATOM     11  O   UNL     1      48.251 -30.742 -29.389  1.00  0.00    -0.545 OA
ATOM     12  O   UNL     1      48.267 -28.693 -28.379  1.00  0.00    -0.545 OA
ENDBRANCH   2  10
TORSDOF 2
ENDMDL
MODEL 9
REMARK VINA RESULT:    -3.544     13.575     14.409
REMARK INTER + INTRA:          -4.172
REMARK INTER:                  -3.943
REMARK INTRA:                  -0.229
REMARK UNBOUND:                -0.214
REMARK SMILES O=C([O-])c1ccccc1C(=O)[O-]
REMARK SMILES IDX 4 1 9 2 5 3 8 4 6 5 7 6 2 7 1 8 3 9 10 10 11 11 12 12
REMARK H PARENT
REMARK Flexibility Score: inf
ROOT
ATOM      1  C   UNL     1      54.987 -40.204 -24.001  1.00  0.00     0.006 A 
ATOM      2  C   UNL     1      55.797 -39.064 -23.736  1.00  0.00     0.006 A 
ATOM      3  C   UNL     1      53.805 -40.390 -23.259  1.00  0.00     0.010 A 
ATOM      4  C   UNL     1      55.429 -38.190 -22.697  1.00  0.00     0.010 A 
ATOM      5  C   UNL     1      53.448 -39.498 -22.248  1.00  0.00     0.001 A 
ATOM      6  C   UNL     1      54.264 -38.407 -21.960  1.00  0.00     0.001 A 
ENDROOT
BRANCH   1   7
ATOM      7  C   UNL     1      55.370 -41.249 -24.979  1.00  0.00     0.072 C 
ATOM      8  O   UNL     1      56.114 -42.202 -24.628  1.00  0.00    -0.545 OA
ATOM      9  O   UNL     1      54.971 -41.156 -26.307  1.00  0.00    -0.545 OA
ENDBRANCH   1   7
BRANCH   2  10
ATOM     10  C   UNL     1      56.982 -38.711 -24.553  1.00  0.00     0.072 C 
ATOM     11  O   UNL     1      58.125 -39.141 -24.249  1.00  0.00    -0.545 OA
ATOM     12  O   UNL     1      56.830 -37.950 -25.707  1.00  0.00    -0.545 OA
ENDBRANCH   2  10
TORSDOF 2
ENDMDL
