MODEL 1
REMARK VINA RESULT:    -7.015      0.000      0.000
REMARK INTER + INTRA:         -14.514
REMARK INTER:                 -11.526
REMARK INTRA:                  -2.988
REMARK UNBOUND:                -2.988
REMARK SMILES C[C@@H]1O[C@H](OC[C@@H]2O[C@H](Oc3c(-c4ccc(O)c(O)c4)oc4cc(O)cc(O)c4c3=O)[C@H](O)[C@H](O)[C@H]2O)[C@@H](O)[C@@H](O)[C@@H]1O
REMARK SMILES IDX 7 1 36 2 34 3 32 4 9 5 8 6 6 7 5 8 4 9 1 10 2 11 42 12 3 13
REMARK SMILES IDX 40 14 38 15 43 16 41 18 39 20 37 22 35 24 10 26 11 27 12 28
REMARK SMILES IDX 30 29 21 30 29 31 31 32 22 33 27 34 23 35 26 36 24 37 13 38
REMARK SMILES IDX 20 39 14 40 18 41 15 42 16 43 19 44 17 46 28 48 25 50 33 52
REMARK H PARENT 43 17 41 19 39 21 37 23 35 25 19 45 17 47 28 49 25 51 33 53
REMARK Flexibility Score: inf
ROOT
ATOM      1  C   UNL     1     -34.429   5.474  83.019  1.00  0.00     0.180 C 
ATOM      2  C   UNL     1     -34.639   5.474  84.557  1.00  0.00     0.177 C 
ATOM      3  C   UNL     1     -36.100   5.184  84.932  1.00  0.00     0.180 C 
ATOM      4  C   UNL     1     -36.578   3.927  84.198  1.00  0.00     0.214 C 
ATOM      5  C   UNL     1     -36.313   4.036  82.682  1.00  0.00     0.339 C 
ATOM      6  O   UNL     1     -34.960   4.325  82.368  1.00  0.00    -0.332 OA
ENDROOT
BRANCH   1   7
ATOM      7  C   UNL     1     -34.834   6.792  82.331  1.00  0.00     0.198 C 
BRANCH   7   8
ATOM      8  O   UNL     1     -34.500   7.866  83.192  1.00  0.00    -0.347 OA
BRANCH   8   9
ATOM      9  C   UNL     1     -34.312   9.092  82.502  1.00  0.00     0.281 C 
ATOM     10  C   UNL     1     -32.484   8.746  84.980  1.00  0.00     0.041 C 
ATOM     11  C   UNL     1     -32.502   9.826  83.881  1.00  0.00     0.150 C 
ATOM     12  C   UNL     1     -31.468   9.598  82.749  1.00  0.00     0.174 C 
ATOM     13  O   UNL     1     -33.818  10.083  83.393  1.00  0.00    -0.344 OA
ATOM     14  C   UNL     1     -31.973   8.548  81.742  1.00  0.00     0.179 C 
ATOM     15  C   UNL     1     -33.385   8.917  81.279  1.00  0.00     0.202 C 
BRANCH  12  16
ATOM     16  O   UNL     1     -30.239   9.200  83.302  1.00  0.00    -0.388 OA
ATOM     17  H   UNL     1     -29.938   9.924  83.905  1.00  0.00     0.211 HD
ENDBRANCH  12  16
BRANCH  14  18
ATOM     18  O   UNL     1     -31.123   8.498  80.625  1.00  0.00    -0.387 OA
ATOM     19  H   UNL     1     -30.594   9.340  80.625  1.00  0.00     0.211 HD
ENDBRANCH  14  18
BRANCH  15  20
ATOM     20  O   UNL     1     -33.343  10.115  80.543  1.00  0.00    -0.385 OA
ATOM     21  H   UNL     1     -34.117  10.660  80.834  1.00  0.00     0.211 HD
ENDBRANCH  15  20
ENDBRANCH   8   9
ENDBRANCH   7   8
ENDBRANCH   1   7
BRANCH   2  22
ATOM     22  O   UNL     1     -33.800   4.500  85.125  1.00  0.00    -0.387 OA
ATOM     23  H   UNL     1     -33.857   4.609  86.111  1.00  0.00     0.211 HD
ENDBRANCH   2  22
BRANCH   3  24
ATOM     24  O   UNL     1     -36.910   6.290  84.619  1.00  0.00    -0.387 OA
ATOM     25  H   UNL     1     -37.004   6.316  83.630  1.00  0.00     0.211 HD
ENDBRANCH   3  24
BRANCH   5  26
ATOM     26  O   UNL     1     -37.199   4.972  82.058  1.00  0.00    -0.454 OA
BRANCH  26  27
ATOM     27  C   UNL     1     -38.025   4.644  80.972  1.00  0.00     0.214 A 
ATOM     28  C   UNL     1     -37.575   4.727  79.641  1.00  0.00     0.180 A 
ATOM     29  C   UNL     1     -39.334   4.215  81.216  1.00  0.00     0.239 A 
ATOM     30  O   UNL     1     -38.356   4.308  78.653  1.00  0.00    -0.452 OA
ATOM     31  C   UNL     1     -40.143   3.762  80.144  1.00  0.00     0.111 A 
ATOM     32  O   UNL     1     -39.760   4.247  82.399  1.00  0.00    -0.285 OA
ATOM     33  C   UNL     1     -39.585   3.841  78.841  1.00  0.00     0.146 A 
ATOM     34  C   UNL     1     -41.471   3.255  80.283  1.00  0.00     0.134 A 
ATOM     35  C   UNL     1     -40.327   3.449  77.726  1.00  0.00     0.094 A 
ATOM     36  C   UNL     1     -42.205   2.916  79.140  1.00  0.00     0.093 A 
ATOM     37  C   UNL     1     -41.639   2.999  77.869  1.00  0.00     0.123 A 
BRANCH  28  38
ATOM     38  C   UNL     1     -36.259   5.295  79.297  1.00  0.00     0.025 A 
ATOM     39  C   UNL     1     -36.142   6.632  78.888  1.00  0.00     0.062 A 
ATOM     40  C   UNL     1     -35.107   4.500  79.400  1.00  0.00     0.016 A 
ATOM     41  C   UNL     1     -34.885   7.178  78.597  1.00  0.00     0.158 A 
ATOM     42  C   UNL     1     -33.852   5.048  79.125  1.00  0.00     0.051 A 
ATOM     43  C   UNL     1     -33.734   6.383  78.722  1.00  0.00     0.157 A 
BRANCH  41  44
ATOM     44  O   UNL     1     -34.780   8.507  78.189  1.00  0.00    -0.504 OA
ATOM     45  H   UNL     1     -33.918   8.880  77.808  1.00  0.00     0.293 HD
ENDBRANCH  41  44
BRANCH  43  46
ATOM     46  O   UNL     1     -32.466   6.899  78.451  1.00  0.00    -0.504 OA
ATOM     47  H   UNL     1     -32.192   7.189  77.517  1.00  0.00     0.293 HD
ENDBRANCH  43  46
ENDBRANCH  28  38
BRANCH  34  48
ATOM     48  O   UNL     1     -42.105   3.047  81.510  1.00  0.00    -0.507 OA
ATOM     49  H   UNL     1     -41.726   2.502  82.270  1.00  0.00     0.293 HD
ENDBRANCH  34  48
BRANCH  37  50
ATOM     50  O   UNL     1     -42.391   2.625  76.756  1.00  0.00    -0.508 OA
ATOM     51  H   UNL     1     -42.674   1.663  76.608  1.00  0.00     0.293 HD
ENDBRANCH  37  50
ENDBRANCH  26  27
ENDBRANCH   5  26
BRANCH   4  52
ATOM     52  O   UNL     1     -37.943   3.714  84.453  1.00  0.00    -0.384 OA
ATOM     53  H   UNL     1     -38.022   2.806  84.845  1.00  0.00     0.211 HD
ENDBRANCH   4  52
TORSDOF 16
ENDMDL
MODEL 2
REMARK VINA RESULT:    -6.359      1.981      3.073
REMARK INTER + INTRA:         -13.435
REMARK INTER:                 -11.786
REMARK INTRA:                  -1.650
REMARK UNBOUND:                -2.988
REMARK SMILES C[C@@H]1O[C@H](OC[C@@H]2O[C@H](Oc3c(-c4ccc(O)c(O)c4)oc4cc(O)cc(O)c4c3=O)[C@H](O)[C@H](O)[C@H]2O)[C@@H](O)[C@@H](O)[C@@H]1O
REMARK SMILES IDX 7 1 36 2 34 3 32 4 9 5 8 6 6 7 5 8 4 9 1 10 2 11 42 12 3 13
REMARK SMILES IDX 40 14 38 15 43 16 41 18 39 20 37 22 35 24 10 26 11 27 12 28
REMARK SMILES IDX 30 29 21 30 29 31 31 32 22 33 27 34 23 35 26 36 24 37 13 38
REMARK SMILES IDX 20 39 14 40 18 41 15 42 16 43 19 44 17 46 28 48 25 50 33 52
REMARK H PARENT 43 17 41 19 39 21 37 23 35 25 19 45 17 47 28 49 25 51 33 53
REMARK Flexibility Score: inf
ROOT
ATOM      1  C   UNL     1     -35.432   6.103  83.855  1.00  0.00     0.180 C 
ATOM      2  C   UNL     1     -35.506   5.002  84.947  1.00  0.00     0.177 C 
ATOM      3  C   UNL     1     -36.494   3.889  84.569  1.00  0.00     0.180 C 
ATOM      4  C   UNL     1     -36.192   3.395  83.151  1.00  0.00     0.214 C 
ATOM      5  C   UNL     1     -36.136   4.571  82.154  1.00  0.00     0.339 C 
ATOM      6  O   UNL     1     -35.231   5.593  82.541  1.00  0.00    -0.332 OA
ENDROOT
BRANCH   1   7
ATOM      7  C   UNL     1     -36.573   7.135  83.927  1.00  0.00     0.198 C 
BRANCH   7   8
ATOM      8  O   UNL     1     -36.604   7.854  82.707  1.00  0.00    -0.347 OA
BRANCH   8   9
ATOM      9  C   UNL     1     -37.543   8.918  82.714  1.00  0.00     0.281 C 
ATOM     10  C   UNL     1     -35.205   9.312  80.719  1.00  0.00     0.041 C 
ATOM     11  C   UNL     1     -36.496  10.124  80.935  1.00  0.00     0.150 C 
ATOM     12  C   UNL     1     -37.638   9.776  79.947  1.00  0.00     0.174 C 
ATOM     13  O   UNL     1     -36.917  10.124  82.298  1.00  0.00    -0.344 OA
ATOM     14  C   UNL     1     -38.365   8.488  80.372  1.00  0.00     0.179 C 
ATOM     15  C   UNL     1     -38.776   8.591  81.843  1.00  0.00     0.202 C 
BRANCH  12  16
ATOM     16  O   UNL     1     -37.118   9.644  78.647  1.00  0.00    -0.388 OA
ATOM     17  H   UNL     1     -37.254  10.508  78.185  1.00  0.00     0.211 HD
ENDBRANCH  12  16
BRANCH  14  18
ATOM     18  O   UNL     1     -39.514   8.296  79.587  1.00  0.00    -0.387 OA
ATOM     19  H   UNL     1     -39.278   8.560  78.658  1.00  0.00     0.211 HD
ENDBRANCH  14  18
BRANCH  15  20
ATOM     20  O   UNL     1     -39.742   9.602  81.993  1.00  0.00    -0.385 OA
ATOM     21  H   UNL     1     -40.305   9.350  82.769  1.00  0.00     0.211 HD
ENDBRANCH  15  20
ENDBRANCH   8   9
ENDBRANCH   7   8
ENDBRANCH   1   7
BRANCH   2  22
ATOM     22  O   UNL     1     -34.221   4.458  85.124  1.00  0.00    -0.387 OA
ATOM     23  H   UNL     1     -34.342   3.559  85.530  1.00  0.00     0.211 HD
ENDBRANCH   2  22
BRANCH   3  24
ATOM     24  O   UNL     1     -37.816   4.359  84.668  1.00  0.00    -0.387 OA
ATOM     25  H   UNL     1     -37.892   5.150  84.073  1.00  0.00     0.211 HD
ENDBRANCH   3  24
BRANCH   5  26
ATOM     26  O   UNL     1     -37.439   5.107  81.898  1.00  0.00    -0.454 OA
BRANCH  26  27
ATOM     27  C   UNL     1     -38.239   4.701  80.819  1.00  0.00     0.214 A 
ATOM     28  C   UNL     1     -37.746   4.650  79.502  1.00  0.00     0.180 A 
ATOM     29  C   UNL     1     -39.567   4.329  81.056  1.00  0.00     0.239 A 
ATOM     30  O   UNL     1     -38.506   4.163  78.530  1.00  0.00    -0.452 OA
ATOM     31  C   UNL     1     -40.354   3.800  80.003  1.00  0.00     0.111 A 
ATOM     32  O   UNL     1     -40.029   4.480  82.217  1.00  0.00    -0.285 OA
ATOM     33  C   UNL     1     -39.753   3.746  78.718  1.00  0.00     0.146 A 
ATOM     34  C   UNL     1     -41.699   3.342  80.142  1.00  0.00     0.134 A 
ATOM     35  C   UNL     1     -40.471   3.272  77.618  1.00  0.00     0.094 A 
ATOM     36  C   UNL     1     -42.406   2.918  79.011  1.00  0.00     0.093 A 
ATOM     37  C   UNL     1     -41.799   2.870  77.758  1.00  0.00     0.123 A 
BRANCH  28  38
ATOM     38  C   UNL     1     -36.404   5.152  79.152  1.00  0.00     0.025 A 
ATOM     39  C   UNL     1     -36.249   6.380  78.492  1.00  0.00     0.062 A 
ATOM     40  C   UNL     1     -35.268   4.406  79.501  1.00  0.00     0.016 A 
ATOM     41  C   UNL     1     -34.970   6.870  78.194  1.00  0.00     0.158 A 
ATOM     42  C   UNL     1     -33.992   4.901  79.219  1.00  0.00     0.051 A 
ATOM     43  C   UNL     1     -33.836   6.129  78.565  1.00  0.00     0.157 A 
BRANCH  41  44
ATOM     44  O   UNL     1     -34.828   8.091  77.537  1.00  0.00    -0.504 OA
ATOM     45  H   UNL     1     -34.000   8.664  77.654  1.00  0.00     0.293 HD
ENDBRANCH  41  44
BRANCH  43  46
ATOM     46  O   UNL     1     -32.549   6.593  78.295  1.00  0.00    -0.504 OA
ATOM     47  H   UNL     1     -32.084   6.403  77.412  1.00  0.00     0.293 HD
ENDBRANCH  43  46
ENDBRANCH  28  38
BRANCH  34  48
ATOM     48  O   UNL     1     -42.377   3.262  81.361  1.00  0.00    -0.507 OA
ATOM     49  H   UNL     1     -42.991   3.973  81.727  1.00  0.00     0.293 HD
ENDBRANCH  34  48
BRANCH  37  50
ATOM     50  O   UNL     1     -42.525   2.414  76.658  1.00  0.00    -0.508 OA
ATOM     51  H   UNL     1     -43.031   1.536  76.685  1.00  0.00     0.293 HD
ENDBRANCH  37  50
ENDBRANCH  26  27
ENDBRANCH   5  26
BRANCH   4  52
ATOM     52  O   UNL     1     -37.155   2.452  82.758  1.00  0.00    -0.384 OA
ATOM     53  H   UNL     1     -37.009   2.279  81.791  1.00  0.00     0.211 HD
ENDBRANCH   4  52
TORSDOF 16
ENDMDL
MODEL 3
REMARK VINA RESULT:    -5.953      9.907     14.806
REMARK INTER + INTRA:         -12.769
REMARK INTER:                 -10.969
REMARK INTRA:                  -1.800
REMARK UNBOUND:                -2.988
REMARK SMILES C[C@@H]1O[C@H](OC[C@@H]2O[C@H](Oc3c(-c4ccc(O)c(O)c4)oc4cc(O)cc(O)c4c3=O)[C@H](O)[C@H](O)[C@H]2O)[C@@H](O)[C@@H](O)[C@@H]1O
REMARK SMILES IDX 7 1 36 2 34 3 32 4 9 5 8 6 6 7 5 8 4 9 1 10 2 11 42 12 3 13
REMARK SMILES IDX 40 14 38 15 43 16 41 18 39 20 37 22 35 24 10 26 11 27 12 28
REMARK SMILES IDX 30 29 21 30 29 31 31 32 22 33 27 34 23 35 26 36 24 37 13 38
REMARK SMILES IDX 20 39 14 40 18 41 15 42 16 43 19 44 17 46 28 48 25 50 33 52
REMARK H PARENT 43 17 41 19 39 21 37 23 35 25 19 45 17 47 28 49 25 51 33 53
REMARK Flexibility Score: inf
ROOT
ATOM      1  C   UNL     1     -42.914  -5.080  83.461  1.00  0.00     0.180 C 
ATOM      2  C   UNL     1     -43.624  -6.441  83.687  1.00  0.00     0.177 C 
ATOM      3  C   UNL     1     -42.626  -7.609  83.705  1.00  0.00     0.180 C 
ATOM      4  C   UNL     1     -41.482  -7.290  84.671  1.00  0.00     0.214 C 
ATOM      5  C   UNL     1     -40.857  -5.915  84.357  1.00  0.00     0.339 C 
ATOM      6  O   UNL     1     -41.806  -4.860  84.327  1.00  0.00    -0.332 OA
ENDROOT
BRANCH   1   7
ATOM      7  C   UNL     1     -42.588  -4.781  81.985  1.00  0.00     0.198 C 
BRANCH   7   8
ATOM      8  O   UNL     1     -43.598  -5.360  81.178  1.00  0.00    -0.347 OA
BRANCH   8   9
ATOM      9  C   UNL     1     -43.093  -5.925  79.978  1.00  0.00     0.281 C 
ATOM     10  C   UNL     1     -45.700  -7.253  80.999  1.00  0.00     0.041 C 
ATOM     11  C   UNL     1     -44.917  -7.444  79.686  1.00  0.00     0.150 C 
ATOM     12  C   UNL     1     -45.477  -6.635  78.489  1.00  0.00     0.174 C 
ATOM     13  O   UNL     1     -43.511  -7.279  79.863  1.00  0.00    -0.344 OA
ATOM     14  C   UNL     1     -45.029  -5.164  78.557  1.00  0.00     0.179 C 
ATOM     15  C   UNL     1     -43.510  -5.098  78.743  1.00  0.00     0.202 C 
BRANCH  12  16
ATOM     16  O   UNL     1     -46.880  -6.722  78.473  1.00  0.00    -0.388 OA
ATOM     17  H   UNL     1     -47.170  -6.997  79.378  1.00  0.00     0.211 HD
ENDBRANCH  12  16
BRANCH  14  18
ATOM     18  O   UNL     1     -45.374  -4.495  77.371  1.00  0.00    -0.387 OA
ATOM     19  H   UNL     1     -45.417  -3.526  77.587  1.00  0.00     0.211 HD
ENDBRANCH  14  18
BRANCH  15  20
ATOM     20  O   UNL     1     -42.872  -5.605  77.597  1.00  0.00    -0.385 OA
ATOM     21  H   UNL     1     -42.129  -6.181  77.911  1.00  0.00     0.211 HD
ENDBRANCH  15  20
ENDBRANCH   8   9
ENDBRANCH   7   8
ENDBRANCH   1   7
BRANCH   2  22
ATOM     22  O   UNL     1     -44.317  -6.389  84.909  1.00  0.00    -0.387 OA
ATOM     23  H   UNL     1     -44.988  -7.123  84.893  1.00  0.00     0.211 HD
ENDBRANCH   2  22
BRANCH   3  24
ATOM     24  O   UNL     1     -42.139  -7.850  82.408  1.00  0.00    -0.387 OA
ATOM     25  H   UNL     1     -41.239  -8.258  82.503  1.00  0.00     0.211 HD
ENDBRANCH   3  24
BRANCH   5  26
ATOM     26  O   UNL     1     -40.087  -5.949  83.151  1.00  0.00    -0.454 OA
BRANCH  26  27
ATOM     27  C   UNL     1     -38.703  -6.185  83.128  1.00  0.00     0.214 A 
ATOM     28  C   UNL     1     -37.772  -5.201  83.511  1.00  0.00     0.180 A 
ATOM     29  C   UNL     1     -38.231  -7.437  82.718  1.00  0.00     0.239 A 
ATOM     30  O   UNL     1     -36.481  -5.502  83.572  1.00  0.00    -0.452 OA
ATOM     31  C   UNL     1     -36.849  -7.736  82.804  1.00  0.00     0.111 A 
ATOM     32  O   UNL     1     -39.063  -8.271  82.276  1.00  0.00    -0.285 OA
ATOM     33  C   UNL     1     -35.993  -6.693  83.246  1.00  0.00     0.146 A 
ATOM     34  C   UNL     1     -36.265  -8.994  82.464  1.00  0.00     0.134 A 
ATOM     35  C   UNL     1     -34.613  -6.893  83.326  1.00  0.00     0.094 A 
ATOM     36  C   UNL     1     -34.874  -9.145  82.510  1.00  0.00     0.093 A 
ATOM     37  C   UNL     1     -34.050  -8.111  82.947  1.00  0.00     0.123 A 
BRANCH  28  38
ATOM     38  C   UNL     1     -38.182  -3.820  83.825  1.00  0.00     0.025 A 
ATOM     39  C   UNL     1     -39.293  -3.242  83.192  1.00  0.00     0.062 A 
ATOM     40  C   UNL     1     -37.471  -3.083  84.784  1.00  0.00     0.016 A 
ATOM     41  C   UNL     1     -39.701  -1.942  83.521  1.00  0.00     0.158 A 
ATOM     42  C   UNL     1     -37.886  -1.793  85.123  1.00  0.00     0.051 A 
ATOM     43  C   UNL     1     -38.997  -1.217  84.495  1.00  0.00     0.157 A 
BRANCH  41  44
ATOM     44  O   UNL     1     -40.804  -1.377  82.884  1.00  0.00    -0.504 OA
ATOM     45  H   UNL     1     -41.738  -1.750  83.008  1.00  0.00     0.293 HD
ENDBRANCH  41  44
BRANCH  43  46
ATOM     46  O   UNL     1     -39.383   0.074  84.855  1.00  0.00    -0.504 OA
ATOM     47  H   UNL     1     -40.353   0.312  85.043  1.00  0.00     0.293 HD
ENDBRANCH  43  46
ENDBRANCH  28  38
BRANCH  34  48
ATOM     48  O   UNL     1     -36.999 -10.125  82.098  1.00  0.00    -0.507 OA
ATOM     49  H   UNL     1     -36.643 -10.889  81.545  1.00  0.00     0.293 HD
ENDBRANCH  34  48
BRANCH  37  50
ATOM     50  O   UNL     1     -32.670  -8.308  83.007  1.00  0.00    -0.508 OA
ATOM     51  H   UNL     1     -32.119  -8.450  82.168  1.00  0.00     0.293 HD
ENDBRANCH  37  50
ENDBRANCH  26  27
ENDBRANCH   5  26
BRANCH   4  52
ATOM     52  O   UNL     1     -40.512  -8.304  84.615  1.00  0.00    -0.384 OA
ATOM     53  H   UNL     1     -40.997  -9.158  84.473  1.00  0.00     0.211 HD
ENDBRANCH   4  52
TORSDOF 16
ENDMDL
MODEL 4
REMARK VINA RESULT:    -5.857      2.737      7.489
REMARK INTER + INTRA:         -12.610
REMARK INTER:                 -10.883
REMARK INTRA:                  -1.727
REMARK UNBOUND:                -2.988
REMARK SMILES C[C@@H]1O[C@H](OC[C@@H]2O[C@H](Oc3c(-c4ccc(O)c(O)c4)oc4cc(O)cc(O)c4c3=O)[C@H](O)[C@H](O)[C@H]2O)[C@@H](O)[C@@H](O)[C@@H]1O
REMARK SMILES IDX 7 1 36 2 34 3 32 4 9 5 8 6 6 7 5 8 4 9 1 10 2 11 42 12 3 13
REMARK SMILES IDX 40 14 38 15 43 16 41 18 39 20 37 22 35 24 10 26 11 27 12 28
REMARK SMILES IDX 30 29 21 30 29 31 31 32 22 33 27 34 23 35 26 36 24 37 13 38
REMARK SMILES IDX 20 39 14 40 18 41 15 42 16 43 19 44 17 46 28 48 25 50 33 52
REMARK H PARENT 43 17 41 19 39 21 37 23 35 25 19 45 17 47 28 49 25 51 33 53
REMARK Flexibility Score: inf
ROOT
ATOM      1  C   UNL     1     -39.519   3.684  80.392  1.00  0.00     0.180 C 
ATOM      2  C   UNL     1     -40.709   3.624  79.397  1.00  0.00     0.177 C 
ATOM      3  C   UNL     1     -40.661   4.775  78.380  1.00  0.00     0.180 C 
ATOM      4  C   UNL     1     -39.269   4.839  77.745  1.00  0.00     0.214 C 
ATOM      5  C   UNL     1     -38.168   4.888  78.824  1.00  0.00     0.339 C 
ATOM      6  O   UNL     1     -38.251   3.825  79.761  1.00  0.00    -0.332 OA
ENDROOT
BRANCH   1   7
ATOM      7  C   UNL     1     -39.722   4.676  81.553  1.00  0.00     0.198 C 
BRANCH   7   8
ATOM      8  O   UNL     1     -40.117   3.945  82.701  1.00  0.00    -0.347 OA
BRANCH   8   9
ATOM      9  C   UNL     1     -39.814   4.615  83.915  1.00  0.00     0.281 C 
ATOM     10  C   UNL     1     -38.797   1.690  83.798  1.00  0.00     0.041 C 
ATOM     11  C   UNL     1     -38.556   2.802  84.836  1.00  0.00     0.150 C 
ATOM     12  C   UNL     1     -37.217   3.561  84.656  1.00  0.00     0.174 C 
ATOM     13  O   UNL     1     -39.678   3.672  84.971  1.00  0.00    -0.344 OA
ATOM     14  C   UNL     1     -37.323   4.613  83.538  1.00  0.00     0.179 C 
ATOM     15  C   UNL     1     -38.553   5.494  83.776  1.00  0.00     0.202 C 
BRANCH  12  16
ATOM     16  O   UNL     1     -36.187   2.646  84.377  1.00  0.00    -0.388 OA
ATOM     17  H   UNL     1     -36.467   1.767  84.735  1.00  0.00     0.211 HD
ENDBRANCH  12  16
BRANCH  14  18
ATOM     18  O   UNL     1     -36.175   5.422  83.521  1.00  0.00    -0.387 OA
ATOM     19  H   UNL     1     -36.486   6.366  83.541  1.00  0.00     0.211 HD
ENDBRANCH  14  18
BRANCH  15  20
ATOM     20  O   UNL     1     -38.371   6.249  84.949  1.00  0.00    -0.385 OA
ATOM     21  H   UNL     1     -37.399   6.256  85.141  1.00  0.00     0.211 HD
ENDBRANCH  15  20
ENDBRANCH   8   9
ENDBRANCH   7   8
ENDBRANCH   1   7
BRANCH   2  22
ATOM     22  O   UNL     1     -40.669   2.391  78.722  1.00  0.00    -0.387 OA
ATOM     23  H   UNL     1     -41.590   2.017  78.748  1.00  0.00     0.211 HD
ENDBRANCH   2  22
BRANCH   3  24
ATOM     24  O   UNL     1     -40.985   5.990  79.008  1.00  0.00    -0.387 OA
ATOM     25  H   UNL     1     -40.342   6.672  78.680  1.00  0.00     0.211 HD
ENDBRANCH   3  24
BRANCH   5  26
ATOM     26  O   UNL     1     -38.136   6.157  79.487  1.00  0.00    -0.454 OA
BRANCH  26  27
ATOM     27  C   UNL     1     -36.997   6.975  79.528  1.00  0.00     0.214 A 
ATOM     28  C   UNL     1     -36.939   8.208  78.851  1.00  0.00     0.180 A 
ATOM     29  C   UNL     1     -35.884   6.560  80.267  1.00  0.00     0.239 A 
ATOM     30  O   UNL     1     -35.881   8.995  79.002  1.00  0.00    -0.452 OA
ATOM     31  C   UNL     1     -34.772   7.424  80.422  1.00  0.00     0.111 A 
ATOM     32  O   UNL     1     -35.905   5.410  80.778  1.00  0.00    -0.285 OA
ATOM     33  C   UNL     1     -34.826   8.667  79.738  1.00  0.00     0.146 A 
ATOM     34  C   UNL     1     -33.609   7.126  81.195  1.00  0.00     0.134 A 
ATOM     35  C   UNL     1     -33.757   9.563  79.808  1.00  0.00     0.094 A 
ATOM     36  C   UNL     1     -32.536   8.025  81.205  1.00  0.00     0.093 A 
ATOM     37  C   UNL     1     -32.608   9.241  80.529  1.00  0.00     0.123 A 
BRANCH  28  38
ATOM     38  C   UNL     1     -38.015   8.652  77.946  1.00  0.00     0.025 A 
ATOM     39  C   UNL     1     -39.298   8.929  78.442  1.00  0.00     0.062 A 
ATOM     40  C   UNL     1     -37.751   8.821  76.578  1.00  0.00     0.016 A 
ATOM     41  C   UNL     1     -40.308   9.385  77.584  1.00  0.00     0.158 A 
ATOM     42  C   UNL     1     -38.752   9.291  75.725  1.00  0.00     0.051 A 
ATOM     43  C   UNL     1     -40.031   9.572  76.220  1.00  0.00     0.157 A 
BRANCH  41  44
ATOM     44  O   UNL     1     -41.579   9.655  78.087  1.00  0.00    -0.504 OA
ATOM     45  H   UNL     1     -42.406   9.592  77.503  1.00  0.00     0.293 HD
ENDBRANCH  41  44
BRANCH  43  46
ATOM     46  O   UNL     1     -41.010  10.036  75.341  1.00  0.00    -0.504 OA
ATOM     47  H   UNL     1     -41.957   9.668  75.348  1.00  0.00     0.293 HD
ENDBRANCH  43  46
ENDBRANCH  28  38
BRANCH  34  48
ATOM     48  O   UNL     1     -33.465   5.980  81.981  1.00  0.00    -0.507 OA
ATOM     49  H   UNL     1     -34.227   5.424  82.337  1.00  0.00     0.293 HD
ENDBRANCH  34  48
BRANCH  37  50
ATOM     50  O   UNL     1     -31.531  10.124  80.586  1.00  0.00    -0.508 OA
ATOM     51  H   UNL     1     -31.649  11.085  80.888  1.00  0.00     0.293 HD
ENDBRANCH  37  50
ENDBRANCH  26  27
ENDBRANCH   5  26
BRANCH   4  52
ATOM     52  O   UNL     1     -39.183   5.952  76.893  1.00  0.00    -0.384 OA
ATOM     53  H   UNL     1     -38.761   6.682  77.416  1.00  0.00     0.211 HD
ENDBRANCH   4  52
TORSDOF 16
ENDMDL
MODEL 5
REMARK VINA RESULT:    -5.822      1.797      9.078
REMARK INTER + INTRA:         -12.554
REMARK INTER:                 -10.275
REMARK INTRA:                  -2.279
REMARK UNBOUND:                -2.988
REMARK SMILES C[C@@H]1O[C@H](OC[C@@H]2O[C@H](Oc3c(-c4ccc(O)c(O)c4)oc4cc(O)cc(O)c4c3=O)[C@H](O)[C@H](O)[C@H]2O)[C@@H](O)[C@@H](O)[C@@H]1O
REMARK SMILES IDX 7 1 36 2 34 3 32 4 9 5 8 6 6 7 5 8 4 9 1 10 2 11 42 12 3 13
REMARK SMILES IDX 40 14 38 15 43 16 41 18 39 20 37 22 35 24 10 26 11 27 12 28
REMARK SMILES IDX 30 29 21 30 29 31 31 32 22 33 27 34 23 35 26 36 24 37 13 38
REMARK SMILES IDX 20 39 14 40 18 41 15 42 16 43 19 44 17 46 28 48 25 50 33 52
REMARK H PARENT 43 17 41 19 39 21 37 23 35 25 19 45 17 47 28 49 25 51 33 53
REMARK Flexibility Score: inf
ROOT
ATOM      1  C   UNL     1     -35.949   5.813  79.087  1.00  0.00     0.180 C 
ATOM      2  C   UNL     1     -36.852   6.762  78.254  1.00  0.00     0.177 C 
ATOM      3  C   UNL     1     -36.618   8.236  78.616  1.00  0.00     0.180 C 
ATOM      4  C   UNL     1     -35.118   8.542  78.573  1.00  0.00     0.214 C 
ATOM      5  C   UNL     1     -34.321   7.536  79.429  1.00  0.00     0.339 C 
ATOM      6  O   UNL     1     -34.574   6.182  79.085  1.00  0.00    -0.332 OA
ENDROOT
BRANCH   1   7
ATOM      7  C   UNL     1     -36.486   5.519  80.501  1.00  0.00     0.198 C 
BRANCH   7   8
ATOM      8  O   UNL     1     -37.895   5.671  80.484  1.00  0.00    -0.347 OA
BRANCH   8   9
ATOM      9  C   UNL     1     -38.575   4.606  81.129  1.00  0.00     0.281 C 
ATOM     10  C   UNL     1     -40.218   5.980  78.889  1.00  0.00     0.041 C 
ATOM     11  C   UNL     1     -40.503   4.713  79.719  1.00  0.00     0.150 C 
ATOM     12  C   UNL     1     -40.129   3.389  79.006  1.00  0.00     0.174 C 
ATOM     13  O   UNL     1     -39.981   4.802  81.043  1.00  0.00    -0.344 OA
ATOM     14  C   UNL     1     -38.616   3.121  79.095  1.00  0.00     0.179 C 
ATOM     15  C   UNL     1     -38.159   3.236  80.552  1.00  0.00     0.202 C 
BRANCH  12  16
ATOM     16  O   UNL     1     -40.542   3.440  77.663  1.00  0.00    -0.388 OA
ATOM     17  H   UNL     1     -40.869   4.357  77.489  1.00  0.00     0.211 HD
ENDBRANCH  12  16
BRANCH  14  18
ATOM     18  O   UNL     1     -38.322   1.830  78.623  1.00  0.00    -0.387 OA
ATOM     19  H   UNL     1     -38.442   1.208  79.389  1.00  0.00     0.211 HD
ENDBRANCH  14  18
BRANCH  15  20
ATOM     20  O   UNL     1     -38.741   2.206  81.312  1.00  0.00    -0.385 OA
ATOM     21  H   UNL     1     -38.110   1.997  82.047  1.00  0.00     0.211 HD
ENDBRANCH  15  20
ENDBRANCH   8   9
ENDBRANCH   7   8
ENDBRANCH   1   7
BRANCH   2  22
ATOM     22  O   UNL     1     -36.579   6.558  76.890  1.00  0.00    -0.387 OA
ATOM     23  H   UNL     1     -36.823   5.616  76.684  1.00  0.00     0.211 HD
ENDBRANCH   2  22
BRANCH   3  24
ATOM     24  O   UNL     1     -37.153   8.514  79.886  1.00  0.00    -0.387 OA
ATOM     25  H   UNL     1     -38.004   8.010  79.965  1.00  0.00     0.211 HD
ENDBRANCH   3  24
BRANCH   5  26
ATOM     26  O   UNL     1     -34.523   7.759  80.829  1.00  0.00    -0.454 OA
BRANCH  26  27
ATOM     27  C   UNL     1     -33.471   7.858  81.752  1.00  0.00     0.214 A 
ATOM     28  C   UNL     1     -33.490   7.173  82.982  1.00  0.00     0.180 A 
ATOM     29  C   UNL     1     -32.364   8.656  81.442  1.00  0.00     0.239 A 
ATOM     30  O   UNL     1     -32.429   7.215  83.777  1.00  0.00    -0.452 OA
ATOM     31  C   UNL     1     -31.239   8.673  82.303  1.00  0.00     0.111 A 
ATOM     32  O   UNL     1     -32.405   9.347  80.392  1.00  0.00    -0.285 OA
ATOM     33  C   UNL     1     -31.334   7.914  83.499  1.00  0.00     0.146 A 
ATOM     34  C   UNL     1     -30.039   9.408  82.061  1.00  0.00     0.134 A 
ATOM     35  C   UNL     1     -30.285   7.904  84.419  1.00  0.00     0.094 A 
ATOM     36  C   UNL     1     -29.025   9.415  83.026  1.00  0.00     0.093 A 
ATOM     37  C   UNL     1     -29.136   8.662  84.193  1.00  0.00     0.123 A 
BRANCH  28  38
ATOM     38  C   UNL     1     -34.675   6.422  83.438  1.00  0.00     0.025 A 
ATOM     39  C   UNL     1     -34.658   5.020  83.483  1.00  0.00     0.062 A 
ATOM     40  C   UNL     1     -35.823   7.115  83.852  1.00  0.00     0.016 A 
ATOM     41  C   UNL     1     -35.773   4.312  83.951  1.00  0.00     0.158 A 
ATOM     42  C   UNL     1     -36.929   6.411  84.333  1.00  0.00     0.051 A 
ATOM     43  C   UNL     1     -36.912   5.011  84.384  1.00  0.00     0.157 A 
BRANCH  41  44
ATOM     44  O   UNL     1     -35.748   2.919  83.990  1.00  0.00    -0.504 OA
ATOM     45  H   UNL     1     -35.094   2.383  83.430  1.00  0.00     0.293 HD
ENDBRANCH  41  44
BRANCH  43  46
ATOM     46  O   UNL     1     -38.034   4.338  84.866  1.00  0.00    -0.504 OA
ATOM     47  H   UNL     1     -38.161   4.146  85.856  1.00  0.00     0.293 HD
ENDBRANCH  43  46
ENDBRANCH  28  38
BRANCH  34  48
ATOM     48  O   UNL     1     -29.783  10.125  80.890  1.00  0.00    -0.507 OA
ATOM     49  H   UNL     1     -28.937  10.641  80.703  1.00  0.00     0.293 HD
ENDBRANCH  34  48
BRANCH  37  50
ATOM     50  O   UNL     1     -28.094   8.670  85.119  1.00  0.00    -0.508 OA
ATOM     51  H   UNL     1     -27.462   9.459  85.198  1.00  0.00     0.293 HD
ENDBRANCH  37  50
ENDBRANCH  26  27
ENDBRANCH   5  26
BRANCH   4  52
ATOM     52  O   UNL     1     -34.886   9.859  79.004  1.00  0.00    -0.384 OA
ATOM     53  H   UNL     1     -34.649   9.807  79.967  1.00  0.00     0.211 HD
ENDBRANCH   4  52
TORSDOF 16
ENDMDL
MODEL 6
REMARK VINA RESULT:    -5.745      9.728     14.676
REMARK INTER + INTRA:         -12.428
REMARK INTER:                 -10.742
REMARK INTRA:                  -1.686
REMARK UNBOUND:                -2.988
REMARK SMILES C[C@@H]1O[C@H](OC[C@@H]2O[C@H](Oc3c(-c4ccc(O)c(O)c4)oc4cc(O)cc(O)c4c3=O)[C@H](O)[C@H](O)[C@H]2O)[C@@H](O)[C@@H](O)[C@@H]1O
REMARK SMILES IDX 7 1 36 2 34 3 32 4 9 5 8 6 6 7 5 8 4 9 1 10 2 11 42 12 3 13
REMARK SMILES IDX 40 14 38 15 43 16 41 18 39 20 37 22 35 24 10 26 11 27 12 28
REMARK SMILES IDX 30 29 21 30 29 31 31 32 22 33 27 34 23 35 26 36 24 37 13 38
REMARK SMILES IDX 20 39 14 40 18 41 15 42 16 43 19 44 17 46 28 48 25 50 33 52
REMARK H PARENT 43 17 41 19 39 21 37 23 35 25 19 45 17 47 28 49 25 51 33 53
REMARK Flexibility Score: inf
ROOT
ATOM      1  C   UNL     1     -41.950  -7.774  81.013  1.00  0.00     0.180 C 
ATOM      2  C   UNL     1     -41.455  -9.214  80.714  1.00  0.00     0.177 C 
ATOM      3  C   UNL     1     -40.003  -9.424  81.168  1.00  0.00     0.180 C 
ATOM      4  C   UNL     1     -39.847  -8.957  82.619  1.00  0.00     0.214 C 
ATOM      5  C   UNL     1     -40.376  -7.519  82.799  1.00  0.00     0.339 C 
ATOM      6  O   UNL     1     -41.713  -7.352  82.352  1.00  0.00    -0.332 OA
ENDROOT
BRANCH   1   7
ATOM      7  C   UNL     1     -41.507  -6.730  79.970  1.00  0.00     0.198 C 
BRANCH   7   8
ATOM      8  O   UNL     1     -42.619  -6.418  79.150  1.00  0.00    -0.347 OA
BRANCH   8   9
ATOM      9  C   UNL     1     -43.179  -5.146  79.436  1.00  0.00     0.281 C 
ATOM     10  C   UNL     1     -44.189  -6.402  76.790  1.00  0.00     0.041 C 
ATOM     11  C   UNL     1     -44.641  -5.137  77.543  1.00  0.00     0.150 C 
ATOM     12  C   UNL     1     -45.892  -5.341  78.434  1.00  0.00     0.174 C 
ATOM     13  O   UNL     1     -43.565  -4.500  78.229  1.00  0.00    -0.344 OA
ATOM     14  C   UNL     1     -45.520  -6.016  79.767  1.00  0.00     0.179 C 
ATOM     15  C   UNL     1     -44.362  -5.256  80.421  1.00  0.00     0.202 C 
BRANCH  12  16
ATOM     16  O   UNL     1     -46.847  -6.108  77.743  1.00  0.00    -0.388 OA
ATOM     17  H   UNL     1     -47.708  -5.625  77.796  1.00  0.00     0.211 HD
ENDBRANCH  12  16
BRANCH  14  18
ATOM     18  O   UNL     1     -46.622  -6.013  80.638  1.00  0.00    -0.387 OA
ATOM     19  H   UNL     1     -46.314  -6.411  81.495  1.00  0.00     0.211 HD
ENDBRANCH  14  18
BRANCH  15  20
ATOM     20  O   UNL     1     -44.792  -3.969  80.790  1.00  0.00    -0.385 OA
ATOM     21  H   UNL     1     -44.052  -3.345  80.578  1.00  0.00     0.211 HD
ENDBRANCH  15  20
ENDBRANCH   8   9
ENDBRANCH   7   8
ENDBRANCH   1   7
BRANCH   2  22
ATOM     22  O   UNL     1     -42.296 -10.125  81.377  1.00  0.00    -0.387 OA
ATOM     23  H   UNL     1     -41.804 -10.441  82.181  1.00  0.00     0.211 HD
ENDBRANCH   2  22
BRANCH   3  24
ATOM     24  O   UNL     1     -39.124  -8.729  80.319  1.00  0.00    -0.387 OA
ATOM     25  H   UNL     1     -38.811  -7.925  80.811  1.00  0.00     0.211 HD
ENDBRANCH   3  24
BRANCH   5  26
ATOM     26  O   UNL     1     -39.506  -6.557  82.193  1.00  0.00    -0.454 OA
BRANCH  26  27
ATOM     27  C   UNL     1     -39.191  -5.324  82.784  1.00  0.00     0.214 A 
ATOM     28  C   UNL     1     -37.950  -5.089  83.406  1.00  0.00     0.180 A 
ATOM     29  C   UNL     1     -40.135  -4.291  82.752  1.00  0.00     0.239 A 
ATOM     30  O   UNL     1     -37.658  -3.877  83.859  1.00  0.00    -0.452 OA
ATOM     31  C   UNL     1     -39.793  -3.003  83.233  1.00  0.00     0.111 A 
ATOM     32  O   UNL     1     -41.278  -4.545  82.292  1.00  0.00    -0.285 OA
ATOM     33  C   UNL     1     -38.500  -2.852  83.801  1.00  0.00     0.146 A 
ATOM     34  C   UNL     1     -40.657  -1.867  83.202  1.00  0.00     0.134 A 
ATOM     35  C   UNL     1     -38.096  -1.625  84.330  1.00  0.00     0.094 A 
ATOM     36  C   UNL     1     -40.238  -0.664  83.784  1.00  0.00     0.093 A 
ATOM     37  C   UNL     1     -38.965  -0.534  84.335  1.00  0.00     0.123 A 
BRANCH  28  38
ATOM     38  C   UNL     1     -36.958  -6.163  83.597  1.00  0.00     0.025 A 
ATOM     39  C   UNL     1     -36.081  -6.520  82.562  1.00  0.00     0.062 A 
ATOM     40  C   UNL     1     -36.874  -6.822  84.833  1.00  0.00     0.016 A 
ATOM     41  C   UNL     1     -35.116  -7.517  82.760  1.00  0.00     0.158 A 
ATOM     42  C   UNL     1     -35.902  -7.805  85.037  1.00  0.00     0.051 A 
ATOM     43  C   UNL     1     -35.023  -8.158  84.006  1.00  0.00     0.157 A 
BRANCH  41  44
ATOM     44  O   UNL     1     -34.251  -7.865  81.724  1.00  0.00    -0.504 OA
ATOM     45  H   UNL     1     -33.722  -7.165  81.216  1.00  0.00     0.293 HD
ENDBRANCH  41  44
BRANCH  43  46
ATOM     46  O   UNL     1     -34.067  -9.146  84.241  1.00  0.00    -0.504 OA
ATOM     47  H   UNL     1     -33.220  -9.218  83.684  1.00  0.00     0.293 HD
ENDBRANCH  43  46
ENDBRANCH  28  38
BRANCH  34  48
ATOM     48  O   UNL     1     -41.916  -1.857  82.599  1.00  0.00    -0.507 OA
ATOM     49  H   UNL     1     -42.479  -2.675  82.424  1.00  0.00     0.293 HD
ENDBRANCH  34  48
BRANCH  37  50
ATOM     50  O   UNL     1     -38.572   0.687  84.880  1.00  0.00    -0.508 OA
ATOM     51  H   UNL     1     -39.240   1.432  85.047  1.00  0.00     0.293 HD
ENDBRANCH  37  50
ENDBRANCH  26  27
ENDBRANCH   5  26
BRANCH   4  52
ATOM     52  O   UNL     1     -38.501  -9.046  83.009  1.00  0.00    -0.384 OA
ATOM     53  H   UNL     1     -38.494  -9.385  83.941  1.00  0.00     0.211 HD
ENDBRANCH   4  52
TORSDOF 16
ENDMDL
MODEL 7
REMARK VINA RESULT:    -5.720      1.919      3.381
REMARK INTER + INTRA:         -12.386
REMARK INTER:                 -10.410
REMARK INTRA:                  -1.976
REMARK UNBOUND:                -2.988
REMARK SMILES C[C@@H]1O[C@H](OC[C@@H]2O[C@H](Oc3c(-c4ccc(O)c(O)c4)oc4cc(O)cc(O)c4c3=O)[C@H](O)[C@H](O)[C@H]2O)[C@@H](O)[C@@H](O)[C@@H]1O
REMARK SMILES IDX 7 1 36 2 34 3 32 4 9 5 8 6 6 7 5 8 4 9 1 10 2 11 42 12 3 13
REMARK SMILES IDX 40 14 38 15 43 16 41 18 39 20 37 22 35 24 10 26 11 27 12 28
REMARK SMILES IDX 30 29 21 30 29 31 31 32 22 33 27 34 23 35 26 36 24 37 13 38
REMARK SMILES IDX 20 39 14 40 18 41 15 42 16 43 19 44 17 46 28 48 25 50 33 52
REMARK H PARENT 43 17 41 19 39 21 37 23 35 25 19 45 17 47 28 49 25 51 33 53
REMARK Flexibility Score: inf
ROOT
ATOM      1  C   UNL     1     -37.765   7.111  84.260  1.00  0.00     0.180 C 
ATOM      2  C   UNL     1     -37.020   8.439  83.956  1.00  0.00     0.177 C 
ATOM      3  C   UNL     1     -36.945   8.719  82.448  1.00  0.00     0.180 C 
ATOM      4  C   UNL     1     -38.342   8.588  81.833  1.00  0.00     0.214 C 
ATOM      5  C   UNL     1     -38.988   7.237  82.205  1.00  0.00     0.339 C 
ATOM      6  O   UNL     1     -39.023   6.997  83.604  1.00  0.00    -0.332 OA
ENDROOT
BRANCH   1   7
ATOM      7  C   UNL     1     -36.892   5.852  84.101  1.00  0.00     0.198 C 
BRANCH   7   8
ATOM      8  O   UNL     1     -35.531   6.243  84.154  1.00  0.00    -0.347 OA
BRANCH   8   9
ATOM      9  C   UNL     1     -34.741   5.636  83.143  1.00  0.00     0.281 C 
ATOM     10  C   UNL     1     -33.398   8.077  84.499  1.00  0.00     0.041 C 
ATOM     11  C   UNL     1     -32.847   7.054  83.488  1.00  0.00     0.150 C 
ATOM     12  C   UNL     1     -32.028   5.906  84.130  1.00  0.00     0.174 C 
ATOM     13  O   UNL     1     -33.847   6.591  82.584  1.00  0.00    -0.344 OA
ATOM     14  C   UNL     1     -32.955   4.832  84.728  1.00  0.00     0.179 C 
ATOM     15  C   UNL     1     -33.985   4.401  83.680  1.00  0.00     0.202 C 
BRANCH  12  16
ATOM     16  O   UNL     1     -31.174   6.426  85.118  1.00  0.00    -0.388 OA
ATOM     17  H   UNL     1     -31.183   7.411  85.027  1.00  0.00     0.211 HD
ENDBRANCH  12  16
BRANCH  14  18
ATOM     18  O   UNL     1     -32.208   3.711  85.125  1.00  0.00    -0.387 OA
ATOM     19  H   UNL     1     -32.161   3.730  86.117  1.00  0.00     0.211 HD
ENDBRANCH  14  18
BRANCH  15  20
ATOM     20  O   UNL     1     -33.333   3.747  82.619  1.00  0.00    -0.385 OA
ATOM     21  H   UNL     1     -33.938   3.026  82.309  1.00  0.00     0.211 HD
ENDBRANCH  15  20
ENDBRANCH   8   9
ENDBRANCH   7   8
ENDBRANCH   1   7
BRANCH   2  22
ATOM     22  O   UNL     1     -37.693   9.490  84.603  1.00  0.00    -0.387 OA
ATOM     23  H   UNL     1     -37.037  10.228  84.715  1.00  0.00     0.211 HD
ENDBRANCH   2  22
BRANCH   3  24
ATOM     24  O   UNL     1     -36.040   7.835  81.834  1.00  0.00    -0.387 OA
ATOM     25  H   UNL     1     -36.010   7.012  82.389  1.00  0.00     0.211 HD
ENDBRANCH   3  24
BRANCH   5  26
ATOM     26  O   UNL     1     -38.369   6.148  81.511  1.00  0.00    -0.454 OA
BRANCH  26  27
ATOM     27  C   UNL     1     -39.011   5.416  80.500  1.00  0.00     0.214 A 
ATOM     28  C   UNL     1     -38.404   5.175  79.253  1.00  0.00     0.180 A 
ATOM     29  C   UNL     1     -40.291   4.903  80.737  1.00  0.00     0.239 A 
ATOM     30  O   UNL     1     -39.005   4.391  78.367  1.00  0.00    -0.452 OA
ATOM     31  C   UNL     1     -40.906   4.059  79.779  1.00  0.00     0.111 A 
ATOM     32  O   UNL     1     -40.867   5.215  81.812  1.00  0.00    -0.285 OA
ATOM     33  C   UNL     1     -40.195   3.837  78.570  1.00  0.00     0.146 A 
ATOM     34  C   UNL     1     -42.182   3.441  79.938  1.00  0.00     0.134 A 
ATOM     35  C   UNL     1     -40.744   3.047  77.559  1.00  0.00     0.094 A 
ATOM     36  C   UNL     1     -42.725   2.694  78.885  1.00  0.00     0.093 A 
ATOM     37  C   UNL     1     -42.012   2.485  77.707  1.00  0.00     0.123 A 
BRANCH  28  38
ATOM     38  C   UNL     1     -37.118   5.792  78.880  1.00  0.00     0.025 A 
ATOM     39  C   UNL     1     -35.913   5.315  79.418  1.00  0.00     0.062 A 
ATOM     40  C   UNL     1     -37.094   6.852  77.961  1.00  0.00     0.016 A 
ATOM     41  C   UNL     1     -34.690   5.881  79.032  1.00  0.00     0.158 A 
ATOM     42  C   UNL     1     -35.875   7.406  77.564  1.00  0.00     0.051 A 
ATOM     43  C   UNL     1     -34.671   6.928  78.096  1.00  0.00     0.157 A 
BRANCH  41  44
ATOM     44  O   UNL     1     -33.499   5.401  79.575  1.00  0.00    -0.504 OA
ATOM     45  H   UNL     1     -32.701   5.180  78.991  1.00  0.00     0.293 HD
ENDBRANCH  41  44
BRANCH  43  46
ATOM     46  O   UNL     1     -33.471   7.505  77.682  1.00  0.00    -0.504 OA
ATOM     47  H   UNL     1     -32.663   6.943  77.431  1.00  0.00     0.293 HD
ENDBRANCH  43  46
ENDBRANCH  28  38
BRANCH  34  48
ATOM     48  O   UNL     1     -42.945   3.508  81.107  1.00  0.00    -0.507 OA
ATOM     49  H   UNL     1     -42.988   2.787  81.810  1.00  0.00     0.293 HD
ENDBRANCH  34  48
BRANCH  37  50
ATOM     50  O   UNL     1     -42.572   1.712  76.691  1.00  0.00    -0.508 OA
ATOM     51  H   UNL     1     -42.637   2.055  75.739  1.00  0.00     0.293 HD
ENDBRANCH  37  50
ENDBRANCH  26  27
ENDBRANCH   5  26
BRANCH   4  52
ATOM     52  O   UNL     1     -38.268   8.738  80.439  1.00  0.00    -0.384 OA
ATOM     53  H   UNL     1     -37.349   9.053  80.233  1.00  0.00     0.211 HD
ENDBRANCH   4  52
TORSDOF 16
ENDMDL
MODEL 8
REMARK VINA RESULT:    -5.653      2.652      5.362
REMARK INTER + INTRA:         -12.276
REMARK INTER:                 -10.129
REMARK INTRA:                  -2.147
REMARK UNBOUND:                -2.988
REMARK SMILES C[C@@H]1O[C@H](OC[C@@H]2O[C@H](Oc3c(-c4ccc(O)c(O)c4)oc4cc(O)cc(O)c4c3=O)[C@H](O)[C@H](O)[C@H]2O)[C@@H](O)[C@@H](O)[C@@H]1O
REMARK SMILES IDX 7 1 36 2 34 3 32 4 9 5 8 6 6 7 5 8 4 9 1 10 2 11 42 12 3 13
REMARK SMILES IDX 40 14 38 15 43 16 41 18 39 20 37 22 35 24 10 26 11 27 12 28
REMARK SMILES IDX 30 29 21 30 29 31 31 32 22 33 27 34 23 35 26 36 24 37 13 38
REMARK SMILES IDX 20 39 14 40 18 41 15 42 16 43 19 44 17 46 28 48 25 50 33 52
REMARK H PARENT 43 17 41 19 39 21 37 23 35 25 19 45 17 47 28 49 25 51 33 53
REMARK Flexibility Score: inf
ROOT
ATOM      1  C   UNL     1     -37.993   7.775  83.941  1.00  0.00     0.180 C 
ATOM      2  C   UNL     1     -37.111   9.047  83.823  1.00  0.00     0.177 C 
ATOM      3  C   UNL     1     -36.780   9.377  82.360  1.00  0.00     0.180 C 
ATOM      4  C   UNL     1     -38.069   9.385  81.532  1.00  0.00     0.214 C 
ATOM      5  C   UNL     1     -38.865   8.079  81.732  1.00  0.00     0.339 C 
ATOM      6  O   UNL     1     -39.137   7.790  83.095  1.00  0.00    -0.332 OA
ENDROOT
BRANCH   1   7
ATOM      7  C   UNL     1     -37.204   6.455  83.855  1.00  0.00     0.198 C 
BRANCH   7   8
ATOM      8  O   UNL     1     -38.111   5.379  84.023  1.00  0.00    -0.347 OA
BRANCH   8   9
ATOM      9  C   UNL     1     -37.462   4.128  84.188  1.00  0.00     0.281 C 
ATOM     10  C   UNL     1     -40.504   4.060  84.773  1.00  0.00     0.041 C 
ATOM     11  C   UNL     1     -39.468   2.924  84.680  1.00  0.00     0.150 C 
ATOM     12  C   UNL     1     -39.441   2.200  83.310  1.00  0.00     0.174 C 
ATOM     13  O   UNL     1     -38.175   3.329  85.124  1.00  0.00    -0.344 OA
ATOM     14  C   UNL     1     -38.656   3.017  82.268  1.00  0.00     0.179 C 
ATOM     15  C   UNL     1     -37.287   3.398  82.839  1.00  0.00     0.202 C 
BRANCH  12  16
ATOM     16  O   UNL     1     -40.756   1.971  82.868  1.00  0.00    -0.388 OA
ATOM     17  H   UNL     1     -41.342   2.611  83.342  1.00  0.00     0.211 HD
ENDBRANCH  12  16
BRANCH  14  18
ATOM     18  O   UNL     1     -38.470   2.263  81.097  1.00  0.00    -0.387 OA
ATOM     19  H   UNL     1     -38.406   2.908  80.344  1.00  0.00     0.211 HD
ENDBRANCH  14  18
BRANCH  15  20
ATOM     20  O   UNL     1     -36.514   2.237  83.026  1.00  0.00    -0.385 OA
ATOM     21  H   UNL     1     -35.842   2.217  82.299  1.00  0.00     0.211 HD
ENDBRANCH  15  20
ENDBRANCH   8   9
ENDBRANCH   7   8
ENDBRANCH   1   7
BRANCH   2  22
ATOM     22  O   UNL     1     -37.796  10.125  84.410  1.00  0.00    -0.387 OA
ATOM     23  H   UNL     1     -37.182  10.906  84.385  1.00  0.00     0.211 HD
ENDBRANCH   2  22
BRANCH   3  24
ATOM     24  O   UNL     1     -35.859   8.445  81.849  1.00  0.00    -0.387 OA
ATOM     25  H   UNL     1     -34.961   8.704  82.184  1.00  0.00     0.211 HD
ENDBRANCH   3  24
BRANCH   5  26
ATOM     26  O   UNL     1     -38.229   6.970  81.087  1.00  0.00    -0.454 OA
BRANCH  26  27
ATOM     27  C   UNL     1     -38.889   6.124  80.183  1.00  0.00     0.214 A 
ATOM     28  C   UNL     1     -38.418   5.920  78.872  1.00  0.00     0.180 A 
ATOM     29  C   UNL     1     -40.047   5.456  80.594  1.00  0.00     0.239 A 
ATOM     30  O   UNL     1     -39.014   5.033  78.086  1.00  0.00    -0.452 OA
ATOM     31  C   UNL     1     -40.659   4.504  79.740  1.00  0.00     0.111 A 
ATOM     32  O   UNL     1     -40.519   5.727  81.728  1.00  0.00    -0.285 OA
ATOM     33  C   UNL     1     -40.083   4.335  78.453  1.00  0.00     0.146 A 
ATOM     34  C   UNL     1     -41.809   3.729  80.075  1.00  0.00     0.134 A 
ATOM     35  C   UNL     1     -40.644   3.444  77.536  1.00  0.00     0.094 A 
ATOM     36  C   UNL     1     -42.375   2.881  79.116  1.00  0.00     0.093 A 
ATOM     37  C   UNL     1     -41.795   2.726  77.858  1.00  0.00     0.123 A 
BRANCH  28  38
ATOM     38  C   UNL     1     -37.285   6.688  78.323  1.00  0.00     0.025 A 
ATOM     39  C   UNL     1     -37.506   7.857  77.579  1.00  0.00     0.062 A 
ATOM     40  C   UNL     1     -35.970   6.260  78.563  1.00  0.00     0.016 A 
ATOM     41  C   UNL     1     -36.425   8.603  77.090  1.00  0.00     0.158 A 
ATOM     42  C   UNL     1     -34.892   7.011  78.090  1.00  0.00     0.051 A 
ATOM     43  C   UNL     1     -35.112   8.180  77.352  1.00  0.00     0.157 A 
BRANCH  41  44
ATOM     44  O   UNL     1     -36.656   9.761  76.350  1.00  0.00    -0.504 OA
ATOM     45  H   UNL     1     -35.894  10.345  76.025  1.00  0.00     0.293 HD
ENDBRANCH  41  44
BRANCH  43  46
ATOM     46  O   UNL     1     -34.014   8.905  76.890  1.00  0.00    -0.504 OA
ATOM     47  H   UNL     1     -33.518   9.566  77.482  1.00  0.00     0.293 HD
ENDBRANCH  43  46
ENDBRANCH  28  38
BRANCH  34  48
ATOM     48  O   UNL     1     -42.420   3.737  81.331  1.00  0.00    -0.507 OA
ATOM     49  H   UNL     1     -43.270   4.231  81.556  1.00  0.00     0.293 HD
ENDBRANCH  34  48
BRANCH  37  50
ATOM     50  O   UNL     1     -42.370   1.850  76.939  1.00  0.00    -0.508 OA
ATOM     51  H   UNL     1     -43.309   1.489  77.067  1.00  0.00     0.293 HD
ENDBRANCH  37  50
ENDBRANCH  26  27
ENDBRANCH   5  26
BRANCH   4  52
ATOM     52  O   UNL     1     -37.765   9.581  80.175  1.00  0.00    -0.384 OA
ATOM     53  H   UNL     1     -36.974  10.180  80.142  1.00  0.00     0.211 HD
ENDBRANCH   4  52
TORSDOF 16
ENDMDL
MODEL 9
REMARK VINA RESULT:    -5.300      1.728      9.134
REMARK INTER + INTRA:         -11.695
REMARK INTER:                  -9.602
REMARK INTRA:                  -2.093
REMARK UNBOUND:                -2.988
REMARK SMILES C[C@@H]1O[C@H](OC[C@@H]2O[C@H](Oc3c(-c4ccc(O)c(O)c4)oc4cc(O)cc(O)c4c3=O)[C@H](O)[C@H](O)[C@H]2O)[C@@H](O)[C@@H](O)[C@@H]1O
REMARK SMILES IDX 7 1 36 2 34 3 32 4 9 5 8 6 6 7 5 8 4 9 1 10 2 11 42 12 3 13
REMARK SMILES IDX 40 14 38 15 43 16 41 18 39 20 37 22 35 24 10 26 11 27 12 28
REMARK SMILES IDX 30 29 21 30 29 31 31 32 22 33 27 34 23 35 26 36 24 37 13 38
REMARK SMILES IDX 20 39 14 40 18 41 15 42 16 43 19 44 17 46 28 48 25 50 33 52
REMARK H PARENT 43 17 41 19 39 21 37 23 35 25 19 45 17 47 28 49 25 51 33 53
REMARK Flexibility Score: inf
ROOT
ATOM      1  C   UNL     1     -36.234   5.856  79.021  1.00  0.00     0.180 C 
ATOM      2  C   UNL     1     -37.170   6.844  78.274  1.00  0.00     0.177 C 
ATOM      3  C   UNL     1     -36.966   8.291  78.746  1.00  0.00     0.180 C 
ATOM      4  C   UNL     1     -35.475   8.636  78.709  1.00  0.00     0.214 C 
ATOM      5  C   UNL     1     -34.643   7.587  79.476  1.00  0.00     0.339 C 
ATOM      6  O   UNL     1     -34.869   6.258  79.032  1.00  0.00    -0.332 OA
ENDROOT
BRANCH   1   7
ATOM      7  C   UNL     1     -36.746   5.441  80.414  1.00  0.00     0.198 C 
BRANCH   7   8
ATOM      8  O   UNL     1     -38.090   5.009  80.286  1.00  0.00    -0.347 OA
BRANCH   8   9
ATOM      9  C   UNL     1     -38.206   3.607  80.107  1.00  0.00     0.281 C 
ATOM     10  C   UNL     1     -40.243   4.796  82.117  1.00  0.00     0.041 C 
ATOM     11  C   UNL     1     -40.121   3.381  81.521  1.00  0.00     0.150 C 
ATOM     12  C   UNL     1     -41.056   3.117  80.314  1.00  0.00     0.174 C 
ATOM     13  O   UNL     1     -38.767   3.011  81.271  1.00  0.00    -0.344 OA
ATOM     14  C   UNL     1     -40.477   3.722  79.022  1.00  0.00     0.179 C 
ATOM     15  C   UNL     1     -39.027   3.263  78.845  1.00  0.00     0.202 C 
BRANCH  12  16
ATOM     16  O   UNL     1     -42.332   3.645  80.577  1.00  0.00    -0.388 OA
ATOM     17  H   UNL     1     -42.971   3.187  79.977  1.00  0.00     0.211 HD
ENDBRANCH  12  16
BRANCH  14  18
ATOM     18  O   UNL     1     -41.229   3.307  77.911  1.00  0.00    -0.387 OA
ATOM     19  H   UNL     1     -41.819   2.569  78.220  1.00  0.00     0.211 HD
ENDBRANCH  14  18
BRANCH  15  20
ATOM     20  O   UNL     1     -38.995   1.875  78.624  1.00  0.00    -0.385 OA
ATOM     21  H   UNL     1     -39.885   1.522  78.880  1.00  0.00     0.211 HD
ENDBRANCH  15  20
ENDBRANCH   8   9
ENDBRANCH   7   8
ENDBRANCH   1   7
BRANCH   2  22
ATOM     22  O   UNL     1     -36.911   6.752  76.895  1.00  0.00    -0.387 OA
ATOM     23  H   UNL     1     -36.698   5.800  76.704  1.00  0.00     0.211 HD
ENDBRANCH   2  22
BRANCH   3  24
ATOM     24  O   UNL     1     -37.491   8.458  80.040  1.00  0.00    -0.387 OA
ATOM     25  H   UNL     1     -36.842   8.055  80.675  1.00  0.00     0.211 HD
ENDBRANCH   3  24
BRANCH   5  26
ATOM     26  O   UNL     1     -34.832   7.696  80.891  1.00  0.00    -0.454 OA
BRANCH  26  27
ATOM     27  C   UNL     1     -33.770   7.790  81.804  1.00  0.00     0.214 A 
ATOM     28  C   UNL     1     -33.765   7.080  83.019  1.00  0.00     0.180 A 
ATOM     29  C   UNL     1     -32.678   8.610  81.498  1.00  0.00     0.239 A 
ATOM     30  O   UNL     1     -32.695   7.119  83.802  1.00  0.00    -0.452 OA
ATOM     31  C   UNL     1     -31.542   8.624  82.346  1.00  0.00     0.111 A 
ATOM     32  O   UNL     1     -32.740   9.323  80.463  1.00  0.00    -0.285 OA
ATOM     33  C   UNL     1     -31.613   7.838  83.526  1.00  0.00     0.146 A 
ATOM     34  C   UNL     1     -30.355   9.380  82.105  1.00  0.00     0.134 A 
ATOM     35  C   UNL     1     -30.553   7.823  84.434  1.00  0.00     0.094 A 
ATOM     36  C   UNL     1     -29.330   9.380  83.059  1.00  0.00     0.093 A 
ATOM     37  C   UNL     1     -29.417   8.601  84.211  1.00  0.00     0.123 A 
BRANCH  28  38
ATOM     38  C   UNL     1     -34.934   6.303  83.472  1.00  0.00     0.025 A 
ATOM     39  C   UNL     1     -34.890   4.901  83.509  1.00  0.00     0.062 A 
ATOM     40  C   UNL     1     -36.094   6.971  83.893  1.00  0.00     0.016 A 
ATOM     41  C   UNL     1     -35.991   4.169  83.975  1.00  0.00     0.158 A 
ATOM     42  C   UNL     1     -37.186   6.243  84.373  1.00  0.00     0.051 A 
ATOM     43  C   UNL     1     -37.142   4.843  84.414  1.00  0.00     0.157 A 
BRANCH  41  44
ATOM     44  O   UNL     1     -35.938   2.776  84.005  1.00  0.00    -0.504 OA
ATOM     45  H   UNL     1     -36.414   2.211  83.311  1.00  0.00     0.293 HD
ENDBRANCH  41  44
BRANCH  43  46
ATOM     46  O   UNL     1     -38.249   4.146  84.895  1.00  0.00    -0.504 OA
ATOM     47  H   UNL     1     -39.146   4.167  84.417  1.00  0.00     0.293 HD
ENDBRANCH  43  46
ENDBRANCH  28  38
BRANCH  34  48
ATOM     48  O   UNL     1     -30.123  10.125  80.947  1.00  0.00    -0.507 OA
ATOM     49  H   UNL     1     -29.811   9.742  80.068  1.00  0.00     0.293 HD
ENDBRANCH  34  48
BRANCH  37  50
ATOM     50  O   UNL     1     -28.364   8.604  85.125  1.00  0.00    -0.508 OA
ATOM     51  H   UNL     1     -27.822   9.441  85.304  1.00  0.00     0.293 HD
ENDBRANCH  37  50
ENDBRANCH  26  27
ENDBRANCH   5  26
BRANCH   4  52
ATOM     52  O   UNL     1     -35.268   9.921  79.239  1.00  0.00    -0.384 OA
ATOM     53  H   UNL     1     -35.423   9.856  80.216  1.00  0.00     0.211 HD
ENDBRANCH   4  52
TORSDOF 16
ENDMDL
