MODEL 1
REMARK VINA RESULT:    -4.652      0.000      0.000
REMARK INTER + INTRA:          -5.187
REMARK INTER:                  -5.060
REMARK INTRA:                  -0.127
REMARK UNBOUND:                -0.127
REMARK SMILES Cc1ccc(C(C)C)cc1O
REMARK SMILES IDX 1 1 2 2 10 3 9 4 5 5 4 6 3 7 11 8 6 10 7 11 8 12
REMARK H PARENT 11 9
REMARK Flexibility Score: inf
ROOT
ATOM      1  C   UNL     1     475.947  34.220 463.174  1.00  0.00     0.048 C 
ATOM      2  C   UNL     1     476.782  35.149 462.336  1.00  0.00    -0.009 A 
ATOM      3  C   UNL     1     476.498  36.526 462.309  1.00  0.00     0.118 A 
ATOM      4  C   UNL     1     477.281  37.386 461.525  1.00  0.00     0.050 A 
ATOM      5  C   UNL     1     478.352  36.886 460.762  1.00  0.00    -0.042 A 
ATOM      6  C   UNL     1     478.626  35.509 460.796  1.00  0.00     0.004 A 
ATOM      7  C   UNL     1     477.848  34.649 461.575  1.00  0.00     0.007 A 
ENDROOT
BRANCH   3   8
ATOM      8  O   UNL     1     475.440  37.036 463.061  1.00  0.00    -0.508 OA
ATOM      9  H   UNL     1     474.970  37.895 462.802  1.00  0.00     0.293 HD
ENDBRANCH   3   8
BRANCH   5  10
ATOM     10  C   UNL     1     479.204  37.808 459.910  1.00  0.00     0.013 C 
ATOM     11  C   UNL     1     480.054  37.012 458.913  1.00  0.00     0.012 C 
ATOM     12  C   UNL     1     480.080  38.715 460.783  1.00  0.00     0.012 C 
ENDBRANCH   5  10
TORSDOF 2
ENDMDL
MODEL 2
REMARK VINA RESULT:    -4.628      2.226      4.679
REMARK INTER + INTRA:          -5.161
REMARK INTER:                  -5.040
REMARK INTRA:                  -0.121
REMARK UNBOUND:                -0.127
REMARK SMILES Cc1ccc(C(C)C)cc1O
REMARK SMILES IDX 1 1 2 2 10 3 9 4 5 5 4 6 3 7 11 8 6 10 7 11 8 12
REMARK H PARENT 11 9
REMARK Flexibility Score: inf
ROOT
ATOM      1  C   UNL     1     480.507  37.510 458.291  1.00  0.00     0.048 C 
ATOM      2  C   UNL     1     479.673  36.966 459.418  1.00  0.00    -0.009 A 
ATOM      3  C   UNL     1     479.364  35.596 459.472  1.00  0.00     0.118 A 
ATOM      4  C   UNL     1     478.586  35.096 460.526  1.00  0.00     0.050 A 
ATOM      5  C   UNL     1     478.109  35.952 461.536  1.00  0.00    -0.042 A 
ATOM      6  C   UNL     1     478.424  37.319 461.472  1.00  0.00     0.004 A 
ATOM      7  C   UNL     1     479.198  37.822 460.423  1.00  0.00     0.007 A 
ENDROOT
BRANCH   3   8
ATOM      8  O   UNL     1     479.830  34.734 458.480  1.00  0.00    -0.508 OA
ATOM      9  H   UNL     1     480.283  35.082 457.643  1.00  0.00     0.293 HD
ENDBRANCH   3   8
BRANCH   5  10
ATOM     10  C   UNL     1     477.267  35.420 462.680  1.00  0.00     0.013 C 
ATOM     11  C   UNL     1     476.906  33.946 462.463  1.00  0.00     0.012 C 
ATOM     12  C   UNL     1     476.009  36.273 462.885  1.00  0.00     0.012 C 
ENDBRANCH   5  10
TORSDOF 2
ENDMDL
MODEL 3
REMARK VINA RESULT:    -4.486      0.689      1.176
REMARK INTER + INTRA:          -5.007
REMARK INTER:                  -4.879
REMARK INTRA:                  -0.128
REMARK UNBOUND:                -0.127
REMARK SMILES Cc1ccc(C(C)C)cc1O
REMARK SMILES IDX 1 1 2 2 10 3 9 4 5 5 4 6 3 7 11 8 6 10 7 11 8 12
REMARK H PARENT 11 9
REMARK Flexibility Score: inf
ROOT
ATOM      1  C   UNL     1     476.325  34.290 462.930  1.00  0.00     0.048 C 
ATOM      2  C   UNL     1     477.068  35.295 462.094  1.00  0.00    -0.009 A 
ATOM      3  C   UNL     1     476.700  36.651 462.124  1.00  0.00     0.118 A 
ATOM      4  C   UNL     1     477.397  37.583 461.343  1.00  0.00     0.050 A 
ATOM      5  C   UNL     1     478.467  37.176 460.524  1.00  0.00    -0.042 A 
ATOM      6  C   UNL     1     478.826  35.818 460.501  1.00  0.00     0.004 A 
ATOM      7  C   UNL     1     478.133  34.887 461.278  1.00  0.00     0.007 A 
ENDROOT
BRANCH   3   8
ATOM      8  O   UNL     1     475.642  37.071 462.932  1.00  0.00    -0.508 OA
ATOM      9  H   UNL     1     474.815  36.501 463.062  1.00  0.00     0.293 HD
ENDBRANCH   3   8
BRANCH   5  10
ATOM     10  C   UNL     1     479.228  38.176 459.674  1.00  0.00     0.013 C 
ATOM     11  C   UNL     1     478.271  39.149 458.976  1.00  0.00     0.012 C 
ATOM     12  C   UNL     1     480.132  37.467 458.660  1.00  0.00     0.012 C 
ENDBRANCH   5  10
TORSDOF 2
ENDMDL
MODEL 4
REMARK VINA RESULT:    -4.366      1.550      2.133
REMARK INTER + INTRA:          -4.876
REMARK INTER:                  -4.766
REMARK INTRA:                  -0.110
REMARK UNBOUND:                -0.127
REMARK SMILES Cc1ccc(C(C)C)cc1O
REMARK SMILES IDX 1 1 2 2 10 3 9 4 5 5 4 6 3 7 11 8 6 10 7 11 8 12
REMARK H PARENT 11 9
REMARK Flexibility Score: inf
ROOT
ATOM      1  C   UNL     1     475.326  34.254 463.853  1.00  0.00     0.048 C 
ATOM      2  C   UNL     1     476.229  35.079 462.979  1.00  0.00    -0.009 A 
ATOM      3  C   UNL     1     477.363  34.498 462.384  1.00  0.00     0.118 A 
ATOM      4  C   UNL     1     478.201  35.274 461.570  1.00  0.00     0.050 A 
ATOM      5  C   UNL     1     477.920  36.633 461.339  1.00  0.00    -0.042 A 
ATOM      6  C   UNL     1     476.784  37.203 461.937  1.00  0.00     0.004 A 
ATOM      7  C   UNL     1     475.948  36.434 462.750  1.00  0.00     0.007 A 
ENDROOT
BRANCH   3   8
ATOM      8  O   UNL     1     477.654  33.152 462.603  1.00  0.00    -0.508 OA
ATOM      9  H   UNL     1     477.465  32.446 461.902  1.00  0.00     0.293 HD
ENDBRANCH   3   8
BRANCH   5  10
ATOM     10  C   UNL     1     478.820  37.480 460.460  1.00  0.00     0.013 C 
ATOM     11  C   UNL     1     479.701  36.603 459.562  1.00  0.00     0.012 C 
ATOM     12  C   UNL     1     479.671  38.439 461.300  1.00  0.00     0.012 C 
ENDBRANCH   5  10
TORSDOF 2
ENDMDL
MODEL 5
REMARK VINA RESULT:    -4.080      1.973      3.640
REMARK INTER + INTRA:          -4.565
REMARK INTER:                  -4.437
REMARK INTRA:                  -0.128
REMARK UNBOUND:                -0.127
REMARK SMILES Cc1ccc(C(C)C)cc1O
REMARK SMILES IDX 1 1 2 2 10 3 9 4 5 5 4 6 3 7 11 8 6 10 7 11 8 12
REMARK H PARENT 11 9
REMARK Flexibility Score: inf
ROOT
ATOM      1  C   UNL     1     479.539  34.893 459.933  1.00  0.00     0.048 C 
ATOM      2  C   UNL     1     478.631  35.875 460.619  1.00  0.00    -0.009 A 
ATOM      3  C   UNL     1     477.792  35.451 461.666  1.00  0.00     0.118 A 
ATOM      4  C   UNL     1     476.948  36.372 462.302  1.00  0.00     0.050 A 
ATOM      5  C   UNL     1     476.929  37.722 461.905  1.00  0.00    -0.042 A 
ATOM      6  C   UNL     1     477.770  38.134 460.859  1.00  0.00     0.004 A 
ATOM      7  C   UNL     1     478.612  37.219 460.222  1.00  0.00     0.007 A 
ENDROOT
BRANCH   3   8
ATOM      8  O   UNL     1     477.801  34.116 462.071  1.00  0.00    -0.508 OA
ATOM      9  H   UNL     1     477.651  33.360 461.414  1.00  0.00     0.293 HD
ENDBRANCH   3   8
BRANCH   5  10
ATOM     10  C   UNL     1     476.019  38.726 462.587  1.00  0.00     0.013 C 
ATOM     11  C   UNL     1     474.987  39.293 461.605  1.00  0.00     0.012 C 
ATOM     12  C   UNL     1     476.828  39.848 463.248  1.00  0.00     0.012 C 
ENDBRANCH   5  10
TORSDOF 2
ENDMDL
MODEL 6
REMARK VINA RESULT:    -4.072      2.307      3.728
REMARK INTER + INTRA:          -4.556
REMARK INTER:                  -4.458
REMARK INTRA:                  -0.099
REMARK UNBOUND:                -0.127
REMARK SMILES Cc1ccc(C(C)C)cc1O
REMARK SMILES IDX 1 1 2 2 10 3 9 4 5 5 4 6 3 7 11 8 6 10 7 11 8 12
REMARK H PARENT 11 9
REMARK Flexibility Score: inf
ROOT
ATOM      1  C   UNL     1     479.501  34.645 459.789  1.00  0.00     0.048 C 
ATOM      2  C   UNL     1     478.664  35.677 460.492  1.00  0.00    -0.009 A 
ATOM      3  C   UNL     1     478.742  37.029 460.112  1.00  0.00     0.118 A 
ATOM      4  C   UNL     1     477.959  37.987 460.772  1.00  0.00     0.050 A 
ATOM      5  C   UNL     1     477.091  37.611 461.813  1.00  0.00    -0.042 A 
ATOM      6  C   UNL     1     477.020  36.258 462.184  1.00  0.00     0.004 A 
ATOM      7  C   UNL     1     477.800  35.301 461.530  1.00  0.00     0.007 A 
ENDROOT
BRANCH   3   8
ATOM      8  O   UNL     1     479.597  37.417 459.081  1.00  0.00    -0.508 OA
ATOM      9  H   UNL     1     479.273  37.984 458.306  1.00  0.00     0.293 HD
ENDBRANCH   3   8
BRANCH   5  10
ATOM     10  C   UNL     1     476.239  38.640 462.533  1.00  0.00     0.013 C 
ATOM     11  C   UNL     1     475.131  39.177 461.619  1.00  0.00     0.012 C 
ATOM     12  C   UNL     1     477.100  39.781 463.087  1.00  0.00     0.012 C 
ENDBRANCH   5  10
TORSDOF 2
ENDMDL
MODEL 7
REMARK VINA RESULT:    -4.048      1.965      2.701
REMARK INTER + INTRA:          -4.530
REMARK INTER:                  -4.406
REMARK INTRA:                  -0.124
REMARK UNBOUND:                -0.127
REMARK SMILES Cc1ccc(C(C)C)cc1O
REMARK SMILES IDX 1 1 2 2 10 3 9 4 5 5 4 6 3 7 11 8 6 10 7 11 8 12
REMARK H PARENT 11 9
REMARK Flexibility Score: inf
ROOT
ATOM      1  C   UNL     1     476.829  34.053 462.785  1.00  0.00     0.048 C 
ATOM      2  C   UNL     1     477.139  35.382 462.154  1.00  0.00    -0.009 A 
ATOM      3  C   UNL     1     478.208  35.503 461.249  1.00  0.00     0.118 A 
ATOM      4  C   UNL     1     478.491  36.746 460.664  1.00  0.00     0.050 A 
ATOM      5  C   UNL     1     477.715  37.878 460.972  1.00  0.00    -0.042 A 
ATOM      6  C   UNL     1     476.649  37.745 461.877  1.00  0.00     0.004 A 
ATOM      7  C   UNL     1     476.365  36.509 462.463  1.00  0.00     0.007 A 
ENDROOT
BRANCH   3   8
ATOM      8  O   UNL     1     478.986  34.389 460.933  1.00  0.00    -0.508 OA
ATOM      9  H   UNL     1     478.568  33.512 460.650  1.00  0.00     0.293 HD
ENDBRANCH   3   8
BRANCH   5  10
ATOM     10  C   UNL     1     478.014  39.226 460.344  1.00  0.00     0.013 C 
ATOM     11  C   UNL     1     476.721  39.990 460.033  1.00  0.00     0.012 C 
ATOM     12  C   UNL     1     478.881  39.073 459.089  1.00  0.00     0.012 C 
ENDBRANCH   5  10
TORSDOF 2
ENDMDL
MODEL 8
REMARK VINA RESULT:    -3.867      6.327      7.386
REMARK INTER + INTRA:          -4.334
REMARK INTER:                  -4.206
REMARK INTRA:                  -0.127
REMARK UNBOUND:                -0.127
REMARK SMILES Cc1ccc(C(C)C)cc1O
REMARK SMILES IDX 1 1 2 2 10 3 9 4 5 5 4 6 3 7 11 8 6 10 7 11 8 12
REMARK H PARENT 11 9
REMARK Flexibility Score: inf
ROOT
ATOM      1  C   UNL     1     483.928  39.512 462.071  1.00  0.00     0.048 C 
ATOM      2  C   UNL     1     483.691  39.071 460.653  1.00  0.00    -0.009 A 
ATOM      3  C   UNL     1     484.769  38.652 459.853  1.00  0.00     0.118 A 
ATOM      4  C   UNL     1     484.541  38.242 458.532  1.00  0.00     0.050 A 
ATOM      5  C   UNL     1     483.241  38.243 457.994  1.00  0.00    -0.042 A 
ATOM      6  C   UNL     1     482.172  38.663 458.802  1.00  0.00     0.004 A 
ATOM      7  C   UNL     1     482.395  39.074 460.119  1.00  0.00     0.007 A 
ENDROOT
BRANCH   3   8
ATOM      8  O   UNL     1     486.063  38.645 460.373  1.00  0.00    -0.508 OA
ATOM      9  H   UNL     1     486.448  37.826 460.829  1.00  0.00     0.293 HD
ENDBRANCH   3   8
BRANCH   5  10
ATOM     10  C   UNL     1     482.984  37.801 456.565  1.00  0.00     0.013 C 
ATOM     11  C   UNL     1     483.429  38.876 455.566  1.00  0.00     0.012 C 
ATOM     12  C   UNL     1     481.512  37.428 456.357  1.00  0.00     0.012 C 
ENDBRANCH   5  10
TORSDOF 2
ENDMDL
MODEL 9
REMARK VINA RESULT:    -3.788      7.985      8.760
REMARK INTER + INTRA:          -4.247
REMARK INTER:                  -4.120
REMARK INTRA:                  -0.127
REMARK UNBOUND:                -0.127
REMARK SMILES Cc1ccc(C(C)C)cc1O
REMARK SMILES IDX 1 1 2 2 10 3 9 4 5 5 4 6 3 7 11 8 6 10 7 11 8 12
REMARK H PARENT 11 9
REMARK Flexibility Score: inf
ROOT
ATOM      1  C   UNL     1     483.539  38.596 456.235  1.00  0.00     0.048 C 
ATOM      2  C   UNL     1     484.128  39.133 457.510  1.00  0.00    -0.009 A 
ATOM      3  C   UNL     1     484.650  38.252 458.474  1.00  0.00     0.118 A 
ATOM      4  C   UNL     1     485.197  38.760 459.661  1.00  0.00     0.050 A 
ATOM      5  C   UNL     1     485.230  40.146 459.901  1.00  0.00    -0.042 A 
ATOM      6  C   UNL     1     484.706  41.016 458.931  1.00  0.00     0.004 A 
ATOM      7  C   UNL     1     484.159  40.514 457.747  1.00  0.00     0.007 A 
ENDROOT
BRANCH   3   8
ATOM      8  O   UNL     1     484.625  36.876 458.250  1.00  0.00    -0.508 OA
ATOM      9  H   UNL     1     485.267  36.249 458.720  1.00  0.00     0.293 HD
ENDBRANCH   3   8
BRANCH   5  10
ATOM     10  C   UNL     1     485.820  40.705 461.182  1.00  0.00     0.013 C 
ATOM     11  C   UNL     1     484.993  40.282 462.402  1.00  0.00     0.012 C 
ATOM     12  C   UNL     1     485.956  42.231 461.110  1.00  0.00     0.012 C 
ENDBRANCH   5  10
TORSDOF 2
ENDMDL
