MODEL 1
REMARK VINA RESULT:    -1.975      0.000      0.000
REMARK INTER + INTRA:          -1.975
REMARK INTER:                  -1.975
REMARK INTRA:                   0.000
REMARK UNBOUND:                 0.000
REMARK SMILES CC(=O)[O-]
REMARK SMILES IDX 1 1 2 2 3 3 4 4
REMARK H PARENT
REMARK Flexibility Score: inf
ROOT
ATOM      1  C   UNL     1      -3.088   2.317 -21.742  1.00  0.00     0.063 C 
ATOM      2  C   UNL     1      -2.183   1.296 -22.343  1.00  0.00     0.038 C 
ATOM      3  O   UNL     1      -1.307   1.642 -23.179  1.00  0.00    -0.550 OA
ATOM      4  O   UNL     1      -2.267  -0.032 -21.943  1.00  0.00    -0.550 OA
ENDROOT
TORSDOF 0
ENDMDL
MODEL 2
REMARK VINA RESULT:    -1.928     12.346     12.704
REMARK INTER + INTRA:          -1.928
REMARK INTER:                  -1.928
REMARK INTRA:                   0.000
REMARK UNBOUND:                 0.000
REMARK SMILES CC(=O)[O-]
REMARK SMILES IDX 1 1 2 2 3 3 4 4
REMARK H PARENT
REMARK Flexibility Score: inf
ROOT
ATOM      1  C   UNL     1     -13.018   7.707 -21.463  1.00  0.00     0.063 C 
ATOM      2  C   UNL     1     -12.711   7.911 -20.018  1.00  0.00     0.038 C 
ATOM      3  O   UNL     1     -13.226   8.876 -19.393  1.00  0.00    -0.550 OA
ATOM      4  O   UNL     1     -11.901   7.008 -19.344  1.00  0.00    -0.550 OA
ENDROOT
TORSDOF 0
ENDMDL
MODEL 3
REMARK VINA RESULT:    -1.873     12.209     12.541
REMARK INTER + INTRA:          -1.873
REMARK INTER:                  -1.873
REMARK INTRA:                   0.000
REMARK UNBOUND:                 0.000
REMARK SMILES CC(=O)[O-]
REMARK SMILES IDX 1 1 2 2 3 3 4 4
REMARK H PARENT
REMARK Flexibility Score: inf
ROOT
ATOM      1  C   UNL     1     -13.126   8.820 -19.453  1.00  0.00     0.063 C 
ATOM      2  C   UNL     1     -12.756   7.764 -20.439  1.00  0.00     0.038 C 
ATOM      3  O   UNL     1     -13.119   7.867 -21.640  1.00  0.00    -0.550 OA
ATOM      4  O   UNL     1     -11.965   6.692 -20.048  1.00  0.00    -0.550 OA
ENDROOT
TORSDOF 0
ENDMDL
MODEL 4
REMARK VINA RESULT:    -1.873     19.940     20.492
REMARK INTER + INTRA:          -1.873
REMARK INTER:                  -1.873
REMARK INTRA:                   0.000
REMARK UNBOUND:                 0.000
REMARK SMILES CC(=O)[O-]
REMARK SMILES IDX 1 1 2 2 3 3 4 4
REMARK H PARENT
REMARK Flexibility Score: inf
ROOT
ATOM      1  C   UNL     1     -11.955   9.421  -5.051  1.00  0.00     0.063 C 
ATOM      2  C   UNL     1     -12.404   8.521  -6.151  1.00  0.00     0.038 C 
ATOM      3  O   UNL     1     -13.585   8.081  -6.165  1.00  0.00    -0.550 OA
ATOM      4  O   UNL     1     -11.540   8.207  -7.192  1.00  0.00    -0.550 OA
ENDROOT
TORSDOF 0
ENDMDL
MODEL 5
REMARK VINA RESULT:    -1.870     11.809     12.153
REMARK INTER + INTRA:          -1.870
REMARK INTER:                  -1.870
REMARK INTRA:                   0.000
REMARK UNBOUND:                 0.000
REMARK SMILES CC(=O)[O-]
REMARK SMILES IDX 1 1 2 2 3 3 4 4
REMARK H PARENT
REMARK Flexibility Score: inf
ROOT
ATOM      1  C   UNL     1     -13.130   8.740 -19.475  1.00  0.00     0.063 C 
ATOM      2  C   UNL     1     -11.949   7.836 -19.374  1.00  0.00     0.038 C 
ATOM      3  O   UNL     1     -10.835   8.291 -19.003  1.00  0.00    -0.550 OA
ATOM      4  O   UNL     1     -12.086   6.479 -19.637  1.00  0.00    -0.550 OA
ENDROOT
TORSDOF 0
ENDMDL
MODEL 6
REMARK VINA RESULT:    -1.849      1.701      2.561
REMARK INTER + INTRA:          -1.849
REMARK INTER:                  -1.849
REMARK INTRA:                   0.000
REMARK UNBOUND:                 0.000
REMARK SMILES CC(=O)[O-]
REMARK SMILES IDX 1 1 2 2 3 3 4 4
REMARK H PARENT
REMARK Flexibility Score: inf
ROOT
ATOM      1  C   UNL     1      -1.138  -0.140 -23.895  1.00  0.00     0.063 C 
ATOM      2  C   UNL     1      -2.250   0.364 -23.039  1.00  0.00     0.038 C 
ATOM      3  O   UNL     1      -2.291   0.066 -21.816  1.00  0.00    -0.550 OA
ATOM      4  O   UNL     1      -3.215   1.206 -23.576  1.00  0.00    -0.550 OA
ENDROOT
TORSDOF 0
ENDMDL
MODEL 7
REMARK VINA RESULT:    -1.792     15.932     16.470
REMARK INTER + INTRA:          -1.792
REMARK INTER:                  -1.792
REMARK INTRA:                   0.000
REMARK UNBOUND:                 0.000
REMARK SMILES CC(=O)[O-]
REMARK SMILES IDX 1 1 2 2 3 3 4 4
REMARK H PARENT
REMARK Flexibility Score: inf
ROOT
ATOM      1  C   UNL     1      -9.768  16.322 -22.495  1.00  0.00     0.063 C 
ATOM      2  C   UNL     1     -10.497  15.384 -21.593  1.00  0.00     0.038 C 
ATOM      3  O   UNL     1     -10.630  14.174 -21.915  1.00  0.00    -0.550 OA
ATOM      4  O   UNL     1     -10.983  15.829 -20.371  1.00  0.00    -0.550 OA
ENDROOT
TORSDOF 0
ENDMDL
MODEL 8
REMARK VINA RESULT:    -1.774     19.385     20.037
REMARK INTER + INTRA:          -1.774
REMARK INTER:                  -1.774
REMARK INTRA:                   0.000
REMARK UNBOUND:                 0.000
REMARK SMILES CC(=O)[O-]
REMARK SMILES IDX 1 1 2 2 3 3 4 4
REMARK H PARENT
REMARK Flexibility Score: inf
ROOT
ATOM      1  C   UNL     1     -15.717   1.714  -8.249  1.00  0.00     0.063 C 
ATOM      2  C   UNL     1     -15.399   2.907  -7.413  1.00  0.00     0.038 C 
ATOM      3  O   UNL     1     -15.954   3.059  -6.293  1.00  0.00    -0.550 OA
ATOM      4  O   UNL     1     -14.450   3.827  -7.842  1.00  0.00    -0.550 OA
ENDROOT
TORSDOF 0
ENDMDL
MODEL 9
REMARK VINA RESULT:    -1.774     12.437     12.776
REMARK INTER + INTRA:          -1.774
REMARK INTER:                  -1.774
REMARK INTRA:                   0.000
REMARK UNBOUND:                 0.000
REMARK SMILES CC(=O)[O-]
REMARK SMILES IDX 1 1 2 2 3 3 4 4
REMARK H PARENT
REMARK Flexibility Score: inf
ROOT
ATOM      1  C   UNL     1     -11.889   7.037 -19.620  1.00  0.00     0.063 C 
ATOM      2  C   UNL     1     -12.198   8.458 -19.290  1.00  0.00     0.038 C 
ATOM      3  O   UNL     1     -11.264   9.265 -19.037  1.00  0.00    -0.550 OA
ATOM      4  O   UNL     1     -13.511   8.910 -19.312  1.00  0.00    -0.550 OA
ENDROOT
TORSDOF 0
ENDMDL
