MODEL 1
REMARK VINA RESULT:    -3.190      0.000      0.000
REMARK INTER + INTRA:          -3.770
REMARK INTER:                  -3.749
REMARK INTRA:                  -0.020
REMARK UNBOUND:                -0.020
REMARK SMILES CCCCC(=O)[O-]
REMARK SMILES IDX 4 1 5 2 6 3 7 4 3 5 2 6 1 7
REMARK H PARENT
REMARK Flexibility Score: inf
ROOT
ATOM      1  C   UNL     1     -14.982  -7.581 -30.617  1.00  0.00     0.053 C 
ENDROOT
BRANCH   1   2
ATOM      2  C   UNL     1     -15.342  -6.160 -30.913  1.00  0.00     0.041 C 
ATOM      3  O   UNL     1     -15.069  -5.251 -30.086  1.00  0.00    -0.550 OA
ATOM      4  O   UNL     1     -16.023  -5.843 -32.082  1.00  0.00    -0.550 OA
ENDBRANCH   1   2
BRANCH   1   5
ATOM      5  C   UNL     1     -13.673  -7.647 -29.826  1.00  0.00     0.006 C 
BRANCH   5   6
ATOM      6  C   UNL     1     -13.354  -9.089 -29.411  1.00  0.00    -0.003 C 
ATOM      7  C   UNL     1     -12.550  -9.125 -28.114  1.00  0.00     0.004 C 
ENDBRANCH   5   6
ENDBRANCH   1   5
TORSDOF 3
ENDMDL
MODEL 2
REMARK VINA RESULT:    -3.157      3.805      5.982
REMARK INTER + INTRA:          -3.731
REMARK INTER:                  -3.706
REMARK INTRA:                  -0.026
REMARK UNBOUND:                -0.020
REMARK SMILES CCCCC(=O)[O-]
REMARK SMILES IDX 4 1 5 2 6 3 7 4 3 5 2 6 1 7
REMARK H PARENT
REMARK Flexibility Score: inf
ROOT
ATOM      1  C   UNL     1     -15.758  -3.831 -32.899  1.00  0.00     0.053 C 
ENDROOT
BRANCH   1   2
ATOM      2  C   UNL     1     -15.143  -4.961 -32.136  1.00  0.00     0.041 C 
ATOM      3  O   UNL     1     -13.912  -4.955 -31.875  1.00  0.00    -0.550 OA
ATOM      4  O   UNL     1     -15.921  -6.047 -31.753  1.00  0.00    -0.550 OA
ENDBRANCH   1   2
BRANCH   1   5
ATOM      5  C   UNL     1     -14.674  -3.006 -33.599  1.00  0.00     0.006 C 
BRANCH   5   6
ATOM      6  C   UNL     1     -15.256  -1.709 -34.173  1.00  0.00    -0.003 C 
ATOM      7  C   UNL     1     -15.238  -0.589 -33.136  1.00  0.00     0.004 C 
ENDBRANCH   5   6
ENDBRANCH   1   5
TORSDOF 3
ENDMDL
MODEL 3
REMARK VINA RESULT:    -3.102      1.861      2.830
REMARK INTER + INTRA:          -3.667
REMARK INTER:                  -3.581
REMARK INTRA:                  -0.086
REMARK UNBOUND:                -0.020
REMARK SMILES CCCCC(=O)[O-]
REMARK SMILES IDX 4 1 5 2 6 3 7 4 3 5 2 6 1 7
REMARK H PARENT
REMARK Flexibility Score: inf
ROOT
ATOM      1  C   UNL     1     -16.125  -5.525 -32.048  1.00  0.00     0.053 C 
ENDROOT
BRANCH   1   2
ATOM      2  C   UNL     1     -15.260  -4.399 -32.520  1.00  0.00     0.041 C 
ATOM      3  O   UNL     1     -15.751  -3.471 -33.214  1.00  0.00    -0.550 OA
ATOM      4  O   UNL     1     -13.901  -4.398 -32.233  1.00  0.00    -0.550 OA
ENDBRANCH   1   2
BRANCH   1   5
ATOM      5  C   UNL     1     -15.693  -5.982 -30.651  1.00  0.00     0.006 C 
BRANCH   5   6
ATOM      6  C   UNL     1     -15.146  -7.414 -30.686  1.00  0.00    -0.003 C 
ATOM      7  C   UNL     1     -13.807  -7.511 -29.962  1.00  0.00     0.004 C 
ENDBRANCH   5   6
ENDBRANCH   1   5
TORSDOF 3
ENDMDL
MODEL 4
REMARK VINA RESULT:    -3.098      2.627      4.659
REMARK INTER + INTRA:          -3.661
REMARK INTER:                  -3.552
REMARK INTRA:                  -0.109
REMARK UNBOUND:                -0.020
REMARK SMILES CCCCC(=O)[O-]
REMARK SMILES IDX 4 1 5 2 6 3 7 4 3 5 2 6 1 7
REMARK H PARENT
REMARK Flexibility Score: inf
ROOT
ATOM      1  C   UNL     1     -16.118  -5.721 -31.776  1.00  0.00     0.053 C 
ENDROOT
BRANCH   1   2
ATOM      2  C   UNL     1     -15.070  -6.398 -30.951  1.00  0.00     0.041 C 
ATOM      3  O   UNL     1     -15.204  -7.605 -30.621  1.00  0.00    -0.550 OA
ATOM      4  O   UNL     1     -13.966  -5.682 -30.505  1.00  0.00    -0.550 OA
ENDBRANCH   1   2
BRANCH   1   5
ATOM      5  C   UNL     1     -16.029  -4.201 -31.613  1.00  0.00     0.006 C 
BRANCH   5   6
ATOM      6  C   UNL     1     -15.823  -3.514 -32.968  1.00  0.00    -0.003 C 
ATOM      7  C   UNL     1     -14.343  -3.454 -33.337  1.00  0.00     0.004 C 
ENDBRANCH   5   6
ENDBRANCH   1   5
TORSDOF 3
ENDMDL
MODEL 5
REMARK VINA RESULT:    -2.986      3.786      5.098
REMARK INTER + INTRA:          -3.530
REMARK INTER:                  -3.482
REMARK INTRA:                  -0.047
REMARK UNBOUND:                -0.020
REMARK SMILES CCCCC(=O)[O-]
REMARK SMILES IDX 4 1 5 2 6 3 7 4 3 5 2 6 1 7
REMARK H PARENT
REMARK Flexibility Score: inf
ROOT
ATOM      1  C   UNL     1     -14.625  -3.411 -33.501  1.00  0.00     0.053 C 
ENDROOT
BRANCH   1   2
ATOM      2  C   UNL     1     -15.048  -1.993 -33.719  1.00  0.00     0.041 C 
ATOM      3  O   UNL     1     -15.551  -1.329 -32.775  1.00  0.00    -0.550 OA
ATOM      4  O   UNL     1     -14.930  -1.417 -34.978  1.00  0.00    -0.550 OA
ENDBRANCH   1   2
BRANCH   1   5
ATOM      5  C   UNL     1     -15.730  -4.195 -32.786  1.00  0.00     0.006 C 
BRANCH   5   6
ATOM      6  C   UNL     1     -15.220  -4.779 -31.463  1.00  0.00    -0.003 C 
ATOM      7  C   UNL     1     -15.522  -6.272 -31.368  1.00  0.00     0.004 C 
ENDBRANCH   5   6
ENDBRANCH   1   5
TORSDOF 3
ENDMDL
MODEL 6
REMARK VINA RESULT:    -2.926     25.779     26.713
REMARK INTER + INTRA:          -3.460
REMARK INTER:                  -3.371
REMARK INTRA:                  -0.089
REMARK UNBOUND:                -0.020
REMARK SMILES CCCCC(=O)[O-]
REMARK SMILES IDX 4 1 5 2 6 3 7 4 3 5 2 6 1 7
REMARK H PARENT
REMARK Flexibility Score: inf
ROOT
ATOM      1  C   UNL     1       1.450   9.089 -15.033  1.00  0.00     0.053 C 
ENDROOT
BRANCH   1   2
ATOM      2  C   UNL     1       1.819  10.185 -15.983  1.00  0.00     0.041 C 
ATOM      3  O   UNL     1       3.000  10.287 -16.406  1.00  0.00    -0.550 OA
ATOM      4  O   UNL     1       0.869  11.125 -16.363  1.00  0.00    -0.550 OA
ENDBRANCH   1   2
BRANCH   1   5
ATOM      5  C   UNL     1       1.761   7.722 -15.649  1.00  0.00     0.006 C 
BRANCH   5   6
ATOM      6  C   UNL     1       0.737   7.362 -16.733  1.00  0.00    -0.003 C 
ATOM      7  C   UNL     1       1.301   6.327 -17.702  1.00  0.00     0.004 C 
ENDBRANCH   5   6
ENDBRANCH   1   5
TORSDOF 3
ENDMDL
MODEL 7
REMARK VINA RESULT:    -2.833     26.705     27.183
REMARK INTER + INTRA:          -3.350
REMARK INTER:                  -3.271
REMARK INTRA:                  -0.079
REMARK UNBOUND:                -0.020
REMARK SMILES CCCCC(=O)[O-]
REMARK SMILES IDX 4 1 5 2 6 3 7 4 3 5 2 6 1 7
REMARK H PARENT
REMARK Flexibility Score: inf
ROOT
ATOM      1  C   UNL     1       1.829   9.982 -15.640  1.00  0.00     0.053 C 
ENDROOT
BRANCH   1   2
ATOM      2  C   UNL     1       1.069   8.765 -15.217  1.00  0.00     0.041 C 
ATOM      3  O   UNL     1      -0.178   8.823 -15.048  1.00  0.00    -0.550 OA
ATOM      4  O   UNL     1       1.742   7.578 -14.961  1.00  0.00    -0.550 OA
ENDBRANCH   1   2
BRANCH   1   5
ATOM      5  C   UNL     1       1.175  10.621 -16.868  1.00  0.00     0.006 C 
BRANCH   5   6
ATOM      6  C   UNL     1       1.930  10.246 -18.149  1.00  0.00    -0.003 C 
ATOM      7  C   UNL     1       3.418  10.051 -17.876  1.00  0.00     0.004 C 
ENDBRANCH   5   6
ENDBRANCH   1   5
TORSDOF 3
ENDMDL
MODEL 8
REMARK VINA RESULT:    -2.515     26.434     27.279
REMARK INTER + INTRA:          -2.977
REMARK INTER:                  -2.901
REMARK INTRA:                  -0.075
REMARK UNBOUND:                -0.020
REMARK SMILES CCCCC(=O)[O-]
REMARK SMILES IDX 4 1 5 2 6 3 7 4 3 5 2 6 1 7
REMARK H PARENT
REMARK Flexibility Score: inf
ROOT
ATOM      1  C   UNL     1       2.673  10.315 -16.384  1.00  0.00     0.053 C 
ENDROOT
BRANCH   1   2
ATOM      2  C   UNL     1       2.946   9.982 -17.817  1.00  0.00     0.041 C 
ATOM      3  O   UNL     1       4.124  10.002 -18.259  1.00  0.00    -0.550 OA
ATOM      4  O   UNL     1       1.894   9.696 -18.677  1.00  0.00    -0.550 OA
ENDBRANCH   1   2
BRANCH   1   5
ATOM      5  C   UNL     1       1.193  10.095 -16.057  1.00  0.00     0.006 C 
BRANCH   5   6
ATOM      6  C   UNL     1       1.030   9.131 -14.875  1.00  0.00    -0.003 C 
ATOM      7  C   UNL     1       1.551   7.739 -15.222  1.00  0.00     0.004 C 
ENDBRANCH   5   6
ENDBRANCH   1   5
TORSDOF 3
ENDMDL
