MODEL 1
REMARK VINA RESULT:    23.311      0.000      0.000
REMARK INTER + INTRA:          27.762
REMARK INTER:                  28.080
REMARK INTRA:                  -0.319
REMARK UNBOUND:                -0.319
REMARK SMILES O=c1c(O)c(-c2ccc(O)c(O)c2)oc2cc(O)cc(O)c12
REMARK SMILES IDX 5 1 3 2 2 3 1 4 22 5 20 6 19 7 17 8 16 9 15 10 14 11 6 12
REMARK SMILES IDX 7 13 8 14 9 15 13 16 11 17 10 18 12 20 4 22 21 24 18 26
REMARK H PARENT 10 19 12 21 4 23 21 25 18 27
REMARK Flexibility Score: inf
ROOT
ATOM      1  C   UNL     1      26.800  30.227   5.077  1.00  0.00     0.180 A 
ATOM      2  C   UNL     1      27.939  30.798   4.483  1.00  0.00     0.208 A 
ATOM      3  C   UNL     1      28.520  30.162   3.374  1.00  0.00     0.238 A 
ATOM      4  O   UNL     1      29.582  30.637   2.894  1.00  0.00    -0.285 OA
ATOM      5  C   UNL     1      27.924  28.994   2.838  1.00  0.00     0.111 A 
ATOM      6  C   UNL     1      28.402  28.291   1.691  1.00  0.00     0.134 A 
ATOM      7  C   UNL     1      27.794  27.088   1.315  1.00  0.00     0.093 A 
ATOM      8  C   UNL     1      26.685  26.593   2.007  1.00  0.00     0.123 A 
ATOM      9  C   UNL     1      26.178  27.300   3.094  1.00  0.00     0.094 A 
ATOM     10  C   UNL     1      26.787  28.484   3.516  1.00  0.00     0.146 A 
ATOM     11  O   UNL     1      26.283  29.113   4.572  1.00  0.00    -0.452 OA
ENDROOT
BRANCH   1  12
ATOM     12  C   UNL     1      26.139  30.831   6.256  1.00  0.00     0.025 A 
ATOM     13  C   UNL     1      26.614  30.528   7.542  1.00  0.00     0.016 A 
ATOM     14  C   UNL     1      26.021  31.103   8.669  1.00  0.00     0.051 A 
ATOM     15  C   UNL     1      24.955  32.001   8.525  1.00  0.00     0.157 A 
ATOM     16  C   UNL     1      25.083  31.749   6.114  1.00  0.00     0.062 A 
ATOM     17  C   UNL     1      24.488  32.328   7.245  1.00  0.00     0.158 A 
BRANCH  15  18
ATOM     18  O   UNL     1      24.358  32.576   9.645  1.00  0.00    -0.504 OA
ATOM     19  H   UNL     1      24.643  32.324  10.585  1.00  0.00     0.293 HD
ENDBRANCH  15  18
BRANCH  17  20
ATOM     20  O   UNL     1      23.438  33.232   7.104  1.00  0.00    -0.504 OA
ATOM     21  H   UNL     1      23.544  34.211   7.344  1.00  0.00     0.293 HD
ENDBRANCH  17  20
ENDBRANCH   1  12
BRANCH   2  22
ATOM     22  O   UNL     1      28.467  31.993   4.980  1.00  0.00    -0.502 OA
ATOM     23  H   UNL     1      28.156  32.402   5.853  1.00  0.00     0.293 HD
ENDBRANCH   2  22
BRANCH   6  24
ATOM     24  O   UNL     1      29.445  28.741   0.875  1.00  0.00    -0.507 OA
ATOM     25  H   UNL     1      29.331  29.320   0.056  1.00  0.00     0.293 HD
ENDBRANCH   6  24
BRANCH   8  26
ATOM     26  O   UNL     1      26.076  25.403   1.615  1.00  0.00    -0.508 OA
ATOM     27  H   UNL     1      25.636  25.306   0.707  1.00  0.00     0.293 HD
ENDBRANCH   8  26
TORSDOF 6
ENDMDL
MODEL 2
REMARK VINA RESULT:    25.852      1.466      3.263
REMARK INTER + INTRA:          30.823
REMARK INTER:                  31.138
REMARK INTRA:                  -0.315
REMARK UNBOUND:                -0.319
REMARK SMILES O=c1c(O)c(-c2ccc(O)c(O)c2)oc2cc(O)cc(O)c12
REMARK SMILES IDX 5 1 3 2 2 3 1 4 22 5 20 6 19 7 17 8 16 9 15 10 14 11 6 12
REMARK SMILES IDX 7 13 8 14 9 15 13 16 11 17 10 18 12 20 4 22 21 24 18 26
REMARK H PARENT 10 19 12 21 4 23 21 25 18 27
REMARK Flexibility Score: inf
ROOT
ATOM      1  C   UNL     1      26.238  30.399   5.072  1.00  0.00     0.180 A 
ATOM      2  C   UNL     1      25.634  29.221   4.599  1.00  0.00     0.208 A 
ATOM      3  C   UNL     1      26.119  28.634   3.420  1.00  0.00     0.238 A 
ATOM      4  O   UNL     1      25.526  27.623   2.961  1.00  0.00    -0.285 OA
ATOM      5  C   UNL     1      27.237  29.199   2.758  1.00  0.00     0.111 A 
ATOM      6  C   UNL     1      27.841  28.663   1.581  1.00  0.00     0.134 A 
ATOM      7  C   UNL     1      28.877  29.367   0.954  1.00  0.00     0.093 A 
ATOM      8  C   UNL     1      29.373  30.554   1.497  1.00  0.00     0.123 A 
ATOM      9  C   UNL     1      28.828  31.056   2.676  1.00  0.00     0.094 A 
ATOM     10  C   UNL     1      27.768  30.397   3.303  1.00  0.00     0.146 A 
ATOM     11  O   UNL     1      27.263  30.924   4.413  1.00  0.00    -0.452 OA
ENDROOT
BRANCH   1  12
ATOM     12  C   UNL     1      25.773  31.084   6.300  1.00  0.00     0.025 A 
ATOM     13  C   UNL     1      24.692  31.976   6.225  1.00  0.00     0.016 A 
ATOM     14  C   UNL     1      24.222  32.618   7.374  1.00  0.00     0.051 A 
ATOM     15  C   UNL     1      24.817  32.364   8.617  1.00  0.00     0.157 A 
ATOM     16  C   UNL     1      26.353  30.816   7.553  1.00  0.00     0.062 A 
ATOM     17  C   UNL     1      25.881  31.458   8.707  1.00  0.00     0.158 A 
BRANCH  15  18
ATOM     18  O   UNL     1      24.353  33.002   9.766  1.00  0.00    -0.504 OA
ATOM     19  H   UNL     1      24.291  32.516  10.653  1.00  0.00     0.293 HD
ENDBRANCH  15  18
BRANCH  17  20
ATOM     20  O   UNL     1      26.461  31.197   9.947  1.00  0.00    -0.504 OA
ATOM     21  H   UNL     1      26.324  30.311  10.420  1.00  0.00     0.293 HD
ENDBRANCH  17  20
ENDBRANCH   1  12
BRANCH   2  22
ATOM     22  O   UNL     1      24.581  28.637   5.308  1.00  0.00    -0.502 OA
ATOM     23  H   UNL     1      24.734  28.015   6.094  1.00  0.00     0.293 HD
ENDBRANCH   2  22
BRANCH   6  24
ATOM     24  O   UNL     1      27.483  27.441   1.004  1.00  0.00    -0.507 OA
ATOM     25  H   UNL     1      27.929  27.029   0.198  1.00  0.00     0.293 HD
ENDBRANCH   6  24
BRANCH   8  26
ATOM     26  O   UNL     1      30.416  31.239   0.876  1.00  0.00    -0.508 OA
ATOM     27  H   UNL     1      30.820  32.073   1.284  1.00  0.00     0.293 HD
ENDBRANCH   8  26
TORSDOF 6
ENDMDL
