MODEL 1
REMARK VINA RESULT:    -3.926      0.000      0.000
REMARK INTER + INTRA:          -5.518
REMARK INTER:                  -5.303
REMARK INTRA:                  -0.215
REMARK UNBOUND:                -0.215
REMARK SMILES CCCCCCCC(=O)[O-]
REMARK SMILES IDX 5 1 6 2 7 3 8 4 9 5 10 6 4 7 3 8 2 9 1 10
REMARK H PARENT
REMARK Flexibility Score: inf
ROOT
ATOM      1  C   UNL     1      46.164  27.563   7.074  1.00  0.00     0.000 C 
ENDROOT
BRANCH   1   2
ATOM      2  C   UNL     1      46.372  26.822   5.740  1.00  0.00     0.006 C 
BRANCH   2   3
ATOM      3  C   UNL     1      45.575  27.408   4.564  1.00  0.00     0.053 C 
BRANCH   3   4
ATOM      4  C   UNL     1      44.984  26.338   3.699  1.00  0.00     0.041 C 
ATOM      5  O   UNL     1      45.302  25.131   3.877  1.00  0.00    -0.550 OA
ATOM      6  O   UNL     1      44.109  26.675   2.675  1.00  0.00    -0.550 OA
ENDBRANCH   3   4
ENDBRANCH   2   3
ENDBRANCH   1   2
BRANCH   1   7
ATOM      7  C   UNL     1      45.898  26.606   8.251  1.00  0.00     0.000 C 
BRANCH   7   8
ATOM      8  C   UNL     1      45.172  27.294   9.417  1.00  0.00    -0.000 C 
BRANCH   8   9
ATOM      9  C   UNL     1      44.922  28.787   9.159  1.00  0.00    -0.003 C 
ATOM     10  C   UNL     1      44.428  29.487  10.420  1.00  0.00     0.004 C 
ENDBRANCH   8   9
ENDBRANCH   7   8
ENDBRANCH   1   7
TORSDOF 6
ENDMDL
MODEL 2
REMARK VINA RESULT:    -3.700      1.077      1.644
REMARK INTER + INTRA:          -5.213
REMARK INTER:                  -4.904
REMARK INTRA:                  -0.309
REMARK UNBOUND:                -0.215
REMARK SMILES CCCCCCCC(=O)[O-]
REMARK SMILES IDX 5 1 6 2 7 3 8 4 9 5 10 6 4 7 3 8 2 9 1 10
REMARK H PARENT
REMARK Flexibility Score: inf
ROOT
ATOM      1  C   UNL     1      45.917  28.021   5.780  1.00  0.00     0.000 C 
ENDROOT
BRANCH   1   2
ATOM      2  C   UNL     1      46.230  26.592   5.298  1.00  0.00     0.006 C 
BRANCH   2   3
ATOM      3  C   UNL     1      45.115  25.954   4.455  1.00  0.00     0.053 C 
BRANCH   3   4
ATOM      4  C   UNL     1      45.019  26.572   3.094  1.00  0.00     0.041 C 
ATOM      5  O   UNL     1      43.893  26.751   2.557  1.00  0.00    -0.550 OA
ATOM      6  O   UNL     1      46.174  26.920   2.405  1.00  0.00    -0.550 OA
ENDBRANCH   3   4
ENDBRANCH   2   3
ENDBRANCH   1   2
BRANCH   1   7
ATOM      7  C   UNL     1      45.951  28.152   7.314  1.00  0.00     0.000 C 
BRANCH   7   8
ATOM      8  C   UNL     1      45.804  26.797   8.024  1.00  0.00    -0.000 C 
BRANCH   8   9
ATOM      9  C   UNL     1      45.143  26.923   9.404  1.00  0.00    -0.003 C 
ATOM     10  C   UNL     1      44.892  28.385   9.762  1.00  0.00     0.004 C 
ENDBRANCH   8   9
ENDBRANCH   7   8
ENDBRANCH   1   7
TORSDOF 6
ENDMDL
MODEL 3
REMARK VINA RESULT:    -3.593      3.345      5.452
REMARK INTER + INTRA:          -5.068
REMARK INTER:                  -4.752
REMARK INTRA:                  -0.317
REMARK UNBOUND:                -0.215
REMARK SMILES CCCCCCCC(=O)[O-]
REMARK SMILES IDX 5 1 6 2 7 3 8 4 9 5 10 6 4 7 3 8 2 9 1 10
REMARK H PARENT
REMARK Flexibility Score: inf
ROOT
ATOM      1  C   UNL     1      46.288  27.891   5.726  1.00  0.00     0.000 C 
ENDROOT
BRANCH   1   2
ATOM      2  C   UNL     1      45.779  28.010   7.175  1.00  0.00     0.006 C 
BRANCH   2   3
ATOM      3  C   UNL     1      45.764  26.681   7.947  1.00  0.00     0.053 C 
BRANCH   3   4
ATOM      4  C   UNL     1      45.486  26.884   9.405  1.00  0.00     0.041 C 
ATOM      5  O   UNL     1      44.809  27.874   9.790  1.00  0.00    -0.550 OA
ATOM      6  O   UNL     1      46.003  25.997  10.341  1.00  0.00    -0.550 OA
ENDBRANCH   3   4
ENDBRANCH   2   3
ENDBRANCH   1   2
BRANCH   1   7
ATOM      7  C   UNL     1      46.513  26.431   5.293  1.00  0.00     0.000 C 
BRANCH   7   8
ATOM      8  C   UNL     1      45.775  26.082   3.992  1.00  0.00    -0.000 C 
BRANCH   8   9
ATOM      9  C   UNL     1      45.230  27.323   3.271  1.00  0.00    -0.003 C 
ATOM     10  C   UNL     1      43.781  27.118   2.844  1.00  0.00     0.004 C 
ENDBRANCH   8   9
ENDBRANCH   7   8
ENDBRANCH   1   7
TORSDOF 6
ENDMDL
MODEL 4
REMARK VINA RESULT:    -3.462      1.850      3.014
REMARK INTER + INTRA:          -4.892
REMARK INTER:                  -4.668
REMARK INTRA:                  -0.224
REMARK UNBOUND:                -0.215
REMARK SMILES CCCCCCCC(=O)[O-]
REMARK SMILES IDX 5 1 6 2 7 3 8 4 9 5 10 6 4 7 3 8 2 9 1 10
REMARK H PARENT
REMARK Flexibility Score: inf
ROOT
ATOM      1  C   UNL     1      45.307  26.060   4.427  1.00  0.00     0.000 C 
ENDROOT
BRANCH   1   2
ATOM      2  C   UNL     1      44.543  26.827   3.332  1.00  0.00     0.006 C 
BRANCH   2   3
ATOM      3  C   UNL     1      45.179  28.172   2.946  1.00  0.00     0.053 C 
BRANCH   3   4
ATOM      4  C   UNL     1      45.256  28.350   1.461  1.00  0.00     0.041 C 
ATOM      5  O   UNL     1      45.292  29.506   0.962  1.00  0.00    -0.550 OA
ATOM      6  O   UNL     1      45.253  27.239   0.627  1.00  0.00    -0.550 OA
ENDBRANCH   3   4
ENDBRANCH   2   3
ENDBRANCH   1   2
BRANCH   1   7
ATOM      7  C   UNL     1      46.188  26.979   5.292  1.00  0.00     0.000 C 
BRANCH   7   8
ATOM      8  C   UNL     1      45.936  26.793   6.796  1.00  0.00    -0.000 C 
BRANCH   8   9
ATOM      9  C   UNL     1      45.753  28.128   7.533  1.00  0.00    -0.003 C 
ATOM     10  C   UNL     1      45.242  27.906   8.953  1.00  0.00     0.004 C 
ENDBRANCH   8   9
ENDBRANCH   7   8
ENDBRANCH   1   7
TORSDOF 6
ENDMDL
MODEL 5
REMARK VINA RESULT:    -3.277      1.420      1.911
REMARK INTER + INTRA:          -4.642
REMARK INTER:                  -4.386
REMARK INTRA:                  -0.256
REMARK UNBOUND:                -0.215
REMARK SMILES CCCCCCCC(=O)[O-]
REMARK SMILES IDX 5 1 6 2 7 3 8 4 9 5 10 6 4 7 3 8 2 9 1 10
REMARK H PARENT
REMARK Flexibility Score: inf
ROOT
ATOM      1  C   UNL     1      45.711  28.866   5.489  1.00  0.00     0.000 C 
ENDROOT
BRANCH   1   2
ATOM      2  C   UNL     1      46.070  28.871   3.991  1.00  0.00     0.006 C 
BRANCH   2   3
ATOM      3  C   UNL     1      44.865  28.687   3.055  1.00  0.00     0.053 C 
BRANCH   3   4
ATOM      4  C   UNL     1      44.866  27.340   2.399  1.00  0.00     0.041 C 
ATOM      5  O   UNL     1      44.623  26.306   3.075  1.00  0.00    -0.550 OA
ATOM      6  O   UNL     1      45.168  27.225   1.048  1.00  0.00    -0.550 OA
ENDBRANCH   3   4
ENDBRANCH   2   3
ENDBRANCH   1   2
BRANCH   1   7
ATOM      7  C   UNL     1      46.211  27.604   6.215  1.00  0.00     0.000 C 
BRANCH   7   8
ATOM      8  C   UNL     1      45.610  27.457   7.622  1.00  0.00    -0.000 C 
BRANCH   8   9
ATOM      9  C   UNL     1      45.543  28.791   8.377  1.00  0.00    -0.003 C 
ATOM     10  C   UNL     1      44.819  28.632   9.710  1.00  0.00     0.004 C 
ENDBRANCH   8   9
ENDBRANCH   7   8
ENDBRANCH   1   7
TORSDOF 6
ENDMDL
MODEL 6
REMARK VINA RESULT:    -3.163      4.267      5.978
REMARK INTER + INTRA:          -4.487
REMARK INTER:                  -4.182
REMARK INTRA:                  -0.305
REMARK UNBOUND:                -0.215
REMARK SMILES CCCCCCCC(=O)[O-]
REMARK SMILES IDX 5 1 6 2 7 3 8 4 9 5 10 6 4 7 3 8 2 9 1 10
REMARK H PARENT
REMARK Flexibility Score: inf
ROOT
ATOM      1  C   UNL     1      45.197  29.199   1.734  1.00  0.00     0.000 C 
ENDROOT
BRANCH   1   2
ATOM      2  C   UNL     1      45.502  28.159   0.639  1.00  0.00     0.006 C 
BRANCH   2   3
ATOM      3  C   UNL     1      45.880  28.769  -0.719  1.00  0.00     0.053 C 
BRANCH   3   4
ATOM      4  C   UNL     1      45.862  27.749  -1.816  1.00  0.00     0.041 C 
ATOM      5  O   UNL     1      44.777  27.439  -2.376  1.00  0.00    -0.550 OA
ATOM      6  O   UNL     1      47.038  27.116  -2.197  1.00  0.00    -0.550 OA
ENDBRANCH   3   4
ENDBRANCH   2   3
ENDBRANCH   1   2
BRANCH   1   7
ATOM      7  C   UNL     1      44.459  28.592   2.941  1.00  0.00     0.000 C 
BRANCH   7   8
ATOM      8  C   UNL     1      44.139  27.101   2.748  1.00  0.00    -0.000 C 
BRANCH   8   9
ATOM      9  C   UNL     1      44.749  26.220   3.847  1.00  0.00    -0.003 C 
ATOM     10  C   UNL     1      45.823  26.975   4.624  1.00  0.00     0.004 C 
ENDBRANCH   8   9
ENDBRANCH   7   8
ENDBRANCH   1   7
TORSDOF 6
ENDMDL
MODEL 7
REMARK VINA RESULT:    -3.046      8.199     11.065
REMARK INTER + INTRA:          -4.330
REMARK INTER:                  -3.917
REMARK INTRA:                  -0.414
REMARK UNBOUND:                -0.215
REMARK SMILES CCCCCCCC(=O)[O-]
REMARK SMILES IDX 5 1 6 2 7 3 8 4 9 5 10 6 4 7 3 8 2 9 1 10
REMARK H PARENT
REMARK Flexibility Score: inf
ROOT
ATOM      1  C   UNL     1      43.180  29.621  -3.340  1.00  0.00     0.000 C 
ENDROOT
BRANCH   1   2
ATOM      2  C   UNL     1      44.681  29.403  -3.073  1.00  0.00     0.006 C 
BRANCH   2   3
ATOM      3  C   UNL     1      45.037  29.228  -1.588  1.00  0.00     0.053 C 
BRANCH   3   4
ATOM      4  C   UNL     1      45.531  27.845  -1.290  1.00  0.00     0.041 C 
ATOM      5  O   UNL     1      46.270  27.245  -2.116  1.00  0.00    -0.550 OA
ATOM      6  O   UNL     1      45.150  27.208  -0.117  1.00  0.00    -0.550 OA
ENDBRANCH   3   4
ENDBRANCH   2   3
ENDBRANCH   1   2
BRANCH   1   7
ATOM      7  C   UNL     1      42.530  28.435  -4.075  1.00  0.00     0.000 C 
BRANCH   7   8
ATOM      8  C   UNL     1      43.567  27.474  -4.677  1.00  0.00    -0.000 C 
BRANCH   8   9
ATOM      9  C   UNL     1      43.765  27.687  -6.184  1.00  0.00    -0.003 C 
ATOM     10  C   UNL     1      45.240  27.876  -6.523  1.00  0.00     0.004 C 
ENDBRANCH   8   9
ENDBRANCH   7   8
ENDBRANCH   1   7
TORSDOF 6
ENDMDL
MODEL 8
REMARK VINA RESULT:    -3.021      5.188      6.890
REMARK INTER + INTRA:          -4.296
REMARK INTER:                  -4.065
REMARK INTRA:                  -0.231
REMARK UNBOUND:                -0.215
REMARK SMILES CCCCCCCC(=O)[O-]
REMARK SMILES IDX 5 1 6 2 7 3 8 4 9 5 10 6 4 7 3 8 2 9 1 10
REMARK H PARENT
REMARK Flexibility Score: inf
ROOT
ATOM      1  C   UNL     1      45.586  28.064   0.700  1.00  0.00     0.000 C 
ENDROOT
BRANCH   1   2
ATOM      2  C   UNL     1      45.571  28.544  -0.763  1.00  0.00     0.006 C 
BRANCH   2   3
ATOM      3  C   UNL     1      45.272  27.436  -1.786  1.00  0.00     0.053 C 
BRANCH   3   4
ATOM      4  C   UNL     1      44.591  27.970  -3.008  1.00  0.00     0.041 C 
ATOM      5  O   UNL     1      44.580  27.297  -4.073  1.00  0.00    -0.550 OA
ATOM      6  O   UNL     1      43.999  29.226  -2.982  1.00  0.00    -0.550 OA
ENDBRANCH   3   4
ENDBRANCH   2   3
ENDBRANCH   1   2
BRANCH   1   7
ATOM      7  C   UNL     1      45.153  29.160   1.690  1.00  0.00     0.000 C 
BRANCH   7   8
ATOM      8  C   UNL     1      44.468  28.588   2.940  1.00  0.00    -0.000 C 
BRANCH   8   9
ATOM      9  C   UNL     1      44.112  27.102   2.791  1.00  0.00    -0.003 C 
ATOM     10  C   UNL     1      44.849  26.254   3.823  1.00  0.00     0.004 C 
ENDBRANCH   8   9
ENDBRANCH   7   8
ENDBRANCH   1   7
TORSDOF 6
ENDMDL
MODEL 9
REMARK VINA RESULT:    -2.999      8.577     11.690
REMARK INTER + INTRA:          -4.266
REMARK INTER:                  -3.992
REMARK INTRA:                  -0.274
REMARK UNBOUND:                -0.215
REMARK SMILES CCCCCCCC(=O)[O-]
REMARK SMILES IDX 5 1 6 2 7 3 8 4 9 5 10 6 4 7 3 8 2 9 1 10
REMARK H PARENT
REMARK Flexibility Score: inf
ROOT
ATOM      1  C   UNL     1      43.319  27.535  -4.098  1.00  0.00     0.000 C 
ENDROOT
BRANCH   1   2
ATOM      2  C   UNL     1      44.564  28.415  -3.879  1.00  0.00     0.006 C 
BRANCH   2   3
ATOM      3  C   UNL     1      44.821  28.786  -2.410  1.00  0.00     0.053 C 
BRANCH   3   4
ATOM      4  C   UNL     1      45.601  27.728  -1.693  1.00  0.00     0.041 C 
ATOM      5  O   UNL     1      45.264  27.369  -0.533  1.00  0.00    -0.550 OA
ATOM      6  O   UNL     1      46.719  27.162  -2.291  1.00  0.00    -0.550 OA
ENDBRANCH   3   4
ENDBRANCH   2   3
ENDBRANCH   1   2
BRANCH   1   7
ATOM      7  C   UNL     1      42.192  28.275  -4.843  1.00  0.00     0.000 C 
BRANCH   7   8
ATOM      8  C   UNL     1      42.609  29.684  -5.292  1.00  0.00    -0.000 C 
BRANCH   8   9
ATOM      9  C   UNL     1      42.288  29.950  -6.770  1.00  0.00    -0.003 C 
ATOM     10  C   UNL     1      40.790  29.842  -7.036  1.00  0.00     0.004 C 
ENDBRANCH   8   9
ENDBRANCH   7   8
ENDBRANCH   1   7
TORSDOF 6
ENDMDL
