MODEL 1
REMARK VINA RESULT:    -6.009      0.000      0.000
REMARK INTER + INTRA:         -10.399
REMARK INTER:                  -9.347
REMARK INTRA:                  -1.053
REMARK UNBOUND:                -1.053
REMARK SMILES COc1cc(CNC(=O)CCCCC=CC(C)C)ccc1O
REMARK SMILES IDX 11 1 12 2 13 3 14 4 15 5 16 6 17 7 18 8 10 9 8 10 9 11 7 12
REMARK SMILES IDX 6 14 5 15 4 16 19 17 3 18 20 19 21 20 2 21 1 22 22 23
REMARK H PARENT 7 13 22 24
REMARK Flexibility Score: inf
ROOT
ATOM      1  C   UNL     1      -5.736  -6.098   7.753  1.00  0.00     0.010 C 
ENDROOT
BRANCH   1   2
ATOM      2  C   UNL     1      -5.235  -5.226   6.590  1.00  0.00     0.005 C 
BRANCH   2   3
ATOM      3  C   UNL     1      -5.189  -5.987   5.258  1.00  0.00     0.027 C 
BRANCH   3   4
ATOM      4  C   UNL     1      -4.400  -7.260   5.391  1.00  0.00    -0.031 C 
ATOM      5  C   UNL     1      -3.072  -7.242   5.590  1.00  0.00    -0.028 C 
BRANCH   5   6
ATOM      6  C   UNL     1      -2.274  -8.521   5.700  1.00  0.00     0.005 C 
ATOM      7  C   UNL     1      -3.067  -9.583   6.471  1.00  0.00     0.012 C 
ATOM      8  C   UNL     1      -1.904  -9.041   4.307  1.00  0.00     0.012 C 
ENDBRANCH   5   6
ENDBRANCH   3   4
ENDBRANCH   2   3
ENDBRANCH   1   2
BRANCH   1   9
ATOM      9  C   UNL     1      -5.263  -5.584   9.119  1.00  0.00     0.100 C 
BRANCH   9  10
ATOM     10  C   UNL     1      -5.506  -4.110   9.236  1.00  0.00     0.220 C 
ATOM     11  O   UNL     1      -4.531  -3.331   9.414  1.00  0.00    -0.275 OA
ATOM     12  N   UNL     1      -6.844  -3.596   9.180  1.00  0.00    -0.352 N 
ATOM     13  H   UNL     1      -7.641  -4.267   9.106  1.00  0.00     0.163 HD
BRANCH  12  14
ATOM     14  C   UNL     1      -7.138  -2.165   9.216  1.00  0.00     0.151 C 
BRANCH  14  15
ATOM     15  C   UNL     1      -7.498  -1.669   7.841  1.00  0.00    -0.025 A 
ATOM     16  C   UNL     1      -7.462  -2.549   6.747  1.00  0.00     0.056 A 
ATOM     17  C   UNL     1      -7.844  -0.326   7.636  1.00  0.00     0.009 A 
ATOM     18  C   UNL     1      -7.774  -2.092   5.450  1.00  0.00     0.160 A 
ATOM     19  C   UNL     1      -8.158   0.130   6.354  1.00  0.00     0.050 A 
ATOM     20  C   UNL     1      -8.122  -0.747   5.262  1.00  0.00     0.157 A 
BRANCH  18  21
ATOM     21  O   UNL     1      -7.747  -2.939   4.331  1.00  0.00    -0.493 OA
ATOM     22  C   UNL     1      -8.317  -4.243   4.292  1.00  0.00     0.278 C 
ENDBRANCH  18  21
BRANCH  20  23
ATOM     23  O   UNL     1      -8.433  -0.288   3.982  1.00  0.00    -0.504 OA
ATOM     24  H   UNL     1      -8.631   0.689   3.802  1.00  0.00     0.293 HD
ENDBRANCH  20  23
ENDBRANCH  14  15
ENDBRANCH  12  14
ENDBRANCH   9  10
ENDBRANCH   1   9
TORSDOF 10
ENDMDL
MODEL 2
REMARK VINA RESULT:    -5.946      1.784      3.914
REMARK INTER + INTRA:         -10.301
REMARK INTER:                  -8.624
REMARK INTRA:                  -1.677
REMARK UNBOUND:                -1.053
REMARK SMILES COc1cc(CNC(=O)CCCCC=CC(C)C)ccc1O
REMARK SMILES IDX 11 1 12 2 13 3 14 4 15 5 16 6 17 7 18 8 10 9 8 10 9 11 7 12
REMARK SMILES IDX 6 14 5 15 4 16 19 17 3 18 20 19 21 20 2 21 1 22 22 23
REMARK H PARENT 7 13 22 24
REMARK Flexibility Score: inf
ROOT
ATOM      1  C   UNL     1      -4.787  -6.695   7.149  1.00  0.00     0.010 C 
ENDROOT
BRANCH   1   2
ATOM      2  C   UNL     1      -4.412  -6.762   5.660  1.00  0.00     0.005 C 
BRANCH   2   3
ATOM      3  C   UNL     1      -5.265  -5.823   4.793  1.00  0.00     0.027 C 
BRANCH   3   4
ATOM      4  C   UNL     1      -6.728  -5.997   5.090  1.00  0.00    -0.031 C 
ATOM      5  C   UNL     1      -7.646  -5.999   4.110  1.00  0.00    -0.028 C 
BRANCH   5   6
ATOM      6  C   UNL     1      -9.119  -6.149   4.409  1.00  0.00     0.005 C 
ATOM      7  C   UNL     1      -9.396  -5.875   5.892  1.00  0.00     0.012 C 
ATOM      8  C   UNL     1      -9.942  -5.201   3.530  1.00  0.00     0.012 C 
ENDBRANCH   5   6
ENDBRANCH   3   4
ENDBRANCH   2   3
ENDBRANCH   1   2
BRANCH   1   9
ATOM      9  C   UNL     1      -4.139  -5.501   7.864  1.00  0.00     0.100 C 
BRANCH   9  10
ATOM     10  C   UNL     1      -5.189  -4.538   8.329  1.00  0.00     0.220 C 
ATOM     11  O   UNL     1      -5.986  -4.883   9.244  1.00  0.00    -0.275 OA
ATOM     12  N   UNL     1      -5.306  -3.249   7.713  1.00  0.00    -0.352 N 
ATOM     13  H   UNL     1      -4.683  -3.014   6.908  1.00  0.00     0.163 HD
BRANCH  12  14
ATOM     14  C   UNL     1      -6.261  -2.242   8.171  1.00  0.00     0.151 C 
BRANCH  14  15
ATOM     15  C   UNL     1      -7.135  -1.791   7.032  1.00  0.00    -0.025 A 
ATOM     16  C   UNL     1      -7.693  -0.502   7.043  1.00  0.00     0.056 A 
ATOM     17  C   UNL     1      -7.421  -2.658   5.967  1.00  0.00     0.009 A 
ATOM     18  C   UNL     1      -8.532  -0.076   5.994  1.00  0.00     0.160 A 
ATOM     19  C   UNL     1      -8.247  -2.238   4.922  1.00  0.00     0.050 A 
ATOM     20  C   UNL     1      -8.805  -0.953   4.934  1.00  0.00     0.157 A 
BRANCH  18  21
ATOM     21  O   UNL     1      -9.111   1.202   5.970  1.00  0.00    -0.493 OA
ATOM     22  C   UNL     1      -8.393   2.409   5.730  1.00  0.00     0.278 C 
ENDBRANCH  18  21
BRANCH  20  23
ATOM     23  O   UNL     1      -9.634  -0.537   3.892  1.00  0.00    -0.504 OA
ATOM     24  H   UNL     1     -10.164   0.324   3.947  1.00  0.00     0.293 HD
ENDBRANCH  20  23
ENDBRANCH  14  15
ENDBRANCH  12  14
ENDBRANCH   9  10
ENDBRANCH   1   9
TORSDOF 10
ENDMDL
MODEL 3
REMARK VINA RESULT:    -5.902      2.292      3.698
REMARK INTER + INTRA:         -10.233
REMARK INTER:                  -8.255
REMARK INTRA:                  -1.977
REMARK UNBOUND:                -1.053
REMARK SMILES COc1cc(CNC(=O)CCCCC=CC(C)C)ccc1O
REMARK SMILES IDX 11 1 12 2 13 3 14 4 15 5 16 6 17 7 18 8 10 9 8 10 9 11 7 12
REMARK SMILES IDX 6 14 5 15 4 16 19 17 3 18 20 19 21 20 2 21 1 22 22 23
REMARK H PARENT 7 13 22 24
REMARK Flexibility Score: inf
ROOT
ATOM      1  C   UNL     1      -3.528  -6.932   5.897  1.00  0.00     0.010 C 
ENDROOT
BRANCH   1   2
ATOM      2  C   UNL     1      -4.551  -7.469   4.883  1.00  0.00     0.005 C 
BRANCH   2   3
ATOM      3  C   UNL     1      -5.554  -6.396   4.433  1.00  0.00     0.027 C 
BRANCH   3   4
ATOM      4  C   UNL     1      -6.968  -6.888   4.574  1.00  0.00    -0.031 C 
ATOM      5  C   UNL     1      -7.305  -7.791   5.509  1.00  0.00    -0.028 C 
BRANCH   5   6
ATOM      6  C   UNL     1      -8.720  -8.303   5.636  1.00  0.00     0.005 C 
ATOM      7  C   UNL     1      -9.562  -7.858   4.434  1.00  0.00     0.012 C 
ATOM      8  C   UNL     1      -8.726  -9.832   5.753  1.00  0.00     0.012 C 
ENDBRANCH   5   6
ENDBRANCH   3   4
ENDBRANCH   2   3
ENDBRANCH   1   2
BRANCH   1   9
ATOM      9  C   UNL     1      -4.028  -7.032   7.345  1.00  0.00     0.100 C 
BRANCH   9  10
ATOM     10  C   UNL     1      -4.728  -5.770   7.745  1.00  0.00     0.220 C 
ATOM     11  O   UNL     1      -4.110  -4.672   7.689  1.00  0.00    -0.275 OA
ATOM     12  N   UNL     1      -6.080  -5.818   8.222  1.00  0.00    -0.352 N 
ATOM     13  H   UNL     1      -6.546  -6.746   8.329  1.00  0.00     0.163 HD
BRANCH  12  14
ATOM     14  C   UNL     1      -6.837  -4.614   8.559  1.00  0.00     0.151 C 
BRANCH  14  15
ATOM     15  C   UNL     1      -7.629  -4.143   7.368  1.00  0.00    -0.025 A 
ATOM     16  C   UNL     1      -7.207  -3.013   6.648  1.00  0.00     0.056 A 
ATOM     17  C   UNL     1      -8.802  -4.808   6.984  1.00  0.00     0.009 A 
ATOM     18  C   UNL     1      -7.952  -2.548   5.546  1.00  0.00     0.160 A 
ATOM     19  C   UNL     1      -9.541  -4.354   5.889  1.00  0.00     0.050 A 
ATOM     20  C   UNL     1      -9.121  -3.226   5.172  1.00  0.00     0.157 A 
BRANCH  18  21
ATOM     21  O   UNL     1      -7.566  -1.421   4.803  1.00  0.00    -0.493 OA
ATOM     22  C   UNL     1      -8.011  -0.093   5.062  1.00  0.00     0.278 C 
ENDBRANCH  18  21
BRANCH  20  23
ATOM     23  O   UNL     1      -9.862  -2.772   4.081  1.00  0.00    -0.504 OA
ATOM     24  H   UNL     1     -10.419  -1.927   4.134  1.00  0.00     0.293 HD
ENDBRANCH  20  23
ENDBRANCH  14  15
ENDBRANCH  12  14
ENDBRANCH   9  10
ENDBRANCH   1   9
TORSDOF 10
ENDMDL
MODEL 4
REMARK VINA RESULT:    -5.768      2.045      3.256
REMARK INTER + INTRA:         -10.024
REMARK INTER:                  -8.401
REMARK INTRA:                  -1.623
REMARK UNBOUND:                -1.053
REMARK SMILES COc1cc(CNC(=O)CCCCC=CC(C)C)ccc1O
REMARK SMILES IDX 11 1 12 2 13 3 14 4 15 5 16 6 17 7 18 8 10 9 8 10 9 11 7 12
REMARK SMILES IDX 6 14 5 15 4 16 19 17 3 18 20 19 21 20 2 21 1 22 22 23
REMARK H PARENT 7 13 22 24
REMARK Flexibility Score: inf
ROOT
ATOM      1  C   UNL     1      -3.671  -6.759   6.034  1.00  0.00     0.010 C 
ENDROOT
BRANCH   1   2
ATOM      2  C   UNL     1      -4.874  -6.520   5.108  1.00  0.00     0.005 C 
BRANCH   2   3
ATOM      3  C   UNL     1      -5.306  -7.791   4.363  1.00  0.00     0.027 C 
BRANCH   3   4
ATOM      4  C   UNL     1      -6.722  -8.162   4.707  1.00  0.00    -0.031 C 
ATOM      5  C   UNL     1      -7.336  -7.653   5.787  1.00  0.00    -0.028 C 
BRANCH   5   6
ATOM      6  C   UNL     1      -8.750  -8.044   6.147  1.00  0.00     0.005 C 
ATOM      7  C   UNL     1      -9.406  -6.954   7.004  1.00  0.00     0.012 C 
ATOM      8  C   UNL     1      -9.575  -8.292   4.880  1.00  0.00     0.012 C 
ENDBRANCH   5   6
ENDBRANCH   3   4
ENDBRANCH   2   3
ENDBRANCH   1   2
BRANCH   1   9
ATOM      9  C   UNL     1      -4.085  -6.924   7.503  1.00  0.00     0.100 C 
BRANCH   9  10
ATOM     10  C   UNL     1      -4.647  -5.642   8.035  1.00  0.00     0.220 C 
ATOM     11  O   UNL     1      -3.915  -4.617   8.090  1.00  0.00    -0.275 OA
ATOM     12  N   UNL     1      -5.999  -5.594   8.512  1.00  0.00    -0.352 N 
ATOM     13  H   UNL     1      -6.563  -6.473   8.526  1.00  0.00     0.163 HD
BRANCH  12  14
ATOM     14  C   UNL     1      -6.626  -4.358   8.976  1.00  0.00     0.151 C 
BRANCH  14  15
ATOM     15  C   UNL     1      -6.971  -3.475   7.806  1.00  0.00    -0.025 A 
ATOM     16  C   UNL     1      -7.332  -4.050   6.576  1.00  0.00     0.056 A 
ATOM     17  C   UNL     1      -6.911  -2.079   7.925  1.00  0.00     0.009 A 
ATOM     18  C   UNL     1      -7.635  -3.235   5.467  1.00  0.00     0.160 A 
ATOM     19  C   UNL     1      -7.215  -1.267   6.830  1.00  0.00     0.050 A 
ATOM     20  C   UNL     1      -7.574  -1.840   5.603  1.00  0.00     0.157 A 
BRANCH  18  21
ATOM     21  O   UNL     1      -7.996  -3.770   4.220  1.00  0.00    -0.493 OA
ATOM     22  C   UNL     1      -9.087  -4.661   4.011  1.00  0.00     0.278 C 
ENDBRANCH  18  21
BRANCH  20  23
ATOM     23  O   UNL     1      -7.874  -1.028   4.509  1.00  0.00    -0.504 OA
ATOM     24  H   UNL     1      -8.707  -0.451   4.489  1.00  0.00     0.293 HD
ENDBRANCH  20  23
ENDBRANCH  14  15
ENDBRANCH  12  14
ENDBRANCH   9  10
ENDBRANCH   1   9
TORSDOF 10
ENDMDL
MODEL 5
REMARK VINA RESULT:    -5.697      1.140      2.476
REMARK INTER + INTRA:          -9.914
REMARK INTER:                  -9.119
REMARK INTRA:                  -0.795
REMARK UNBOUND:                -1.053
REMARK SMILES COc1cc(CNC(=O)CCCCC=CC(C)C)ccc1O
REMARK SMILES IDX 11 1 12 2 13 3 14 4 15 5 16 6 17 7 18 8 10 9 8 10 9 11 7 12
REMARK SMILES IDX 6 14 5 15 4 16 19 17 3 18 20 19 21 20 2 21 1 22 22 23
REMARK H PARENT 7 13 22 24
REMARK Flexibility Score: inf
ROOT
ATOM      1  C   UNL     1      -5.668  -6.413   7.115  1.00  0.00     0.010 C 
ENDROOT
BRANCH   1   2
ATOM      2  C   UNL     1      -4.771  -6.376   5.867  1.00  0.00     0.005 C 
BRANCH   2   3
ATOM      3  C   UNL     1      -3.381  -6.977   6.121  1.00  0.00     0.027 C 
BRANCH   3   4
ATOM      4  C   UNL     1      -3.169  -8.213   5.291  1.00  0.00    -0.031 C 
ATOM      5  C   UNL     1      -1.948  -8.564   4.858  1.00  0.00    -0.028 C 
BRANCH   5   6
ATOM      6  C   UNL     1      -1.738  -9.792   4.003  1.00  0.00     0.005 C 
ATOM      7  C   UNL     1      -2.920  -9.989   3.047  1.00  0.00     0.012 C 
ATOM      8  C   UNL     1      -0.429  -9.676   3.215  1.00  0.00     0.012 C 
ENDBRANCH   5   6
ENDBRANCH   3   4
ENDBRANCH   2   3
ENDBRANCH   1   2
BRANCH   1   9
ATOM      9  C   UNL     1      -4.929  -5.963   8.382  1.00  0.00     0.100 C 
BRANCH   9  10
ATOM     10  C   UNL     1      -5.076  -4.485   8.576  1.00  0.00     0.220 C 
ATOM     11  O   UNL     1      -4.046  -3.762   8.657  1.00  0.00    -0.275 OA
ATOM     12  N   UNL     1      -6.381  -3.903   8.705  1.00  0.00    -0.352 N 
ATOM     13  H   UNL     1      -7.216  -4.530   8.708  1.00  0.00     0.163 HD
BRANCH  12  14
ATOM     14  C   UNL     1      -6.591  -2.462   8.823  1.00  0.00     0.151 C 
BRANCH  14  15
ATOM     15  C   UNL     1      -7.175  -1.910   7.550  1.00  0.00    -0.025 A 
ATOM     16  C   UNL     1      -7.546  -0.558   7.477  1.00  0.00     0.056 A 
ATOM     17  C   UNL     1      -7.377  -2.743   6.440  1.00  0.00     0.009 A 
ATOM     18  C   UNL     1      -8.116  -0.034   6.299  1.00  0.00     0.160 A 
ATOM     19  C   UNL     1      -7.936  -2.228   5.268  1.00  0.00     0.050 A 
ATOM     20  C   UNL     1      -8.307  -0.879   5.195  1.00  0.00     0.157 A 
BRANCH  18  21
ATOM     21  O   UNL     1      -8.503   1.310   6.186  1.00  0.00    -0.493 OA
ATOM     22  C   UNL     1      -8.579   2.221   7.278  1.00  0.00     0.278 C 
ENDBRANCH  18  21
BRANCH  20  23
ATOM     23  O   UNL     1      -8.870  -0.368   4.026  1.00  0.00    -0.504 OA
ATOM     24  H   UNL     1      -9.088   0.617   3.929  1.00  0.00     0.293 HD
ENDBRANCH  20  23
ENDBRANCH  14  15
ENDBRANCH  12  14
ENDBRANCH   9  10
ENDBRANCH   1   9
TORSDOF 10
ENDMDL
MODEL 6
REMARK VINA RESULT:    -5.688     11.707     13.871
REMARK INTER + INTRA:          -9.899
REMARK INTER:                  -9.142
REMARK INTRA:                  -0.757
REMARK UNBOUND:                -1.053
REMARK SMILES COc1cc(CNC(=O)CCCCC=CC(C)C)ccc1O
REMARK SMILES IDX 11 1 12 2 13 3 14 4 15 5 16 6 17 7 18 8 10 9 8 10 9 11 7 12
REMARK SMILES IDX 6 14 5 15 4 16 19 17 3 18 20 19 21 20 2 21 1 22 22 23
REMARK H PARENT 7 13 22 24
REMARK Flexibility Score: inf
ROOT
ATOM      1  C   UNL     1       0.016  -5.368  -7.666  1.00  0.00     0.010 C 
ENDROOT
BRANCH   1   2
ATOM      2  C   UNL     1       1.450  -5.496  -7.127  1.00  0.00     0.005 C 
BRANCH   2   3
ATOM      3  C   UNL     1       1.571  -5.057  -5.661  1.00  0.00     0.027 C 
BRANCH   3   4
ATOM      4  C   UNL     1       2.980  -5.220  -5.164  1.00  0.00    -0.031 C 
ATOM      5  C   UNL     1       3.967  -5.625  -5.979  1.00  0.00    -0.028 C 
BRANCH   5   6
ATOM      6  C   UNL     1       5.379  -5.812  -5.475  1.00  0.00     0.005 C 
ATOM      7  C   UNL     1       6.306  -4.744  -6.067  1.00  0.00     0.012 C 
ATOM      8  C   UNL     1       5.411  -5.756  -3.944  1.00  0.00     0.012 C 
ENDBRANCH   5   6
ENDBRANCH   3   4
ENDBRANCH   2   3
ENDBRANCH   1   2
BRANCH   1   9
ATOM      9  C   UNL     1      -0.810  -4.329  -6.895  1.00  0.00     0.100 C 
BRANCH   9  10
ATOM     10  C   UNL     1      -1.969  -4.986  -6.210  1.00  0.00     0.220 C 
ATOM     11  O   UNL     1      -1.886  -5.272  -4.985  1.00  0.00    -0.275 OA
ATOM     12  N   UNL     1      -3.149  -5.318  -6.954  1.00  0.00    -0.352 N 
ATOM     13  H   UNL     1      -3.167  -5.138  -7.982  1.00  0.00     0.163 HD
BRANCH  12  14
ATOM     14  C   UNL     1      -4.337  -5.893  -6.327  1.00  0.00     0.151 C 
BRANCH  14  15
ATOM     15  C   UNL     1      -5.272  -4.803  -5.875  1.00  0.00    -0.025 A 
ATOM     16  C   UNL     1      -5.486  -3.680  -6.691  1.00  0.00     0.056 A 
ATOM     17  C   UNL     1      -5.912  -4.885  -4.630  1.00  0.00     0.009 A 
ATOM     18  C   UNL     1      -6.340  -2.641  -6.269  1.00  0.00     0.160 A 
ATOM     19  C   UNL     1      -6.763  -3.860  -4.210  1.00  0.00     0.050 A 
ATOM     20  C   UNL     1      -6.977  -2.740  -5.023  1.00  0.00     0.157 A 
BRANCH  18  21
ATOM     21  O   UNL     1      -6.579  -1.502  -7.053  1.00  0.00    -0.493 OA
ATOM     22  C   UNL     1      -6.493  -1.469  -8.474  1.00  0.00     0.278 C 
ENDBRANCH  18  21
BRANCH  20  23
ATOM     23  O   UNL     1      -7.824  -1.716  -4.600  1.00  0.00    -0.504 OA
ATOM     24  H   UNL     1      -7.568  -0.740  -4.700  1.00  0.00     0.293 HD
ENDBRANCH  20  23
ENDBRANCH  14  15
ENDBRANCH  12  14
ENDBRANCH   9  10
ENDBRANCH   1   9
TORSDOF 10
ENDMDL
MODEL 7
REMARK VINA RESULT:    -5.681      2.719      6.856
REMARK INTER + INTRA:          -9.889
REMARK INTER:                  -8.557
REMARK INTRA:                  -1.332
REMARK UNBOUND:                -1.053
REMARK SMILES COc1cc(CNC(=O)CCCCC=CC(C)C)ccc1O
REMARK SMILES IDX 11 1 12 2 13 3 14 4 15 5 16 6 17 7 18 8 10 9 8 10 9 11 7 12
REMARK SMILES IDX 6 14 5 15 4 16 19 17 3 18 20 19 21 20 2 21 1 22 22 23
REMARK H PARENT 7 13 22 24
REMARK Flexibility Score: inf
ROOT
ATOM      1  C   UNL     1      -9.300  -2.373   6.281  1.00  0.00     0.010 C 
ENDROOT
BRANCH   1   2
ATOM      2  C   UNL     1      -8.812  -1.120   7.025  1.00  0.00     0.005 C 
BRANCH   2   3
ATOM      3  C   UNL     1      -7.284  -0.973   6.995  1.00  0.00     0.027 C 
BRANCH   3   4
ATOM      4  C   UNL     1      -6.637  -1.873   8.011  1.00  0.00    -0.031 C 
ATOM      5  C   UNL     1      -5.933  -2.954   7.640  1.00  0.00    -0.028 C 
BRANCH   5   6
ATOM      6  C   UNL     1      -5.303  -3.872   8.661  1.00  0.00     0.005 C 
ATOM      7  C   UNL     1      -5.324  -3.225  10.051  1.00  0.00     0.012 C 
ATOM      8  C   UNL     1      -6.033  -5.219   8.691  1.00  0.00     0.012 C 
ENDBRANCH   5   6
ENDBRANCH   3   4
ENDBRANCH   2   3
ENDBRANCH   1   2
BRANCH   1   9
ATOM      9  C   UNL     1      -8.525  -2.622   4.979  1.00  0.00     0.100 C 
BRANCH   9  10
ATOM     10  C   UNL     1      -8.432  -4.091   4.699  1.00  0.00     0.220 C 
ATOM     11  O   UNL     1      -9.488  -4.758   4.523  1.00  0.00    -0.275 OA
ATOM     12  N   UNL     1      -7.152  -4.737   4.666  1.00  0.00    -0.352 N 
ATOM     13  H   UNL     1      -6.298  -4.179   4.887  1.00  0.00     0.163 HD
BRANCH  12  14
ATOM     14  C   UNL     1      -6.994  -6.150   4.327  1.00  0.00     0.151 C 
BRANCH  14  15
ATOM     15  C   UNL     1      -5.628  -6.636   4.734  1.00  0.00    -0.025 A 
ATOM     16  C   UNL     1      -5.209  -7.929   4.377  1.00  0.00     0.056 A 
ATOM     17  C   UNL     1      -4.777  -5.819   5.491  1.00  0.00     0.009 A 
ATOM     18  C   UNL     1      -3.943  -8.405   4.772  1.00  0.00     0.160 A 
ATOM     19  C   UNL     1      -3.519  -6.284   5.880  1.00  0.00     0.050 A 
ATOM     20  C   UNL     1      -3.101  -7.574   5.525  1.00  0.00     0.157 A 
BRANCH  18  21
ATOM     21  O   UNL     1      -3.489  -9.690   4.438  1.00  0.00    -0.493 OA
ATOM     22  C   UNL     1      -3.153 -10.110   3.120  1.00  0.00     0.278 C 
ENDBRANCH  18  21
BRANCH  20  23
ATOM     23  O   UNL     1      -1.847  -8.038   5.919  1.00  0.00    -0.504 OA
ATOM     24  H   UNL     1      -1.659  -9.028   6.033  1.00  0.00     0.293 HD
ENDBRANCH  20  23
ENDBRANCH  14  15
ENDBRANCH  12  14
ENDBRANCH   9  10
ENDBRANCH   1   9
TORSDOF 10
ENDMDL
MODEL 8
REMARK VINA RESULT:    -5.673      1.963      3.661
REMARK INTER + INTRA:          -9.876
REMARK INTER:                  -8.951
REMARK INTRA:                  -0.924
REMARK UNBOUND:                -1.053
REMARK SMILES COc1cc(CNC(=O)CCCCC=CC(C)C)ccc1O
REMARK SMILES IDX 11 1 12 2 13 3 14 4 15 5 16 6 17 7 18 8 10 9 8 10 9 11 7 12
REMARK SMILES IDX 6 14 5 15 4 16 19 17 3 18 20 19 21 20 2 21 1 22 22 23
REMARK H PARENT 7 13 22 24
REMARK Flexibility Score: inf
ROOT
ATOM      1  C   UNL     1      -4.943  -6.248   5.127  1.00  0.00     0.010 C 
ENDROOT
BRANCH   1   2
ATOM      2  C   UNL     1      -4.894  -6.638   6.613  1.00  0.00     0.005 C 
BRANCH   2   3
ATOM      3  C   UNL     1      -3.582  -7.338   6.997  1.00  0.00     0.027 C 
BRANCH   3   4
ATOM      4  C   UNL     1      -3.304  -8.499   6.084  1.00  0.00    -0.031 C 
ATOM      5  C   UNL     1      -2.330  -8.447   5.161  1.00  0.00    -0.028 C 
BRANCH   5   6
ATOM      6  C   UNL     1      -2.066  -9.605   4.227  1.00  0.00     0.005 C 
ATOM      7  C   UNL     1      -3.241  -9.791   3.259  1.00  0.00     0.012 C 
ATOM      8  C   UNL     1      -0.766  -9.377   3.449  1.00  0.00     0.012 C 
ENDBRANCH   5   6
ENDBRANCH   3   4
ENDBRANCH   2   3
ENDBRANCH   1   2
BRANCH   1   9
ATOM      9  C   UNL     1      -6.105  -6.920   4.382  1.00  0.00     0.100 C 
BRANCH   9  10
ATOM     10  C   UNL     1      -7.294  -6.010   4.339  1.00  0.00     0.220 C 
ATOM     11  O   UNL     1      -8.451  -6.503   4.238  1.00  0.00    -0.275 OA
ATOM     12  N   UNL     1      -7.113  -4.588   4.377  1.00  0.00    -0.352 N 
ATOM     13  H   UNL     1      -6.143  -4.202   4.387  1.00  0.00     0.163 HD
BRANCH  12  14
ATOM     14  C   UNL     1      -8.236  -3.653   4.410  1.00  0.00     0.151 C 
BRANCH  14  15
ATOM     15  C   UNL     1      -8.004  -2.593   5.454  1.00  0.00    -0.025 A 
ATOM     16  C   UNL     1      -7.179  -2.864   6.558  1.00  0.00     0.056 A 
ATOM     17  C   UNL     1      -8.628  -1.342   5.348  1.00  0.00     0.009 A 
ATOM     18  C   UNL     1      -6.973  -1.888   7.554  1.00  0.00     0.160 A 
ATOM     19  C   UNL     1      -8.423  -0.370   6.330  1.00  0.00     0.050 A 
ATOM     20  C   UNL     1      -7.600  -0.640   7.432  1.00  0.00     0.157 A 
BRANCH  18  21
ATOM     21  O   UNL     1      -6.159  -2.121   8.673  1.00  0.00    -0.493 OA
ATOM     22  C   UNL     1      -5.527  -3.363   8.967  1.00  0.00     0.278 C 
ENDBRANCH  18  21
BRANCH  20  23
ATOM     23  O   UNL     1      -7.400   0.330   8.414  1.00  0.00    -0.504 OA
ATOM     24  H   UNL     1      -6.705   0.213   9.142  1.00  0.00     0.293 HD
ENDBRANCH  20  23
ENDBRANCH  14  15
ENDBRANCH  12  14
ENDBRANCH   9  10
ENDBRANCH   1   9
TORSDOF 10
ENDMDL
MODEL 9
REMARK VINA RESULT:    -5.598     11.634     14.205
REMARK INTER + INTRA:          -9.759
REMARK INTER:                  -8.214
REMARK INTRA:                  -1.545
REMARK UNBOUND:                -1.053
REMARK SMILES COc1cc(CNC(=O)CCCCC=CC(C)C)ccc1O
REMARK SMILES IDX 11 1 12 2 13 3 14 4 15 5 16 6 17 7 18 8 10 9 8 10 9 11 7 12
REMARK SMILES IDX 6 14 5 15 4 16 19 17 3 18 20 19 21 20 2 21 1 22 22 23
REMARK H PARENT 7 13 22 24
REMARK Flexibility Score: inf
ROOT
ATOM      1  C   UNL     1      -6.892  -3.072  -6.496  1.00  0.00     0.010 C 
ENDROOT
BRANCH   1   2
ATOM      2  C   UNL     1      -6.072  -2.661  -5.262  1.00  0.00     0.005 C 
BRANCH   2   3
ATOM      3  C   UNL     1      -6.272  -3.616  -4.076  1.00  0.00     0.027 C 
BRANCH   3   4
ATOM      4  C   UNL     1      -7.042  -4.838  -4.492  1.00  0.00    -0.031 C 
ATOM      5  C   UNL     1      -6.641  -6.071  -4.143  1.00  0.00    -0.028 C 
BRANCH   5   6
ATOM      6  C   UNL     1      -7.400  -7.301  -4.581  1.00  0.00     0.005 C 
ATOM      7  C   UNL     1      -8.456  -7.679  -3.536  1.00  0.00     0.012 C 
ATOM      8  C   UNL     1      -8.061  -7.064  -5.943  1.00  0.00     0.012 C 
ENDBRANCH   5   6
ENDBRANCH   3   4
ENDBRANCH   2   3
ENDBRANCH   1   2
BRANCH   1   9
ATOM      9  C   UNL     1      -6.363  -2.439  -7.790  1.00  0.00     0.100 C 
BRANCH   9  10
ATOM     10  C   UNL     1      -5.046  -3.044  -8.168  1.00  0.00     0.220 C 
ATOM     11  O   UNL     1      -4.170  -2.328  -8.724  1.00  0.00    -0.275 OA
ATOM     12  N   UNL     1      -4.801  -4.437  -7.931  1.00  0.00    -0.352 N 
ATOM     13  H   UNL     1      -5.568  -5.026  -7.537  1.00  0.00     0.163 HD
BRANCH  12  14
ATOM     14  C   UNL     1      -3.513  -5.067  -8.212  1.00  0.00     0.151 C 
BRANCH  14  15
ATOM     15  C   UNL     1      -2.790  -5.378  -6.928  1.00  0.00    -0.025 A 
ATOM     16  C   UNL     1      -1.405  -5.167  -6.834  1.00  0.00     0.056 A 
ATOM     17  C   UNL     1      -3.485  -5.904  -5.829  1.00  0.00     0.009 A 
ATOM     18  C   UNL     1      -0.713  -5.476  -5.645  1.00  0.00     0.160 A 
ATOM     19  C   UNL     1      -2.804  -6.207  -4.648  1.00  0.00     0.050 A 
ATOM     20  C   UNL     1      -1.422  -5.997  -4.554  1.00  0.00     0.157 A 
BRANCH  18  21
ATOM     21  O   UNL     1       0.671  -5.282  -5.512  1.00  0.00    -0.493 OA
ATOM     22  C   UNL     1       1.594  -5.284  -6.597  1.00  0.00     0.278 C 
ENDBRANCH  18  21
BRANCH  20  23
ATOM     23  O   UNL     1      -0.744  -6.304  -3.375  1.00  0.00    -0.504 OA
ATOM     24  H   UNL     1      -0.057  -7.049  -3.336  1.00  0.00     0.293 HD
ENDBRANCH  20  23
ENDBRANCH  14  15
ENDBRANCH  12  14
ENDBRANCH   9  10
ENDBRANCH   1   9
TORSDOF 10
ENDMDL
