MODEL 1
REMARK VINA RESULT:    -0.525      0.000      0.000
REMARK INTER + INTRA:          -0.745
REMARK INTER:                  -0.617
REMARK INTRA:                  -0.127
REMARK UNBOUND:                -0.127
REMARK SMILES O=C([O-])C=Cc1ccc(O)c(O)c1
REMARK SMILES IDX 6 1 13 2 7 3 11 4 8 5 9 6 5 7 4 8 2 9 1 10 3 11 12 12 10 14
REMARK H PARENT 12 13 10 15
REMARK Flexibility Score: inf
ROOT
ATOM      1  C   UNL     1       7.845   4.274  18.041  1.00  0.00    -0.022 A 
ATOM      2  C   UNL     1       7.069   5.446  18.078  1.00  0.00     0.058 A 
ATOM      3  C   UNL     1       9.244   4.390  17.926  1.00  0.00     0.012 A 
ATOM      4  C   UNL     1       7.675   6.709  18.028  1.00  0.00     0.157 A 
ATOM      5  C   UNL     1       9.849   5.649  17.875  1.00  0.00     0.051 A 
ATOM      6  C   UNL     1       9.072   6.810  17.928  1.00  0.00     0.157 A 
ENDROOT
BRANCH   1   7
ATOM      7  C   UNL     1       7.152   2.963  18.087  1.00  0.00     0.010 C 
ATOM      8  C   UNL     1       6.312   2.598  19.067  1.00  0.00     0.025 C 
BRANCH   8   9
ATOM      9  C   UNL     1       5.638   1.290  19.065  1.00  0.00     0.064 C 
ATOM     10  O   UNL     1       5.309   0.761  20.158  1.00  0.00    -0.545 OA
ATOM     11  O   UNL     1       5.360   0.627  17.875  1.00  0.00    -0.545 OA
ENDBRANCH   8   9
ENDBRANCH   1   7
BRANCH   4  12
ATOM     12  O   UNL     1       6.895   7.863  18.076  1.00  0.00    -0.504 OA
ATOM     13  H   UNL     1       5.981   7.868  18.515  1.00  0.00     0.293 HD
ENDBRANCH   4  12
BRANCH   6  14
ATOM     14  O   UNL     1       9.706   8.051  17.878  1.00  0.00    -0.504 OA
ATOM     15  H   UNL     1       9.690   8.629  17.046  1.00  0.00     0.293 HD
ENDBRANCH   6  14
TORSDOF 4
ENDMDL
MODEL 2
REMARK VINA RESULT:    -0.231      1.014      1.960
REMARK INTER + INTRA:          -0.399
REMARK INTER:                  -0.266
REMARK INTRA:                  -0.132
REMARK UNBOUND:                -0.127
REMARK SMILES O=C([O-])C=Cc1ccc(O)c(O)c1
REMARK SMILES IDX 6 1 13 2 7 3 11 4 8 5 9 6 5 7 4 8 2 9 1 10 3 11 12 12 10 14
REMARK H PARENT 12 13 10 15
REMARK Flexibility Score: inf
ROOT
ATOM      1  C   UNL     1       7.038   4.705  18.565  1.00  0.00    -0.022 A 
ATOM      2  C   UNL     1       8.405   4.457  18.349  1.00  0.00     0.058 A 
ATOM      3  C   UNL     1       6.584   6.039  18.571  1.00  0.00     0.012 A 
ATOM      4  C   UNL     1       9.298   5.511  18.116  1.00  0.00     0.157 A 
ATOM      5  C   UNL     1       7.474   7.091  18.340  1.00  0.00     0.051 A 
ATOM      6  C   UNL     1       8.829   6.835  18.110  1.00  0.00     0.157 A 
ENDROOT
BRANCH   1   7
ATOM      7  C   UNL     1       6.138   3.553  18.817  1.00  0.00     0.010 C 
ATOM      8  C   UNL     1       6.520   2.272  18.712  1.00  0.00     0.025 C 
BRANCH   8   9
ATOM      9  C   UNL     1       5.595   1.161  18.982  1.00  0.00     0.064 C 
ATOM     10  O   UNL     1       5.573   0.636  20.126  1.00  0.00    -0.545 OA
ATOM     11  O   UNL     1       4.746   0.676  17.993  1.00  0.00    -0.545 OA
ENDBRANCH   8   9
ENDBRANCH   1   7
BRANCH   4  12
ATOM     12  O   UNL     1      10.649   5.249  17.893  1.00  0.00    -0.504 OA
ATOM     13  H   UNL     1      11.311   5.188  18.658  1.00  0.00     0.293 HD
ENDBRANCH   4  12
BRANCH   6  14
ATOM     14  O   UNL     1       9.691   7.906  17.880  1.00  0.00    -0.504 OA
ATOM     15  H   UNL     1      10.628   7.934  18.265  1.00  0.00     0.293 HD
ENDBRANCH   6  14
TORSDOF 4
ENDMDL
MODEL 3
REMARK VINA RESULT:     0.712      1.190      2.136
REMARK INTER + INTRA:           0.710
REMARK INTER:                   0.850
REMARK INTRA:                  -0.140
REMARK UNBOUND:                -0.127
REMARK SMILES O=C([O-])C=Cc1ccc(O)c(O)c1
REMARK SMILES IDX 6 1 13 2 7 3 11 4 8 5 9 6 5 7 4 8 2 9 1 10 3 11 12 12 10 14
REMARK H PARENT 12 13 10 15
REMARK Flexibility Score: inf
ROOT
ATOM      1  C   UNL     1       7.532   5.026  18.015  1.00  0.00    -0.022 A 
ATOM      2  C   UNL     1       8.739   5.745  17.975  1.00  0.00     0.058 A 
ATOM      3  C   UNL     1       6.317   5.739  18.031  1.00  0.00     0.012 A 
ATOM      4  C   UNL     1       8.738   7.145  17.925  1.00  0.00     0.157 A 
ATOM      5  C   UNL     1       6.316   7.136  17.981  1.00  0.00     0.051 A 
ATOM      6  C   UNL     1       7.520   7.844  17.926  1.00  0.00     0.157 A 
ENDROOT
BRANCH   1   7
ATOM      7  C   UNL     1       7.589   3.544  18.077  1.00  0.00     0.010 C 
ATOM      8  C   UNL     1       6.684   2.790  18.717  1.00  0.00     0.025 C 
BRANCH   8   9
ATOM      9  C   UNL     1       6.775   1.322  18.743  1.00  0.00     0.064 C 
ATOM     10  O   UNL     1       5.805   0.648  19.178  1.00  0.00    -0.545 OA
ATOM     11  O   UNL     1       7.917   0.665  18.297  1.00  0.00    -0.545 OA
ENDBRANCH   8   9
ENDBRANCH   1   7
BRANCH   4  12
ATOM     12  O   UNL     1       9.943   7.846  17.875  1.00  0.00    -0.504 OA
ATOM     13  H   UNL     1      10.790   7.474  18.290  1.00  0.00     0.293 HD
ENDBRANCH   4  12
BRANCH   6  14
ATOM     14  O   UNL     1       7.485   9.237  17.875  1.00  0.00    -0.504 OA
ATOM     15  H   UNL     1       7.520   9.806  18.713  1.00  0.00     0.293 HD
ENDBRANCH   6  14
TORSDOF 4
ENDMDL
MODEL 4
REMARK VINA RESULT:     1.917      1.215      5.982
REMARK INTER + INTRA:           2.126
REMARK INTER:                   2.269
REMARK INTRA:                  -0.143
REMARK UNBOUND:                -0.127
REMARK SMILES O=C([O-])C=Cc1ccc(O)c(O)c1
REMARK SMILES IDX 6 1 13 2 7 3 11 4 8 5 9 6 5 7 4 8 2 9 1 10 3 11 12 12 10 14
REMARK H PARENT 12 13 10 15
REMARK Flexibility Score: inf
ROOT
ATOM      1  C   UNL     1       7.167   4.211  18.502  1.00  0.00    -0.022 A 
ATOM      2  C   UNL     1       7.782   3.034  18.044  1.00  0.00     0.058 A 
ATOM      3  C   UNL     1       5.984   4.107  19.260  1.00  0.00     0.012 A 
ATOM      4  C   UNL     1       7.248   1.776  18.355  1.00  0.00     0.157 A 
ATOM      5  C   UNL     1       5.449   2.854  19.569  1.00  0.00     0.051 A 
ATOM      6  C   UNL     1       6.076   1.687  19.124  1.00  0.00     0.157 A 
ENDROOT
BRANCH   1   7
ATOM      7  C   UNL     1       7.770   5.517  18.136  1.00  0.00     0.010 C 
ATOM      8  C   UNL     1       7.207   6.701  18.415  1.00  0.00     0.025 C 
BRANCH   8   9
ATOM      9  C   UNL     1       7.847   7.972  18.043  1.00  0.00     0.064 C 
ATOM     10  O   UNL     1       9.094   8.014  17.875  1.00  0.00    -0.545 OA
ATOM     11  O   UNL     1       7.098   9.132  17.875  1.00  0.00    -0.545 OA
ENDBRANCH   8   9
ENDBRANCH   1   7
BRANCH   4  12
ATOM     12  O   UNL     1       7.874   0.616  17.903  1.00  0.00    -0.504 OA
ATOM     13  H   UNL     1       8.059   0.463  16.918  1.00  0.00     0.293 HD
ENDBRANCH   4  12
BRANCH   6  14
ATOM     14  O   UNL     1       5.518   0.451  19.451  1.00  0.00    -0.504 OA
ATOM     15  H   UNL     1       4.618   0.155  19.092  1.00  0.00     0.293 HD
ENDBRANCH   6  14
TORSDOF 4
ENDMDL
