MODEL 1
REMARK VINA RESULT:    -5.625      0.000      0.000
REMARK INTER + INTRA:          -7.995
REMARK INTER:                  -7.598
REMARK INTRA:                  -0.397
REMARK UNBOUND:                -0.397
REMARK SMILES COc1ccc(-c2cc(=O)c3c(OC)c(OC)c(OC)c(OC)c3o2)cc1
REMARK SMILES IDX 7 1 8 2 9 3 10 4 11 5 24 6 25 7 21 8 18 9 15 10 12 11 6 12
REMARK SMILES IDX 3 13 4 14 27 15 5 16 26 17 2 18 1 19 22 20 23 21 13 22 14 23
REMARK SMILES IDX 19 24 20 25 16 26 17 27
REMARK H PARENT
REMARK Flexibility Score: inf
ROOT
ATOM      1  C   UNL     1     -17.407  13.087  -0.969  1.00  0.00     0.138 A 
ATOM      2  C   UNL     1     -17.851  12.537  -2.179  1.00  0.00     0.100 A 
ATOM      3  C   UNL     1     -16.923  12.233  -3.174  1.00  0.00     0.197 A 
ATOM      4  O   UNL     1     -17.339  11.764  -4.268  1.00  0.00    -0.289 OA
ATOM      5  C   UNL     1     -15.550  12.475  -2.948  1.00  0.00     0.115 A 
ATOM      6  C   UNL     1     -15.182  13.052  -1.715  1.00  0.00     0.188 A 
ATOM      7  O   UNL     1     -16.110  13.324  -0.799  1.00  0.00    -0.452 OA
ATOM      8  C   UNL     1     -13.846  13.342  -1.424  1.00  0.00     0.209 A 
ATOM      9  C   UNL     1     -12.838  13.078  -2.387  1.00  0.00     0.211 A 
ATOM     10  C   UNL     1     -13.201  12.528  -3.647  1.00  0.00     0.208 A 
ATOM     11  C   UNL     1     -14.548  12.169  -3.893  1.00  0.00     0.179 A 
ENDROOT
BRANCH   1  12
ATOM     12  C   UNL     1     -18.346  13.429   0.130  1.00  0.00     0.018 A 
ATOM     13  C   UNL     1     -20.161  14.030   2.209  1.00  0.00     0.118 A 
ATOM     14  C   UNL     1     -19.535  15.057   1.496  1.00  0.00     0.047 A 
ATOM     15  C   UNL     1     -19.883  12.692   1.871  1.00  0.00     0.047 A 
ATOM     16  C   UNL     1     -18.639  14.765   0.465  1.00  0.00     0.016 A 
ATOM     17  C   UNL     1     -18.988  12.399   0.838  1.00  0.00     0.016 A 
BRANCH  13  18
ATOM     18  O   UNL     1     -21.050  14.377   3.238  1.00  0.00    -0.497 OA
ATOM     19  C   UNL     1     -20.939  13.924   4.583  1.00  0.00     0.278 C 
ENDBRANCH  13  18
ENDBRANCH   1  12
BRANCH   8  20
ATOM     20  O   UNL     1     -13.592  13.900  -0.154  1.00  0.00    -0.490 OA
ATOM     21  C   UNL     1     -13.934  15.207   0.295  1.00  0.00     0.278 C 
ENDBRANCH   8  20
BRANCH  11  22
ATOM     22  O   UNL     1     -14.880  11.477  -5.060  1.00  0.00    -0.492 OA
ATOM     23  C   UNL     1     -14.782  10.058  -5.125  1.00  0.00     0.278 C 
ENDBRANCH  11  22
BRANCH   9  24
ATOM     24  O   UNL     1     -11.505  13.387  -2.053  1.00  0.00    -0.490 OA
ATOM     25  C   UNL     1     -10.863  14.656  -2.127  1.00  0.00     0.279 C 
ENDBRANCH   9  24
BRANCH  10  26
ATOM     26  O   UNL     1     -12.208  12.357  -4.626  1.00  0.00    -0.490 OA
ATOM     27  C   UNL     1     -11.358  11.221  -4.760  1.00  0.00     0.278 C 
ENDBRANCH  10  26
TORSDOF 6
ENDMDL
MODEL 2
REMARK VINA RESULT:    -5.478      1.034      3.499
REMARK INTER + INTRA:          -7.796
REMARK INTER:                  -7.553
REMARK INTRA:                  -0.243
REMARK UNBOUND:                -0.397
REMARK SMILES COc1ccc(-c2cc(=O)c3c(OC)c(OC)c(OC)c(OC)c3o2)cc1
REMARK SMILES IDX 7 1 8 2 9 3 10 4 11 5 24 6 25 7 21 8 18 9 15 10 12 11 6 12
REMARK SMILES IDX 3 13 4 14 27 15 5 16 26 17 2 18 1 19 22 20 23 21 13 22 14 23
REMARK SMILES IDX 19 24 20 25 16 26 17 27
REMARK H PARENT
REMARK Flexibility Score: inf
ROOT
ATOM      1  C   UNL     1     -16.253  14.144  -0.101  1.00  0.00     0.138 A 
ATOM      2  C   UNL     1     -15.035  14.760   0.218  1.00  0.00     0.100 A 
ATOM      3  C   UNL     1     -13.934  14.570  -0.615  1.00  0.00     0.197 A 
ATOM      4  O   UNL     1     -12.838  15.108  -0.303  1.00  0.00    -0.289 OA
ATOM      5  C   UNL     1     -14.060  13.768  -1.771  1.00  0.00     0.115 A 
ATOM      6  C   UNL     1     -15.310  13.162  -2.013  1.00  0.00     0.188 A 
ATOM      7  O   UNL     1     -16.330  13.375  -1.184  1.00  0.00    -0.452 OA
ATOM      8  C   UNL     1     -15.509  12.336  -3.124  1.00  0.00     0.209 A 
ATOM      9  C   UNL     1     -14.435  12.077  -4.015  1.00  0.00     0.211 A 
ATOM     10  C   UNL     1     -13.162  12.655  -3.762  1.00  0.00     0.208 A 
ATOM     11  C   UNL     1     -13.000  13.550  -2.677  1.00  0.00     0.179 A 
ENDROOT
BRANCH   1  12
ATOM     12  C   UNL     1     -17.463  14.310   0.744  1.00  0.00     0.018 A 
ATOM     13  C   UNL     1     -19.756  14.569   2.373  1.00  0.00     0.118 A 
ATOM     14  C   UNL     1     -19.667  15.259   1.160  1.00  0.00     0.047 A 
ATOM     15  C   UNL     1     -18.693  13.735   2.767  1.00  0.00     0.047 A 
ATOM     16  C   UNL     1     -18.536  15.132   0.349  1.00  0.00     0.016 A 
ATOM     17  C   UNL     1     -17.562  13.605   1.956  1.00  0.00     0.016 A 
BRANCH  13  18
ATOM     18  O   UNL     1     -20.912  14.734   3.151  1.00  0.00    -0.497 OA
ATOM     19  C   UNL     1     -21.348  13.815   4.147  1.00  0.00     0.278 C 
ENDBRANCH  13  18
ENDBRANCH   1  12
BRANCH   8  20
ATOM     20  O   UNL     1     -16.803  11.798  -3.276  1.00  0.00    -0.490 OA
ATOM     21  C   UNL     1     -17.798  12.202  -4.210  1.00  0.00     0.278 C 
ENDBRANCH   8  20
BRANCH  11  22
ATOM     22  O   UNL     1     -11.800  14.249  -2.525  1.00  0.00    -0.492 OA
ATOM     23  C   UNL     1     -10.610  13.584  -2.115  1.00  0.00     0.278 C 
ENDBRANCH  11  22
BRANCH   9  24
ATOM     24  O   UNL     1     -14.679  11.239  -5.120  1.00  0.00    -0.490 OA
ATOM     25  C   UNL     1     -15.112   9.882  -5.101  1.00  0.00     0.279 C 
ENDBRANCH   9  24
BRANCH  10  26
ATOM     26  O   UNL     1     -12.084  12.319  -4.599  1.00  0.00    -0.490 OA
ATOM     27  C   UNL     1     -11.329  11.112  -4.539  1.00  0.00     0.278 C 
ENDBRANCH  10  26
TORSDOF 6
ENDMDL
MODEL 3
REMARK VINA RESULT:    -4.880      1.941      7.655
REMARK INTER + INTRA:          -6.989
REMARK INTER:                  -7.626
REMARK INTRA:                   0.637
REMARK UNBOUND:                -0.397
REMARK SMILES COc1ccc(-c2cc(=O)c3c(OC)c(OC)c(OC)c(OC)c3o2)cc1
REMARK SMILES IDX 7 1 8 2 9 3 10 4 11 5 24 6 25 7 21 8 18 9 15 10 12 11 6 12
REMARK SMILES IDX 3 13 4 14 27 15 5 16 26 17 2 18 1 19 22 20 23 21 13 22 14 23
REMARK SMILES IDX 19 24 20 25 16 26 17 27
REMARK H PARENT
REMARK Flexibility Score: inf
ROOT
ATOM      1  C   UNL     1     -15.047  12.971  -3.095  1.00  0.00     0.138 A 
ATOM      2  C   UNL     1     -16.149  13.121  -3.948  1.00  0.00     0.100 A 
ATOM      3  C   UNL     1     -17.404  13.391  -3.404  1.00  0.00     0.197 A 
ATOM      4  O   UNL     1     -18.391  13.497  -4.181  1.00  0.00    -0.289 OA
ATOM      5  C   UNL     1     -17.549  13.515  -2.004  1.00  0.00     0.115 A 
ATOM      6  C   UNL     1     -16.399  13.327  -1.209  1.00  0.00     0.188 A 
ATOM      7  O   UNL     1     -15.224  13.070  -1.780  1.00  0.00    -0.452 OA
ATOM      8  C   UNL     1     -16.464  13.412   0.185  1.00  0.00     0.209 A 
ATOM      9  C   UNL     1     -17.706  13.667   0.821  1.00  0.00     0.211 A 
ATOM     10  C   UNL     1     -18.877  13.824   0.031  1.00  0.00     0.208 A 
ATOM     11  C   UNL     1     -18.778  13.812  -1.380  1.00  0.00     0.179 A 
ENDROOT
BRANCH   1  12
ATOM     12  C   UNL     1     -13.684  12.687  -3.613  1.00  0.00     0.018 A 
ATOM     13  C   UNL     1     -11.077  12.204  -4.585  1.00  0.00     0.118 A 
ATOM     14  C   UNL     1     -12.172  11.522  -5.124  1.00  0.00     0.047 A 
ATOM     15  C   UNL     1     -11.292  13.142  -3.558  1.00  0.00     0.047 A 
ATOM     16  C   UNL     1     -13.464  11.760  -4.650  1.00  0.00     0.016 A 
ATOM     17  C   UNL     1     -12.584  13.382  -3.083  1.00  0.00     0.016 A 
BRANCH  13  18
ATOM     18  O   UNL     1      -9.800  11.925  -5.096  1.00  0.00    -0.497 OA
ATOM     19  C   UNL     1      -9.211  10.629  -5.125  1.00  0.00     0.278 C 
ENDBRANCH  13  18
ENDBRANCH   1  12
BRANCH   8  20
ATOM     20  O   UNL     1     -15.250  13.224   0.877  1.00  0.00    -0.490 OA
ATOM     21  C   UNL     1     -14.003  12.809   0.331  1.00  0.00     0.278 C 
ENDBRANCH   8  20
BRANCH  11  22
ATOM     22  O   UNL     1     -19.893  14.133  -2.158  1.00  0.00    -0.492 OA
ATOM     23  C   UNL     1     -20.235  15.488  -2.428  1.00  0.00     0.278 C 
ENDBRANCH  11  22
BRANCH   9  24
ATOM     24  O   UNL     1     -17.727  13.743   2.228  1.00  0.00    -0.490 OA
ATOM     25  C   UNL     1     -17.862  12.669   3.153  1.00  0.00     0.279 C 
ENDBRANCH   9  24
BRANCH  10  26
ATOM     26  O   UNL     1     -20.116  13.985   0.677  1.00  0.00    -0.490 OA
ATOM     27  C   UNL     1     -20.451  15.028   1.587  1.00  0.00     0.278 C 
ENDBRANCH  10  26
TORSDOF 6
ENDMDL
MODEL 4
REMARK VINA RESULT:    -4.868      2.144      8.079
REMARK INTER + INTRA:          -6.972
REMARK INTER:                  -7.777
REMARK INTRA:                   0.805
REMARK UNBOUND:                -0.397
REMARK SMILES COc1ccc(-c2cc(=O)c3c(OC)c(OC)c(OC)c(OC)c3o2)cc1
REMARK SMILES IDX 7 1 8 2 9 3 10 4 11 5 24 6 25 7 21 8 18 9 15 10 12 11 6 12
REMARK SMILES IDX 3 13 4 14 27 15 5 16 26 17 2 18 1 19 22 20 23 21 13 22 14 23
REMARK SMILES IDX 19 24 20 25 16 26 17 27
REMARK H PARENT
REMARK Flexibility Score: inf
ROOT
ATOM      1  C   UNL     1     -14.861  13.326  -0.717  1.00  0.00     0.138 A 
ATOM      2  C   UNL     1     -14.896  12.704   0.538  1.00  0.00     0.100 A 
ATOM      3  C   UNL     1     -16.096  12.660   1.247  1.00  0.00     0.197 A 
ATOM      4  O   UNL     1     -16.108  12.121   2.386  1.00  0.00    -0.289 OA
ATOM      5  C   UNL     1     -17.260  13.235   0.690  1.00  0.00     0.115 A 
ATOM      6  C   UNL     1     -17.141  13.864  -0.567  1.00  0.00     0.188 A 
ATOM      7  O   UNL     1     -15.970  13.879  -1.201  1.00  0.00    -0.452 OA
ATOM      8  C   UNL     1     -18.241  14.476  -1.175  1.00  0.00     0.209 A 
ATOM      9  C   UNL     1     -19.497  14.491  -0.515  1.00  0.00     0.211 A 
ATOM     10  C   UNL     1     -19.620  13.889   0.767  1.00  0.00     0.208 A 
ATOM     11  C   UNL     1     -18.516  13.208   1.332  1.00  0.00     0.179 A 
ENDROOT
BRANCH   1  12
ATOM     12  C   UNL     1     -13.615  13.402  -1.522  1.00  0.00     0.018 A 
ATOM     13  C   UNL     1     -11.232  13.599  -3.025  1.00  0.00     0.118 A 
ATOM     14  C   UNL     1     -12.354  12.957  -3.558  1.00  0.00     0.047 A 
ATOM     15  C   UNL     1     -11.308  14.154  -1.734  1.00  0.00     0.047 A 
ATOM     16  C   UNL     1     -13.537  12.860  -2.820  1.00  0.00     0.016 A 
ATOM     17  C   UNL     1     -12.491  14.060  -0.995  1.00  0.00     0.016 A 
BRANCH  13  18
ATOM     18  O   UNL     1     -10.068  13.666  -3.807  1.00  0.00    -0.497 OA
ATOM     19  C   UNL     1      -9.955  13.140  -5.125  1.00  0.00     0.278 C 
ENDBRANCH  13  18
ENDBRANCH   1  12
BRANCH   8  20
ATOM     20  O   UNL     1     -18.010  15.058  -2.438  1.00  0.00    -0.490 OA
ATOM     21  C   UNL     1     -18.064  14.412  -3.706  1.00  0.00     0.278 C 
ENDBRANCH   8  20
BRANCH  11  22
ATOM     22  O   UNL     1     -18.680  12.474   2.509  1.00  0.00    -0.492 OA
ATOM     23  C   UNL     1     -18.745  13.122   3.775  1.00  0.00     0.278 C 
ENDBRANCH  11  22
BRANCH   9  24
ATOM     24  O   UNL     1     -20.579  15.119  -1.162  1.00  0.00    -0.490 OA
ATOM     25  C   UNL     1     -20.618  15.626  -2.493  1.00  0.00     0.279 C 
ENDBRANCH   9  24
BRANCH  10  26
ATOM     26  O   UNL     1     -20.844  13.991   1.450  1.00  0.00    -0.490 OA
ATOM     27  C   UNL     1     -21.278  15.109   2.219  1.00  0.00     0.278 C 
ENDBRANCH  10  26
TORSDOF 6
ENDMDL
MODEL 5
REMARK VINA RESULT:    -4.616      1.056      1.118
REMARK INTER + INTRA:          -6.632
REMARK INTER:                  -6.134
REMARK INTRA:                  -0.498
REMARK UNBOUND:                -0.397
REMARK SMILES COc1ccc(-c2cc(=O)c3c(OC)c(OC)c(OC)c(OC)c3o2)cc1
REMARK SMILES IDX 7 1 8 2 9 3 10 4 11 5 24 6 25 7 21 8 18 9 15 10 12 11 6 12
REMARK SMILES IDX 3 13 4 14 27 15 5 16 26 17 2 18 1 19 22 20 23 21 13 22 14 23
REMARK SMILES IDX 19 24 20 25 16 26 17 27
REMARK H PARENT
REMARK Flexibility Score: inf
ROOT
ATOM      1  C   UNL     1     -17.768  13.029  -0.258  1.00  0.00     0.138 A 
ATOM      2  C   UNL     1     -18.466  12.449  -1.325  1.00  0.00     0.100 A 
ATOM      3  C   UNL     1     -17.781  12.121  -2.494  1.00  0.00     0.197 A 
ATOM      4  O   UNL     1     -18.426  11.623  -3.456  1.00  0.00    -0.289 OA
ATOM      5  C   UNL     1     -16.393  12.371  -2.586  1.00  0.00     0.115 A 
ATOM      6  C   UNL     1     -15.765  12.979  -1.480  1.00  0.00     0.188 A 
ATOM      7  O   UNL     1     -16.467  13.273  -0.388  1.00  0.00    -0.452 OA
ATOM      8  C   UNL     1     -14.399  13.279  -1.501  1.00  0.00     0.209 A 
ATOM      9  C   UNL     1     -13.630  12.993  -2.658  1.00  0.00     0.211 A 
ATOM     10  C   UNL     1     -14.260  12.410  -3.791  1.00  0.00     0.208 A 
ATOM     11  C   UNL     1     -15.625  12.043  -3.723  1.00  0.00     0.179 A 
ENDROOT
BRANCH   1  12
ATOM     12  C   UNL     1     -18.441  13.398   1.014  1.00  0.00     0.018 A 
ATOM     13  C   UNL     1     -19.747  14.045   3.433  1.00  0.00     0.118 A 
ATOM     14  C   UNL     1     -19.411  15.049   2.519  1.00  0.00     0.047 A 
ATOM     15  C   UNL     1     -19.435  12.708   3.128  1.00  0.00     0.047 A 
ATOM     16  C   UNL     1     -18.768  14.733   1.319  1.00  0.00     0.016 A 
ATOM     17  C   UNL     1     -18.793  12.390   1.928  1.00  0.00     0.016 A 
BRANCH  13  18
ATOM     18  O   UNL     1     -20.390  14.416   4.624  1.00  0.00    -0.497 OA
ATOM     19  C   UNL     1     -20.072  13.887   5.907  1.00  0.00     0.278 C 
ENDBRANCH  13  18
ENDBRANCH   1  12
BRANCH   8  20
ATOM     20  O   UNL     1     -13.874  13.870  -0.334  1.00  0.00    -0.490 OA
ATOM     21  C   UNL     1     -13.775  15.260  -0.043  1.00  0.00     0.278 C 
ENDBRANCH   8  20
BRANCH  11  22
ATOM     22  O   UNL     1     -16.204  11.320  -4.769  1.00  0.00    -0.492 OA
ATOM     23  C   UNL     1     -15.973   9.923  -4.912  1.00  0.00     0.278 C 
ENDBRANCH  11  22
BRANCH   9  24
ATOM     24  O   UNL     1     -12.258  13.312  -2.638  1.00  0.00    -0.490 OA
ATOM     25  C   UNL     1     -11.225  12.657  -1.908  1.00  0.00     0.279 C 
ENDBRANCH   9  24
BRANCH  10  26
ATOM     26  O   UNL     1     -13.508  12.216  -4.963  1.00  0.00    -0.490 OA
ATOM     27  C   UNL     1     -12.448  11.279  -5.125  1.00  0.00     0.278 C 
ENDBRANCH  10  26
TORSDOF 6
ENDMDL
MODEL 6
REMARK VINA RESULT:    -4.545      1.478      3.724
REMARK INTER + INTRA:          -6.536
REMARK INTER:                  -6.706
REMARK INTRA:                   0.170
REMARK UNBOUND:                -0.397
REMARK SMILES COc1ccc(-c2cc(=O)c3c(OC)c(OC)c(OC)c(OC)c3o2)cc1
REMARK SMILES IDX 7 1 8 2 9 3 10 4 11 5 24 6 25 7 21 8 18 9 15 10 12 11 6 12
REMARK SMILES IDX 3 13 4 14 27 15 5 16 26 17 2 18 1 19 22 20 23 21 13 22 14 23
REMARK SMILES IDX 19 24 20 25 16 26 17 27
REMARK H PARENT
REMARK Flexibility Score: inf
ROOT
ATOM      1  C   UNL     1     -16.966  13.490   0.408  1.00  0.00     0.138 A 
ATOM      2  C   UNL     1     -15.648  13.954   0.516  1.00  0.00     0.100 A 
ATOM      3  C   UNL     1     -14.771  13.782  -0.554  1.00  0.00     0.197 A 
ATOM      4  O   UNL     1     -13.581  14.180  -0.433  1.00  0.00    -0.289 OA
ATOM      5  C   UNL     1     -15.223  13.149  -1.734  1.00  0.00     0.115 A 
ATOM      6  C   UNL     1     -16.555  12.688  -1.760  1.00  0.00     0.188 A 
ATOM      7  O   UNL     1     -17.350  12.878  -0.708  1.00  0.00    -0.452 OA
ATOM      8  C   UNL     1     -17.071  12.033  -2.882  1.00  0.00     0.209 A 
ATOM      9  C   UNL     1     -16.241  11.802  -4.010  1.00  0.00     0.211 A 
ATOM     10  C   UNL     1     -14.887  12.233  -3.982  1.00  0.00     0.208 A 
ATOM     11  C   UNL     1     -14.406  12.962  -2.869  1.00  0.00     0.179 A 
ENDROOT
BRANCH   1  12
ATOM     12  C   UNL     1     -17.948  13.647   1.511  1.00  0.00     0.018 A 
ATOM     13  C   UNL     1     -19.812  13.885   3.620  1.00  0.00     0.118 A 
ATOM     14  C   UNL     1     -19.846  14.773   2.539  1.00  0.00     0.047 A 
ATOM     15  C   UNL     1     -18.843  12.865   3.638  1.00  0.00     0.047 A 
ATOM     16  C   UNL     1     -18.929  14.657   1.492  1.00  0.00     0.016 A 
ATOM     17  C   UNL     1     -17.925  12.747   2.590  1.00  0.00     0.016 A 
BRANCH  13  18
ATOM     18  O   UNL     1     -20.755  14.047   4.646  1.00  0.00    -0.497 OA
ATOM     19  C   UNL     1     -20.434  14.079   6.033  1.00  0.00     0.278 C 
ENDBRANCH  13  18
ENDBRANCH   1  12
BRANCH   8  20
ATOM     20  O   UNL     1     -18.420  11.632  -2.803  1.00  0.00    -0.490 OA
ATOM     21  C   UNL     1     -19.521  12.167  -3.530  1.00  0.00     0.278 C 
ENDBRANCH   8  20
BRANCH  11  22
ATOM     22  O   UNL     1     -13.130  13.531  -2.909  1.00  0.00    -0.492 OA
ATOM     23  C   UNL     1     -11.969  12.748  -2.656  1.00  0.00     0.278 C 
ENDBRANCH  11  22
BRANCH   9  24
ATOM     24  O   UNL     1     -16.801  11.138  -5.119  1.00  0.00    -0.490 OA
ATOM     25  C   UNL     1     -17.502   9.898  -5.125  1.00  0.00     0.279 C 
ENDBRANCH   9  24
BRANCH  10  26
ATOM     26  O   UNL     1     -14.051  11.917  -5.067  1.00  0.00    -0.490 OA
ATOM     27  C   UNL     1     -13.138  10.825  -5.124  1.00  0.00     0.278 C 
ENDBRANCH  10  26
TORSDOF 6
ENDMDL
MODEL 7
REMARK VINA RESULT:    -3.893      1.871      7.822
REMARK INTER + INTRA:          -5.656
REMARK INTER:                  -6.444
REMARK INTRA:                   0.788
REMARK UNBOUND:                -0.397
REMARK SMILES COc1ccc(-c2cc(=O)c3c(OC)c(OC)c(OC)c(OC)c3o2)cc1
REMARK SMILES IDX 7 1 8 2 9 3 10 4 11 5 24 6 25 7 21 8 18 9 15 10 12 11 6 12
REMARK SMILES IDX 3 13 4 14 27 15 5 16 26 17 2 18 1 19 22 20 23 21 13 22 14 23
REMARK SMILES IDX 19 24 20 25 16 26 17 27
REMARK H PARENT
REMARK Flexibility Score: inf
ROOT
ATOM      1  C   UNL     1     -16.565  13.106  -1.774  1.00  0.00     0.138 A 
ATOM      2  C   UNL     1     -17.736  13.675  -2.294  1.00  0.00     0.100 A 
ATOM      3  C   UNL     1     -18.825  13.892  -1.451  1.00  0.00     0.197 A 
ATOM      4  O   UNL     1     -19.880  14.381  -1.937  1.00  0.00    -0.289 OA
ATOM      5  C   UNL     1     -18.733  13.541  -0.085  1.00  0.00     0.115 A 
ATOM      6  C   UNL     1     -17.532  12.951   0.359  1.00  0.00     0.188 A 
ATOM      7  O   UNL     1     -16.523  12.765  -0.489  1.00  0.00    -0.452 OA
ATOM      8  C   UNL     1     -17.372  12.556   1.691  1.00  0.00     0.209 A 
ATOM      9  C   UNL     1     -18.437  12.726   2.613  1.00  0.00     0.211 A 
ATOM     10  C   UNL     1     -19.663  13.289   2.168  1.00  0.00     0.208 A 
ATOM     11  C   UNL     1     -19.780  13.754   0.836  1.00  0.00     0.179 A 
ENDROOT
BRANCH   1  12
ATOM     12  C   UNL     1     -15.371  12.853  -2.620  1.00  0.00     0.018 A 
ATOM     13  C   UNL     1     -13.073  12.422  -4.205  1.00  0.00     0.118 A 
ATOM     14  C   UNL     1     -14.334  12.025  -4.662  1.00  0.00     0.047 A 
ATOM     15  C   UNL     1     -12.965  13.048  -2.950  1.00  0.00     0.047 A 
ATOM     16  C   UNL     1     -15.474  12.240  -3.884  1.00  0.00     0.016 A 
ATOM     17  C   UNL     1     -14.105  13.265  -2.170  1.00  0.00     0.016 A 
BRANCH  13  18
ATOM     18  O   UNL     1     -11.960  12.181  -5.025  1.00  0.00    -0.497 OA
ATOM     19  C   UNL     1     -11.142  11.018  -4.947  1.00  0.00     0.278 C 
ENDBRANCH  13  18
ENDBRANCH   1  12
BRANCH   8  20
ATOM     20  O   UNL     1     -16.123  11.993   2.027  1.00  0.00    -0.490 OA
ATOM     21  C   UNL     1     -14.851  12.339   1.490  1.00  0.00     0.278 C 
ENDBRANCH   8  20
BRANCH  11  22
ATOM     22  O   UNL     1     -20.921  14.458   0.443  1.00  0.00    -0.492 OA
ATOM     23  C   UNL     1     -21.454  15.501   1.251  1.00  0.00     0.278 C 
ENDBRANCH  11  22
BRANCH   9  24
ATOM     24  O   UNL     1     -18.232  12.313   3.944  1.00  0.00    -0.490 OA
ATOM     25  C   UNL     1     -17.550  13.018   4.976  1.00  0.00     0.279 C 
ENDBRANCH   9  24
BRANCH  10  26
ATOM     26  O   UNL     1     -20.741  13.367   3.067  1.00  0.00    -0.490 OA
ATOM     27  C   UNL     1     -20.796  14.189   4.230  1.00  0.00     0.278 C 
ENDBRANCH  10  26
TORSDOF 6
ENDMDL
MODEL 8
REMARK VINA RESULT:    -2.658      4.075      5.190
REMARK INTER + INTRA:          -3.987
REMARK INTER:                  -3.928
REMARK INTRA:                  -0.059
REMARK UNBOUND:                -0.397
REMARK SMILES COc1ccc(-c2cc(=O)c3c(OC)c(OC)c(OC)c(OC)c3o2)cc1
REMARK SMILES IDX 7 1 8 2 9 3 10 4 11 5 24 6 25 7 21 8 18 9 15 10 12 11 6 12
REMARK SMILES IDX 3 13 4 14 27 15 5 16 26 17 2 18 1 19 22 20 23 21 13 22 14 23
REMARK SMILES IDX 19 24 20 25 16 26 17 27
REMARK H PARENT
REMARK Flexibility Score: inf
ROOT
ATOM      1  C   UNL     1     -18.028  12.757   1.494  1.00  0.00     0.138 A 
ATOM      2  C   UNL     1     -17.862  11.426   1.087  1.00  0.00     0.100 A 
ATOM      3  C   UNL     1     -18.107  11.080  -0.241  1.00  0.00     0.197 A 
ATOM      4  O   UNL     1     -17.979   9.875  -0.587  1.00  0.00    -0.289 OA
ATOM      5  C   UNL     1     -18.512  12.074  -1.160  1.00  0.00     0.115 A 
ATOM      6  C   UNL     1     -18.681  13.386  -0.671  1.00  0.00     0.188 A 
ATOM      7  O   UNL     1     -18.434  13.662   0.608  1.00  0.00    -0.452 OA
ATOM      8  C   UNL     1     -19.101  14.421  -1.512  1.00  0.00     0.209 A 
ATOM      9  C   UNL     1     -19.388  14.152  -2.876  1.00  0.00     0.211 A 
ATOM     10  C   UNL     1     -19.253  12.827  -3.371  1.00  0.00     0.208 A 
ATOM     11  C   UNL     1     -18.753  11.809  -2.524  1.00  0.00     0.179 A 
ENDROOT
BRANCH   1  12
ATOM     12  C   UNL     1     -17.779  13.189   2.893  1.00  0.00     0.018 A 
ATOM     13  C   UNL     1     -17.307  13.952   5.571  1.00  0.00     0.118 A 
ATOM     14  C   UNL     1     -17.998  14.803   4.703  1.00  0.00     0.047 A 
ATOM     15  C   UNL     1     -16.858  12.705   5.096  1.00  0.00     0.047 A 
ATOM     16  C   UNL     1     -18.237  14.428   3.379  1.00  0.00     0.016 A 
ATOM     17  C   UNL     1     -17.098  12.329   3.771  1.00  0.00     0.016 A 
BRANCH  13  18
ATOM     18  O   UNL     1     -17.091  14.377   6.891  1.00  0.00    -0.497 OA
ATOM     19  C   UNL     1     -15.816  14.419   7.523  1.00  0.00     0.278 C 
ENDBRANCH  13  18
ENDBRANCH   1  12
BRANCH   8  20
ATOM     20  O   UNL     1     -19.218  15.695  -0.921  1.00  0.00    -0.490 OA
ATOM     21  C   UNL     1     -18.352  16.810  -1.099  1.00  0.00     0.278 C 
ENDBRANCH   8  20
BRANCH  11  22
ATOM     22  O   UNL     1     -18.461  10.548  -3.050  1.00  0.00    -0.492 OA
ATOM     23  C   UNL     1     -17.476  10.386  -4.064  1.00  0.00     0.278 C 
ENDBRANCH  11  22
BRANCH   9  24
ATOM     24  O   UNL     1     -19.809  15.223  -3.688  1.00  0.00    -0.490 OA
ATOM     25  C   UNL     1     -18.994  16.099  -4.462  1.00  0.00     0.279 C 
ENDBRANCH   9  24
BRANCH  10  26
ATOM     26  O   UNL     1     -19.628  12.556  -4.698  1.00  0.00    -0.490 OA
ATOM     27  C   UNL     1     -20.463  11.483  -5.125  1.00  0.00     0.278 C 
ENDBRANCH  10  26
TORSDOF 6
ENDMDL
