MODEL 1
REMARK VINA RESULT:    -2.023      0.000      0.000
REMARK INTER + INTRA:          -2.821
REMARK INTER:                  -2.496
REMARK INTRA:                  -0.325
REMARK UNBOUND:                -0.325
REMARK SMILES Oc1cc(O)c2cc(O)c(-c3cc(O)c(O)c(O)c3)[o+]c2c1
REMARK SMILES IDX 10 1 20 2 21 3 22 4 2 5 3 6 4 7 6 8 7 9 8 10 11 11 12 12
REMARK SMILES IDX 13 13 19 14 15 15 17 16 14 17 16 19 18 21 9 23 1 25 5 27
REMARK H PARENT 14 18 16 20 18 22 9 24 1 26 5 28
REMARK Flexibility Score: inf
ROOT
ATOM      1  C   UNL     1     -13.038 -15.670  32.257  1.00  0.00     0.402 A 
ATOM      2  O   UNL     1     -12.043 -15.698  33.140  1.00  0.00    -0.202 OA
ATOM      3  C   UNL     1     -12.073 -15.042  34.295  1.00  0.00     0.368 A 
ATOM      4  C   UNL     1     -10.977 -15.133  35.157  1.00  0.00     0.162 A 
ATOM      5  C   UNL     1     -10.979 -14.453  36.375  1.00  0.00     0.128 A 
ATOM      6  C   UNL     1     -12.084 -13.674  36.735  1.00  0.00     0.093 A 
ATOM      7  C   UNL     1     -13.196 -13.566  35.890  1.00  0.00     0.136 A 
ATOM      8  C   UNL     1     -13.197 -14.260  34.650  1.00  0.00     0.125 A 
ATOM      9  C   UNL     1     -14.271 -14.221  33.746  1.00  0.00     0.078 A 
ATOM     10  C   UNL     1     -14.203 -14.935  32.546  1.00  0.00     0.223 A 
ENDROOT
BRANCH   1  11
ATOM     11  C   UNL     1     -12.882 -16.436  30.999  1.00  0.00     0.091 A 
ATOM     12  C   UNL     1     -12.897 -17.838  31.040  1.00  0.00     0.068 A 
ATOM     13  C   UNL     1     -12.732 -18.588  29.867  1.00  0.00     0.162 A 
ATOM     14  C   UNL     1     -12.661 -15.789  29.771  1.00  0.00     0.068 A 
ATOM     15  C   UNL     1     -12.533 -17.938  28.643  1.00  0.00     0.200 A 
ATOM     16  C   UNL     1     -12.493 -16.534  28.594  1.00  0.00     0.162 A 
BRANCH  13  17
ATOM     17  O   UNL     1     -12.764 -19.980  29.911  1.00  0.00    -0.504 OA
ATOM     18  H   UNL     1     -13.322 -20.520  29.260  1.00  0.00     0.293 HD
ENDBRANCH  13  17
BRANCH  15  19
ATOM     19  O   UNL     1     -12.373 -18.700  27.485  1.00  0.00    -0.502 OA
ATOM     20  H   UNL     1     -11.576 -18.584  26.870  1.00  0.00     0.293 HD
ENDBRANCH  15  19
BRANCH  16  21
ATOM     21  O   UNL     1     -12.280 -15.883  27.380  1.00  0.00    -0.504 OA
ATOM     22  H   UNL     1     -11.386 -15.927  26.903  1.00  0.00     0.293 HD
ENDBRANCH  16  21
ENDBRANCH   1  11
BRANCH  10  23
ATOM     23  O   UNL     1     -15.289 -14.937  31.671  1.00  0.00    -0.500 OA
ATOM     24  H   UNL     1     -15.582 -15.776  31.186  1.00  0.00     0.294 HD
ENDBRANCH  10  23
BRANCH   5  25
ATOM     25  O   UNL     1      -9.877 -14.555  37.220  1.00  0.00    -0.507 OA
ATOM     26  H   UNL     1      -9.972 -14.475  38.226  1.00  0.00     0.293 HD
ENDBRANCH   5  25
BRANCH   7  27
ATOM     27  O   UNL     1     -14.258 -12.767  36.320  1.00  0.00    -0.507 OA
ATOM     28  H   UNL     1     -15.137 -12.676  35.833  1.00  0.00     0.293 HD
ENDBRANCH   7  27
TORSDOF 7
ENDMDL
MODEL 2
REMARK VINA RESULT:    -1.834      0.132      1.792
REMARK INTER + INTRA:          -2.588
REMARK INTER:                  -2.314
REMARK INTRA:                  -0.274
REMARK UNBOUND:                -0.325
REMARK SMILES Oc1cc(O)c2cc(O)c(-c3cc(O)c(O)c(O)c3)[o+]c2c1
REMARK SMILES IDX 10 1 20 2 21 3 22 4 2 5 3 6 4 7 6 8 7 9 8 10 11 11 12 12
REMARK SMILES IDX 13 13 19 14 15 15 17 16 14 17 16 19 18 21 9 23 1 25 5 27
REMARK H PARENT 14 18 16 20 18 22 9 24 1 26 5 28
REMARK Flexibility Score: inf
ROOT
ATOM      1  C   UNL     1     -13.038 -15.662  32.372  1.00  0.00     0.402 A 
ATOM      2  O   UNL     1     -12.040 -15.671  33.253  1.00  0.00    -0.202 OA
ATOM      3  C   UNL     1     -12.074 -15.004  34.402  1.00  0.00     0.368 A 
ATOM      4  C   UNL     1     -10.975 -15.074  35.261  1.00  0.00     0.162 A 
ATOM      5  C   UNL     1     -10.981 -14.383  36.472  1.00  0.00     0.128 A 
ATOM      6  C   UNL     1     -12.094 -13.613  36.829  1.00  0.00     0.093 A 
ATOM      7  C   UNL     1     -13.209 -13.526  35.986  1.00  0.00     0.136 A 
ATOM      8  C   UNL     1     -13.206 -14.231  34.753  1.00  0.00     0.125 A 
ATOM      9  C   UNL     1     -14.283 -14.214  33.852  1.00  0.00     0.078 A 
ATOM     10  C   UNL     1     -14.210 -14.938  32.658  1.00  0.00     0.223 A 
ENDROOT
BRANCH   1  11
ATOM     11  C   UNL     1     -12.877 -16.437  31.121  1.00  0.00     0.091 A 
ATOM     12  C   UNL     1     -12.764 -15.758  29.898  1.00  0.00     0.068 A 
ATOM     13  C   UNL     1     -12.631 -16.469  28.697  1.00  0.00     0.162 A 
ATOM     14  C   UNL     1     -12.891 -17.843  31.125  1.00  0.00     0.068 A 
ATOM     15  C   UNL     1     -12.625 -17.869  28.709  1.00  0.00     0.200 A 
ATOM     16  C   UNL     1     -12.760 -18.559  29.926  1.00  0.00     0.162 A 
BRANCH  13  17
ATOM     17  O   UNL     1     -12.505 -15.789  27.488  1.00  0.00    -0.504 OA
ATOM     18  H   UNL     1     -13.153 -15.057  27.219  1.00  0.00     0.293 HD
ENDBRANCH  13  17
BRANCH  15  19
ATOM     19  O   UNL     1     -12.489 -18.560  27.504  1.00  0.00    -0.502 OA
ATOM     20  H   UNL     1     -12.182 -18.103  26.654  1.00  0.00     0.293 HD
ENDBRANCH  15  19
BRANCH  16  21
ATOM     21  O   UNL     1     -12.770 -19.953  29.940  1.00  0.00    -0.504 OA
ATOM     22  H   UNL     1     -12.612 -20.477  30.794  1.00  0.00     0.293 HD
ENDBRANCH  16  21
ENDBRANCH   1  11
BRANCH  10  23
ATOM     23  O   UNL     1     -15.299 -14.960  31.786  1.00  0.00    -0.500 OA
ATOM     24  H   UNL     1     -16.086 -15.580  31.932  1.00  0.00     0.294 HD
ENDBRANCH  10  23
BRANCH   5  25
ATOM     25  O   UNL     1      -9.875 -14.465  37.316  1.00  0.00    -0.507 OA
ATOM     26  H   UNL     1      -9.078 -15.047  37.088  1.00  0.00     0.293 HD
ENDBRANCH   5  25
BRANCH   7  27
ATOM     27  O   UNL     1     -14.279 -12.735  36.412  1.00  0.00    -0.507 OA
ATOM     28  H   UNL     1     -15.242 -13.039  36.428  1.00  0.00     0.293 HD
ENDBRANCH   7  27
TORSDOF 7
ENDMDL
MODEL 3
REMARK VINA RESULT:     0.677      1.351      7.043
REMARK INTER + INTRA:           0.511
REMARK INTER:                   0.777
REMARK INTRA:                  -0.266
REMARK UNBOUND:                -0.325
REMARK SMILES Oc1cc(O)c2cc(O)c(-c3cc(O)c(O)c(O)c3)[o+]c2c1
REMARK SMILES IDX 10 1 20 2 21 3 22 4 2 5 3 6 4 7 6 8 7 9 8 10 11 11 12 12
REMARK SMILES IDX 13 13 19 14 15 15 17 16 14 17 16 19 18 21 9 23 1 25 5 27
REMARK H PARENT 14 18 16 20 18 22 9 24 1 26 5 28
REMARK Flexibility Score: inf
ROOT
ATOM      1  C   UNL     1     -12.565 -16.008  32.526  1.00  0.00     0.402 A 
ATOM      2  O   UNL     1     -11.788 -15.777  31.470  1.00  0.00    -0.202 OA
ATOM      3  C   UNL     1     -11.875 -16.464  30.336  1.00  0.00     0.368 A 
ATOM      4  C   UNL     1     -11.013 -16.147  29.283  1.00  0.00     0.162 A 
ATOM      5  C   UNL     1     -11.079 -16.853  28.082  1.00  0.00     0.128 A 
ATOM      6  C   UNL     1     -12.011 -17.886  27.931  1.00  0.00     0.093 A 
ATOM      7  C   UNL     1     -12.886 -18.223  28.971  1.00  0.00     0.136 A 
ATOM      8  C   UNL     1     -12.823 -17.504  30.194  1.00  0.00     0.125 A 
ATOM      9  C   UNL     1     -13.668 -17.763  31.285  1.00  0.00     0.078 A 
ATOM     10  C   UNL     1     -13.551 -17.010  32.456  1.00  0.00     0.223 A 
ENDROOT
BRANCH   1  11
ATOM     11  C   UNL     1     -12.366 -15.181  33.738  1.00  0.00     0.091 A 
ATOM     12  C   UNL     1     -11.223 -15.378  34.527  1.00  0.00     0.068 A 
ATOM     13  C   UNL     1     -11.020 -14.622  35.690  1.00  0.00     0.162 A 
ATOM     14  C   UNL     1     -13.327 -14.241  34.148  1.00  0.00     0.068 A 
ATOM     15  C   UNL     1     -11.971 -13.672  36.082  1.00  0.00     0.200 A 
ATOM     16  C   UNL     1     -13.130 -13.483  35.312  1.00  0.00     0.162 A 
BRANCH  13  17
ATOM     17  O   UNL     1      -9.875 -14.811  36.462  1.00  0.00    -0.504 OA
ATOM     18  H   UNL     1      -9.084 -14.180  36.402  1.00  0.00     0.293 HD
ENDBRANCH  13  17
BRANCH  15  19
ATOM     19  O   UNL     1     -11.751 -12.927  37.242  1.00  0.00    -0.502 OA
ATOM     20  H   UNL     1     -11.645 -11.920  37.222  1.00  0.00     0.293 HD
ENDBRANCH  15  19
BRANCH  16  21
ATOM     21  O   UNL     1     -14.087 -12.549  35.707  1.00  0.00    -0.504 OA
ATOM     22  H   UNL     1     -14.414 -11.825  35.077  1.00  0.00     0.293 HD
ENDBRANCH  16  21
ENDBRANCH   1  11
BRANCH  10  23
ATOM     23  O   UNL     1     -14.423 -17.234  33.522  1.00  0.00    -0.500 OA
ATOM     24  H   UNL     1     -14.268 -17.979  34.190  1.00  0.00     0.294 HD
ENDBRANCH  10  23
BRANCH   5  25
ATOM     25  O   UNL     1     -10.211 -16.523  27.043  1.00  0.00    -0.507 OA
ATOM     26  H   UNL     1     -10.271 -15.631  26.566  1.00  0.00     0.293 HD
ENDBRANCH   5  25
BRANCH   7  27
ATOM     27  O   UNL     1     -13.785 -19.267  28.743  1.00  0.00    -0.507 OA
ATOM     28  H   UNL     1     -14.642 -19.178  28.217  1.00  0.00     0.293 HD
ENDBRANCH   7  27
TORSDOF 7
ENDMDL
MODEL 4
REMARK VINA RESULT:     0.874      1.367      7.128
REMARK INTER + INTRA:           0.753
REMARK INTER:                   1.028
REMARK INTRA:                  -0.275
REMARK UNBOUND:                -0.325
REMARK SMILES Oc1cc(O)c2cc(O)c(-c3cc(O)c(O)c(O)c3)[o+]c2c1
REMARK SMILES IDX 10 1 20 2 21 3 22 4 2 5 3 6 4 7 6 8 7 9 8 10 11 11 12 12
REMARK SMILES IDX 13 13 19 14 15 15 17 16 14 17 16 19 18 21 9 23 1 25 5 27
REMARK H PARENT 14 18 16 20 18 22 9 24 1 26 5 28
REMARK Flexibility Score: inf
ROOT
ATOM      1  C   UNL     1     -12.533 -16.011  32.588  1.00  0.00     0.402 A 
ATOM      2  O   UNL     1     -11.741 -15.783  31.543  1.00  0.00    -0.202 OA
ATOM      3  C   UNL     1     -11.828 -16.456  30.400  1.00  0.00     0.368 A 
ATOM      4  C   UNL     1     -10.949 -16.144  29.360  1.00  0.00     0.162 A 
ATOM      5  C   UNL     1     -11.015 -16.836  28.150  1.00  0.00     0.128 A 
ATOM      6  C   UNL     1     -11.965 -17.849  27.978  1.00  0.00     0.093 A 
ATOM      7  C   UNL     1     -12.858 -18.180  29.005  1.00  0.00     0.136 A 
ATOM      8  C   UNL     1     -12.795 -17.476  30.236  1.00  0.00     0.125 A 
ATOM      9  C   UNL     1     -13.656 -17.730  31.315  1.00  0.00     0.078 A 
ATOM     10  C   UNL     1     -13.538 -16.992  32.496  1.00  0.00     0.223 A 
ENDROOT
BRANCH   1  11
ATOM     11  C   UNL     1     -12.331 -15.201  33.810  1.00  0.00     0.091 A 
ATOM     12  C   UNL     1     -13.269 -14.211  34.144  1.00  0.00     0.068 A 
ATOM     13  C   UNL     1     -13.092 -13.416  35.285  1.00  0.00     0.162 A 
ATOM     14  C   UNL     1     -11.191 -15.361  34.615  1.00  0.00     0.068 A 
ATOM     15  C   UNL     1     -11.964 -13.596  36.095  1.00  0.00     0.200 A 
ATOM     16  C   UNL     1     -11.007 -14.568  35.757  1.00  0.00     0.162 A 
BRANCH  13  17
ATOM     17  O   UNL     1     -14.034 -12.446  35.620  1.00  0.00    -0.504 OA
ATOM     18  H   UNL     1     -14.983 -12.693  35.877  1.00  0.00     0.293 HD
ENDBRANCH  13  17
BRANCH  15  19
ATOM     19  O   UNL     1     -11.805 -12.797  37.229  1.00  0.00    -0.502 OA
ATOM     20  H   UNL     1     -11.130 -13.016  37.951  1.00  0.00     0.293 HD
ENDBRANCH  15  19
BRANCH  16  21
ATOM     21  O   UNL     1      -9.875 -14.739  36.553  1.00  0.00    -0.504 OA
ATOM     22  H   UNL     1      -9.466 -13.967  37.067  1.00  0.00     0.293 HD
ENDBRANCH  16  21
ENDBRANCH   1  11
BRANCH  10  23
ATOM     23  O   UNL     1     -14.425 -17.210  33.550  1.00  0.00    -0.500 OA
ATOM     24  H   UNL     1     -15.397 -17.446  33.389  1.00  0.00     0.294 HD
ENDBRANCH  10  23
BRANCH   5  25
ATOM     25  O   UNL     1     -10.130 -16.511  27.124  1.00  0.00    -0.507 OA
ATOM     26  H   UNL     1     -10.442 -16.035  26.286  1.00  0.00     0.293 HD
ENDBRANCH   5  25
BRANCH   7  27
ATOM     27  O   UNL     1     -13.775 -19.204  28.756  1.00  0.00    -0.507 OA
ATOM     28  H   UNL     1     -13.697 -19.868  27.999  1.00  0.00     0.293 HD
ENDBRANCH   7  27
TORSDOF 7
ENDMDL
MODEL 5
REMARK VINA RESULT:     0.943      2.004      7.560
REMARK INTER + INTRA:           0.838
REMARK INTER:                   0.671
REMARK INTRA:                   0.167
REMARK UNBOUND:                -0.325
REMARK SMILES Oc1cc(O)c2cc(O)c(-c3cc(O)c(O)c(O)c3)[o+]c2c1
REMARK SMILES IDX 10 1 20 2 21 3 22 4 2 5 3 6 4 7 6 8 7 9 8 10 11 11 12 12
REMARK SMILES IDX 13 13 19 14 15 15 17 16 14 17 16 19 18 21 9 23 1 25 5 27
REMARK H PARENT 14 18 16 20 18 22 9 24 1 26 5 28
REMARK Flexibility Score: inf
ROOT
ATOM      1  C   UNL     1     -11.747 -16.054  30.903  1.00  0.00     0.402 A 
ATOM      2  O   UNL     1     -12.599 -15.607  29.984  1.00  0.00    -0.202 OA
ATOM      3  C   UNL     1     -12.543 -15.960  28.704  1.00  0.00     0.368 A 
ATOM      4  C   UNL     1     -13.482 -15.434  27.812  1.00  0.00     0.162 A 
ATOM      5  C   UNL     1     -13.446 -15.785  26.463  1.00  0.00     0.128 A 
ATOM      6  C   UNL     1     -12.463 -16.666  25.998  1.00  0.00     0.093 A 
ATOM      7  C   UNL     1     -11.511 -17.207  26.871  1.00  0.00     0.136 A 
ATOM      8  C   UNL     1     -11.547 -16.854  28.246  1.00  0.00     0.125 A 
ATOM      9  C   UNL     1     -10.642 -17.357  29.195  1.00  0.00     0.078 A 
ATOM     10  C   UNL     1     -10.743 -16.968  30.534  1.00  0.00     0.223 A 
ENDROOT
BRANCH   1  11
ATOM     11  C   UNL     1     -11.907 -15.579  32.297  1.00  0.00     0.091 A 
ATOM     12  C   UNL     1     -13.173 -15.178  32.748  1.00  0.00     0.068 A 
ATOM     13  C   UNL     1     -13.348 -14.706  34.056  1.00  0.00     0.162 A 
ATOM     14  C   UNL     1     -10.805 -15.467  33.162  1.00  0.00     0.068 A 
ATOM     15  C   UNL     1     -12.250 -14.616  34.920  1.00  0.00     0.200 A 
ATOM     16  C   UNL     1     -10.973 -14.993  34.471  1.00  0.00     0.162 A 
BRANCH  13  17
ATOM     17  O   UNL     1     -14.611 -14.323  34.503  1.00  0.00    -0.504 OA
ATOM     18  H   UNL     1     -14.732 -13.767  35.342  1.00  0.00     0.293 HD
ENDBRANCH  13  17
BRANCH  15  19
ATOM     19  O   UNL     1     -12.443 -14.146  36.220  1.00  0.00    -0.502 OA
ATOM     20  H   UNL     1     -13.335 -13.781  36.533  1.00  0.00     0.293 HD
ENDBRANCH  15  19
BRANCH  16  21
ATOM     21  O   UNL     1      -9.875 -14.891  35.324  1.00  0.00    -0.504 OA
ATOM     22  H   UNL     1      -9.030 -14.404  35.046  1.00  0.00     0.293 HD
ENDBRANCH  16  21
ENDBRANCH   1  11
BRANCH  10  23
ATOM     23  O   UNL     1      -9.875 -17.504  31.485  1.00  0.00    -0.500 OA
ATOM     24  H   UNL     1     -10.196 -18.153  32.193  1.00  0.00     0.294 HD
ENDBRANCH  10  23
BRANCH   5  25
ATOM     25  O   UNL     1     -14.390 -15.250  25.589  1.00  0.00    -0.507 OA
ATOM     26  H   UNL     1     -14.226 -15.214  24.590  1.00  0.00     0.293 HD
ENDBRANCH   5  25
BRANCH   7  27
ATOM     27  O   UNL     1     -10.561 -18.077  26.329  1.00  0.00    -0.507 OA
ATOM     28  H   UNL     1     -10.475 -19.052  26.576  1.00  0.00     0.293 HD
ENDBRANCH   7  27
TORSDOF 7
ENDMDL
