MODEL 1
REMARK VINA RESULT:    -4.047      0.000      0.000
REMARK INTER + INTRA:          -4.782
REMARK INTER:                  -4.757
REMARK INTRA:                  -0.025
REMARK UNBOUND:                -0.025
REMARK SMILES CCCCC(=O)[O-]
REMARK SMILES IDX 4 1 5 2 6 3 7 4 3 5 2 6 1 7
REMARK H PARENT
REMARK Flexibility Score: inf
ROOT
ATOM      1  C   UNL     1      35.537   1.179  32.732  1.00  0.00     0.053 C 
ENDROOT
BRANCH   1   2
ATOM      2  C   UNL     1      35.362   0.166  31.641  1.00  0.00     0.041 C 
ATOM      3  O   UNL     1      35.967  -0.936  31.698  1.00  0.00    -0.550 OA
ATOM      4  O   UNL     1      34.505   0.428  30.580  1.00  0.00    -0.550 OA
ENDBRANCH   1   2
BRANCH   1   5
ATOM      5  C   UNL     1      35.052   0.646  34.087  1.00  0.00     0.006 C 
BRANCH   5   6
ATOM      6  C   UNL     1      34.278   1.704  34.884  1.00  0.00    -0.003 C 
ATOM      7  C   UNL     1      32.779   1.416  34.871  1.00  0.00     0.004 C 
ENDBRANCH   5   6
ENDBRANCH   1   5
TORSDOF 3
ENDMDL
MODEL 2
REMARK VINA RESULT:    -4.020     13.522     14.512
REMARK INTER + INTRA:          -4.750
REMARK INTER:                  -4.731
REMARK INTRA:                  -0.019
REMARK UNBOUND:                -0.025
REMARK SMILES CCCCC(=O)[O-]
REMARK SMILES IDX 4 1 5 2 6 3 7 4 3 5 2 6 1 7
REMARK H PARENT
REMARK Flexibility Score: inf
ROOT
ATOM      1  C   UNL     1      21.345  -0.400  26.377  1.00  0.00     0.053 C 
ENDROOT
BRANCH   1   2
ATOM      2  C   UNL     1      22.214   0.670  25.790  1.00  0.00     0.041 C 
ATOM      3  O   UNL     1      21.698   1.719  25.322  1.00  0.00    -0.550 OA
ATOM      4  O   UNL     1      23.596   0.524  25.792  1.00  0.00    -0.550 OA
ENDBRANCH   1   2
BRANCH   1   5
ATOM      5  C   UNL     1      20.763   0.018  27.733  1.00  0.00     0.006 C 
BRANCH   5   6
ATOM      6  C   UNL     1      20.722  -1.146  28.733  1.00  0.00    -0.003 C 
ATOM      7  C   UNL     1      21.579  -0.849  29.960  1.00  0.00     0.004 C 
ENDBRANCH   5   6
ENDBRANCH   1   5
TORSDOF 3
ENDMDL
MODEL 3
REMARK VINA RESULT:    -3.978      2.675      3.872
REMARK INTER + INTRA:          -4.700
REMARK INTER:                  -4.676
REMARK INTRA:                  -0.024
REMARK UNBOUND:                -0.025
REMARK SMILES CCCCC(=O)[O-]
REMARK SMILES IDX 4 1 5 2 6 3 7 4 3 5 2 6 1 7
REMARK H PARENT
REMARK Flexibility Score: inf
ROOT
ATOM      1  C   UNL     1      35.011   0.605  34.210  1.00  0.00     0.053 C 
ENDROOT
BRANCH   1   2
ATOM      2  C   UNL     1      33.944   1.482  34.793  1.00  0.00     0.041 C 
ATOM      3  O   UNL     1      34.246   2.596  35.297  1.00  0.00    -0.550 OA
ATOM      4  O   UNL     1      32.614   1.084  34.747  1.00  0.00    -0.550 OA
ENDBRANCH   1   2
BRANCH   1   5
ATOM      5  C   UNL     1      35.530   1.152  32.874  1.00  0.00     0.006 C 
BRANCH   5   6
ATOM      6  C   UNL     1      35.724   0.044  31.829  1.00  0.00    -0.003 C 
ATOM      7  C   UNL     1      34.691   0.155  30.710  1.00  0.00     0.004 C 
ENDBRANCH   5   6
ENDBRANCH   1   5
TORSDOF 3
ENDMDL
MODEL 4
REMARK VINA RESULT:    -3.972     13.818     14.778
REMARK INTER + INTRA:          -4.694
REMARK INTER:                  -4.672
REMARK INTRA:                  -0.022
REMARK UNBOUND:                -0.025
REMARK SMILES CCCCC(=O)[O-]
REMARK SMILES IDX 4 1 5 2 6 3 7 4 3 5 2 6 1 7
REMARK H PARENT
REMARK Flexibility Score: inf
ROOT
ATOM      1  C   UNL     1      20.618  -0.071  27.988  1.00  0.00     0.053 C 
ENDROOT
BRANCH   1   2
ATOM      2  C   UNL     1      21.024  -1.029  29.066  1.00  0.00     0.041 C 
ATOM      3  O   UNL     1      20.589  -2.210  29.060  1.00  0.00    -0.550 OA
ATOM      4  O   UNL     1      21.911  -0.626  30.057  1.00  0.00    -0.550 OA
ENDBRANCH   1   2
BRANCH   1   5
ATOM      5  C   UNL     1      21.222  -0.452  26.630  1.00  0.00     0.006 C 
BRANCH   5   6
ATOM      6  C   UNL     1      21.734   0.772  25.857  1.00  0.00    -0.003 C 
ATOM      7  C   UNL     1      23.250   0.720  25.685  1.00  0.00     0.004 C 
ENDBRANCH   5   6
ENDBRANCH   1   5
TORSDOF 3
ENDMDL
MODEL 5
REMARK VINA RESULT:    -3.371      6.784      7.440
REMARK INTER + INTRA:          -3.987
REMARK INTER:                  -3.892
REMARK INTRA:                  -0.094
REMARK UNBOUND:                -0.025
REMARK SMILES CCCCC(=O)[O-]
REMARK SMILES IDX 4 1 5 2 6 3 7 4 3 5 2 6 1 7
REMARK H PARENT
REMARK Flexibility Score: inf
ROOT
ATOM      1  C   UNL     1      29.042   1.112  29.170  1.00  0.00     0.053 C 
ENDROOT
BRANCH   1   2
ATOM      2  C   UNL     1      29.829   0.853  30.419  1.00  0.00     0.041 C 
ATOM      3  O   UNL     1      30.985   0.359  30.349  1.00  0.00    -0.550 OA
ATOM      4  O   UNL     1      29.297   1.188  31.659  1.00  0.00    -0.550 OA
ENDBRANCH   1   2
BRANCH   1   5
ATOM      5  C   UNL     1      28.133  -0.070  28.813  1.00  0.00     0.006 C 
BRANCH   5   6
ATOM      6  C   UNL     1      26.652   0.330  28.760  1.00  0.00    -0.003 C 
ATOM      7  C   UNL     1      26.026   0.313  30.152  1.00  0.00     0.004 C 
ENDBRANCH   5   6
ENDBRANCH   1   5
TORSDOF 3
ENDMDL
MODEL 6
REMARK VINA RESULT:    -3.358      6.628      7.654
REMARK INTER + INTRA:          -3.971
REMARK INTER:                  -3.871
REMARK INTRA:                  -0.101
REMARK UNBOUND:                -0.025
REMARK SMILES CCCCC(=O)[O-]
REMARK SMILES IDX 4 1 5 2 6 3 7 4 3 5 2 6 1 7
REMARK H PARENT
REMARK Flexibility Score: inf
ROOT
ATOM      1  C   UNL     1      27.805  -0.193  31.852  1.00  0.00     0.053 C 
ENDROOT
BRANCH   1   2
ATOM      2  C   UNL     1      29.247  -0.009  31.487  1.00  0.00     0.041 C 
ATOM      3  O   UNL     1      30.006   0.669  32.228  1.00  0.00    -0.550 OA
ATOM      4  O   UNL     1      29.759  -0.615  30.347  1.00  0.00    -0.550 OA
ENDBRANCH   1   2
BRANCH   1   5
ATOM      5  C   UNL     1      26.899   0.797  31.108  1.00  0.00     0.006 C 
BRANCH   5   6
ATOM      6  C   UNL     1      26.030   0.106  30.048  1.00  0.00    -0.003 C 
ATOM      7  C   UNL     1      26.535   0.406  28.640  1.00  0.00     0.004 C 
ENDBRANCH   5   6
ENDBRANCH   1   5
TORSDOF 3
ENDMDL
MODEL 7
REMARK VINA RESULT:    -3.354      7.228      7.973
REMARK INTER + INTRA:          -3.967
REMARK INTER:                  -3.885
REMARK INTRA:                  -0.081
REMARK UNBOUND:                -0.025
REMARK SMILES CCCCC(=O)[O-]
REMARK SMILES IDX 4 1 5 2 6 3 7 4 3 5 2 6 1 7
REMARK H PARENT
REMARK Flexibility Score: inf
ROOT
ATOM      1  C   UNL     1      28.327  -0.228  28.852  1.00  0.00     0.053 C 
ENDROOT
BRANCH   1   2
ATOM      2  C   UNL     1      26.856  -0.020  29.048  1.00  0.00     0.041 C 
ATOM      3  O   UNL     1      26.176   0.565  28.164  1.00  0.00    -0.550 OA
ATOM      4  O   UNL     1      26.230  -0.504  30.191  1.00  0.00    -0.550 OA
ENDBRANCH   1   2
BRANCH   1   5
ATOM      5  C   UNL     1      29.141   0.985  29.321  1.00  0.00     0.006 C 
BRANCH   5   6
ATOM      6  C   UNL     1      30.211   0.603  30.354  1.00  0.00    -0.003 C 
ATOM      7  C   UNL     1      29.608   0.475  31.750  1.00  0.00     0.004 C 
ENDBRANCH   5   6
ENDBRANCH   1   5
TORSDOF 3
ENDMDL
MODEL 8
REMARK VINA RESULT:    -3.338      6.866      7.943
REMARK INTER + INTRA:          -3.948
REMARK INTER:                  -3.854
REMARK INTRA:                  -0.094
REMARK UNBOUND:                -0.025
REMARK SMILES CCCCC(=O)[O-]
REMARK SMILES IDX 4 1 5 2 6 3 7 4 3 5 2 6 1 7
REMARK H PARENT
REMARK Flexibility Score: inf
ROOT
ATOM      1  C   UNL     1      27.162   0.951  31.489  1.00  0.00     0.053 C 
ENDROOT
BRANCH   1   2
ATOM      2  C   UNL     1      26.418   0.623  30.230  1.00  0.00     0.041 C 
ATOM      3  O   UNL     1      25.363  -0.064  30.279  1.00  0.00    -0.550 OA
ATOM      4  O   UNL     1      26.869   1.106  29.008  1.00  0.00    -0.550 OA
ENDBRANCH   1   2
BRANCH   1   5
ATOM      5  C   UNL     1      28.238  -0.097  31.803  1.00  0.00     0.006 C 
BRANCH   5   6
ATOM      6  C   UNL     1      29.649   0.507  31.827  1.00  0.00    -0.003 C 
ATOM      7  C   UNL     1      30.269   0.514  30.432  1.00  0.00     0.004 C 
ENDBRANCH   5   6
ENDBRANCH   1   5
TORSDOF 3
ENDMDL
MODEL 9
REMARK VINA RESULT:    -3.131      6.367      7.231
REMARK INTER + INTRA:          -3.706
REMARK INTER:                  -3.595
REMARK INTRA:                  -0.111
REMARK UNBOUND:                -0.025
REMARK SMILES CCCCC(=O)[O-]
REMARK SMILES IDX 4 1 5 2 6 3 7 4 3 5 2 6 1 7
REMARK H PARENT
REMARK Flexibility Score: inf
ROOT
ATOM      1  C   UNL     1      27.969   1.022  31.517  1.00  0.00     0.053 C 
ENDROOT
BRANCH   1   2
ATOM      2  C   UNL     1      28.018   2.371  30.866  1.00  0.00     0.041 C 
ATOM      3  O   UNL     1      28.332   3.387  31.539  1.00  0.00    -0.550 OA
ATOM      4  O   UNL     1      27.751   2.498  29.508  1.00  0.00    -0.550 OA
ENDBRANCH   1   2
BRANCH   1   5
ATOM      5  C   UNL     1      29.372   0.490  31.834  1.00  0.00     0.006 C 
BRANCH   5   6
ATOM      6  C   UNL     1      30.074  -0.074  30.591  1.00  0.00    -0.003 C 
ATOM      7  C   UNL     1      29.275  -1.223  29.981  1.00  0.00     0.004 C 
ENDBRANCH   5   6
ENDBRANCH   1   5
TORSDOF 3
ENDMDL
