MODEL 1
REMARK VINA RESULT:    -4.450      0.000      0.000
REMARK INTER + INTRA:          -4.935
REMARK INTER:                  -4.840
REMARK INTRA:                  -0.094
REMARK UNBOUND:                -0.094
REMARK SMILES C=C(C)[C@@H]1CC=C(C)[C@@H](O)C1
REMARK SMILES IDX 8 1 7 2 6 3 5 4 4 5 11 6 9 7 10 8 2 10 1 11 3 12
REMARK H PARENT 10 9
REMARK Flexibility Score: inf
ROOT
ATOM      1  C   UNL     1     145.063 136.634 146.260  1.00  0.00     0.042 C 
ATOM      2  C   UNL     1     143.869 136.323 147.124  1.00  0.00    -0.049 C 
ATOM      3  C   UNL     1     143.626 135.038 147.462  1.00  0.00    -0.025 C 
ATOM      4  C   UNL     1     142.499 134.624 148.376  1.00  0.00     0.035 C 
ATOM      5  C   UNL     1     141.376 135.674 148.428  1.00  0.00     0.021 C 
ATOM      6  C   UNL     1     141.977 137.071 148.648  1.00  0.00     0.044 C 
ATOM      7  C   UNL     1     142.912 137.446 147.483  1.00  0.00     0.140 C 
ENDROOT
BRANCH   7   8
ATOM      8  O   UNL     1     142.157 137.773 146.345  1.00  0.00    -0.389 OA
ATOM      9  H   UNL     1     141.659 136.953 146.084  1.00  0.00     0.211 HD
ENDBRANCH   7   8
BRANCH   5  10
ATOM     10  C   UNL     1     140.347 135.332 149.497  1.00  0.00    -0.077 C 
ATOM     11  C   UNL     1     140.719 135.238 150.783  1.00  0.00     0.008 C 
ATOM     12  C   UNL     1     138.897 135.102 149.148  1.00  0.00     0.039 C 
ENDBRANCH   5  10
TORSDOF 2
ENDMDL
MODEL 2
REMARK VINA RESULT:    -4.195      2.591      5.497
REMARK INTER + INTRA:          -4.657
REMARK INTER:                  -4.560
REMARK INTRA:                  -0.097
REMARK UNBOUND:                -0.094
REMARK SMILES C=C(C)[C@@H]1CC=C(C)[C@@H](O)C1
REMARK SMILES IDX 8 1 7 2 6 3 5 4 4 5 11 6 9 7 10 8 2 10 1 11 3 12
REMARK H PARENT 10 9
REMARK Flexibility Score: inf
ROOT
ATOM      1  C   UNL     1     135.653 132.839 147.752  1.00  0.00     0.042 C 
ATOM      2  C   UNL     1     136.928 133.482 148.228  1.00  0.00    -0.049 C 
ATOM      3  C   UNL     1     136.936 134.104 149.427  1.00  0.00    -0.025 C 
ATOM      4  C   UNL     1     138.175 134.722 150.028  1.00  0.00     0.035 C 
ATOM      5  C   UNL     1     139.233 135.057 148.963  1.00  0.00     0.021 C 
ATOM      6  C   UNL     1     139.435 133.853 148.030  1.00  0.00     0.044 C 
ATOM      7  C   UNL     1     138.125 133.515 147.294  1.00  0.00     0.140 C 
ENDROOT
BRANCH   7   8
ATOM      8  O   UNL     1     137.881 134.461 146.286  1.00  0.00    -0.389 OA
ATOM      9  H   UNL     1     138.712 134.529 145.746  1.00  0.00     0.211 HD
ENDBRANCH   7   8
BRANCH   5  10
ATOM     10  C   UNL     1     140.544 135.495 149.603  1.00  0.00    -0.077 C 
ATOM     11  C   UNL     1     140.795 135.203 150.889  1.00  0.00     0.008 C 
ATOM     12  C   UNL     1     141.588 136.252 148.820  1.00  0.00     0.039 C 
ENDBRANCH   5  10
TORSDOF 2
ENDMDL
MODEL 3
REMARK VINA RESULT:    -4.047     14.790     16.161
REMARK INTER + INTRA:          -4.496
REMARK INTER:                  -4.402
REMARK INTRA:                  -0.095
REMARK UNBOUND:                -0.094
REMARK SMILES C=C(C)[C@@H]1CC=C(C)[C@@H](O)C1
REMARK SMILES IDX 8 1 7 2 6 3 5 4 4 5 11 6 9 7 10 8 2 10 1 11 3 12
REMARK H PARENT 10 9
REMARK Flexibility Score: inf
ROOT
ATOM      1  C   UNL     1     128.877 137.295 137.985  1.00  0.00     0.042 C 
ATOM      2  C   UNL     1     130.066 138.178 137.715  1.00  0.00    -0.049 C 
ATOM      3  C   UNL     1     130.171 139.351 138.378  1.00  0.00    -0.025 C 
ATOM      4  C   UNL     1     131.353 140.277 138.233  1.00  0.00     0.035 C 
ATOM      5  C   UNL     1     132.113 140.051 136.916  1.00  0.00     0.021 C 
ATOM      6  C   UNL     1     132.373 138.549 136.714  1.00  0.00     0.044 C 
ATOM      7  C   UNL     1     131.043 137.779 136.623  1.00  0.00     0.140 C 
ENDROOT
BRANCH   7   8
ATOM      8  O   UNL     1     130.438 138.007 135.376  1.00  0.00    -0.389 OA
ATOM      9  H   UNL     1     130.288 138.986 135.304  1.00  0.00     0.211 HD
ENDBRANCH   7   8
BRANCH   5  10
ATOM     10  C   UNL     1     133.407 140.853 136.877  1.00  0.00    -0.077 C 
ATOM     11  C   UNL     1     134.353 140.650 137.808  1.00  0.00     0.008 C 
ATOM     12  C   UNL     1     133.665 141.879 135.800  1.00  0.00     0.039 C 
ENDBRANCH   5  10
TORSDOF 2
ENDMDL
MODEL 4
REMARK VINA RESULT:    -4.029      8.817     10.321
REMARK INTER + INTRA:          -4.477
REMARK INTER:                  -4.383
REMARK INTRA:                  -0.094
REMARK UNBOUND:                -0.094
REMARK SMILES C=C(C)[C@@H]1CC=C(C)[C@@H](O)C1
REMARK SMILES IDX 8 1 7 2 6 3 5 4 4 5 11 6 9 7 10 8 2 10 1 11 3 12
REMARK H PARENT 10 9
REMARK Flexibility Score: inf
ROOT
ATOM      1  C   UNL     1     136.454 140.968 141.872  1.00  0.00     0.042 C 
ATOM      2  C   UNL     1     137.641 141.858 142.133  1.00  0.00    -0.049 C 
ATOM      3  C   UNL     1     138.818 141.290 142.478  1.00  0.00    -0.025 C 
ATOM      4  C   UNL     1     140.083 142.082 142.696  1.00  0.00     0.035 C 
ATOM      5  C   UNL     1     139.798 143.556 143.027  1.00  0.00     0.021 C 
ATOM      6  C   UNL     1     138.779 144.128 142.028  1.00  0.00     0.044 C 
ATOM      7  C   UNL     1     137.446 143.364 142.120  1.00  0.00     0.140 C 
ENDROOT
BRANCH   7   8
ATOM      8  O   UNL     1     136.756 143.736 143.285  1.00  0.00    -0.389 OA
ATOM      9  H   UNL     1     135.850 143.333 143.225  1.00  0.00     0.211 HD
ENDBRANCH   7   8
BRANCH   5  10
ATOM     10  C   UNL     1     141.080 144.378 143.051  1.00  0.00    -0.077 C 
ATOM     11  C   UNL     1     141.700 144.690 141.902  1.00  0.00     0.008 C 
ATOM     12  C   UNL     1     141.678 144.865 144.348  1.00  0.00     0.039 C 
ENDBRANCH   5  10
TORSDOF 2
ENDMDL
MODEL 5
REMARK VINA RESULT:    -3.993     15.318     15.985
REMARK INTER + INTRA:          -4.437
REMARK INTER:                  -4.342
REMARK INTRA:                  -0.095
REMARK UNBOUND:                -0.094
REMARK SMILES C=C(C)[C@@H]1CC=C(C)[C@@H](O)C1
REMARK SMILES IDX 8 1 7 2 6 3 5 4 4 5 11 6 9 7 10 8 2 10 1 11 3 12
REMARK H PARENT 10 9
REMARK Flexibility Score: inf
ROOT
ATOM      1  C   UNL     1     133.922 138.497 133.871  1.00  0.00     0.042 C 
ATOM      2  C   UNL     1     133.016 138.835 135.025  1.00  0.00    -0.049 C 
ATOM      3  C   UNL     1     133.487 139.627 136.013  1.00  0.00    -0.025 C 
ATOM      4  C   UNL     1     132.643 140.081 137.179  1.00  0.00     0.035 C 
ATOM      5  C   UNL     1     131.440 139.155 137.423  1.00  0.00     0.021 C 
ATOM      6  C   UNL     1     130.711 138.886 136.097  1.00  0.00     0.044 C 
ATOM      7  C   UNL     1     131.649 138.178 135.100  1.00  0.00     0.140 C 
ENDROOT
BRANCH   7   8
ATOM      8  O   UNL     1     131.818 136.834 135.468  1.00  0.00    -0.389 OA
ATOM      9  H   UNL     1     130.909 136.438 135.539  1.00  0.00     0.211 HD
ENDBRANCH   7   8
BRANCH   5  10
ATOM     10  C   UNL     1     130.499 139.734 138.471  1.00  0.00    -0.077 C 
ATOM     11  C   UNL     1     129.363 139.090 138.784  1.00  0.00     0.008 C 
ATOM     12  C   UNL     1     130.815 141.024 139.186  1.00  0.00     0.039 C 
ENDBRANCH   5  10
TORSDOF 2
ENDMDL
MODEL 6
REMARK VINA RESULT:    -3.925      2.628      5.078
REMARK INTER + INTRA:          -4.363
REMARK INTER:                  -4.279
REMARK INTRA:                  -0.085
REMARK UNBOUND:                -0.094
REMARK SMILES C=C(C)[C@@H]1CC=C(C)[C@@H](O)C1
REMARK SMILES IDX 8 1 7 2 6 3 5 4 4 5 11 6 9 7 10 8 2 10 1 11 3 12
REMARK H PARENT 10 9
REMARK Flexibility Score: inf
ROOT
ATOM      1  C   UNL     1     136.408 133.804 148.528  1.00  0.00     0.042 C 
ATOM      2  C   UNL     1     137.896 133.978 148.677  1.00  0.00    -0.049 C 
ATOM      3  C   UNL     1     138.719 133.069 148.108  1.00  0.00    -0.025 C 
ATOM      4  C   UNL     1     140.223 133.185 148.138  1.00  0.00     0.035 C 
ATOM      5  C   UNL     1     140.716 134.073 149.293  1.00  0.00     0.021 C 
ATOM      6  C   UNL     1     139.914 135.384 149.322  1.00  0.00     0.044 C 
ATOM      7  C   UNL     1     138.419 135.097 149.560  1.00  0.00     0.140 C 
ENDROOT
BRANCH   7   8
ATOM      8  O   UNL     1     138.204 134.746 150.902  1.00  0.00    -0.389 OA
ATOM      9  H   UNL     1     138.999 134.228 151.196  1.00  0.00     0.211 HD
ENDBRANCH   7   8
BRANCH   5  10
ATOM     10  C   UNL     1     142.212 134.335 149.192  1.00  0.00    -0.077 C 
ATOM     11  C   UNL     1     143.079 133.552 149.854  1.00  0.00     0.008 C 
ATOM     12  C   UNL     1     142.759 135.461 148.349  1.00  0.00     0.039 C 
ENDBRANCH   5  10
TORSDOF 2
ENDMDL
MODEL 7
REMARK VINA RESULT:    -3.917      3.219      5.367
REMARK INTER + INTRA:          -4.355
REMARK INTER:                  -4.260
REMARK INTRA:                  -0.095
REMARK UNBOUND:                -0.094
REMARK SMILES C=C(C)[C@@H]1CC=C(C)[C@@H](O)C1
REMARK SMILES IDX 8 1 7 2 6 3 5 4 4 5 11 6 9 7 10 8 2 10 1 11 3 12
REMARK H PARENT 10 9
REMARK Flexibility Score: inf
ROOT
ATOM      1  C   UNL     1     140.688 135.925 149.591  1.00  0.00     0.042 C 
ATOM      2  C   UNL     1     139.502 135.031 149.350  1.00  0.00    -0.049 C 
ATOM      3  C   UNL     1     138.637 134.808 150.364  1.00  0.00    -0.025 C 
ATOM      4  C   UNL     1     137.382 133.984 150.213  1.00  0.00     0.035 C 
ATOM      5  C   UNL     1     137.464 133.011 149.025  1.00  0.00     0.021 C 
ATOM      6  C   UNL     1     137.968 133.753 147.776  1.00  0.00     0.044 C 
ATOM      7  C   UNL     1     139.381 134.314 148.016  1.00  0.00     0.140 C 
ENDROOT
BRANCH   7   8
ATOM      8  O   UNL     1     140.326 133.275 147.980  1.00  0.00    -0.389 OA
ATOM      9  H   UNL     1     140.600 133.169 147.031  1.00  0.00     0.211 HD
ENDBRANCH   7   8
BRANCH   5  10
ATOM     10  C   UNL     1     136.124 132.333 148.770  1.00  0.00    -0.077 C 
ATOM     11  C   UNL     1     135.445 132.589 147.641  1.00  0.00     0.008 C 
ATOM     12  C   UNL     1     135.534 131.360 149.761  1.00  0.00     0.039 C 
ENDBRANCH   5  10
TORSDOF 2
ENDMDL
MODEL 8
REMARK VINA RESULT:    -3.906     15.337     16.004
REMARK INTER + INTRA:          -4.343
REMARK INTER:                  -4.247
REMARK INTRA:                  -0.096
REMARK UNBOUND:                -0.094
REMARK SMILES C=C(C)[C@@H]1CC=C(C)[C@@H](O)C1
REMARK SMILES IDX 8 1 7 2 6 3 5 4 4 5 11 6 9 7 10 8 2 10 1 11 3 12
REMARK H PARENT 10 9
REMARK Flexibility Score: inf
ROOT
ATOM      1  C   UNL     1     133.769 138.463 133.685  1.00  0.00     0.042 C 
ATOM      2  C   UNL     1     132.955 138.820 134.900  1.00  0.00    -0.049 C 
ATOM      3  C   UNL     1     131.834 138.111 135.165  1.00  0.00    -0.025 C 
ATOM      4  C   UNL     1     130.983 138.341 136.389  1.00  0.00     0.035 C 
ATOM      5  C   UNL     1     131.179 139.747 136.980  1.00  0.00     0.021 C 
ATOM      6  C   UNL     1     132.679 140.058 137.104  1.00  0.00     0.044 C 
ATOM      7  C   UNL     1     133.351 140.036 135.718  1.00  0.00     0.140 C 
ENDROOT
BRANCH   7   8
ATOM      8  O   UNL     1     133.006 141.191 134.997  1.00  0.00    -0.389 OA
ATOM      9  H   UNL     1     133.625 141.243 134.222  1.00  0.00     0.211 HD
ENDBRANCH   7   8
BRANCH   5  10
ATOM     10  C   UNL     1     130.466 139.892 138.317  1.00  0.00    -0.077 C 
ATOM     11  C   UNL     1     130.758 140.921 139.128  1.00  0.00     0.008 C 
ATOM     12  C   UNL     1     129.417 138.902 138.760  1.00  0.00     0.039 C 
ENDBRANCH   5  10
TORSDOF 2
ENDMDL
MODEL 9
REMARK VINA RESULT:    -3.834      8.637     10.074
REMARK INTER + INTRA:          -4.265
REMARK INTER:                  -4.179
REMARK INTRA:                  -0.086
REMARK UNBOUND:                -0.094
REMARK SMILES C=C(C)[C@@H]1CC=C(C)[C@@H](O)C1
REMARK SMILES IDX 8 1 7 2 6 3 5 4 4 5 11 6 9 7 10 8 2 10 1 11 3 12
REMARK H PARENT 10 9
REMARK Flexibility Score: inf
ROOT
ATOM      1  C   UNL     1     136.736 140.427 142.129  1.00  0.00     0.042 C 
ATOM      2  C   UNL     1     137.811 141.446 142.397  1.00  0.00    -0.049 C 
ATOM      3  C   UNL     1     137.448 142.693 142.773  1.00  0.00    -0.025 C 
ATOM      4  C   UNL     1     138.443 143.769 143.131  1.00  0.00     0.035 C 
ATOM      5  C   UNL     1     139.829 143.508 142.519  1.00  0.00     0.021 C 
ATOM      6  C   UNL     1     140.250 142.053 142.780  1.00  0.00     0.044 C 
ATOM      7  C   UNL     1     139.258 141.077 142.120  1.00  0.00     0.140 C 
ENDROOT
BRANCH   7   8
ATOM      8  O   UNL     1     139.456 141.055 140.730  1.00  0.00    -0.389 OA
ATOM      9  H   UNL     1     138.728 141.598 140.327  1.00  0.00     0.211 HD
ENDBRANCH   7   8
BRANCH   5  10
ATOM     10  C   UNL     1     140.864 144.493 143.047  1.00  0.00    -0.077 C 
ATOM     11  C   UNL     1     141.520 145.299 142.197  1.00  0.00     0.008 C 
ATOM     12  C   UNL     1     141.171 144.597 144.520  1.00  0.00     0.039 C 
ENDBRANCH   5  10
TORSDOF 2
ENDMDL
