MODEL 1
REMARK VINA RESULT:    -4.350      0.000      0.000
REMARK INTER + INTRA:          -6.651
REMARK INTER:                  -6.130
REMARK INTRA:                  -0.521
REMARK UNBOUND:                -0.521
REMARK SMILES C=CCCCCCCC(=O)[O-]
REMARK SMILES IDX 6 1 7 2 8 3 9 4 10 5 11 6 5 7 4 8 3 9 2 10 1 11
REMARK H PARENT
REMARK Flexibility Score: inf
ROOT
ATOM      1  C   UNL     1      -4.530  13.541  -4.101  1.00  0.00     0.000 C 
ENDROOT
BRANCH   1   2
ATOM      2  C   UNL     1      -5.645  12.512  -4.355  1.00  0.00     0.006 C 
BRANCH   2   3
ATOM      3  C   UNL     1      -6.289  12.670  -5.738  1.00  0.00     0.053 C 
BRANCH   3   4
ATOM      4  C   UNL     1      -6.619  11.329  -6.315  1.00  0.00     0.041 C 
ATOM      5  O   UNL     1      -7.406  11.237  -7.295  1.00  0.00    -0.550 OA
ATOM      6  O   UNL     1      -6.098  10.177  -5.740  1.00  0.00    -0.550 OA
ENDBRANCH   3   4
ENDBRANCH   2   3
ENDBRANCH   1   2
BRANCH   1   7
ATOM      7  C   UNL     1      -4.290  13.797  -2.605  1.00  0.00     0.000 C 
BRANCH   7   8
ATOM      8  C   UNL     1      -3.113  12.963  -2.088  1.00  0.00     0.004 C 
BRANCH   8   9
ATOM      9  C   UNL     1      -3.607  11.770  -1.260  1.00  0.00     0.027 C 
BRANCH   9  10
ATOM     10  C   UNL     1      -3.375  10.471  -1.983  1.00  0.00    -0.035 C 
ATOM     11  C   UNL     1      -4.390   9.715  -2.413  1.00  0.00     0.004 C 
ENDBRANCH   9  10
ENDBRANCH   8   9
ENDBRANCH   7   8
ENDBRANCH   1   7
TORSDOF 7
ENDMDL
MODEL 2
REMARK VINA RESULT:    -4.318      1.426      3.090
REMARK INTER + INTRA:          -6.606
REMARK INTER:                  -5.963
REMARK INTRA:                  -0.643
REMARK UNBOUND:                -0.521
REMARK SMILES C=CCCCCCCC(=O)[O-]
REMARK SMILES IDX 6 1 7 2 8 3 9 4 10 5 11 6 5 7 4 8 3 9 2 10 1 11
REMARK H PARENT
REMARK Flexibility Score: inf
ROOT
ATOM      1  C   UNL     1      -3.535  10.104  -2.136  1.00  0.00     0.000 C 
ENDROOT
BRANCH   1   2
ATOM      2  C   UNL     1      -4.871   9.464  -2.550  1.00  0.00     0.006 C 
BRANCH   2   3
ATOM      3  C   UNL     1      -5.640  10.312  -3.571  1.00  0.00     0.053 C 
BRANCH   3   4
ATOM      4  C   UNL     1      -5.930   9.511  -4.801  1.00  0.00     0.041 C 
ATOM      5  O   UNL     1      -6.479  10.054  -5.796  1.00  0.00    -0.550 OA
ATOM      6  O   UNL     1      -5.640   8.152  -4.831  1.00  0.00    -0.550 OA
ENDBRANCH   3   4
ENDBRANCH   2   3
ENDBRANCH   1   2
BRANCH   1   7
ATOM      7  C   UNL     1      -3.587  10.728  -0.733  1.00  0.00     0.000 C 
BRANCH   7   8
ATOM      8  C   UNL     1      -3.771  12.248  -0.815  1.00  0.00     0.004 C 
BRANCH   8   9
ATOM      9  C   UNL     1      -3.226  12.797  -2.139  1.00  0.00     0.027 C 
BRANCH   9  10
ATOM     10  C   UNL     1      -4.230  13.693  -2.812  1.00  0.00    -0.035 C 
ATOM     11  C   UNL     1      -4.365  13.724  -4.141  1.00  0.00     0.004 C 
ENDBRANCH   9  10
ENDBRANCH   8   9
ENDBRANCH   7   8
ENDBRANCH   1   7
TORSDOF 7
ENDMDL
MODEL 3
REMARK VINA RESULT:    -4.093      2.156      3.652
REMARK INTER + INTRA:          -6.290
REMARK INTER:                  -5.761
REMARK INTRA:                  -0.529
REMARK UNBOUND:                -0.521
REMARK SMILES C=CCCCCCCC(=O)[O-]
REMARK SMILES IDX 6 1 7 2 8 3 9 4 10 5 11 6 5 7 4 8 3 9 2 10 1 11
REMARK H PARENT
REMARK Flexibility Score: inf
ROOT
ATOM      1  C   UNL     1      -4.797   9.256  -2.198  1.00  0.00     0.000 C 
ENDROOT
BRANCH   1   2
ATOM      2  C   UNL     1      -5.813   9.795  -3.218  1.00  0.00     0.006 C 
BRANCH   2   3
ATOM      3  C   UNL     1      -5.687   9.120  -4.590  1.00  0.00     0.053 C 
BRANCH   3   4
ATOM      4  C   UNL     1      -6.463   7.841  -4.615  1.00  0.00     0.041 C 
ATOM      5  O   UNL     1      -5.867   6.741  -4.763  1.00  0.00    -0.550 OA
ATOM      6  O   UNL     1      -7.849   7.866  -4.526  1.00  0.00    -0.550 OA
ENDBRANCH   3   4
ENDBRANCH   2   3
ENDBRANCH   1   2
BRANCH   1   7
ATOM      7  C   UNL     1      -3.496  10.073  -2.170  1.00  0.00     0.000 C 
BRANCH   7   8
ATOM      8  C   UNL     1      -3.660  11.334  -1.314  1.00  0.00     0.004 C 
BRANCH   8   9
ATOM      9  C   UNL     1      -3.248  12.587  -2.096  1.00  0.00     0.027 C 
BRANCH   9  10
ATOM     10  C   UNL     1      -4.409  13.158  -2.863  1.00  0.00    -0.035 C 
ATOM     11  C   UNL     1      -4.247  13.740  -4.056  1.00  0.00     0.004 C 
ENDBRANCH   9  10
ENDBRANCH   8   9
ENDBRANCH   7   8
ENDBRANCH   1   7
TORSDOF 7
ENDMDL
MODEL 4
REMARK VINA RESULT:    -4.078      1.119      2.758
REMARK INTER + INTRA:          -6.269
REMARK INTER:                  -5.599
REMARK INTRA:                  -0.670
REMARK UNBOUND:                -0.521
REMARK SMILES C=CCCCCCCC(=O)[O-]
REMARK SMILES IDX 6 1 7 2 8 3 9 4 10 5 11 6 5 7 4 8 3 9 2 10 1 11
REMARK H PARENT
REMARK Flexibility Score: inf
ROOT
ATOM      1  C   UNL     1      -5.157   9.905  -2.384  1.00  0.00     0.000 C 
ENDROOT
BRANCH   1   2
ATOM      2  C   UNL     1      -5.509   9.767  -3.874  1.00  0.00     0.006 C 
BRANCH   2   3
ATOM      3  C   UNL     1      -6.626  10.726  -4.308  1.00  0.00     0.053 C 
BRANCH   3   4
ATOM      4  C   UNL     1      -6.870  10.611  -5.780  1.00  0.00     0.041 C 
ATOM      5  O   UNL     1      -7.551   9.655  -6.236  1.00  0.00    -0.550 OA
ATOM      6  O   UNL     1      -6.303  11.532  -6.652  1.00  0.00    -0.550 OA
ENDBRANCH   3   4
ENDBRANCH   2   3
ENDBRANCH   1   2
BRANCH   1   7
ATOM      7  C   UNL     1      -3.700  10.336  -2.157  1.00  0.00     0.000 C 
BRANCH   7   8
ATOM      8  C   UNL     1      -3.631  11.599  -1.291  1.00  0.00     0.004 C 
BRANCH   8   9
ATOM      9  C   UNL     1      -3.183  12.810  -2.119  1.00  0.00     0.027 C 
BRANCH   9  10
ATOM     10  C   UNL     1      -4.350  13.462  -2.809  1.00  0.00    -0.035 C 
ATOM     11  C   UNL     1      -4.380  13.628  -4.135  1.00  0.00     0.004 C 
ENDBRANCH   9  10
ENDBRANCH   8   9
ENDBRANCH   7   8
ENDBRANCH   1   7
TORSDOF 7
ENDMDL
MODEL 5
REMARK VINA RESULT:    -4.073      3.299      5.111
REMARK INTER + INTRA:          -6.261
REMARK INTER:                  -5.826
REMARK INTRA:                  -0.435
REMARK UNBOUND:                -0.521
REMARK SMILES C=CCCCCCCC(=O)[O-]
REMARK SMILES IDX 6 1 7 2 8 3 9 4 10 5 11 6 5 7 4 8 3 9 2 10 1 11
REMARK H PARENT
REMARK Flexibility Score: inf
ROOT
ATOM      1  C   UNL     1      -4.426   9.986  -2.751  1.00  0.00     0.000 C 
ENDROOT
BRANCH   1   2
ATOM      2  C   UNL     1      -5.384   8.832  -2.415  1.00  0.00     0.006 C 
BRANCH   2   3
ATOM      3  C   UNL     1      -5.464   8.551  -0.909  1.00  0.00     0.053 C 
BRANCH   3   4
ATOM      4  C   UNL     1      -5.381   7.080  -0.647  1.00  0.00     0.041 C 
ATOM      5  O   UNL     1      -5.105   6.284  -1.584  1.00  0.00    -0.550 OA
ATOM      6  O   UNL     1      -5.659   6.582   0.620  1.00  0.00    -0.550 OA
ENDBRANCH   3   4
ENDBRANCH   2   3
ENDBRANCH   1   2
BRANCH   1   7
ATOM      7  C   UNL     1      -3.521  10.368  -1.570  1.00  0.00     0.000 C 
BRANCH   7   8
ATOM      8  C   UNL     1      -3.762  11.820  -1.141  1.00  0.00     0.004 C 
BRANCH   8   9
ATOM      9  C   UNL     1      -3.128  12.799  -2.137  1.00  0.00     0.027 C 
BRANCH   9  10
ATOM     10  C   UNL     1      -4.171  13.662  -2.793  1.00  0.00    -0.035 C 
ATOM     11  C   UNL     1      -4.496  13.516  -4.082  1.00  0.00     0.004 C 
ENDBRANCH   9  10
ENDBRANCH   8   9
ENDBRANCH   7   8
ENDBRANCH   1   7
TORSDOF 7
ENDMDL
MODEL 6
REMARK VINA RESULT:    -3.998      1.824      2.511
REMARK INTER + INTRA:          -6.156
REMARK INTER:                  -5.619
REMARK INTRA:                  -0.537
REMARK UNBOUND:                -0.521
REMARK SMILES C=CCCCCCCC(=O)[O-]
REMARK SMILES IDX 6 1 7 2 8 3 9 4 10 5 11 6 5 7 4 8 3 9 2 10 1 11
REMARK H PARENT
REMARK Flexibility Score: inf
ROOT
ATOM      1  C   UNL     1      -5.914  12.273  -5.125  1.00  0.00     0.000 C 
ENDROOT
BRANCH   1   2
ATOM      2  C   UNL     1      -6.278  10.822  -5.478  1.00  0.00     0.006 C 
BRANCH   2   3
ATOM      3  C   UNL     1      -5.926   9.835  -4.357  1.00  0.00     0.053 C 
BRANCH   3   4
ATOM      4  C   UNL     1      -6.532   8.495  -4.632  1.00  0.00     0.041 C 
ATOM      5  O   UNL     1      -7.767   8.311  -4.462  1.00  0.00    -0.550 OA
ATOM      6  O   UNL     1      -5.726   7.435  -5.026  1.00  0.00    -0.550 OA
ENDBRANCH   3   4
ENDBRANCH   2   3
ENDBRANCH   1   2
BRANCH   1   7
ATOM      7  C   UNL     1      -5.605  12.459  -3.632  1.00  0.00     0.000 C 
BRANCH   7   8
ATOM      8  C   UNL     1      -4.413  13.403  -3.432  1.00  0.00     0.004 C 
BRANCH   8   9
ATOM      9  C   UNL     1      -3.359  12.771  -2.515  1.00  0.00     0.027 C 
BRANCH   9  10
ATOM     10  C   UNL     1      -3.903  11.554  -1.815  1.00  0.00    -0.035 C 
ATOM     11  C   UNL     1      -3.258  10.384  -1.836  1.00  0.00     0.004 C 
ENDBRANCH   9  10
ENDBRANCH   8   9
ENDBRANCH   7   8
ENDBRANCH   1   7
TORSDOF 7
ENDMDL
MODEL 7
REMARK VINA RESULT:    -3.935      2.692      4.511
REMARK INTER + INTRA:          -6.067
REMARK INTER:                  -5.628
REMARK INTRA:                  -0.439
REMARK UNBOUND:                -0.521
REMARK SMILES C=CCCCCCCC(=O)[O-]
REMARK SMILES IDX 6 1 7 2 8 3 9 4 10 5 11 6 5 7 4 8 3 9 2 10 1 11
REMARK H PARENT
REMARK Flexibility Score: inf
ROOT
ATOM      1  C   UNL     1      -3.458  10.163  -2.106  1.00  0.00     0.000 C 
ENDROOT
BRANCH   1   2
ATOM      2  C   UNL     1      -3.638  11.484  -1.341  1.00  0.00     0.006 C 
BRANCH   2   3
ATOM      3  C   UNL     1      -3.226  12.707  -2.170  1.00  0.00     0.053 C 
BRANCH   3   4
ATOM      4  C   UNL     1      -4.358  13.152  -3.042  1.00  0.00     0.041 C 
ATOM      5  O   UNL     1      -4.129  13.816  -4.087  1.00  0.00    -0.550 OA
ATOM      6  O   UNL     1      -5.669  12.877  -2.674  1.00  0.00    -0.550 OA
ENDBRANCH   3   4
ENDBRANCH   2   3
ENDBRANCH   1   2
BRANCH   1   7
ATOM      7  C   UNL     1      -4.760   9.354  -2.205  1.00  0.00     0.000 C 
BRANCH   7   8
ATOM      8  C   UNL     1      -5.359   9.448  -3.613  1.00  0.00     0.004 C 
BRANCH   8   9
ATOM      9  C   UNL     1      -6.807   8.942  -3.630  1.00  0.00     0.027 C 
BRANCH   9  10
ATOM     10  C   UNL     1      -6.994   7.859  -4.658  1.00  0.00    -0.035 C 
ATOM     11  C   UNL     1      -6.009   7.013  -4.976  1.00  0.00     0.004 C 
ENDBRANCH   9  10
ENDBRANCH   8   9
ENDBRANCH   7   8
ENDBRANCH   1   7
TORSDOF 7
ENDMDL
MODEL 8
REMARK VINA RESULT:    -3.925      3.423      4.923
REMARK INTER + INTRA:          -6.053
REMARK INTER:                  -5.696
REMARK INTRA:                  -0.357
REMARK UNBOUND:                -0.521
REMARK SMILES C=CCCCCCCC(=O)[O-]
REMARK SMILES IDX 6 1 7 2 8 3 9 4 10 5 11 6 5 7 4 8 3 9 2 10 1 11
REMARK H PARENT
REMARK Flexibility Score: inf
ROOT
ATOM      1  C   UNL     1      -5.619  12.382  -3.631  1.00  0.00     0.000 C 
ENDROOT
BRANCH   1   2
ATOM      2  C   UNL     1      -4.380  13.272  -3.436  1.00  0.00     0.006 C 
BRANCH   2   3
ATOM      3  C   UNL     1      -3.486  12.796  -2.285  1.00  0.00     0.053 C 
BRANCH   3   4
ATOM      4  C   UNL     1      -3.861  13.488  -1.012  1.00  0.00     0.041 C 
ATOM      5  O   UNL     1      -4.450  14.601  -1.046  1.00  0.00    -0.550 OA
ATOM      6  O   UNL     1      -3.515  12.930   0.212  1.00  0.00    -0.550 OA
ENDBRANCH   3   4
ENDBRANCH   2   3
ENDBRANCH   1   2
BRANCH   1   7
ATOM      7  C   UNL     1      -6.021  12.242  -5.107  1.00  0.00     0.000 C 
BRANCH   7   8
ATOM      8  C   UNL     1      -6.260  10.773  -5.473  1.00  0.00     0.004 C 
BRANCH   8   9
ATOM      9  C   UNL     1      -5.891   9.848  -4.307  1.00  0.00     0.027 C 
BRANCH   9  10
ATOM     10  C   UNL     1      -5.904   8.404  -4.729  1.00  0.00    -0.035 C 
ATOM     11  C   UNL     1      -7.042   7.767  -5.023  1.00  0.00     0.004 C 
ENDBRANCH   9  10
ENDBRANCH   8   9
ENDBRANCH   7   8
ENDBRANCH   1   7
TORSDOF 7
ENDMDL
MODEL 9
REMARK VINA RESULT:    -3.859      3.531      5.446
REMARK INTER + INTRA:          -5.960
REMARK INTER:                  -5.528
REMARK INTRA:                  -0.432
REMARK UNBOUND:                -0.521
REMARK SMILES C=CCCCCCCC(=O)[O-]
REMARK SMILES IDX 6 1 7 2 8 3 9 4 10 5 11 6 5 7 4 8 3 9 2 10 1 11
REMARK H PARENT
REMARK Flexibility Score: inf
ROOT
ATOM      1  C   UNL     1      -4.954   9.705  -2.653  1.00  0.00     0.000 C 
ENDROOT
BRANCH   1   2
ATOM      2  C   UNL     1      -3.571  10.165  -2.166  1.00  0.00     0.006 C 
BRANCH   2   3
ATOM      3  C   UNL     1      -3.610  10.756  -0.750  1.00  0.00     0.053 C 
BRANCH   3   4
ATOM      4  C   UNL     1      -3.599  12.251  -0.809  1.00  0.00     0.041 C 
ATOM      5  O   UNL     1      -3.359  12.841  -1.895  1.00  0.00    -0.550 OA
ATOM      6  O   UNL     1      -3.804  12.994   0.347  1.00  0.00    -0.550 OA
ENDBRANCH   3   4
ENDBRANCH   2   3
ENDBRANCH   1   2
BRANCH   1   7
ATOM      7  C   UNL     1      -5.565  10.662  -3.688  1.00  0.00     0.000 C 
BRANCH   7   8
ATOM      8  C   UNL     1      -6.344   9.888  -4.758  1.00  0.00     0.004 C 
BRANCH   8   9
ATOM      9  C   UNL     1      -7.037   8.660  -4.154  1.00  0.00     0.027 C 
BRANCH   9  10
ATOM     10  C   UNL     1      -6.982   7.485  -5.092  1.00  0.00    -0.035 C 
ATOM     11  C   UNL     1      -5.981   6.601  -5.053  1.00  0.00     0.004 C 
ENDBRANCH   9  10
ENDBRANCH   8   9
ENDBRANCH   7   8
ENDBRANCH   1   7
TORSDOF 7
ENDMDL
