MODEL 1
REMARK VINA RESULT:    -3.218      0.000      0.000
REMARK INTER + INTRA:          -5.179
REMARK INTER:                  -4.911
REMARK INTRA:                  -0.268
REMARK UNBOUND:                -0.268
REMARK SMILES CC1=CCC[C@H](C)C(=O)C[C@H](C(C)C)C(=O)C1
REMARK SMILES IDX 8 1 9 2 6 3 7 4 5 5 4 6 3 7 2 8 1 9 10 11 11 12 15 13 16 14
REMARK SMILES IDX 17 15 12 17 13 18 14 19
REMARK H PARENT
REMARK Flexibility Score: 70.00
ROOT
ATOM      1  C   UNL     1      15.089  24.398  14.847  1.00  0.00     0.136 C 
ATOM      2  O   UNL     1      15.242  23.270  14.397  1.00  0.00    -0.299 OA
ENDROOT
BRANCH   1   3
ATOM      3  C   UNL     1      13.730  25.080  14.733  1.00  0.00     0.053 C 
ATOM      4  C   UNL     1      12.602  24.087  14.411  1.00  0.00     0.016 C 
BRANCH   3   5
ATOM      5  C   UNL     1      13.393  25.873  16.027  1.00  0.00     0.015 C 
BRANCH   5   6
ATOM      6  C   UNL     1      13.241  27.402  15.877  1.00  0.00     0.028 C 
BRANCH   6   7
ATOM      7  C   UNL     1      13.730  28.059  14.602  1.00  0.00    -0.028 C 
ATOM      8  C   UNL     1      14.988  28.477  14.321  1.00  0.00    -0.070 CG0
ATOM      9  C   UNL     1      15.178  29.311  13.077  1.00  0.00     0.039 C 
ATOM     10  G   UNL     1      16.224  28.100  15.125  1.00  0.00     0.000 G0
ENDBRANCH   6   7
ENDBRANCH   5   6
ENDBRANCH   3   5
ENDBRANCH   1   3
BRANCH   1  11
ATOM     11  C   UNL     1      16.291  25.087  15.475  1.00  0.00     0.087 C 
BRANCH  11  12
ATOM     12  C   UNL     1      17.263  25.714  14.444  1.00  0.00     0.066 C 
BRANCH  12  13
ATOM     13  C   UNL     1      17.185  27.233  14.323  1.00  0.00     0.140 C 
ATOM     14  O   UNL     1      18.011  27.777  13.604  1.00  0.00    -0.299 OA
BRANCH  13  15
ATOM     15  C   UNL     1      16.236  28.113  15.125  1.00  0.00     0.106 CG0
ATOM     16  G   UNL     1      14.996  28.462  14.316  1.00  0.00     0.000 G0
ENDBRANCH  13  15
ENDBRANCH  12  13
BRANCH  12  17
ATOM     17  C   UNL     1      18.748  25.266  14.629  1.00  0.00    -0.006 C 
ATOM     18  C   UNL     1      19.277  24.494  13.409  1.00  0.00     0.008 C 
ATOM     19  C   UNL     1      18.991  24.452  15.911  1.00  0.00     0.008 C 
ENDBRANCH  12  17
ENDBRANCH  11  12
ENDBRANCH   1  11
TORSDOF 1
ENDMDL
MODEL 2
REMARK VINA RESULT:    -2.973      5.881      8.721
REMARK INTER + INTRA:          -4.805
REMARK INTER:                  -4.700
REMARK INTRA:                  -0.105
REMARK UNBOUND:                -0.268
REMARK SMILES CC1=CCC[C@H](C)C(=O)C[C@H](C(C)C)C(=O)C1
REMARK SMILES IDX 8 1 9 2 6 3 7 4 5 5 4 6 3 7 2 8 1 9 10 11 11 12 15 13 16 14
REMARK SMILES IDX 17 15 12 17 13 18 14 19
REMARK H PARENT
REMARK Flexibility Score: 70.00
ROOT
ATOM      1  C   UNL     1       7.323  29.573  15.118  1.00  0.00     0.136 C 
ATOM      2  O   UNL     1       6.800  29.732  14.023  1.00  0.00    -0.299 OA
ENDROOT
BRANCH   1   3
ATOM      3  C   UNL     1       7.982  30.756  15.819  1.00  0.00     0.053 C 
ATOM      4  C   UNL     1       7.427  30.981  17.234  1.00  0.00     0.016 C 
BRANCH   3   5
ATOM      5  C   UNL     1       9.526  30.585  15.869  1.00  0.00     0.015 C 
BRANCH   5   6
ATOM      6  C   UNL     1      10.199  30.029  14.596  1.00  0.00     0.028 C 
BRANCH   6   7
ATOM      7  C   UNL     1      11.173  28.877  14.733  1.00  0.00    -0.028 C 
ATOM      8  C   UNL     1      10.963  27.577  14.406  1.00  0.00    -0.070 CG0
ATOM      9  C   UNL     1      12.004  26.576  14.850  1.00  0.00     0.039 C 
ATOM     10  G   UNL     1       9.801  27.075  13.562  1.00  0.00     0.000 G0
ENDBRANCH   6   7
ENDBRANCH   5   6
ENDBRANCH   3   5
ENDBRANCH   1   3
BRANCH   1  11
ATOM     11  C   UNL     1       7.319  28.175  15.718  1.00  0.00     0.087 C 
BRANCH  11  12
ATOM     12  C   UNL     1       7.341  27.042  14.662  1.00  0.00     0.066 C 
BRANCH  12  13
ATOM     13  C   UNL     1       8.711  26.423  14.405  1.00  0.00     0.140 C 
ATOM     14  O   UNL     1       8.976  25.389  15.002  1.00  0.00    -0.299 OA
BRANCH  13  15
ATOM     15  C   UNL     1       9.803  27.068  13.561  1.00  0.00     0.106 CG0
ATOM     16  G   UNL     1      10.942  27.576  14.432  1.00  0.00     0.000 G0
ENDBRANCH  13  15
ENDBRANCH  12  13
BRANCH  12  17
ATOM     17  C   UNL     1       6.287  25.919  14.926  1.00  0.00    -0.006 C 
ATOM     18  C   UNL     1       5.465  25.588  13.669  1.00  0.00     0.008 C 
ATOM     19  C   UNL     1       5.345  26.222  16.104  1.00  0.00     0.008 C 
ENDBRANCH  12  17
ENDBRANCH  11  12
ENDBRANCH   1  11
TORSDOF 1
ENDMDL
MODEL 3
REMARK VINA RESULT:    -2.907      6.275      8.785
REMARK INTER + INTRA:          -4.705
REMARK INTER:                  -4.315
REMARK INTRA:                  -0.390
REMARK UNBOUND:                -0.268
REMARK SMILES CC1=CCC[C@H](C)C(=O)C[C@H](C(C)C)C(=O)C1
REMARK SMILES IDX 8 1 9 2 6 3 7 4 5 5 4 6 3 7 2 8 1 9 10 11 11 12 15 13 16 14
REMARK SMILES IDX 17 15 12 17 13 18 14 19
REMARK H PARENT
REMARK Flexibility Score: 70.00
ROOT
ATOM      1  C   UNL     1       6.562  27.533  16.436  1.00  0.00     0.136 C 
ATOM      2  O   UNL     1       5.847  26.851  17.159  1.00  0.00    -0.299 OA
ENDROOT
BRANCH   1   3
ATOM      3  C   UNL     1       6.419  29.051  16.446  1.00  0.00     0.053 C 
ATOM      4  C   UNL     1       5.304  29.527  17.390  1.00  0.00     0.016 C 
BRANCH   3   5
ATOM      5  C   UNL     1       7.764  29.736  16.817  1.00  0.00     0.015 C 
BRANCH   5   6
ATOM      6  C   UNL     1       8.467  30.526  15.692  1.00  0.00     0.028 C 
BRANCH   6   7
ATOM      7  C   UNL     1       9.869  30.120  15.285  1.00  0.00    -0.028 C 
ATOM      8  C   UNL     1      10.227  29.317  14.252  1.00  0.00    -0.070 CG0
ATOM      9  C   UNL     1      11.669  28.874  14.190  1.00  0.00     0.039 C 
ATOM     10  G   UNL     1       9.300  28.901  13.119  1.00  0.00     0.000 G0
ENDBRANCH   6   7
ENDBRANCH   5   6
ENDBRANCH   3   5
ENDBRANCH   1   3
BRANCH   1  11
ATOM     11  C   UNL     1       7.549  26.818  15.525  1.00  0.00     0.087 C 
BRANCH  11  12
ATOM     12  C   UNL     1       7.421  27.211  14.032  1.00  0.00     0.066 C 
BRANCH  12  13
ATOM     13  C   UNL     1       8.740  27.499  13.324  1.00  0.00     0.140 C 
ATOM     14  O   UNL     1       9.421  26.536  13.002  1.00  0.00    -0.299 OA
BRANCH  13  15
ATOM     15  C   UNL     1       9.314  28.893  13.106  1.00  0.00     0.106 CG0
ATOM     16  G   UNL     1      10.219  29.301  14.259  1.00  0.00     0.000 G0
ENDBRANCH  13  15
ENDBRANCH  12  13
BRANCH  12  17
ATOM     17  C   UNL     1       6.569  26.207  13.192  1.00  0.00    -0.006 C 
ATOM     18  C   UNL     1       5.144  26.727  12.937  1.00  0.00     0.008 C 
ATOM     19  C   UNL     1       6.512  24.792  13.793  1.00  0.00     0.008 C 
ENDBRANCH  12  17
ENDBRANCH  11  12
ENDBRANCH   1  11
TORSDOF 1
ENDMDL
MODEL 4
REMARK VINA RESULT:    -2.843      7.956     10.173
REMARK INTER + INTRA:          -4.607
REMARK INTER:                  -4.157
REMARK INTRA:                  -0.451
REMARK UNBOUND:                -0.268
REMARK SMILES CC1=CCC[C@H](C)C(=O)C[C@H](C(C)C)C(=O)C1
REMARK SMILES IDX 8 1 9 2 6 3 7 4 5 5 4 6 3 7 2 8 1 9 10 11 11 12 15 13 16 14
REMARK SMILES IDX 17 15 12 17 13 18 14 19
REMARK H PARENT
REMARK Flexibility Score: 70.00
ROOT
ATOM      1  C   UNL     1       7.659  29.627  14.329  1.00  0.00     0.136 C 
ATOM      2  O   UNL     1       7.538  30.687  13.729  1.00  0.00    -0.299 OA
ENDROOT
BRANCH   1   3
ATOM      3  C   UNL     1       8.284  29.613  15.720  1.00  0.00     0.053 C 
ATOM      4  C   UNL     1       9.539  30.496  15.806  1.00  0.00     0.016 C 
BRANCH   3   5
ATOM      5  C   UNL     1       7.252  30.039  16.801  1.00  0.00     0.015 C 
BRANCH   5   6
ATOM      6  C   UNL     1       6.356  28.921  17.375  1.00  0.00     0.028 C 
BRANCH   6   7
ATOM      7  C   UNL     1       4.916  28.833  16.909  1.00  0.00    -0.028 C 
ATOM      8  C   UNL     1       4.344  27.837  16.188  1.00  0.00    -0.070 CG0
ATOM      9  C   UNL     1       2.955  28.086  15.648  1.00  0.00     0.039 C 
ATOM     10  G   UNL     1       4.968  26.470  15.954  1.00  0.00     0.000 G0
ENDBRANCH   6   7
ENDBRANCH   5   6
ENDBRANCH   3   5
ENDBRANCH   1   3
BRANCH   1  11
ATOM     11  C   UNL     1       7.203  28.354  13.632  1.00  0.00     0.087 C 
BRANCH  11  12
ATOM     12  C   UNL     1       7.177  27.110  14.556  1.00  0.00     0.066 C 
BRANCH  12  13
ATOM     13  C   UNL     1       5.817  26.432  14.689  1.00  0.00     0.140 C 
ATOM     14  O   UNL     1       5.346  25.927  13.680  1.00  0.00    -0.299 OA
BRANCH  13  15
ATOM     15  C   UNL     1       4.965  26.451  15.951  1.00  0.00     0.106 CG0
ATOM     16  G   UNL     1       4.375  27.833  16.194  1.00  0.00     0.000 G0
ENDBRANCH  13  15
ENDBRANCH  12  13
BRANCH  12  17
ATOM     17  C   UNL     1       8.273  26.052  14.211  1.00  0.00    -0.006 C 
ATOM     18  C   UNL     1       9.217  25.789  15.396  1.00  0.00     0.008 C 
ATOM     19  C   UNL     1       9.091  26.397  12.955  1.00  0.00     0.008 C 
ENDBRANCH  12  17
ENDBRANCH  11  12
ENDBRANCH   1  11
TORSDOF 1
ENDMDL
MODEL 5
REMARK VINA RESULT:    -2.811      2.080      2.857
REMARK INTER + INTRA:          -4.558
REMARK INTER:                  -4.156
REMARK INTRA:                  -0.402
REMARK UNBOUND:                -0.268
REMARK SMILES CC1=CCC[C@H](C)C(=O)C[C@H](C(C)C)C(=O)C1
REMARK SMILES IDX 8 1 9 2 6 3 7 4 5 5 4 6 3 7 2 8 1 9 10 11 11 12 15 13 16 14
REMARK SMILES IDX 17 15 12 17 13 18 14 19
REMARK H PARENT
REMARK Flexibility Score: 70.00
ROOT
ATOM      1  C   UNL     1      12.794  24.660  15.676  1.00  0.00     0.136 C 
ATOM      2  O   UNL     1      12.072  24.319  16.604  1.00  0.00    -0.299 OA
ENDROOT
BRANCH   1   3
ATOM      3  C   UNL     1      12.408  24.301  14.245  1.00  0.00     0.053 C 
ATOM      4  C   UNL     1      12.537  22.796  13.964  1.00  0.00     0.016 C 
BRANCH   3   5
ATOM      5  C   UNL     1      10.969  24.787  13.917  1.00  0.00     0.015 C 
BRANCH   5   6
ATOM      6  C   UNL     1      10.601  26.213  14.381  1.00  0.00     0.028 C 
BRANCH   6   7
ATOM      7  C   UNL     1      11.083  27.392  13.560  1.00  0.00    -0.028 C 
ATOM      8  C   UNL     1      12.007  28.319  13.913  1.00  0.00    -0.070 CG0
ATOM      9  C   UNL     1      12.149  29.529  13.020  1.00  0.00     0.039 C 
ATOM     10  G   UNL     1      12.957  28.186  15.095  1.00  0.00     0.000 G0
ENDBRANCH   6   7
ENDBRANCH   5   6
ENDBRANCH   3   5
ENDBRANCH   1   3
BRANCH   1  11
ATOM     11  C   UNL     1      14.077  25.407  16.006  1.00  0.00     0.087 C 
BRANCH  11  12
ATOM     12  C   UNL     1      14.695  26.153  14.797  1.00  0.00     0.066 C 
BRANCH  12  13
ATOM     13  C   UNL     1      14.304  27.623  14.676  1.00  0.00     0.140 C 
ATOM     14  O   UNL     1      15.171  28.400  14.302  1.00  0.00    -0.299 OA
BRANCH  13  15
ATOM     15  C   UNL     1      12.958  28.193  15.102  1.00  0.00     0.106 CG0
ATOM     16  G   UNL     1      12.014  28.317  13.915  1.00  0.00     0.000 G0
ENDBRANCH  13  15
ENDBRANCH  12  13
BRANCH  12  17
ATOM     17  C   UNL     1      16.247  26.001  14.694  1.00  0.00    -0.006 C 
ATOM     18  C   UNL     1      16.666  25.155  13.479  1.00  0.00     0.008 C 
ATOM     19  C   UNL     1      16.898  25.444  15.971  1.00  0.00     0.008 C 
ENDBRANCH  12  17
ENDBRANCH  11  12
ENDBRANCH   1  11
TORSDOF 1
ENDMDL
MODEL 6
REMARK VINA RESULT:    -2.767      7.148      9.485
REMARK INTER + INTRA:          -4.491
REMARK INTER:                  -3.945
REMARK INTRA:                  -0.546
REMARK UNBOUND:                -0.268
REMARK SMILES CC1=CCC[C@H](C)C(=O)C[C@H](C(C)C)C(=O)C1
REMARK SMILES IDX 8 1 9 2 6 3 7 4 5 5 4 6 3 7 2 8 1 9 10 11 11 12 15 13 16 14
REMARK SMILES IDX 17 15 12 17 13 18 14 19
REMARK H PARENT
REMARK Flexibility Score: 70.00
ROOT
ATOM      1  C   UNL     1       7.238  29.248  14.810  1.00  0.00     0.136 C 
ATOM      2  O   UNL     1       6.612  30.198  14.359  1.00  0.00    -0.299 OA
ENDROOT
BRANCH   1   3
ATOM      3  C   UNL     1       7.345  29.060  16.319  1.00  0.00     0.053 C 
ATOM      4  C   UNL     1       8.003  30.263  17.014  1.00  0.00     0.016 C 
BRANCH   3   5
ATOM      5  C   UNL     1       5.951  28.775  16.946  1.00  0.00     0.015 C 
BRANCH   5   6
ATOM      6  C   UNL     1       5.429  27.327  16.832  1.00  0.00     0.028 C 
BRANCH   6   7
ATOM      7  C   UNL     1       4.682  26.921  15.578  1.00  0.00    -0.028 C 
ATOM      8  C   UNL     1       5.113  26.092  14.595  1.00  0.00    -0.070 CG0
ATOM      9  C   UNL     1       4.282  26.024  13.335  1.00  0.00     0.039 C 
ATOM     10  G   UNL     1       6.323  25.175  14.705  1.00  0.00     0.000 G0
ENDBRANCH   6   7
ENDBRANCH   5   6
ENDBRANCH   3   5
ENDBRANCH   1   3
BRANCH   1  11
ATOM     11  C   UNL     1       7.918  28.308  13.826  1.00  0.00     0.087 C 
BRANCH  11  12
ATOM     12  C   UNL     1       8.344  26.954  14.448  1.00  0.00     0.066 C 
BRANCH  12  13
ATOM     13  C   UNL     1       7.551  25.744  13.966  1.00  0.00     0.140 C 
ATOM     14  O   UNL     1       7.856  25.275  12.879  1.00  0.00    -0.299 OA
BRANCH  13  15
ATOM     15  C   UNL     1       6.340  25.165  14.686  1.00  0.00     0.106 CG0
ATOM     16  G   UNL     1       5.139  26.093  14.573  1.00  0.00     0.000 G0
ENDBRANCH  13  15
ENDBRANCH  12  13
BRANCH  12  17
ATOM     17  C   UNL     1       9.877  26.669  14.338  1.00  0.00    -0.006 C 
ATOM     18  C   UNL     1      10.322  25.528  15.268  1.00  0.00     0.008 C 
ATOM     19  C   UNL     1      10.753  27.911  14.573  1.00  0.00     0.008 C 
ENDBRANCH  12  17
ENDBRANCH  11  12
ENDBRANCH   1  11
TORSDOF 1
ENDMDL
MODEL 7
REMARK VINA RESULT:    -2.708      8.473     10.952
REMARK INTER + INTRA:          -4.401
REMARK INTER:                  -3.969
REMARK INTRA:                  -0.433
REMARK UNBOUND:                -0.268
REMARK SMILES CC1=CCC[C@H](C)C(=O)C[C@H](C(C)C)C(=O)C1
REMARK SMILES IDX 8 1 9 2 6 3 7 4 5 5 4 6 3 7 2 8 1 9 10 11 11 12 15 13 16 14
REMARK SMILES IDX 17 15 12 17 13 18 14 19
REMARK H PARENT
REMARK Flexibility Score: 70.00
ROOT
ATOM      1  C   UNL     1       3.212  26.412  15.967  1.00  0.00     0.136 C 
ATOM      2  O   UNL     1       2.119  26.129  16.441  1.00  0.00    -0.299 OA
ENDROOT
BRANCH   1   3
ATOM      3  C   UNL     1       3.433  27.785  15.343  1.00  0.00     0.053 C 
ATOM      4  C   UNL     1       2.272  28.207  14.428  1.00  0.00     0.016 C 
BRANCH   3   5
ATOM      5  C   UNL     1       3.673  28.863  16.437  1.00  0.00     0.015 C 
BRANCH   5   6
ATOM      6  C   UNL     1       5.106  28.961  17.002  1.00  0.00     0.028 C 
BRANCH   6   7
ATOM      7  C   UNL     1       6.266  29.051  16.032  1.00  0.00    -0.028 C 
ATOM      8  C   UNL     1       7.213  28.111  15.790  1.00  0.00    -0.070 CG0
ATOM      9  C   UNL     1       8.398  28.524  14.949  1.00  0.00     0.039 C 
ATOM     10  G   UNL     1       7.125  26.660  16.238  1.00  0.00     0.000 G0
ENDBRANCH   6   7
ENDBRANCH   5   6
ENDBRANCH   3   5
ENDBRANCH   1   3
BRANCH   1  11
ATOM     11  C   UNL     1       4.300  25.349  15.994  1.00  0.00     0.087 C 
BRANCH  11  12
ATOM     12  C   UNL     1       5.254  25.399  14.774  1.00  0.00     0.066 C 
BRANCH  12  13
ATOM     13  C   UNL     1       6.704  25.740  15.102  1.00  0.00     0.140 C 
ATOM     14  O   UNL     1       7.571  25.159  14.464  1.00  0.00    -0.299 OA
BRANCH  13  15
ATOM     15  C   UNL     1       7.138  26.654  16.240  1.00  0.00     0.106 CG0
ATOM     16  G   UNL     1       7.216  28.103  15.782  1.00  0.00     0.000 G0
ENDBRANCH  13  15
ENDBRANCH  12  13
BRANCH  12  17
ATOM     17  C   UNL     1       5.193  24.121  13.878  1.00  0.00    -0.006 C 
ATOM     18  C   UNL     1       3.926  24.084  13.007  1.00  0.00     0.008 C 
ATOM     19  C   UNL     1       5.326  22.808  14.667  1.00  0.00     0.008 C 
ENDBRANCH  12  17
ENDBRANCH  11  12
ENDBRANCH   1  11
TORSDOF 1
ENDMDL
MODEL 8
REMARK VINA RESULT:    -2.656      9.270     11.136
REMARK INTER + INTRA:          -4.321
REMARK INTER:                  -4.044
REMARK INTRA:                  -0.276
REMARK UNBOUND:                -0.268
REMARK SMILES CC1=CCC[C@H](C)C(=O)C[C@H](C(C)C)C(=O)C1
REMARK SMILES IDX 8 1 9 2 6 3 7 4 5 5 4 6 3 7 2 8 1 9 10 11 11 12 15 13 16 14
REMARK SMILES IDX 17 15 12 17 13 18 14 19
REMARK H PARENT
REMARK Flexibility Score: 70.00
ROOT
ATOM      1  C   UNL     1       7.136  26.122  15.445  1.00  0.00     0.136 C 
ATOM      2  O   UNL     1       8.329  25.868  15.332  1.00  0.00    -0.299 OA
ENDROOT
BRANCH   1   3
ATOM      3  C   UNL     1       6.124  25.409  14.555  1.00  0.00     0.053 C 
ATOM      4  C   UNL     1       6.785  24.380  13.624  1.00  0.00     0.016 C 
BRANCH   3   5
ATOM      5  C   UNL     1       5.015  24.728  15.405  1.00  0.00     0.015 C 
BRANCH   5   6
ATOM      6  C   UNL     1       3.556  25.046  15.014  1.00  0.00     0.028 C 
BRANCH   6   7
ATOM      7  C   UNL     1       3.259  26.362  14.324  1.00  0.00    -0.028 C 
ATOM      8  C   UNL     1       3.058  27.570  14.906  1.00  0.00    -0.070 CG0
ATOM      9  C   UNL     1       2.549  28.686  14.024  1.00  0.00     0.039 C 
ATOM     10  G   UNL     1       3.380  27.896  16.357  1.00  0.00     0.000 G0
ENDBRANCH   6   7
ENDBRANCH   5   6
ENDBRANCH   3   5
ENDBRANCH   1   3
BRANCH   1  11
ATOM     11  C   UNL     1       6.722  27.177  16.459  1.00  0.00     0.087 C 
BRANCH  11  12
ATOM     12  C   UNL     1       5.973  28.382  15.837  1.00  0.00     0.066 C 
BRANCH  12  13
ATOM     13  C   UNL     1       4.640  28.724  16.496  1.00  0.00     0.140 C 
ATOM     14  O   UNL     1       4.625  29.681  17.257  1.00  0.00    -0.299 OA
BRANCH  13  15
ATOM     15  C   UNL     1       3.374  27.888  16.363  1.00  0.00     0.106 CG0
ATOM     16  G   UNL     1       3.064  27.589  14.904  1.00  0.00     0.000 G0
ENDBRANCH  13  15
ENDBRANCH  12  13
BRANCH  12  17
ATOM     17  C   UNL     1       6.852  29.667  15.707  1.00  0.00    -0.006 C 
ATOM     18  C   UNL     1       7.420  29.839  14.288  1.00  0.00     0.008 C 
ATOM     19  C   UNL     1       7.988  29.744  16.741  1.00  0.00     0.008 C 
ENDBRANCH  12  17
ENDBRANCH  11  12
ENDBRANCH   1  11
TORSDOF 1
ENDMDL
MODEL 9
REMARK VINA RESULT:    -2.527      9.051     11.742
REMARK INTER + INTRA:          -4.125
REMARK INTER:                  -3.734
REMARK INTRA:                  -0.391
REMARK UNBOUND:                -0.268
REMARK SMILES CC1=CCC[C@H](C)C(=O)C[C@H](C(C)C)C(=O)C1
REMARK SMILES IDX 8 1 9 2 6 3 7 4 5 5 4 6 3 7 2 8 1 9 10 11 11 12 15 13 16 14
REMARK SMILES IDX 17 15 12 17 13 18 14 19
REMARK H PARENT
REMARK Flexibility Score: 70.00
ROOT
ATOM      1  C   UNL     1       5.923  28.448  16.744  1.00  0.00     0.136 C 
ATOM      2  O   UNL     1       6.487  27.575  17.391  1.00  0.00    -0.299 OA
ENDROOT
BRANCH   1   3
ATOM      3  C   UNL     1       6.725  29.632  16.212  1.00  0.00     0.053 C 
ATOM      4  C   UNL     1       7.253  30.534  17.338  1.00  0.00     0.016 C 
BRANCH   3   5
ATOM      5  C   UNL     1       7.898  29.152  15.313  1.00  0.00     0.015 C 
BRANCH   5   6
ATOM      6  C   UNL     1       7.513  28.526  13.956  1.00  0.00     0.028 C 
BRANCH   6   7
ATOM      7  C   UNL     1       7.496  27.016  13.831  1.00  0.00    -0.028 C 
ATOM      8  C   UNL     1       6.421  26.220  13.608  1.00  0.00    -0.070 CG0
ATOM      9  C   UNL     1       6.622  24.730  13.756  1.00  0.00     0.039 C 
ATOM     10  G   UNL     1       5.058  26.716  13.148  1.00  0.00     0.000 G0
ENDBRANCH   6   7
ENDBRANCH   5   6
ENDBRANCH   3   5
ENDBRANCH   1   3
BRANCH   1  11
ATOM     11  C   UNL     1       4.423  28.324  16.529  1.00  0.00     0.087 C 
BRANCH  11  12
ATOM     12  C   UNL     1       4.001  28.337  15.038  1.00  0.00     0.066 C 
BRANCH  12  13
ATOM     13  C   UNL     1       4.122  26.996  14.320  1.00  0.00     0.140 C 
ATOM     14  O   UNL     1       3.500  26.055  14.791  1.00  0.00    -0.299 OA
BRANCH  13  15
ATOM     15  C   UNL     1       5.052  26.730  13.144  1.00  0.00     0.106 CG0
ATOM     16  G   UNL     1       6.408  26.226  13.619  1.00  0.00     0.000 G0
ENDBRANCH  13  15
ENDBRANCH  12  13
BRANCH  12  17
ATOM     17  C   UNL     1       2.585  28.950  14.792  1.00  0.00    -0.006 C 
ATOM     18  C   UNL     1       2.663  30.367  14.200  1.00  0.00     0.008 C 
ATOM     19  C   UNL     1       1.689  28.952  16.042  1.00  0.00     0.008 C 
ENDBRANCH  12  17
ENDBRANCH  11  12
ENDBRANCH   1  11
TORSDOF 1
ENDMDL
