MODEL 1
REMARK VINA RESULT:    -3.295      0.000      0.000
REMARK INTER + INTRA:          -4.128
REMARK INTER:                  -4.065
REMARK INTRA:                  -0.062
REMARK UNBOUND:                -0.062
REMARK SMILES CCCCCC(=O)[O-]
REMARK SMILES IDX 4 1 5 2 6 3 7 4 8 5 3 6 2 7 1 8
REMARK H PARENT
REMARK Flexibility Score: inf
ROOT
ATOM      1  C   UNL     1    -115.659  13.000  24.141  1.00  0.00     0.006 C 
ENDROOT
BRANCH   1   2
ATOM      2  C   UNL     1    -117.081  13.007  23.565  1.00  0.00     0.053 C 
BRANCH   2   3
ATOM      3  C   UNL     1    -117.765  14.321  23.790  1.00  0.00     0.041 C 
ATOM      4  O   UNL     1    -117.200  15.224  24.462  1.00  0.00    -0.550 OA
ATOM      5  O   UNL     1    -119.014  14.559  23.232  1.00  0.00    -0.550 OA
ENDBRANCH   2   3
ENDBRANCH   1   2
BRANCH   1   6
ATOM      6  C   UNL     1    -115.151  11.573  24.414  1.00  0.00     0.000 C 
BRANCH   6   7
ATOM      7  C   UNL     1    -114.019  11.539  25.452  1.00  0.00    -0.003 C 
ATOM      8  C   UNL     1    -112.734  12.196  24.950  1.00  0.00     0.004 C 
ENDBRANCH   6   7
ENDBRANCH   1   6
TORSDOF 4
ENDMDL
MODEL 2
REMARK VINA RESULT:    -3.216      3.207      4.850
REMARK INTER + INTRA:          -4.030
REMARK INTER:                  -3.937
REMARK INTRA:                  -0.093
REMARK UNBOUND:                -0.062
REMARK SMILES CCCCCC(=O)[O-]
REMARK SMILES IDX 4 1 5 2 6 3 7 4 8 5 3 6 2 7 1 8
REMARK H PARENT
REMARK Flexibility Score: inf
ROOT
ATOM      1  C   UNL     1    -115.176  12.649  24.445  1.00  0.00     0.006 C 
ENDROOT
BRANCH   1   2
ATOM      2  C   UNL     1    -114.563  11.391  25.074  1.00  0.00     0.053 C 
BRANCH   2   3
ATOM      3  C   UNL     1    -113.067  11.466  25.121  1.00  0.00     0.041 C 
ATOM      4  O   UNL     1    -112.481  12.568  24.958  1.00  0.00    -0.550 OA
ATOM      5  O   UNL     1    -112.321  10.322  25.377  1.00  0.00    -0.550 OA
ENDBRANCH   2   3
ENDBRANCH   1   2
BRANCH   1   6
ATOM      6  C   UNL     1    -116.220  12.309  23.367  1.00  0.00     0.000 C 
BRANCH   6   7
ATOM      7  C   UNL     1    -117.466  13.205  23.449  1.00  0.00    -0.003 C 
ATOM      8  C   UNL     1    -117.175  14.568  24.075  1.00  0.00     0.004 C 
ENDBRANCH   6   7
ENDBRANCH   1   6
TORSDOF 4
ENDMDL
MODEL 3
REMARK VINA RESULT:    -3.139      3.984      5.193
REMARK INTER + INTRA:          -3.935
REMARK INTER:                  -3.814
REMARK INTRA:                  -0.121
REMARK UNBOUND:                -0.062
REMARK SMILES CCCCCC(=O)[O-]
REMARK SMILES IDX 4 1 5 2 6 3 7 4 8 5 3 6 2 7 1 8
REMARK H PARENT
REMARK Flexibility Score: inf
ROOT
ATOM      1  C   UNL     1    -114.776  11.608  24.835  1.00  0.00     0.006 C 
ENDROOT
BRANCH   1   2
ATOM      2  C   UNL     1    -113.329  12.059  25.071  1.00  0.00     0.053 C 
BRANCH   2   3
ATOM      3  C   UNL     1    -112.347  10.981  24.724  1.00  0.00     0.041 C 
ATOM      4  O   UNL     1    -111.605  11.099  23.714  1.00  0.00    -0.550 OA
ATOM      5  O   UNL     1    -112.231   9.860  25.536  1.00  0.00    -0.550 OA
ENDBRANCH   2   3
ENDBRANCH   1   2
BRANCH   1   6
ATOM      6  C   UNL     1    -115.599  12.666  24.079  1.00  0.00     0.000 C 
BRANCH   6   7
ATOM      7  C   UNL     1    -116.393  12.069  22.907  1.00  0.00    -0.003 C 
ATOM      8  C   UNL     1    -115.707  10.853  22.285  1.00  0.00     0.004 C 
ENDBRANCH   6   7
ENDBRANCH   1   6
TORSDOF 4
ENDMDL
MODEL 4
REMARK VINA RESULT:    -3.062      1.590      2.147
REMARK INTER + INTRA:          -3.840
REMARK INTER:                  -3.751
REMARK INTRA:                  -0.089
REMARK UNBOUND:                -0.062
REMARK SMILES CCCCCC(=O)[O-]
REMARK SMILES IDX 4 1 5 2 6 3 7 4 8 5 3 6 2 7 1 8
REMARK H PARENT
REMARK Flexibility Score: inf
ROOT
ATOM      1  C   UNL     1    -115.097  11.466  24.588  1.00  0.00     0.006 C 
ENDROOT
BRANCH   1   2
ATOM      2  C   UNL     1    -115.607  12.840  24.134  1.00  0.00     0.053 C 
BRANCH   2   3
ATOM      3  C   UNL     1    -116.770  12.718  23.197  1.00  0.00     0.041 C 
ATOM      4  O   UNL     1    -117.907  13.137  23.539  1.00  0.00    -0.550 OA
ATOM      5  O   UNL     1    -116.590  12.171  21.933  1.00  0.00    -0.550 OA
ENDBRANCH   2   3
ENDBRANCH   1   2
BRANCH   1   6
ATOM      6  C   UNL     1    -113.894  11.580  25.542  1.00  0.00     0.000 C 
BRANCH   6   7
ATOM      7  C   UNL     1    -112.611  12.024  24.824  1.00  0.00    -0.003 C 
ATOM      8  C   UNL     1    -111.996  10.917  23.970  1.00  0.00     0.004 C 
ENDBRANCH   6   7
ENDBRANCH   1   6
TORSDOF 4
ENDMDL
MODEL 5
REMARK VINA RESULT:    -3.025     18.736     19.135
REMARK INTER + INTRA:          -3.794
REMARK INTER:                  -3.596
REMARK INTRA:                  -0.198
REMARK UNBOUND:                -0.062
REMARK SMILES CCCCCC(=O)[O-]
REMARK SMILES IDX 4 1 5 2 6 3 7 4 8 5 3 6 2 7 1 8
REMARK H PARENT
REMARK Flexibility Score: inf
ROOT
ATOM      1  C   UNL     1    -100.174  22.045  32.032  1.00  0.00     0.006 C 
ENDROOT
BRANCH   1   2
ATOM      2  C   UNL     1    -101.312  22.689  31.230  1.00  0.00     0.053 C 
BRANCH   2   3
ATOM      3  C   UNL     1    -102.232  23.481  32.109  1.00  0.00     0.041 C 
ATOM      4  O   UNL     1    -101.883  23.790  33.278  1.00  0.00    -0.550 OA
ATOM      5  O   UNL     1    -103.464  23.902  31.624  1.00  0.00    -0.550 OA
ENDBRANCH   2   3
ENDBRANCH   1   2
BRANCH   1   6
ATOM      6  C   UNL     1    -100.231  20.507  31.988  1.00  0.00     0.000 C 
BRANCH   6   7
ATOM      7  C   UNL     1    -100.245  19.877  33.389  1.00  0.00    -0.003 C 
ATOM      8  C   UNL     1    -101.387  20.395  34.260  1.00  0.00     0.004 C 
ENDBRANCH   6   7
ENDBRANCH   1   6
TORSDOF 4
ENDMDL
MODEL 6
REMARK VINA RESULT:    -3.018     12.603     13.810
REMARK INTER + INTRA:          -3.786
REMARK INTER:                  -3.618
REMARK INTRA:                  -0.168
REMARK UNBOUND:                -0.062
REMARK SMILES CCCCCC(=O)[O-]
REMARK SMILES IDX 4 1 5 2 6 3 7 4 8 5 3 6 2 7 1 8
REMARK H PARENT
REMARK Flexibility Score: inf
ROOT
ATOM      1  C   UNL     1    -102.121  11.261  24.068  1.00  0.00     0.006 C 
ENDROOT
BRANCH   1   2
ATOM      2  C   UNL     1    -101.799  11.733  22.645  1.00  0.00     0.053 C 
BRANCH   2   3
ATOM      3  C   UNL     1    -102.446  10.862  21.611  1.00  0.00     0.041 C 
ATOM      4  O   UNL     1    -102.021  10.861  20.425  1.00  0.00    -0.550 OA
ATOM      5  O   UNL     1    -103.499  10.028  21.964  1.00  0.00    -0.550 OA
ENDBRANCH   2   3
ENDBRANCH   1   2
BRANCH   1   6
ATOM      6  C   UNL     1    -103.005  12.267  24.828  1.00  0.00     0.000 C 
BRANCH   6   7
ATOM      7  C   UNL     1    -103.906  11.589  25.871  1.00  0.00    -0.003 C 
ATOM      8  C   UNL     1    -104.438  10.235  25.405  1.00  0.00     0.004 C 
ENDBRANCH   6   7
ENDBRANCH   1   6
TORSDOF 4
ENDMDL
MODEL 7
REMARK VINA RESULT:    -3.007     18.799     19.610
REMARK INTER + INTRA:          -3.772
REMARK INTER:                  -3.638
REMARK INTRA:                  -0.133
REMARK UNBOUND:                -0.062
REMARK SMILES CCCCCC(=O)[O-]
REMARK SMILES IDX 4 1 5 2 6 3 7 4 8 5 3 6 2 7 1 8
REMARK H PARENT
REMARK Flexibility Score: inf
ROOT
ATOM      1  C   UNL     1     -99.975  22.061  32.043  1.00  0.00     0.006 C 
ENDROOT
BRANCH   1   2
ATOM      2  C   UNL     1    -100.173  20.542  32.126  1.00  0.00     0.053 C 
BRANCH   2   3
ATOM      3  C   UNL     1    -100.635  20.115  33.486  1.00  0.00     0.041 C 
ATOM      4  O   UNL     1    -100.013  19.221  34.117  1.00  0.00    -0.550 OA
ATOM      5  O   UNL     1    -101.737  20.729  34.071  1.00  0.00    -0.550 OA
ENDBRANCH   2   3
ENDBRANCH   1   2
BRANCH   1   6
ATOM      6  C   UNL     1    -101.065  22.743  31.196  1.00  0.00     0.000 C 
BRANCH   6   7
ATOM      7  C   UNL     1    -101.721  23.928  31.922  1.00  0.00    -0.003 C 
ATOM      8  C   UNL     1    -103.244  23.919  31.814  1.00  0.00     0.004 C 
ENDBRANCH   6   7
ENDBRANCH   1   6
TORSDOF 4
ENDMDL
MODEL 8
REMARK VINA RESULT:    -2.952     13.618     14.313
REMARK INTER + INTRA:          -3.704
REMARK INTER:                  -3.566
REMARK INTRA:                  -0.138
REMARK UNBOUND:                -0.062
REMARK SMILES CCCCCC(=O)[O-]
REMARK SMILES IDX 4 1 5 2 6 3 7 4 8 5 3 6 2 7 1 8
REMARK H PARENT
REMARK Flexibility Score: inf
ROOT
ATOM      1  C   UNL     1    -102.919  12.115  24.685  1.00  0.00     0.006 C 
ENDROOT
BRANCH   1   2
ATOM      2  C   UNL     1    -102.948  10.975  23.658  1.00  0.00     0.053 C 
BRANCH   2   3
ATOM      3  C   UNL     1    -102.104  11.285  22.459  1.00  0.00     0.041 C 
ATOM      4  O   UNL     1    -102.587  11.187  21.301  1.00  0.00    -0.550 OA
ATOM      5  O   UNL     1    -100.793  11.713  22.624  1.00  0.00    -0.550 OA
ENDBRANCH   2   3
ENDBRANCH   1   2
BRANCH   1   6
ATOM      6  C   UNL     1    -103.033  11.598  26.130  1.00  0.00     0.000 C 
BRANCH   6   7
ATOM      7  C   UNL     1    -102.348  10.237  26.325  1.00  0.00    -0.003 C 
ATOM      8  C   UNL     1    -100.909  10.363  26.822  1.00  0.00     0.004 C 
ENDBRANCH   6   7
ENDBRANCH   1   6
TORSDOF 4
ENDMDL
MODEL 9
REMARK VINA RESULT:    -2.909      2.835      4.704
REMARK INTER + INTRA:          -3.651
REMARK INTER:                  -3.550
REMARK INTRA:                  -0.101
REMARK UNBOUND:                -0.062
REMARK SMILES CCCCCC(=O)[O-]
REMARK SMILES IDX 4 1 5 2 6 3 7 4 8 5 3 6 2 7 1 8
REMARK H PARENT
REMARK Flexibility Score: inf
ROOT
ATOM      1  C   UNL     1    -116.340  12.119  22.812  1.00  0.00     0.006 C 
ENDROOT
BRANCH   1   2
ATOM      2  C   UNL     1    -115.756  12.800  24.057  1.00  0.00     0.053 C 
BRANCH   2   3
ATOM      3  C   UNL     1    -114.763  11.922  24.756  1.00  0.00     0.041 C 
ATOM      4  O   UNL     1    -115.121  10.814  25.235  1.00  0.00    -0.550 OA
ATOM      5  O   UNL     1    -113.434  12.315  24.851  1.00  0.00    -0.550 OA
ENDBRANCH   2   3
ENDBRANCH   1   2
BRANCH   1   6
ATOM      6  C   UNL     1    -117.568  12.868  22.263  1.00  0.00     0.000 C 
BRANCH   6   7
ATOM      7  C   UNL     1    -117.938  14.094  23.111  1.00  0.00    -0.003 C 
ATOM      8  C   UNL     1    -119.078  14.911  22.504  1.00  0.00     0.004 C 
ENDBRANCH   6   7
ENDBRANCH   1   6
TORSDOF 4
ENDMDL
