MODEL 1
REMARK VINA RESULT:    -4.530      0.000      0.000
REMARK INTER + INTRA:          -4.804
REMARK INTER:                  -4.795
REMARK INTRA:                  -0.010
REMARK UNBOUND:                -0.010
REMARK SMILES O=Cc1ccccc1
REMARK SMILES IDX 6 1 5 2 4 3 3 4 8 5 7 6 2 7 1 8
REMARK H PARENT
REMARK Flexibility Score: inf
ROOT
ATOM      1  C   UNL     1     -14.735  44.229  23.645  1.00  0.00     0.000 A 
ATOM      2  C   UNL     1     -13.842  45.230  24.033  1.00  0.00     0.001 A 
ATOM      3  C   UNL     1     -12.710  45.502  23.257  1.00  0.00     0.011 A 
ATOM      4  C   UNL     1     -12.465  44.768  22.083  1.00  0.00     0.014 A 
ATOM      5  C   UNL     1     -13.369  43.763  21.699  1.00  0.00     0.011 A 
ATOM      6  C   UNL     1     -14.499  43.496  22.479  1.00  0.00     0.001 A 
ENDROOT
BRANCH   4   7
ATOM      7  C   UNL     1     -11.278  45.036  21.250  1.00  0.00     0.260 C 
ATOM      8  O   UNL     1     -10.396  44.154  21.072  1.00  0.00    -0.298 OA
ENDBRANCH   4   7
TORSDOF 1
ENDMDL
MODEL 2
REMARK VINA RESULT:    -4.524      0.038      1.713
REMARK INTER + INTRA:          -4.799
REMARK INTER:                  -4.789
REMARK INTRA:                  -0.009
REMARK UNBOUND:                -0.010
REMARK SMILES O=Cc1ccccc1
REMARK SMILES IDX 6 1 5 2 4 3 3 4 8 5 7 6 2 7 1 8
REMARK H PARENT
REMARK Flexibility Score: inf
ROOT
ATOM      1  C   UNL     1     -14.742  44.263  23.671  1.00  0.00     0.000 A 
ATOM      2  C   UNL     1     -14.513  43.502  22.522  1.00  0.00     0.001 A 
ATOM      3  C   UNL     1     -13.390  43.753  21.726  1.00  0.00     0.011 A 
ATOM      4  C   UNL     1     -12.488  44.772  22.077  1.00  0.00     0.014 A 
ATOM      5  C   UNL     1     -12.726  45.533  23.234  1.00  0.00     0.011 A 
ATOM      6  C   UNL     1     -13.849  45.278  24.026  1.00  0.00     0.001 A 
ENDROOT
BRANCH   4   7
ATOM      7  C   UNL     1     -11.298  45.054  21.252  1.00  0.00     0.260 C 
ATOM      8  O   UNL     1     -10.405  44.182  21.079  1.00  0.00    -0.298 OA
ENDBRANCH   4   7
TORSDOF 1
ENDMDL
MODEL 3
REMARK VINA RESULT:    -4.413      1.221      1.531
REMARK INTER + INTRA:          -4.681
REMARK INTER:                  -4.667
REMARK INTRA:                  -0.014
REMARK UNBOUND:                -0.010
REMARK SMILES O=Cc1ccccc1
REMARK SMILES IDX 6 1 5 2 4 3 3 4 8 5 7 6 2 7 1 8
REMARK H PARENT
REMARK Flexibility Score: inf
ROOT
ATOM      1  C   UNL     1     -14.792  45.105  25.155  1.00  0.00     0.000 A 
ATOM      2  C   UNL     1     -13.656  45.917  25.160  1.00  0.00     0.001 A 
ATOM      3  C   UNL     1     -12.790  45.921  24.061  1.00  0.00     0.011 A 
ATOM      4  C   UNL     1     -13.058  45.106  22.947  1.00  0.00     0.014 A 
ATOM      5  C   UNL     1     -14.203  44.292  22.949  1.00  0.00     0.011 A 
ATOM      6  C   UNL     1     -15.066  44.293  24.050  1.00  0.00     0.001 A 
ENDROOT
BRANCH   4   7
ATOM      7  C   UNL     1     -12.159  45.093  21.778  1.00  0.00     0.260 C 
ATOM      8  O   UNL     1     -12.523  44.586  20.683  1.00  0.00    -0.298 OA
ENDBRANCH   4   7
TORSDOF 1
ENDMDL
MODEL 4
REMARK VINA RESULT:    -4.362      2.100      3.145
REMARK INTER + INTRA:          -4.627
REMARK INTER:                  -4.616
REMARK INTRA:                  -0.011
REMARK UNBOUND:                -0.010
REMARK SMILES O=Cc1ccccc1
REMARK SMILES IDX 6 1 5 2 4 3 3 4 8 5 7 6 2 7 1 8
REMARK H PARENT
REMARK Flexibility Score: inf
ROOT
ATOM      1  C   UNL     1     -13.069  43.270  20.938  1.00  0.00     0.000 A 
ATOM      2  C   UNL     1     -14.080  43.256  21.903  1.00  0.00     0.001 A 
ATOM      3  C   UNL     1     -14.067  44.187  22.947  1.00  0.00     0.011 A 
ATOM      4  C   UNL     1     -13.038  45.141  23.031  1.00  0.00     0.014 A 
ATOM      5  C   UNL     1     -12.025  45.149  22.056  1.00  0.00     0.011 A 
ATOM      6  C   UNL     1     -12.043  44.216  21.015  1.00  0.00     0.001 A 
ENDROOT
BRANCH   4   7
ATOM      7  C   UNL     1     -13.004  46.132  24.123  1.00  0.00     0.260 C 
ATOM      8  O   UNL     1     -13.402  45.837  25.281  1.00  0.00    -0.298 OA
ENDBRANCH   4   7
TORSDOF 1
ENDMDL
MODEL 5
REMARK VINA RESULT:    -4.340      2.104      3.006
REMARK INTER + INTRA:          -4.603
REMARK INTER:                  -4.592
REMARK INTRA:                  -0.011
REMARK UNBOUND:                -0.010
REMARK SMILES O=Cc1ccccc1
REMARK SMILES IDX 6 1 5 2 4 3 3 4 8 5 7 6 2 7 1 8
REMARK H PARENT
REMARK Flexibility Score: inf
ROOT
ATOM      1  C   UNL     1     -13.268  43.261  21.152  1.00  0.00     0.000 A 
ATOM      2  C   UNL     1     -12.217  44.180  21.174  1.00  0.00     0.001 A 
ATOM      3  C   UNL     1     -12.154  45.152  22.179  1.00  0.00     0.011 A 
ATOM      4  C   UNL     1     -13.148  45.208  23.171  1.00  0.00     0.014 A 
ATOM      5  C   UNL     1     -14.202  44.280  23.142  1.00  0.00     0.011 A 
ATOM      6  C   UNL     1     -14.261  43.311  22.135  1.00  0.00     0.001 A 
ENDROOT
BRANCH   4   7
ATOM      7  C   UNL     1     -13.103  46.224  24.239  1.00  0.00     0.260 C 
ATOM      8  O   UNL     1     -13.315  45.912  25.442  1.00  0.00    -0.298 OA
ENDBRANCH   4   7
TORSDOF 1
ENDMDL
MODEL 6
REMARK VINA RESULT:    -4.232      2.184      3.103
REMARK INTER + INTRA:          -4.489
REMARK INTER:                  -4.478
REMARK INTRA:                  -0.011
REMARK UNBOUND:                -0.010
REMARK SMILES O=Cc1ccccc1
REMARK SMILES IDX 6 1 5 2 4 3 3 4 8 5 7 6 2 7 1 8
REMARK H PARENT
REMARK Flexibility Score: inf
ROOT
ATOM      1  C   UNL     1     -14.121  43.473  21.942  1.00  0.00     0.000 A 
ATOM      2  C   UNL     1     -13.003  44.307  21.869  1.00  0.00     0.001 A 
ATOM      3  C   UNL     1     -12.762  45.248  22.877  1.00  0.00     0.011 A 
ATOM      4  C   UNL     1     -13.644  45.359  23.967  1.00  0.00     0.014 A 
ATOM      5  C   UNL     1     -14.765  44.515  24.032  1.00  0.00     0.011 A 
ATOM      6  C   UNL     1     -15.002  43.576  23.022  1.00  0.00     0.001 A 
ENDROOT
BRANCH   4   7
ATOM      7  C   UNL     1     -13.410  46.343  25.039  1.00  0.00     0.260 C 
ATOM      8  O   UNL     1     -13.084  47.530  24.773  1.00  0.00    -0.298 OA
ENDBRANCH   4   7
TORSDOF 1
ENDMDL
MODEL 7
REMARK VINA RESULT:    -4.111      2.429      3.818
REMARK INTER + INTRA:          -4.361
REMARK INTER:                  -4.347
REMARK INTRA:                  -0.014
REMARK UNBOUND:                -0.010
REMARK SMILES O=Cc1ccccc1
REMARK SMILES IDX 6 1 5 2 4 3 3 4 8 5 7 6 2 7 1 8
REMARK H PARENT
REMARK Flexibility Score: inf
ROOT
ATOM      1  C   UNL     1     -11.989  45.106  21.989  1.00  0.00     0.000 A 
ATOM      2  C   UNL     1     -12.432  44.045  21.195  1.00  0.00     0.001 A 
ATOM      3  C   UNL     1     -13.607  43.362  21.527  1.00  0.00     0.011 A 
ATOM      4  C   UNL     1     -14.347  43.738  22.661  1.00  0.00     0.014 A 
ATOM      5  C   UNL     1     -13.895  44.806  23.455  1.00  0.00     0.011 A 
ATOM      6  C   UNL     1     -12.720  45.486  23.118  1.00  0.00     0.001 A 
ENDROOT
BRANCH   4   7
ATOM      7  C   UNL     1     -15.588  43.031  23.030  1.00  0.00     0.260 C 
ATOM      8  O   UNL     1     -16.081  43.144  24.185  1.00  0.00    -0.298 OA
ENDBRANCH   4   7
TORSDOF 1
ENDMDL
MODEL 8
REMARK VINA RESULT:    -4.101      3.221      4.606
REMARK INTER + INTRA:          -4.350
REMARK INTER:                  -4.338
REMARK INTRA:                  -0.012
REMARK UNBOUND:                -0.010
REMARK SMILES O=Cc1ccccc1
REMARK SMILES IDX 6 1 5 2 4 3 3 4 8 5 7 6 2 7 1 8
REMARK H PARENT
REMARK Flexibility Score: inf
ROOT
ATOM      1  C   UNL     1     -13.034  45.064  22.941  1.00  0.00     0.000 A 
ATOM      2  C   UNL     1     -14.199  44.294  22.980  1.00  0.00     0.001 A 
ATOM      3  C   UNL     1     -15.039  44.347  24.098  1.00  0.00     0.011 A 
ATOM      4  C   UNL     1     -14.716  45.175  25.187  1.00  0.00     0.014 A 
ATOM      5  C   UNL     1     -13.543  45.947  25.139  1.00  0.00     0.011 A 
ATOM      6  C   UNL     1     -12.706  45.890  24.020  1.00  0.00     0.001 A 
ENDROOT
BRANCH   4   7
ATOM      7  C   UNL     1     -15.587  45.247  26.375  1.00  0.00     0.260 C 
ATOM      8  O   UNL     1     -15.700  46.315  27.034  1.00  0.00    -0.298 OA
ENDBRANCH   4   7
TORSDOF 1
ENDMDL
MODEL 9
REMARK VINA RESULT:    -3.955     21.589     22.811
REMARK INTER + INTRA:          -4.195
REMARK INTER:                  -4.184
REMARK INTRA:                  -0.011
REMARK UNBOUND:                -0.010
REMARK SMILES O=Cc1ccccc1
REMARK SMILES IDX 6 1 5 2 4 3 3 4 8 5 7 6 2 7 1 8
REMARK H PARENT
REMARK Flexibility Score: inf
ROOT
ATOM      1  C   UNL     1     -24.003  62.008  28.982  1.00  0.00     0.000 A 
ATOM      2  C   UNL     1     -24.553  60.734  28.824  1.00  0.00     0.001 A 
ATOM      3  C   UNL     1     -25.464  60.240  29.765  1.00  0.00     0.011 A 
ATOM      4  C   UNL     1     -25.831  61.024  30.873  1.00  0.00     0.014 A 
ATOM      5  C   UNL     1     -25.273  62.305  31.024  1.00  0.00     0.011 A 
ATOM      6  C   UNL     1     -24.363  62.793  30.081  1.00  0.00     0.001 A 
ENDROOT
BRANCH   4   7
ATOM      7  C   UNL     1     -26.788  60.524  31.877  1.00  0.00     0.260 C 
ATOM      8  O   UNL     1     -27.757  61.234  32.261  1.00  0.00    -0.298 OA
ENDBRANCH   4   7
TORSDOF 1
ENDMDL
