MODEL 1
REMARK VINA RESULT:    -3.576      0.000      0.000
REMARK INTER + INTRA:          -4.265
REMARK INTER:                  -4.099
REMARK INTRA:                  -0.167
REMARK UNBOUND:                -0.167
REMARK SMILES CC=Cc1ccc(O)c(OC)c1
REMARK SMILES IDX 4 1 12 2 9 3 7 4 6 5 5 6 3 7 1 8 2 9 10 10 11 11 8 12
REMARK H PARENT 8 13
REMARK Flexibility Score: inf
ROOT
ATOM      1  C   UNL     1     139.698 146.482 144.948  1.00  0.00    -0.022 A 
ATOM      2  C   UNL     1     139.057 147.701 144.672  1.00  0.00     0.058 A 
ATOM      3  C   UNL     1     137.761 147.728 144.118  1.00  0.00     0.161 A 
ATOM      4  C   UNL     1     137.104 146.519 143.852  1.00  0.00     0.157 A 
ATOM      5  C   UNL     1     137.732 145.300 144.138  1.00  0.00     0.051 A 
ATOM      6  C   UNL     1     139.016 145.279 144.686  1.00  0.00     0.012 A 
ENDROOT
BRANCH   1   7
ATOM      7  C   UNL     1     141.059 146.514 145.539  1.00  0.00     0.003 C 
ATOM      8  C   UNL     1     143.391 147.279 145.753  1.00  0.00     0.035 C 
ATOM      9  C   UNL     1     142.050 147.295 145.093  1.00  0.00    -0.030 C 
ENDBRANCH   1   7
BRANCH   3  10
ATOM     10  O   UNL     1     137.097 148.928 143.822  1.00  0.00    -0.493 OA
ATOM     11  C   UNL     1     136.716 149.900 144.790  1.00  0.00     0.278 C 
ENDBRANCH   3  10
BRANCH   4  12
ATOM     12  O   UNL     1     135.823 146.537 143.303  1.00  0.00    -0.504 OA
ATOM     13  H   UNL     1     135.114 145.873 143.589  1.00  0.00     0.293 HD
ENDBRANCH   4  12
TORSDOF 3
ENDMDL
MODEL 2
REMARK VINA RESULT:    -3.568      7.785     10.008
REMARK INTER + INTRA:          -4.256
REMARK INTER:                  -4.091
REMARK INTRA:                  -0.166
REMARK UNBOUND:                -0.167
REMARK SMILES CC=Cc1ccc(O)c(OC)c1
REMARK SMILES IDX 4 1 12 2 9 3 7 4 6 5 5 6 3 7 1 8 2 9 10 10 11 11 8 12
REMARK H PARENT 8 13
REMARK Flexibility Score: inf
ROOT
ATOM      1  C   UNL     1     146.459 141.901 144.965  1.00  0.00    -0.022 A 
ATOM      2  C   UNL     1     147.676 142.545 144.684  1.00  0.00     0.058 A 
ATOM      3  C   UNL     1     147.698 143.844 144.139  1.00  0.00     0.161 A 
ATOM      4  C   UNL     1     146.487 144.503 143.886  1.00  0.00     0.157 A 
ATOM      5  C   UNL     1     145.271 143.873 144.178  1.00  0.00     0.051 A 
ATOM      6  C   UNL     1     145.254 142.585 144.717  1.00  0.00     0.012 A 
ENDROOT
BRANCH   1   7
ATOM      7  C   UNL     1     146.496 140.536 145.548  1.00  0.00     0.003 C 
ATOM      8  C   UNL     1     147.320 138.228 145.794  1.00  0.00     0.035 C 
ATOM      9  C   UNL     1     147.336 139.575 145.146  1.00  0.00    -0.030 C 
ENDBRANCH   1   7
BRANCH   3  10
ATOM     10  O   UNL     1     148.896 144.510 143.838  1.00  0.00    -0.493 OA
ATOM     11  C   UNL     1     149.909 144.820 144.789  1.00  0.00     0.278 C 
ENDBRANCH   3  10
BRANCH   4  12
ATOM     12  O   UNL     1     146.501 145.787 143.346  1.00  0.00    -0.504 OA
ATOM     13  H   UNL     1     147.218 146.458 143.592  1.00  0.00     0.293 HD
ENDBRANCH   4  12
TORSDOF 3
ENDMDL
MODEL 3
REMARK VINA RESULT:    -3.559      7.851     10.059
REMARK INTER + INTRA:          -4.246
REMARK INTER:                  -4.075
REMARK INTRA:                  -0.170
REMARK UNBOUND:                -0.167
REMARK SMILES CC=Cc1ccc(O)c(OC)c1
REMARK SMILES IDX 4 1 12 2 9 3 7 4 6 5 5 6 3 7 1 8 2 9 10 10 11 11 8 12
REMARK H PARENT 8 13
REMARK Flexibility Score: inf
ROOT
ATOM      1  C   UNL     1     135.033 139.711 144.899  1.00  0.00    -0.022 A 
ATOM      2  C   UNL     1     133.796 139.100 144.638  1.00  0.00     0.058 A 
ATOM      3  C   UNL     1     133.731 137.787 144.131  1.00  0.00     0.161 A 
ATOM      4  C   UNL     1     134.919 137.082 143.897  1.00  0.00     0.157 A 
ATOM      5  C   UNL     1     136.155 137.679 144.169  1.00  0.00     0.051 A 
ATOM      6  C   UNL     1     136.215 138.981 144.670  1.00  0.00     0.012 A 
ENDROOT
BRANCH   1   7
ATOM      7  C   UNL     1     135.042 141.093 145.441  1.00  0.00     0.003 C 
ATOM      8  C   UNL     1     134.327 143.446 145.587  1.00  0.00     0.035 C 
ATOM      9  C   UNL     1     134.269 142.083 144.977  1.00  0.00    -0.030 C 
ENDBRANCH   1   7
BRANCH   3  10
ATOM     10  O   UNL     1     132.510 137.152 143.851  1.00  0.00    -0.493 OA
ATOM     11  C   UNL     1     131.610 136.660 144.838  1.00  0.00     0.278 C 
ENDBRANCH   3  10
BRANCH   4  12
ATOM     12  O   UNL     1     134.862 135.783 143.395  1.00  0.00    -0.504 OA
ATOM     13  H   UNL     1     134.622 134.996 143.986  1.00  0.00     0.293 HD
ENDBRANCH   4  12
TORSDOF 3
ENDMDL
MODEL 4
REMARK VINA RESULT:    -3.552     12.238     14.141
REMARK INTER + INTRA:          -4.237
REMARK INTER:                  -4.068
REMARK INTRA:                  -0.169
REMARK UNBOUND:                -0.167
REMARK SMILES CC=Cc1ccc(O)c(OC)c1
REMARK SMILES IDX 4 1 12 2 9 3 7 4 6 5 5 6 3 7 1 8 2 9 10 10 11 11 8 12
REMARK H PARENT 8 13
REMARK Flexibility Score: inf
ROOT
ATOM      1  C   UNL     1     141.886 135.184 144.935  1.00  0.00    -0.022 A 
ATOM      2  C   UNL     1     142.500 133.956 144.638  1.00  0.00     0.058 A 
ATOM      3  C   UNL     1     143.806 133.908 144.113  1.00  0.00     0.161 A 
ATOM      4  C   UNL     1     144.503 135.105 143.897  1.00  0.00     0.157 A 
ATOM      5  C   UNL     1     143.903 136.332 144.205  1.00  0.00     0.051 A 
ATOM      6  C   UNL     1     142.608 136.374 144.724  1.00  0.00     0.012 A 
ENDROOT
BRANCH   1   7
ATOM      7  C   UNL     1     140.511 135.174 145.495  1.00  0.00     0.003 C 
ATOM      8  C   UNL     1     138.205 134.348 145.755  1.00  0.00     0.035 C 
ATOM      9  C   UNL     1     139.564 134.301 145.133  1.00  0.00    -0.030 C 
ENDBRANCH   1   7
BRANCH   3  10
ATOM     10  O   UNL     1     144.443 132.697 143.797  1.00  0.00    -0.493 OA
ATOM     11  C   UNL     1     144.840 131.720 144.752  1.00  0.00     0.278 C 
ENDBRANCH   3  10
BRANCH   4  12
ATOM     12  O   UNL     1     145.795 135.065 143.377  1.00  0.00    -0.504 OA
ATOM     13  H   UNL     1     146.422 135.858 143.452  1.00  0.00     0.293 HD
ENDBRANCH   4  12
TORSDOF 3
ENDMDL
MODEL 5
REMARK VINA RESULT:    -3.538     13.055     14.486
REMARK INTER + INTRA:          -4.222
REMARK INTER:                  -4.070
REMARK INTRA:                  -0.152
REMARK UNBOUND:                -0.167
REMARK SMILES CC=Cc1ccc(O)c(OC)c1
REMARK SMILES IDX 4 1 12 2 9 3 7 4 6 5 5 6 3 7 1 8 2 9 10 10 11 11 8 12
REMARK H PARENT 8 13
REMARK Flexibility Score: inf
ROOT
ATOM      1  C   UNL     1     144.881 135.549 144.094  1.00  0.00    -0.022 A 
ATOM      2  C   UNL     1     145.625 134.368 144.255  1.00  0.00     0.058 A 
ATOM      3  C   UNL     1     145.012 133.105 144.143  1.00  0.00     0.161 A 
ATOM      4  C   UNL     1     143.642 133.030 143.856  1.00  0.00     0.157 A 
ATOM      5  C   UNL     1     142.896 134.202 143.681  1.00  0.00     0.051 A 
ATOM      6  C   UNL     1     143.509 135.452 143.793  1.00  0.00     0.012 A 
ENDROOT
BRANCH   1   7
ATOM      7  C   UNL     1     145.581 136.852 144.214  1.00  0.00     0.003 C 
ATOM      8  C   UNL     1     146.807 138.636 145.389  1.00  0.00     0.035 C 
ATOM      9  C   UNL     1     146.104 137.318 145.354  1.00  0.00    -0.030 C 
ENDBRANCH   1   7
BRANCH   3  10
ATOM     10  O   UNL     1     145.726 131.908 144.308  1.00  0.00    -0.493 OA
ATOM     11  C   UNL     1     147.083 131.718 143.922  1.00  0.00     0.278 C 
ENDBRANCH   3  10
BRANCH   4  12
ATOM     12  O   UNL     1     143.027 131.784 143.746  1.00  0.00    -0.504 OA
ATOM     13  H   UNL     1     143.015 131.275 142.870  1.00  0.00     0.293 HD
ENDBRANCH   4  12
TORSDOF 3
ENDMDL
MODEL 6
REMARK VINA RESULT:    -3.522     10.070     11.751
REMARK INTER + INTRA:          -4.203
REMARK INTER:                  -4.048
REMARK INTRA:                  -0.155
REMARK UNBOUND:                -0.167
REMARK SMILES CC=Cc1ccc(O)c(OC)c1
REMARK SMILES IDX 4 1 12 2 9 3 7 4 6 5 5 6 3 7 1 8 2 9 10 10 11 11 8 12
REMARK H PARENT 8 13
REMARK Flexibility Score: inf
ROOT
ATOM      1  C   UNL     1     135.558 136.730 144.140  1.00  0.00    -0.022 A 
ATOM      2  C   UNL     1     134.378 135.985 144.308  1.00  0.00     0.058 A 
ATOM      3  C   UNL     1     133.114 136.588 144.153  1.00  0.00     0.161 A 
ATOM      4  C   UNL     1     133.038 137.947 143.817  1.00  0.00     0.157 A 
ATOM      5  C   UNL     1     134.210 138.691 143.634  1.00  0.00     0.051 A 
ATOM      6  C   UNL     1     135.460 138.089 143.789  1.00  0.00     0.012 A 
ENDROOT
BRANCH   1   7
ATOM      7  C   UNL     1     136.862 136.040 144.306  1.00  0.00     0.003 C 
ATOM      8  C   UNL     1     138.462 134.502 145.375  1.00  0.00     0.035 C 
ATOM      9  C   UNL     1     137.126 135.165 145.284  1.00  0.00    -0.030 C 
ENDBRANCH   1   7
BRANCH   3  10
ATOM     10  O   UNL     1     131.917 135.874 144.324  1.00  0.00    -0.493 OA
ATOM     11  C   UNL     1     131.711 134.531 143.900  1.00  0.00     0.278 C 
ENDBRANCH   3  10
BRANCH   4  12
ATOM     12  O   UNL     1     131.792 138.550 143.664  1.00  0.00    -0.504 OA
ATOM     13  H   UNL     1     130.986 138.247 144.199  1.00  0.00     0.293 HD
ENDBRANCH   4  12
TORSDOF 3
ENDMDL
MODEL 7
REMARK VINA RESULT:    -3.434      7.174      9.547
REMARK INTER + INTRA:          -4.103
REMARK INTER:                  -3.932
REMARK INTRA:                  -0.171
REMARK UNBOUND:                -0.167
REMARK SMILES CC=Cc1ccc(O)c(OC)c1
REMARK SMILES IDX 4 1 12 2 9 3 7 4 6 5 5 6 3 7 1 8 2 9 10 10 11 11 8 12
REMARK H PARENT 8 13
REMARK Flexibility Score: inf
ROOT
ATOM      1  C   UNL     1     147.291 142.322 145.096  1.00  0.00    -0.022 A 
ATOM      2  C   UNL     1     146.137 143.051 144.763  1.00  0.00     0.058 A 
ATOM      3  C   UNL     1     146.232 144.317 144.152  1.00  0.00     0.161 A 
ATOM      4  C   UNL     1     147.497 144.847 143.865  1.00  0.00     0.157 A 
ATOM      5  C   UNL     1     148.651 144.120 144.180  1.00  0.00     0.051 A 
ATOM      6  C   UNL     1     148.552 142.866 144.786  1.00  0.00     0.012 A 
ENDROOT
BRANCH   1   7
ATOM      7  C   UNL     1     147.131 140.989 145.730  1.00  0.00     0.003 C 
ATOM      8  C   UNL     1     147.225 138.530 145.827  1.00  0.00     0.035 C 
ATOM      9  C   UNL     1     147.398 139.832 145.114  1.00  0.00    -0.030 C 
ENDBRANCH   1   7
BRANCH   3  10
ATOM     10  O   UNL     1     145.098 145.074 143.816  1.00  0.00    -0.493 OA
ATOM     11  C   UNL     1     144.346 145.853 144.740  1.00  0.00     0.278 C 
ENDBRANCH   3  10
BRANCH   4  12
ATOM     12  O   UNL     1     147.599 146.099 143.262  1.00  0.00    -0.504 OA
ATOM     13  H   UNL     1     148.484 146.589 143.202  1.00  0.00     0.293 HD
ENDBRANCH   4  12
TORSDOF 3
ENDMDL
MODEL 8
REMARK VINA RESULT:    -3.414      8.438     10.640
REMARK INTER + INTRA:          -4.080
REMARK INTER:                  -3.908
REMARK INTRA:                  -0.172
REMARK UNBOUND:                -0.167
REMARK SMILES CC=Cc1ccc(O)c(OC)c1
REMARK SMILES IDX 4 1 12 2 9 3 7 4 6 5 5 6 3 7 1 8 2 9 10 10 11 11 8 12
REMARK H PARENT 8 13
REMARK Flexibility Score: inf
ROOT
ATOM      1  C   UNL     1     134.011 139.068 144.706  1.00  0.00    -0.022 A 
ATOM      2  C   UNL     1     135.213 138.394 144.436  1.00  0.00     0.058 A 
ATOM      3  C   UNL     1     135.214 137.033 144.071  1.00  0.00     0.161 A 
ATOM      4  C   UNL     1     133.994 136.350 143.967  1.00  0.00     0.157 A 
ATOM      5  C   UNL     1     132.791 137.019 144.221  1.00  0.00     0.051 A 
ATOM      6  C   UNL     1     132.796 138.368 144.583  1.00  0.00     0.012 A 
ENDROOT
BRANCH   1   7
ATOM      7  C   UNL     1     134.069 140.504 145.078  1.00  0.00     0.003 C 
ATOM      8  C   UNL     1     135.160 142.578 145.837  1.00  0.00     0.035 C 
ATOM      9  C   UNL     1     135.180 141.123 145.495  1.00  0.00    -0.030 C 
ENDBRANCH   1   7
BRANCH   3  10
ATOM     10  O   UNL     1     136.399 136.329 143.804  1.00  0.00    -0.493 OA
ATOM     11  C   UNL     1     137.247 135.769 144.800  1.00  0.00     0.278 C 
ENDBRANCH   3  10
BRANCH   4  12
ATOM     12  O   UNL     1     133.987 135.004 143.608  1.00  0.00    -0.504 OA
ATOM     13  H   UNL     1     134.531 134.660 142.825  1.00  0.00     0.293 HD
ENDBRANCH   4  12
TORSDOF 3
ENDMDL
MODEL 9
REMARK VINA RESULT:    -3.409      1.295      2.706
REMARK INTER + INTRA:          -4.074
REMARK INTER:                  -3.899
REMARK INTRA:                  -0.175
REMARK UNBOUND:                -0.167
REMARK SMILES CC=Cc1ccc(O)c(OC)c1
REMARK SMILES IDX 4 1 12 2 9 3 7 4 6 5 5 6 3 7 1 8 2 9 10 10 11 11 8 12
REMARK H PARENT 8 13
REMARK Flexibility Score: inf
ROOT
ATOM      1  C   UNL     1     138.983 147.651 144.690  1.00  0.00    -0.022 A 
ATOM      2  C   UNL     1     138.311 146.442 144.445  1.00  0.00     0.058 A 
ATOM      3  C   UNL     1     136.963 146.434 144.037  1.00  0.00     0.161 A 
ATOM      4  C   UNL     1     136.291 147.652 143.865  1.00  0.00     0.157 A 
ATOM      5  C   UNL     1     136.958 148.861 144.093  1.00  0.00     0.051 A 
ATOM      6  C   UNL     1     138.295 148.864 144.498  1.00  0.00     0.012 A 
ENDROOT
BRANCH   1   7
ATOM      7  C   UNL     1     140.407 147.601 145.109  1.00  0.00     0.003 C 
ATOM      8  C   UNL     1     142.468 146.516 145.910  1.00  0.00     0.035 C 
ATOM      9  C   UNL     1     141.026 146.487 145.518  1.00  0.00    -0.030 C 
ENDBRANCH   1   7
BRANCH   3  10
ATOM     10  O   UNL     1     136.261 145.243 143.794  1.00  0.00    -0.493 OA
ATOM     11  C   UNL     1     135.748 144.387 144.810  1.00  0.00     0.278 C 
ENDBRANCH   3  10
BRANCH   4  12
ATOM     12  O   UNL     1     134.956 147.652 143.463  1.00  0.00    -0.504 OA
ATOM     13  H   UNL     1     134.290 146.987 143.838  1.00  0.00     0.293 HD
ENDBRANCH   4  12
TORSDOF 3
ENDMDL
