MODEL 1
REMARK VINA RESULT:    -6.119      0.000      0.000
REMARK INTER + INTRA:          -9.030
REMARK INTER:                  -7.550
REMARK INTRA:                  -1.480
REMARK UNBOUND:                -1.480
REMARK SMILES CC(C)=CCC[C@H](C)c1ccc(C)cc1
REMARK SMILES IDX 6 1 7 2 8 3 9 4 13 5 12 6 11 7 14 8 10 9 15 10 5 11 4 12
REMARK SMILES IDX 2 13 1 14 3 15
REMARK H PARENT
REMARK Flexibility Score: inf
ROOT
ATOM      1  C   UNL     1      -5.633 -47.506  17.563  1.00  0.00     0.012 C 
ENDROOT
BRANCH   1   2
ATOM      2  C   UNL     1      -4.821 -48.670  18.186  1.00  0.00     0.016 C 
ATOM      3  C   UNL     1      -4.348 -48.351  19.614  1.00  0.00     0.013 C 
BRANCH   2   4
ATOM      4  C   UNL     1      -3.634 -49.016  17.305  1.00  0.00    -0.045 A 
ATOM      5  C   UNL     1      -0.275 -49.961  14.760  1.00  0.00     0.044 C 
ATOM      6  C   UNL     1      -1.443 -49.662  15.652  1.00  0.00    -0.051 A 
ATOM      7  C   UNL     1      -2.748 -49.700  15.143  1.00  0.00     0.004 A 
ATOM      8  C   UNL     1      -1.234 -49.274  16.983  1.00  0.00     0.004 A 
ATOM      9  C   UNL     1      -3.836 -49.385  15.964  1.00  0.00     0.004 A 
ATOM     10  C   UNL     1      -2.319 -48.959  17.805  1.00  0.00     0.004 A 
ENDBRANCH   2   4
ENDBRANCH   1   2
BRANCH   1  11
ATOM     11  C   UNL     1      -5.058 -46.113  17.869  1.00  0.00     0.028 C 
BRANCH  11  12
ATOM     12  C   UNL     1      -4.006 -45.694  16.867  1.00  0.00    -0.028 C 
ATOM     13  C   UNL     1      -2.738 -45.389  17.214  1.00  0.00    -0.080 C 
ATOM     14  C   UNL     1      -1.768 -44.990  16.134  1.00  0.00     0.039 C 
ATOM     15  C   UNL     1      -2.277 -45.442  18.652  1.00  0.00     0.039 C 
ENDBRANCH  11  12
ENDBRANCH   1  11
TORSDOF 4
ENDMDL
MODEL 2
REMARK VINA RESULT:    -5.877      1.520      4.134
REMARK INTER + INTRA:          -8.731
REMARK INTER:                  -7.352
REMARK INTRA:                  -1.380
REMARK UNBOUND:                -1.480
REMARK SMILES CC(C)=CCC[C@H](C)c1ccc(C)cc1
REMARK SMILES IDX 6 1 7 2 8 3 9 4 13 5 12 6 11 7 14 8 10 9 15 10 5 11 4 12
REMARK SMILES IDX 2 13 1 14 3 15
REMARK H PARENT
REMARK Flexibility Score: inf
ROOT
ATOM      1  C   UNL     1      -2.896 -48.877  18.487  1.00  0.00     0.012 C 
ENDROOT
BRANCH   1   2
ATOM      2  C   UNL     1      -2.568 -48.904  16.973  1.00  0.00     0.016 C 
ATOM      3  C   UNL     1      -1.193 -49.527  16.686  1.00  0.00     0.013 C 
BRANCH   2   4
ATOM      4  C   UNL     1      -2.642 -47.504  16.392  1.00  0.00    -0.045 A 
ATOM      5  C   UNL     1      -2.797 -43.518  14.734  1.00  0.00     0.044 C 
ATOM      6  C   UNL     1      -2.767 -44.895  15.329  1.00  0.00    -0.051 A 
ATOM      7  C   UNL     1      -1.928 -45.176  16.415  1.00  0.00     0.004 A 
ATOM      8  C   UNL     1      -3.524 -45.928  14.758  1.00  0.00     0.004 A 
ATOM      9  C   UNL     1      -1.870 -46.469  16.947  1.00  0.00     0.004 A 
ATOM     10  C   UNL     1      -3.468 -47.220  15.287  1.00  0.00     0.004 A 
ENDBRANCH   2   4
ENDBRANCH   1   2
BRANCH   1  11
ATOM     11  C   UNL     1      -4.386 -48.656  18.797  1.00  0.00     0.028 C 
BRANCH  11  12
ATOM     12  C   UNL     1      -4.626 -47.390  19.588  1.00  0.00    -0.028 C 
ATOM     13  C   UNL     1      -5.368 -46.361  19.125  1.00  0.00    -0.080 C 
ATOM     14  C   UNL     1      -5.548 -45.149  20.000  1.00  0.00     0.039 C 
ATOM     15  C   UNL     1      -6.014 -46.404  17.761  1.00  0.00     0.039 C 
ENDBRANCH  11  12
ENDBRANCH   1  11
TORSDOF 4
ENDMDL
MODEL 3
REMARK VINA RESULT:    -5.644      1.672      4.692
REMARK INTER + INTRA:          -8.443
REMARK INTER:                  -7.212
REMARK INTRA:                  -1.232
REMARK UNBOUND:                -1.480
REMARK SMILES CC(C)=CCC[C@H](C)c1ccc(C)cc1
REMARK SMILES IDX 6 1 7 2 8 3 9 4 13 5 12 6 11 7 14 8 10 9 15 10 5 11 4 12
REMARK SMILES IDX 2 13 1 14 3 15
REMARK H PARENT
REMARK Flexibility Score: inf
ROOT
ATOM      1  C   UNL     1      -2.430 -48.674  18.453  1.00  0.00     0.012 C 
ENDROOT
BRANCH   1   2
ATOM      2  C   UNL     1      -3.958 -48.913  18.352  1.00  0.00     0.016 C 
ATOM      3  C   UNL     1      -4.385 -49.365  16.946  1.00  0.00     0.013 C 
BRANCH   2   4
ATOM      4  C   UNL     1      -4.714 -47.660  18.754  1.00  0.00    -0.045 A 
ATOM      5  C   UNL     1      -6.916 -44.119  19.881  1.00  0.00     0.044 C 
ATOM      6  C   UNL     1      -6.128 -45.331  19.481  1.00  0.00    -0.051 A 
ATOM      7  C   UNL     1      -6.227 -45.841  18.180  1.00  0.00     0.004 A 
ATOM      8  C   UNL     1      -5.341 -46.005  20.426  1.00  0.00     0.004 A 
ATOM      9  C   UNL     1      -5.521 -46.993  17.817  1.00  0.00     0.004 A 
ATOM     10  C   UNL     1      -4.636 -47.156  20.066  1.00  0.00     0.004 A 
ENDBRANCH   2   4
ENDBRANCH   1   2
BRANCH   1  11
ATOM     11  C   UNL     1      -1.768 -48.309  17.114  1.00  0.00     0.028 C 
BRANCH  11  12
ATOM     12  C   UNL     1      -1.660 -46.814  16.916  1.00  0.00    -0.028 C 
ATOM     13  C   UNL     1      -2.295 -46.154  15.925  1.00  0.00    -0.080 C 
ATOM     14  C   UNL     1      -2.124 -44.661  15.823  1.00  0.00     0.039 C 
ATOM     15  C   UNL     1      -3.167 -46.878  14.926  1.00  0.00     0.039 C 
ENDBRANCH  11  12
ENDBRANCH   1  11
TORSDOF 4
ENDMDL
MODEL 4
REMARK VINA RESULT:    -5.445      1.335      4.509
REMARK INTER + INTRA:          -8.198
REMARK INTER:                  -7.006
REMARK INTRA:                  -1.193
REMARK UNBOUND:                -1.480
REMARK SMILES CC(C)=CCC[C@H](C)c1ccc(C)cc1
REMARK SMILES IDX 6 1 7 2 8 3 9 4 13 5 12 6 11 7 14 8 10 9 15 10 5 11 4 12
REMARK SMILES IDX 2 13 1 14 3 15
REMARK H PARENT
REMARK Flexibility Score: inf
ROOT
ATOM      1  C   UNL     1      -4.045 -47.117  19.113  1.00  0.00     0.012 C 
ENDROOT
BRANCH   1   2
ATOM      2  C   UNL     1      -2.743 -46.345  18.784  1.00  0.00     0.016 C 
ATOM      3  C   UNL     1      -2.310 -45.417  19.930  1.00  0.00     0.013 C 
BRANCH   2   4
ATOM      4  C   UNL     1      -2.910 -45.552  17.501  1.00  0.00    -0.045 A 
ATOM      5  C   UNL     1      -3.411 -43.253  13.878  1.00  0.00     0.044 C 
ATOM      6  C   UNL     1      -3.242 -44.077  15.120  1.00  0.00    -0.051 A 
ATOM      7  C   UNL     1      -4.341 -44.336  15.951  1.00  0.00     0.004 A 
ATOM      8  C   UNL     1      -1.971 -44.535  15.496  1.00  0.00     0.004 A 
ATOM      9  C   UNL     1      -4.177 -45.072  17.129  1.00  0.00     0.004 A 
ATOM     10  C   UNL     1      -1.806 -45.271  16.672  1.00  0.00     0.004 A 
ENDBRANCH   2   4
ENDBRANCH   1   2
BRANCH   1  11
ATOM     11  C   UNL     1      -3.994 -48.609  18.743  1.00  0.00     0.028 C 
BRANCH  11  12
ATOM     12  C   UNL     1      -2.659 -49.010  18.160  1.00  0.00    -0.028 C 
ATOM     13  C   UNL     1      -2.460 -49.204  16.839  1.00  0.00    -0.080 C 
ATOM     14  C   UNL     1      -1.085 -49.596  16.365  1.00  0.00     0.039 C 
ATOM     15  C   UNL     1      -3.578 -49.036  15.838  1.00  0.00     0.039 C 
ENDBRANCH  11  12
ENDBRANCH   1  11
TORSDOF 4
ENDMDL
MODEL 5
REMARK VINA RESULT:    -5.405      1.787      4.680
REMARK INTER + INTRA:          -8.150
REMARK INTER:                  -6.664
REMARK INTRA:                  -1.485
REMARK UNBOUND:                -1.480
REMARK SMILES CC(C)=CCC[C@H](C)c1ccc(C)cc1
REMARK SMILES IDX 6 1 7 2 8 3 9 4 13 5 12 6 11 7 14 8 10 9 15 10 5 11 4 12
REMARK SMILES IDX 2 13 1 14 3 15
REMARK H PARENT
REMARK Flexibility Score: inf
ROOT
ATOM      1  C   UNL     1      -3.238 -48.775  17.598  1.00  0.00     0.012 C 
ENDROOT
BRANCH   1   2
ATOM      2  C   UNL     1      -4.284 -48.775  18.741  1.00  0.00     0.016 C 
ATOM      3  C   UNL     1      -5.366 -49.849  18.541  1.00  0.00     0.013 C 
BRANCH   2   4
ATOM      4  C   UNL     1      -4.923 -47.404  18.871  1.00  0.00    -0.045 A 
ATOM      5  C   UNL     1      -6.691 -43.482  19.257  1.00  0.00     0.044 C 
ATOM      6  C   UNL     1      -6.104 -44.857  19.131  1.00  0.00    -0.051 A 
ATOM      7  C   UNL     1      -5.444 -45.445  20.219  1.00  0.00     0.004 A 
ATOM      8  C   UNL     1      -6.149 -45.535  17.905  1.00  0.00     0.004 A 
ATOM      9  C   UNL     1      -4.863 -46.711  20.091  1.00  0.00     0.004 A 
ATOM     10  C   UNL     1      -5.569 -46.799  17.775  1.00  0.00     0.004 A 
ENDBRANCH   2   4
ENDBRANCH   1   2
BRANCH   1  11
ATOM     11  C   UNL     1      -2.078 -47.789  17.817  1.00  0.00     0.028 C 
BRANCH  11  12
ATOM     12  C   UNL     1      -1.961 -46.783  16.694  1.00  0.00    -0.028 C 
ATOM     13  C   UNL     1      -2.091 -45.453  16.880  1.00  0.00    -0.080 C 
ATOM     14  C   UNL     1      -1.948 -44.539  15.692  1.00  0.00     0.039 C 
ATOM     15  C   UNL     1      -2.372 -44.869  18.245  1.00  0.00     0.039 C 
ENDBRANCH  11  12
ENDBRANCH   1  11
TORSDOF 4
ENDMDL
MODEL 6
REMARK VINA RESULT:    -5.244     14.237     17.061
REMARK INTER + INTRA:          -7.951
REMARK INTER:                  -6.657
REMARK INTRA:                  -1.294
REMARK UNBOUND:                -1.480
REMARK SMILES CC(C)=CCC[C@H](C)c1ccc(C)cc1
REMARK SMILES IDX 6 1 7 2 8 3 9 4 13 5 12 6 11 7 14 8 10 9 15 10 5 11 4 12
REMARK SMILES IDX 2 13 1 14 3 15
REMARK H PARENT
REMARK Flexibility Score: inf
ROOT
ATOM      1  C   UNL     1       6.493 -32.598  17.903  1.00  0.00     0.012 C 
ENDROOT
BRANCH   1   2
ATOM      2  C   UNL     1       5.969 -33.532  19.023  1.00  0.00     0.016 C 
ATOM      3  C   UNL     1       6.570 -33.190  20.395  1.00  0.00     0.013 C 
BRANCH   2   4
ATOM      4  C   UNL     1       6.247 -34.982  18.673  1.00  0.00    -0.045 A 
ATOM      5  C   UNL     1       7.074 -39.093  17.638  1.00  0.00     0.044 C 
ATOM      6  C   UNL     1       6.758 -37.674  18.005  1.00  0.00    -0.051 A 
ATOM      7  C   UNL     1       6.287 -36.781  17.033  1.00  0.00     0.004 A 
ATOM      8  C   UNL     1       6.999 -37.211  19.306  1.00  0.00     0.004 A 
ATOM      9  C   UNL     1       6.028 -35.447  17.366  1.00  0.00     0.004 A 
ATOM     10  C   UNL     1       6.741 -35.879  19.641  1.00  0.00     0.004 A 
ENDBRANCH   2   4
ENDBRANCH   1   2
BRANCH   1  11
ATOM     11  C   UNL     1       7.859 -31.962  18.212  1.00  0.00     0.028 C 
BRANCH  11  12
ATOM     12  C   UNL     1       8.948 -32.467  17.294  1.00  0.00    -0.028 C 
ATOM     13  C   UNL     1       9.903 -33.334  17.692  1.00  0.00    -0.080 C 
ATOM     14  C   UNL     1      10.939 -33.778  16.692  1.00  0.00     0.039 C 
ATOM     15  C   UNL     1       9.952 -33.863  19.106  1.00  0.00     0.039 C 
ENDBRANCH  11  12
ENDBRANCH   1  11
TORSDOF 4
ENDMDL
MODEL 7
REMARK VINA RESULT:    -5.233      1.472      5.054
REMARK INTER + INTRA:          -7.937
REMARK INTER:                  -6.428
REMARK INTRA:                  -1.509
REMARK UNBOUND:                -1.480
REMARK SMILES CC(C)=CCC[C@H](C)c1ccc(C)cc1
REMARK SMILES IDX 6 1 7 2 8 3 9 4 13 5 12 6 11 7 14 8 10 9 15 10 5 11 4 12
REMARK SMILES IDX 2 13 1 14 3 15
REMARK H PARENT
REMARK Flexibility Score: inf
ROOT
ATOM      1  C   UNL     1      -1.645 -46.350  17.406  1.00  0.00     0.012 C 
ENDROOT
BRANCH   1   2
ATOM      2  C   UNL     1      -2.501 -45.255  18.092  1.00  0.00     0.016 C 
ATOM      3  C   UNL     1      -2.488 -45.381  19.624  1.00  0.00     0.013 C 
BRANCH   2   4
ATOM      4  C   UNL     1      -3.926 -45.298  17.573  1.00  0.00    -0.045 A 
ATOM      5  C   UNL     1      -7.971 -45.467  16.067  1.00  0.00     0.044 C 
ATOM      6  C   UNL     1      -6.568 -45.377  16.589  1.00  0.00    -0.051 A 
ATOM      7  C   UNL     1      -5.481 -45.420  15.704  1.00  0.00     0.004 A 
ATOM      8  C   UNL     1      -6.329 -45.321  17.969  1.00  0.00     0.004 A 
ATOM      9  C   UNL     1      -4.171 -45.375  16.191  1.00  0.00     0.004 A 
ATOM     10  C   UNL     1      -5.021 -45.276  18.458  1.00  0.00     0.004 A 
ENDBRANCH   2   4
ENDBRANCH   1   2
BRANCH   1  11
ATOM     11  C   UNL     1      -1.944 -47.774  17.902  1.00  0.00     0.028 C 
BRANCH  11  12
ATOM     12  C   UNL     1      -2.314 -48.709  16.774  1.00  0.00    -0.028 C 
ATOM     13  C   UNL     1      -3.558 -49.205  16.606  1.00  0.00    -0.080 C 
ATOM     14  C   UNL     1      -3.820 -50.124  15.442  1.00  0.00     0.039 C 
ATOM     15  C   UNL     1      -4.682 -48.858  17.553  1.00  0.00     0.039 C 
ENDBRANCH  11  12
ENDBRANCH   1  11
TORSDOF 4
ENDMDL
MODEL 8
REMARK VINA RESULT:    -5.217      1.485      2.358
REMARK INTER + INTRA:          -7.917
REMARK INTER:                  -6.434
REMARK INTRA:                  -1.483
REMARK UNBOUND:                -1.480
REMARK SMILES CC(C)=CCC[C@H](C)c1ccc(C)cc1
REMARK SMILES IDX 6 1 7 2 8 3 9 4 13 5 12 6 11 7 14 8 10 9 15 10 5 11 4 12
REMARK SMILES IDX 2 13 1 14 3 15
REMARK H PARENT
REMARK Flexibility Score: inf
ROOT
ATOM      1  C   UNL     1      -5.441 -45.030  18.582  1.00  0.00     0.012 C 
ENDROOT
BRANCH   1   2
ATOM      2  C   UNL     1      -5.309 -46.433  19.226  1.00  0.00     0.016 C 
ATOM      3  C   UNL     1      -5.116 -46.360  20.749  1.00  0.00     0.013 C 
BRANCH   2   4
ATOM      4  C   UNL     1      -4.165 -47.200  18.588  1.00  0.00    -0.045 A 
ATOM      5  C   UNL     1      -0.937 -49.381  16.722  1.00  0.00     0.044 C 
ATOM      6  C   UNL     1      -2.053 -48.640  17.396  1.00  0.00    -0.051 A 
ATOM      7  C   UNL     1      -3.371 -49.107  17.300  1.00  0.00     0.004 A 
ATOM      8  C   UNL     1      -1.797 -47.436  18.068  1.00  0.00     0.004 A 
ATOM      9  C   UNL     1      -4.418 -48.397  17.895  1.00  0.00     0.004 A 
ATOM     10  C   UNL     1      -2.841 -46.724  18.664  1.00  0.00     0.004 A 
ENDBRANCH   2   4
ENDBRANCH   1   2
BRANCH   1  11
ATOM     11  C   UNL     1      -5.538 -45.057  17.047  1.00  0.00     0.028 C 
BRANCH  11  12
ATOM     12  C   UNL     1      -4.450 -44.241  16.389  1.00  0.00    -0.028 C 
ATOM     13  C   UNL     1      -3.616 -44.743  15.454  1.00  0.00    -0.080 C 
ATOM     14  C   UNL     1      -2.569 -43.839  14.857  1.00  0.00     0.039 C 
ATOM     15  C   UNL     1      -3.712 -46.180  14.999  1.00  0.00     0.039 C 
ENDBRANCH  11  12
ENDBRANCH   1  11
TORSDOF 4
ENDMDL
MODEL 9
REMARK VINA RESULT:    -5.147      1.874      4.731
REMARK INTER + INTRA:          -7.831
REMARK INTER:                  -6.302
REMARK INTRA:                  -1.529
REMARK UNBOUND:                -1.480
REMARK SMILES CC(C)=CCC[C@H](C)c1ccc(C)cc1
REMARK SMILES IDX 6 1 7 2 8 3 9 4 13 5 12 6 11 7 14 8 10 9 15 10 5 11 4 12
REMARK SMILES IDX 2 13 1 14 3 15
REMARK H PARENT
REMARK Flexibility Score: inf
ROOT
ATOM      1  C   UNL     1      -1.604 -46.761  16.339  1.00  0.00     0.012 C 
ENDROOT
BRANCH   1   2
ATOM      2  C   UNL     1      -1.731 -47.514  17.688  1.00  0.00     0.016 C 
ATOM      3  C   UNL     1      -1.938 -49.025  17.494  1.00  0.00     0.013 C 
BRANCH   2   4
ATOM      4  C   UNL     1      -2.863 -46.930  18.513  1.00  0.00    -0.045 A 
ATOM      5  C   UNL     1      -6.096 -45.231  20.820  1.00  0.00     0.044 C 
ATOM      6  C   UNL     1      -4.958 -45.827  20.045  1.00  0.00    -0.051 A 
ATOM      7  C   UNL     1      -3.910 -45.015  19.592  1.00  0.00     0.004 A 
ATOM      8  C   UNL     1      -4.970 -47.188  19.707  1.00  0.00     0.004 A 
ATOM      9  C   UNL     1      -2.868 -45.563  18.836  1.00  0.00     0.004 A 
ATOM     10  C   UNL     1      -3.931 -47.738  18.953  1.00  0.00     0.004 A 
ENDBRANCH   2   4
ENDBRANCH   1   2
BRANCH   1  11
ATOM     11  C   UNL     1      -2.870 -46.828  15.468  1.00  0.00     0.028 C 
BRANCH  11  12
ATOM     12  C   UNL     1      -3.407 -45.457  15.129  1.00  0.00    -0.028 C 
ATOM     13  C   UNL     1      -4.637 -45.037  15.493  1.00  0.00    -0.080 C 
ATOM     14  C   UNL     1      -5.070 -43.646  15.109  1.00  0.00     0.039 C 
ATOM     15  C   UNL     1      -5.578 -45.927  16.271  1.00  0.00     0.039 C 
ENDBRANCH  11  12
ENDBRANCH   1  11
TORSDOF 4
ENDMDL
