MODEL 1
REMARK VINA RESULT:    -3.407      0.000      0.000
REMARK INTER + INTRA:          -3.407
REMARK INTER:                  -3.407
REMARK INTRA:                   0.000
REMARK UNBOUND:                 0.000
REMARK SMILES CC1(C)[C@@H]2CC[C@@]1(C)C(=O)C2
REMARK SMILES IDX 1 1 2 2 4 3 5 4 6 5 7 6 9 7 10 8 11 9 8 10 3 11
REMARK H PARENT
REMARK Flexibility Score: inf
ROOT
ATOM      1  C   UNL     1     169.899 158.939 171.417  1.00  0.00     0.012 C 
ATOM      2  C   UNL     1     169.460 158.852 169.924  1.00  0.00    -0.020 C 
ATOM      3  C   UNL     1     168.261 159.764 169.571  1.00  0.00     0.003 C 
ATOM      4  C   UNL     1     167.110 159.162 170.425  1.00  0.00     0.005 C 
ATOM      5  C   UNL     1     167.409 157.642 170.389  1.00  0.00     0.015 C 
ATOM      6  C   UNL     1     168.695 157.570 169.531  1.00  0.00     0.032 C 
ATOM      7  C   UNL     1     168.246 157.930 168.136  1.00  0.00     0.139 C 
ATOM      8  O   UNL     1     168.072 157.147 167.214  1.00  0.00    -0.299 OA
ATOM      9  C   UNL     1     167.947 159.396 168.094  1.00  0.00     0.080 C 
ATOM     10  C   UNL     1     169.469 156.251 169.643  1.00  0.00     0.020 C 
ATOM     11  C   UNL     1     170.735 159.138 169.072  1.00  0.00     0.012 C 
ENDROOT
TORSDOF 0
ENDMDL
MODEL 2
REMARK VINA RESULT:    -3.401     14.627     16.017
REMARK INTER + INTRA:          -3.401
REMARK INTER:                  -3.401
REMARK INTRA:                   0.000
REMARK UNBOUND:                 0.000
REMARK SMILES CC1(C)[C@@H]2CC[C@@]1(C)C(=O)C2
REMARK SMILES IDX 1 1 2 2 4 3 5 4 6 5 7 6 9 7 10 8 11 9 8 10 3 11
REMARK H PARENT
REMARK Flexibility Score: inf
ROOT
ATOM      1  C   UNL     1     161.335 172.180 171.397  1.00  0.00     0.012 C 
ATOM      2  C   UNL     1     161.759 172.313 169.903  1.00  0.00    -0.020 C 
ATOM      3  C   UNL     1     162.964 171.424 169.514  1.00  0.00     0.003 C 
ATOM      4  C   UNL     1     164.116 172.015 170.374  1.00  0.00     0.005 C 
ATOM      5  C   UNL     1     163.801 173.532 170.382  1.00  0.00     0.015 C 
ATOM      6  C   UNL     1     162.506 173.613 169.538  1.00  0.00     0.032 C 
ATOM      7  C   UNL     1     162.945 173.296 168.130  1.00  0.00     0.139 C 
ATOM      8  O   UNL     1     163.103 174.105 167.228  1.00  0.00    -0.299 OA
ATOM      9  C   UNL     1     163.260 171.835 168.045  1.00  0.00     0.080 C 
ATOM     10  C   UNL     1     161.720 174.920 169.693  1.00  0.00     0.020 C 
ATOM     11  C   UNL     1     160.479 172.036 169.055  1.00  0.00     0.012 C 
ENDROOT
TORSDOF 0
ENDMDL
MODEL 3
REMARK VINA RESULT:    -3.331      2.121      3.103
REMARK INTER + INTRA:          -3.331
REMARK INTER:                  -3.331
REMARK INTRA:                   0.000
REMARK UNBOUND:                 0.000
REMARK SMILES CC1(C)[C@@H]2CC[C@@]1(C)C(=O)C2
REMARK SMILES IDX 1 1 2 2 4 3 5 4 6 5 7 6 9 7 10 8 11 9 8 10 3 11
REMARK H PARENT
REMARK Flexibility Score: inf
ROOT
ATOM      1  C   UNL     1     168.877 157.121 170.909  1.00  0.00     0.012 C 
ATOM      2  C   UNL     1     170.054 158.140 170.836  1.00  0.00    -0.020 C 
ATOM      3  C   UNL     1     169.651 159.588 171.204  1.00  0.00     0.003 C 
ATOM      4  C   UNL     1     168.649 159.961 170.075  1.00  0.00     0.005 C 
ATOM      5  C   UNL     1     169.240 159.244 168.835  1.00  0.00     0.015 C 
ATOM      6  C   UNL     1     170.494 158.545 169.413  1.00  0.00     0.032 C 
ATOM      7  C   UNL     1     171.450 159.670 169.727  1.00  0.00     0.139 C 
ATOM      8  O   UNL     1     172.428 159.987 169.067  1.00  0.00    -0.299 OA
ATOM      9  C   UNL     1     170.943 160.406 170.929  1.00  0.00     0.080 C 
ATOM     10  C   UNL     1     171.073 157.431 168.533  1.00  0.00     0.020 C 
ATOM     11  C   UNL     1     171.193 157.562 171.732  1.00  0.00     0.012 C 
ENDROOT
TORSDOF 0
ENDMDL
MODEL 4
REMARK VINA RESULT:    -3.297     14.898     16.289
REMARK INTER + INTRA:          -3.297
REMARK INTER:                  -3.297
REMARK INTRA:                   0.000
REMARK UNBOUND:                 0.000
REMARK SMILES CC1(C)[C@@H]2CC[C@@]1(C)C(=O)C2
REMARK SMILES IDX 1 1 2 2 4 3 5 4 6 5 7 6 9 7 10 8 11 9 8 10 3 11
REMARK H PARENT
REMARK Flexibility Score: inf
ROOT
ATOM      1  C   UNL     1     162.360 174.143 170.805  1.00  0.00     0.012 C 
ATOM      2  C   UNL     1     161.188 173.115 170.780  1.00  0.00    -0.020 C 
ATOM      3  C   UNL     1     161.606 171.680 171.181  1.00  0.00     0.003 C 
ATOM      4  C   UNL     1     162.592 171.283 170.046  1.00  0.00     0.005 C 
ATOM      5  C   UNL     1     161.976 171.962 168.797  1.00  0.00     0.015 C 
ATOM      6  C   UNL     1     160.727 172.669 169.377  1.00  0.00     0.032 C 
ATOM      7  C   UNL     1     159.784 171.547 169.737  1.00  0.00     0.139 C 
ATOM      8  O   UNL     1     158.797 171.208 169.101  1.00  0.00    -0.299 OA
ATOM      9  C   UNL     1     160.314 170.848 170.949  1.00  0.00     0.080 C 
ATOM     10  C   UNL     1     160.128 173.755 168.476  1.00  0.00     0.020 C 
ATOM     11  C   UNL     1     160.060 173.711 171.678  1.00  0.00     0.012 C 
ENDROOT
TORSDOF 0
ENDMDL
MODEL 5
REMARK VINA RESULT:    -3.271      2.746      4.414
REMARK INTER + INTRA:          -3.271
REMARK INTER:                  -3.271
REMARK INTRA:                   0.000
REMARK UNBOUND:                 0.000
REMARK SMILES CC1(C)[C@@H]2CC[C@@]1(C)C(=O)C2
REMARK SMILES IDX 1 1 2 2 4 3 5 4 6 5 7 6 9 7 10 8 11 9 8 10 3 11
REMARK H PARENT
REMARK Flexibility Score: inf
ROOT
ATOM      1  C   UNL     1     170.383 157.046 171.082  1.00  0.00     0.012 C 
ATOM      2  C   UNL     1     170.971 157.665 169.779  1.00  0.00    -0.020 C 
ATOM      3  C   UNL     1     172.147 156.858 169.178  1.00  0.00     0.003 C 
ATOM      4  C   UNL     1     173.240 156.977 170.277  1.00  0.00     0.005 C 
ATOM      5  C   UNL     1     173.029 158.413 170.822  1.00  0.00     0.015 C 
ATOM      6  C   UNL     1     171.840 158.925 169.976  1.00  0.00     0.032 C 
ATOM      7  C   UNL     1     172.403 159.095 168.586  1.00  0.00     0.139 C 
ATOM      8  O   UNL     1     172.710 160.155 168.061  1.00  0.00    -0.299 OA
ATOM      9  C   UNL     1     172.624 157.740 167.991  1.00  0.00     0.080 C 
ATOM     10  C   UNL     1     171.132 160.161 170.544  1.00  0.00     0.020 C 
ATOM     11  C   UNL     1     169.772 157.846 168.797  1.00  0.00     0.012 C 
ENDROOT
TORSDOF 0
ENDMDL
MODEL 6
REMARK VINA RESULT:    -3.212      1.524      2.129
REMARK INTER + INTRA:          -3.212
REMARK INTER:                  -3.212
REMARK INTRA:                   0.000
REMARK UNBOUND:                 0.000
REMARK SMILES CC1(C)[C@@H]2CC[C@@]1(C)C(=O)C2
REMARK SMILES IDX 1 1 2 2 4 3 5 4 6 5 7 6 9 7 10 8 11 9 8 10 3 11
REMARK H PARENT
REMARK Flexibility Score: inf
ROOT
ATOM      1  C   UNL     1     171.347 159.586 169.466  1.00  0.00     0.012 C 
ATOM      2  C   UNL     1     170.241 158.497 169.317  1.00  0.00    -0.020 C 
ATOM      3  C   UNL     1     168.922 159.026 168.706  1.00  0.00     0.003 C 
ATOM      4  C   UNL     1     168.430 160.039 169.778  1.00  0.00     0.005 C 
ATOM      5  C   UNL     1     168.859 159.371 171.109  1.00  0.00     0.015 C 
ATOM      6  C   UNL     1     169.549 158.072 170.629  1.00  0.00     0.032 C 
ATOM      7  C   UNL     1     168.428 157.219 170.088  1.00  0.00     0.139 C 
ATOM      8  O   UNL     1     167.919 156.261 170.651  1.00  0.00    -0.299 OA
ATOM      9  C   UNL     1     167.967 157.803 168.789  1.00  0.00     0.080 C 
ATOM     10  C   UNL     1     170.433 157.388 171.679  1.00  0.00     0.020 C 
ATOM     11  C   UNL     1     170.881 157.328 168.507  1.00  0.00     0.012 C 
ENDROOT
TORSDOF 0
ENDMDL
MODEL 7
REMARK VINA RESULT:    -3.207     15.060     16.437
REMARK INTER + INTRA:          -3.207
REMARK INTER:                  -3.207
REMARK INTRA:                   0.000
REMARK UNBOUND:                 0.000
REMARK SMILES CC1(C)[C@@H]2CC[C@@]1(C)C(=O)C2
REMARK SMILES IDX 1 1 2 2 4 3 5 4 6 5 7 6 9 7 10 8 11 9 8 10 3 11
REMARK H PARENT
REMARK Flexibility Score: inf
ROOT
ATOM      1  C   UNL     1     159.889 171.603 169.456  1.00  0.00     0.012 C 
ATOM      2  C   UNL     1     160.989 172.697 169.306  1.00  0.00    -0.020 C 
ATOM      3  C   UNL     1     162.304 172.179 168.677  1.00  0.00     0.003 C 
ATOM      4  C   UNL     1     162.811 171.159 169.735  1.00  0.00     0.005 C 
ATOM      5  C   UNL     1     162.393 171.813 171.077  1.00  0.00     0.015 C 
ATOM      6  C   UNL     1     161.693 173.114 170.615  1.00  0.00     0.032 C 
ATOM      7  C   UNL     1     162.805 173.977 170.071  1.00  0.00     0.139 C 
ATOM      8  O   UNL     1     163.315 174.931 170.637  1.00  0.00    -0.299 OA
ATOM      9  C   UNL     1     163.255 173.406 168.762  1.00  0.00     0.080 C 
ATOM     10  C   UNL     1     160.816 173.784 171.680  1.00  0.00     0.020 C 
ATOM     11  C   UNL     1     160.337 173.871 168.513  1.00  0.00     0.012 C 
ENDROOT
TORSDOF 0
ENDMDL
MODEL 8
REMARK VINA RESULT:    -3.098     15.429     16.634
REMARK INTER + INTRA:          -3.098
REMARK INTER:                  -3.098
REMARK INTRA:                   0.000
REMARK UNBOUND:                 0.000
REMARK SMILES CC1(C)[C@@H]2CC[C@@]1(C)C(=O)C2
REMARK SMILES IDX 1 1 2 2 4 3 5 4 6 5 7 6 9 7 10 8 11 9 8 10 3 11
REMARK H PARENT
REMARK Flexibility Score: inf
ROOT
ATOM      1  C   UNL     1     162.374 173.296 170.924  1.00  0.00     0.012 C 
ATOM      2  C   UNL     1     161.367 172.882 169.808  1.00  0.00    -0.020 C 
ATOM      3  C   UNL     1     160.515 174.054 169.268  1.00  0.00     0.003 C 
ATOM      4  C   UNL     1     159.679 174.470 170.511  1.00  0.00     0.005 C 
ATOM      5  C   UNL     1     159.403 173.117 171.213  1.00  0.00     0.015 C 
ATOM      6  C   UNL     1     160.124 172.104 170.292  1.00  0.00     0.032 C 
ATOM      7  C   UNL     1     159.301 172.081 169.027  1.00  0.00     0.139 C 
ATOM      8  O   UNL     1     158.515 171.206 168.699  1.00  0.00    -0.299 OA
ATOM      9  C   UNL     1     159.526 173.363 168.288  1.00  0.00     0.080 C 
ATOM     10  C   UNL     1     160.380 170.730 170.923  1.00  0.00     0.020 C 
ATOM     11  C   UNL     1     162.203 172.157 168.708  1.00  0.00     0.012 C 
ENDROOT
TORSDOF 0
ENDMDL
MODEL 9
REMARK VINA RESULT:    -3.085      1.393      2.995
REMARK INTER + INTRA:          -3.085
REMARK INTER:                  -3.085
REMARK INTRA:                   0.000
REMARK UNBOUND:                 0.000
REMARK SMILES CC1(C)[C@@H]2CC[C@@]1(C)C(=O)C2
REMARK SMILES IDX 1 1 2 2 4 3 5 4 6 5 7 6 9 7 10 8 11 9 8 10 3 11
REMARK H PARENT
REMARK Flexibility Score: inf
ROOT
ATOM      1  C   UNL     1     171.142 159.258 168.990  1.00  0.00     0.012 C 
ATOM      2  C   UNL     1     169.994 158.652 169.853  1.00  0.00    -0.020 C 
ATOM      3  C   UNL     1     170.305 157.239 170.402  1.00  0.00     0.003 C 
ATOM      4  C   UNL     1     170.408 156.385 169.108  1.00  0.00     0.005 C 
ATOM      5  C   UNL     1     169.334 157.017 168.187  1.00  0.00     0.015 C 
ATOM      6  C   UNL     1     168.763 158.156 169.065  1.00  0.00     0.032 C 
ATOM      7  C   UNL     1     167.998 157.452 170.159  1.00  0.00     0.139 C 
ATOM      8  O   UNL     1     166.784 157.338 170.226  1.00  0.00    -0.299 OA
ATOM      9  C   UNL     1     168.979 156.821 171.097  1.00  0.00     0.080 C 
ATOM     10  C   UNL     1     167.967 159.220 168.300  1.00  0.00     0.020 C 
ATOM     11  C   UNL     1     169.679 159.700 170.965  1.00  0.00     0.012 C 
ENDROOT
TORSDOF 0
ENDMDL
