MODEL 1
REMARK VINA RESULT:    -3.803      0.000      0.000
REMARK INTER + INTRA:          -4.037
REMARK INTER:                  -4.026
REMARK INTRA:                  -0.011
REMARK UNBOUND:                -0.011
REMARK SMILES O=Cc1ccco1
REMARK SMILES IDX 5 1 6 2 7 3 3 4 4 5 2 6 1 7
REMARK H PARENT
REMARK Flexibility Score: inf
ROOT
ATOM      1  C   UNL     1      12.156  17.723  25.296  1.00  0.00     0.043 A 
ATOM      2  C   UNL     1      11.077  17.669  24.435  1.00  0.00     0.196 A 
ATOM      3  O   UNL     1      11.428  18.132  23.257  1.00  0.00    -0.462 OA
ATOM      4  C   UNL     1      12.691  18.486  23.308  1.00  0.00     0.166 A 
ATOM      5  C   UNL     1      13.201  18.252  24.567  1.00  0.00     0.054 A 
ENDROOT
BRANCH   4   6
ATOM      6  C   UNL     1      13.435  19.049  22.180  1.00  0.00     0.298 C 
ATOM      7  O   UNL     1      14.293  19.950  22.373  1.00  0.00    -0.294 OA
ENDBRANCH   4   6
TORSDOF 1
ENDMDL
MODEL 2
REMARK VINA RESULT:    -3.597      8.068      8.548
REMARK INTER + INTRA:          -3.818
REMARK INTER:                  -3.806
REMARK INTRA:                  -0.012
REMARK UNBOUND:                -0.011
REMARK SMILES O=Cc1ccco1
REMARK SMILES IDX 5 1 6 2 7 3 3 4 4 5 2 6 1 7
REMARK H PARENT
REMARK Flexibility Score: inf
ROOT
ATOM      1  C   UNL     1      20.027  12.445  23.053  1.00  0.00     0.043 A 
ATOM      2  C   UNL     1      19.473  13.121  24.122  1.00  0.00     0.196 A 
ATOM      3  O   UNL     1      18.179  13.253  23.939  1.00  0.00    -0.462 OA
ATOM      4  C   UNL     1      17.861  12.693  22.796  1.00  0.00     0.166 A 
ATOM      5  C   UNL     1      18.984  12.167  22.194  1.00  0.00     0.054 A 
ENDROOT
BRANCH   4   6
ATOM      6  C   UNL     1      16.502  12.641  22.253  1.00  0.00     0.298 C 
ATOM      7  O   UNL     1      16.267  12.003  21.193  1.00  0.00    -0.294 OA
ENDBRANCH   4   6
TORSDOF 1
ENDMDL
MODEL 3
REMARK VINA RESULT:    -3.513      7.961      8.886
REMARK INTER + INTRA:          -3.730
REMARK INTER:                  -3.719
REMARK INTRA:                  -0.011
REMARK UNBOUND:                -0.011
REMARK SMILES O=Cc1ccco1
REMARK SMILES IDX 5 1 6 2 7 3 3 4 4 5 2 6 1 7
REMARK H PARENT
REMARK Flexibility Score: inf
ROOT
ATOM      1  C   UNL     1       6.780  11.365  19.875  1.00  0.00     0.043 A 
ATOM      2  C   UNL     1       6.450  12.023  21.043  1.00  0.00     0.196 A 
ATOM      3  O   UNL     1       7.525  12.182  21.780  1.00  0.00    -0.462 OA
ATOM      4  C   UNL     1       8.546  11.656  21.145  1.00  0.00     0.166 A 
ATOM      5  C   UNL     1       8.136  11.126  19.940  1.00  0.00     0.054 A 
ENDROOT
BRANCH   4   6
ATOM      6  C   UNL     1       9.917  11.642  21.658  1.00  0.00     0.298 C 
ATOM      7  O   UNL     1      10.368  10.617  22.235  1.00  0.00    -0.294 OA
ENDBRANCH   4   6
TORSDOF 1
ENDMDL
MODEL 4
REMARK VINA RESULT:    -3.481      7.667      8.212
REMARK INTER + INTRA:          -3.696
REMARK INTER:                  -3.685
REMARK INTRA:                  -0.011
REMARK UNBOUND:                -0.011
REMARK SMILES O=Cc1ccco1
REMARK SMILES IDX 5 1 6 2 7 3 3 4 4 5 2 6 1 7
REMARK H PARENT
REMARK Flexibility Score: inf
ROOT
ATOM      1  C   UNL     1      17.335  14.361  19.875  1.00  0.00     0.043 A 
ATOM      2  C   UNL     1      16.534  13.236  19.881  1.00  0.00     0.196 A 
ATOM      3  O   UNL     1      16.807  12.505  20.938  1.00  0.00    -0.462 OA
ATOM      4  C   UNL     1      17.753  13.102  21.624  1.00  0.00     0.166 A 
ATOM      5  C   UNL     1      18.125  14.275  21.002  1.00  0.00     0.054 A 
ENDROOT
BRANCH   4   6
ATOM      6  C   UNL     1      18.320  12.583  22.870  1.00  0.00     0.298 C 
ATOM      7  O   UNL     1      19.280  11.769  22.838  1.00  0.00    -0.294 OA
ENDBRANCH   4   6
TORSDOF 1
ENDMDL
MODEL 5
REMARK VINA RESULT:    -3.368      7.486      7.716
REMARK INTER + INTRA:          -3.577
REMARK INTER:                  -3.562
REMARK INTRA:                  -0.014
REMARK UNBOUND:                -0.011
REMARK SMILES O=Cc1ccco1
REMARK SMILES IDX 5 1 6 2 7 3 3 4 4 5 2 6 1 7
REMARK H PARENT
REMARK Flexibility Score: inf
ROOT
ATOM      1  C   UNL     1      18.508  13.683  22.221  1.00  0.00     0.043 A 
ATOM      2  C   UNL     1      17.713  12.803  22.930  1.00  0.00     0.196 A 
ATOM      3  O   UNL     1      16.727  12.387  22.169  1.00  0.00    -0.462 OA
ATOM      4  C   UNL     1      16.841  12.956  20.991  1.00  0.00     0.166 A 
ATOM      5  C   UNL     1      17.944  13.783  20.967  1.00  0.00     0.054 A 
ENDROOT
BRANCH   4   6
ATOM      6  C   UNL     1      15.920  12.733  19.876  1.00  0.00     0.298 C 
ATOM      7  O   UNL     1      14.679  12.672  20.081  1.00  0.00    -0.294 OA
ENDBRANCH   4   6
TORSDOF 1
ENDMDL
MODEL 6
REMARK VINA RESULT:    -3.328      8.817      9.287
REMARK INTER + INTRA:          -3.534
REMARK INTER:                  -3.523
REMARK INTRA:                  -0.011
REMARK UNBOUND:                -0.011
REMARK SMILES O=Cc1ccco1
REMARK SMILES IDX 5 1 6 2 7 3 3 4 4 5 2 6 1 7
REMARK H PARENT
REMARK Flexibility Score: inf
ROOT
ATOM      1  C   UNL     1      18.640  12.217  22.077  1.00  0.00     0.043 A 
ATOM      2  C   UNL     1      17.776  12.901  22.909  1.00  0.00     0.196 A 
ATOM      3  O   UNL     1      18.396  13.226  24.020  1.00  0.00    -0.462 OA
ATOM      4  C   UNL     1      19.630  12.785  23.952  1.00  0.00     0.166 A 
ATOM      5  C   UNL     1      19.841  12.141  22.752  1.00  0.00     0.054 A 
ENDROOT
BRANCH   4   6
ATOM      6  C   UNL     1      20.627  12.960  25.010  1.00  0.00     0.298 C 
ATOM      7  O   UNL     1      20.712  12.123  25.946  1.00  0.00    -0.294 OA
ENDBRANCH   4   6
TORSDOF 1
ENDMDL
MODEL 7
REMARK VINA RESULT:    -3.287      6.913      7.838
REMARK INTER + INTRA:          -3.490
REMARK INTER:                  -3.474
REMARK INTRA:                  -0.016
REMARK UNBOUND:                -0.011
REMARK SMILES O=Cc1ccco1
REMARK SMILES IDX 5 1 6 2 7 3 3 4 4 5 2 6 1 7
REMARK H PARENT
REMARK Flexibility Score: inf
ROOT
ATOM      1  C   UNL     1      13.724  13.060  29.628  1.00  0.00     0.043 A 
ATOM      2  C   UNL     1      13.752  14.038  28.653  1.00  0.00     0.196 A 
ATOM      3  O   UNL     1      13.490  15.207  29.191  1.00  0.00    -0.462 OA
ATOM      4  C   UNL     1      13.291  15.037  30.478  1.00  0.00     0.166 A 
ATOM      5  C   UNL     1      13.426  13.706  30.809  1.00  0.00     0.054 A 
ENDROOT
BRANCH   4   6
ATOM      6  C   UNL     1      12.974  16.118  31.412  1.00  0.00     0.298 C 
ATOM      7  O   UNL     1      12.799  17.291  30.989  1.00  0.00    -0.294 OA
ENDBRANCH   4   6
TORSDOF 1
ENDMDL
MODEL 8
REMARK VINA RESULT:    -3.241      5.733      6.838
REMARK INTER + INTRA:          -3.442
REMARK INTER:                  -3.431
REMARK INTRA:                  -0.011
REMARK UNBOUND:                -0.011
REMARK SMILES O=Cc1ccco1
REMARK SMILES IDX 5 1 6 2 7 3 3 4 4 5 2 6 1 7
REMARK H PARENT
REMARK Flexibility Score: inf
ROOT
ATOM      1  C   UNL     1      13.565  13.275  30.239  1.00  0.00     0.043 A 
ATOM      2  C   UNL     1      12.499  14.077  30.596  1.00  0.00     0.196 A 
ATOM      3  O   UNL     1      12.097  14.768  29.554  1.00  0.00    -0.462 OA
ATOM      4  C   UNL     1      12.855  14.454  28.529  1.00  0.00     0.166 A 
ATOM      5  C   UNL     1      13.796  13.518  28.902  1.00  0.00     0.054 A 
ENDROOT
BRANCH   4   6
ATOM      6  C   UNL     1      12.707  15.025  27.189  1.00  0.00     0.298 C 
ATOM      7  O   UNL     1      12.550  14.271  26.193  1.00  0.00    -0.294 OA
ENDBRANCH   4   6
TORSDOF 1
ENDMDL
MODEL 9
REMARK VINA RESULT:    -3.207      5.450      6.450
REMARK INTER + INTRA:          -3.406
REMARK INTER:                  -3.395
REMARK INTRA:                  -0.011
REMARK UNBOUND:                -0.011
REMARK SMILES O=Cc1ccco1
REMARK SMILES IDX 5 1 6 2 7 3 3 4 4 5 2 6 1 7
REMARK H PARENT
REMARK Flexibility Score: inf
ROOT
ATOM      1  C   UNL     1      12.465  13.649  24.102  1.00  0.00     0.043 A 
ATOM      2  C   UNL     1      11.316  14.415  24.051  1.00  0.00     0.196 A 
ATOM      3  O   UNL     1      10.409  13.802  23.325  1.00  0.00    -0.462 OA
ATOM      4  C   UNL     1      10.913  12.668  22.899  1.00  0.00     0.166 A 
ATOM      5  C   UNL     1      12.205  12.519  23.357  1.00  0.00     0.054 A 
ENDROOT
BRANCH   4   6
ATOM      6  C   UNL     1      10.193  11.711  22.058  1.00  0.00     0.298 C 
ATOM      7  O   UNL     1      10.311  10.474  22.262  1.00  0.00    -0.294 OA
ENDBRANCH   4   6
TORSDOF 1
ENDMDL
