MODEL 1
REMARK VINA RESULT:    -2.619      0.000      0.000
REMARK INTER + INTRA:          -2.655
REMARK INTER:                  -2.772
REMARK INTRA:                   0.117
REMARK UNBOUND:                 0.117
REMARK SMILES CC1=CC[C@H]2[C@H]3[C@@H]1[C@]2(C)CC[C@H]3C(C)C
REMARK SMILES IDX 1 1 2 2 3 3 4 4 5 5 6 6 7 7 8 8 10 9 11 10 12 11 9 12 13 13
REMARK SMILES IDX 14 14 15 15
REMARK H PARENT
REMARK Flexibility Score: inf
ROOT
ATOM      1  C   UNL     1     143.320 142.168 131.308  1.00  0.00     0.039 C 
ATOM      2  C   UNL     1     144.086 143.191 132.092  1.00  0.00    -0.073 C 
ATOM      3  C   UNL     1     144.922 142.848 133.108  1.00  0.00    -0.027 C 
ATOM      4  C   UNL     1     145.671 143.957 133.856  1.00  0.00     0.031 C 
ATOM      5  C   UNL     1     145.335 145.354 133.240  1.00  0.00     0.003 C 
ATOM      6  C   UNL     1     145.447 145.217 131.705  1.00  0.00     0.004 C 
ATOM      7  C   UNL     1     143.997 144.676 131.736  1.00  0.00     0.024 C 
ATOM      8  C   UNL     1     143.813 145.525 133.018  1.00  0.00    -0.022 C 
ATOM      9  C   UNL     1     143.520 147.008 132.656  1.00  0.00     0.008 C 
ATOM     10  C   UNL     1     144.256 147.472 131.371  1.00  0.00     0.005 C 
ATOM     11  C   UNL     1     145.518 146.615 131.012  1.00  0.00    -0.005 C 
ATOM     12  C   UNL     1     142.843 145.023 134.114  1.00  0.00     0.012 C 
ENDROOT
BRANCH  11  13
ATOM     13  C   UNL     1     146.848 147.389 131.296  1.00  0.00    -0.014 C 
ATOM     14  C   UNL     1     147.166 148.450 130.228  1.00  0.00     0.007 C 
ATOM     15  C   UNL     1     146.800 148.080 132.672  1.00  0.00     0.007 C 
ENDBRANCH  11  13
TORSDOF 1
ENDMDL
MODEL 2
REMARK VINA RESULT:    -2.574      1.417      4.669
REMARK INTER + INTRA:          -2.607
REMARK INTER:                  -2.735
REMARK INTRA:                   0.128
REMARK UNBOUND:                 0.117
REMARK SMILES CC1=CC[C@H]2[C@H]3[C@@H]1[C@]2(C)CC[C@H]3C(C)C
REMARK SMILES IDX 1 1 2 2 3 3 4 4 5 5 6 6 7 7 8 8 10 9 11 10 12 11 9 12 13 13
REMARK SMILES IDX 14 14 15 15
REMARK H PARENT
REMARK Flexibility Score: inf
ROOT
ATOM      1  C   UNL     1     147.347 148.644 131.344  1.00  0.00     0.039 C 
ATOM      2  C   UNL     1     146.579 147.608 132.111  1.00  0.00    -0.073 C 
ATOM      3  C   UNL     1     145.736 147.936 133.125  1.00  0.00    -0.027 C 
ATOM      4  C   UNL     1     144.986 146.816 133.855  1.00  0.00     0.031 C 
ATOM      5  C   UNL     1     145.329 145.428 133.221  1.00  0.00     0.003 C 
ATOM      6  C   UNL     1     145.226 145.584 131.688  1.00  0.00     0.004 C 
ATOM      7  C   UNL     1     146.674 146.128 131.735  1.00  0.00     0.024 C 
ATOM      8  C   UNL     1     146.852 145.264 133.007  1.00  0.00    -0.022 C 
ATOM      9  C   UNL     1     147.151 143.786 132.627  1.00  0.00     0.008 C 
ATOM     10  C   UNL     1     146.424 143.338 131.331  1.00  0.00     0.005 C 
ATOM     11  C   UNL     1     145.162 144.196 130.976  1.00  0.00    -0.005 C 
ATOM     12  C   UNL     1     147.815 145.753 134.115  1.00  0.00     0.012 C 
ENDROOT
BRANCH  11  13
ATOM     13  C   UNL     1     143.833 143.415 131.242  1.00  0.00    -0.014 C 
ATOM     14  C   UNL     1     143.538 142.347 130.173  1.00  0.00     0.007 C 
ATOM     15  C   UNL     1     143.863 142.730 132.622  1.00  0.00     0.007 C 
ENDBRANCH  11  13
TORSDOF 1
ENDMDL
MODEL 3
REMARK VINA RESULT:    -2.067      1.557      3.619
REMARK INTER + INTRA:          -2.071
REMARK INTER:                  -1.988
REMARK INTRA:                  -0.083
REMARK UNBOUND:                 0.117
REMARK SMILES CC1=CC[C@H]2[C@H]3[C@@H]1[C@]2(C)CC[C@H]3C(C)C
REMARK SMILES IDX 1 1 2 2 3 3 4 4 5 5 6 6 7 7 8 8 10 9 11 10 12 11 9 12 13 13
REMARK SMILES IDX 14 14 15 15
REMARK H PARENT
REMARK Flexibility Score: inf
ROOT
ATOM      1  C   UNL     1     142.362 147.232 130.423  1.00  0.00     0.039 C 
ATOM      2  C   UNL     1     143.156 146.742 131.598  1.00  0.00    -0.073 C 
ATOM      3  C   UNL     1     142.563 146.307 132.742  1.00  0.00    -0.027 C 
ATOM      4  C   UNL     1     143.448 145.819 133.894  1.00  0.00     0.031 C 
ATOM      5  C   UNL     1     144.957 145.885 133.489  1.00  0.00     0.003 C 
ATOM      6  C   UNL     1     145.080 145.268 132.077  1.00  0.00     0.004 C 
ATOM      7  C   UNL     1     144.682 146.660 131.531  1.00  0.00     0.024 C 
ATOM      8  C   UNL     1     145.307 147.237 132.825  1.00  0.00    -0.022 C 
ATOM      9  C   UNL     1     146.852 147.345 132.686  1.00  0.00     0.008 C 
ATOM     10  C   UNL     1     147.461 146.206 131.826  1.00  0.00     0.005 C 
ATOM     11  C   UNL     1     146.564 144.925 131.734  1.00  0.00    -0.005 C 
ATOM     12  C   UNL     1     144.716 148.535 133.426  1.00  0.00     0.012 C 
ENDROOT
BRANCH  11  13
ATOM     13  C   UNL     1     147.147 143.744 132.579  1.00  0.00    -0.014 C 
ATOM     14  C   UNL     1     147.950 144.220 133.803  1.00  0.00     0.007 C 
ATOM     15  C   UNL     1     146.024 142.808 133.066  1.00  0.00     0.007 C 
ENDBRANCH  11  13
TORSDOF 1
ENDMDL
MODEL 4
REMARK VINA RESULT:    -2.019      1.676      2.992
REMARK INTER + INTRA:          -2.020
REMARK INTER:                  -2.200
REMARK INTRA:                   0.179
REMARK UNBOUND:                 0.117
REMARK SMILES CC1=CC[C@H]2[C@H]3[C@@H]1[C@]2(C)CC[C@H]3C(C)C
REMARK SMILES IDX 1 1 2 2 3 3 4 4 5 5 6 6 7 7 8 8 10 9 11 10 12 11 9 12 13 13
REMARK SMILES IDX 14 14 15 15
REMARK H PARENT
REMARK Flexibility Score: inf
ROOT
ATOM      1  C   UNL     1     148.505 143.208 130.823  1.00  0.00     0.039 C 
ATOM      2  C   UNL     1     147.650 143.901 131.843  1.00  0.00    -0.073 C 
ATOM      3  C   UNL     1     148.136 144.284 133.054  1.00  0.00    -0.027 C 
ATOM      4  C   UNL     1     147.195 144.990 134.038  1.00  0.00     0.031 C 
ATOM      5  C   UNL     1     145.780 145.179 133.399  1.00  0.00     0.003 C 
ATOM      6  C   UNL     1     145.990 145.727 131.970  1.00  0.00     0.004 C 
ATOM      7  C   UNL     1     146.195 144.256 131.532  1.00  0.00     0.024 C 
ATOM      8  C   UNL     1     145.284 143.878 132.725  1.00  0.00    -0.022 C 
ATOM      9  C   UNL     1     143.786 144.047 132.345  1.00  0.00     0.008 C 
ATOM     10  C   UNL     1     143.541 145.227 131.368  1.00  0.00     0.005 C 
ATOM     11  C   UNL     1     144.668 146.316 131.385  1.00  0.00    -0.005 C 
ATOM     12  C   UNL     1     145.521 142.530 133.448  1.00  0.00     0.012 C 
ENDROOT
BRANCH  11  13
ATOM     13  C   UNL     1     144.199 147.629 132.094  1.00  0.00    -0.014 C 
ATOM     14  C   UNL     1     142.774 147.527 132.668  1.00  0.00     0.007 C 
ATOM     15  C   UNL     1     145.159 148.011 133.237  1.00  0.00     0.007 C 
ENDBRANCH  11  13
TORSDOF 1
ENDMDL
MODEL 5
REMARK VINA RESULT:    -1.998      1.281      4.308
REMARK INTER + INTRA:          -1.998
REMARK INTER:                  -1.922
REMARK INTRA:                  -0.076
REMARK UNBOUND:                 0.117
REMARK SMILES CC1=CC[C@H]2[C@H]3[C@@H]1[C@]2(C)CC[C@H]3C(C)C
REMARK SMILES IDX 1 1 2 2 3 3 4 4 5 5 6 6 7 7 8 8 10 9 11 10 12 11 9 12 13 13
REMARK SMILES IDX 14 14 15 15
REMARK H PARENT
REMARK Flexibility Score: inf
ROOT
ATOM      1  C   UNL     1     146.871 148.540 130.406  1.00  0.00     0.039 C 
ATOM      2  C   UNL     1     146.166 147.223 130.549  1.00  0.00    -0.073 C 
ATOM      3  C   UNL     1     146.122 146.313 129.541  1.00  0.00    -0.027 C 
ATOM      4  C   UNL     1     145.383 144.989 129.772  1.00  0.00     0.031 C 
ATOM      5  C   UNL     1     144.822 144.925 131.230  1.00  0.00     0.003 C 
ATOM      6  C   UNL     1     145.955 145.377 132.178  1.00  0.00     0.004 C 
ATOM      7  C   UNL     1     145.510 146.828 131.873  1.00  0.00     0.024 C 
ATOM      8  C   UNL     1     144.102 146.237 131.619  1.00  0.00    -0.022 C 
ATOM      9  C   UNL     1     143.348 146.020 132.961  1.00  0.00     0.008 C 
ATOM     10  C   UNL     1     144.293 145.618 134.125  1.00  0.00     0.005 C 
ATOM     11  C   UNL     1     145.649 144.987 133.658  1.00  0.00    -0.005 C 
ATOM     12  C   UNL     1     143.184 146.918 130.575  1.00  0.00     0.012 C 
ENDROOT
BRANCH  11  13
ATOM     13  C   UNL     1     145.696 143.445 133.923  1.00  0.00    -0.014 C 
ATOM     14  C   UNL     1     144.330 142.761 133.737  1.00  0.00     0.007 C 
ATOM     15  C   UNL     1     146.717 142.758 132.996  1.00  0.00     0.007 C 
ENDBRANCH  11  13
TORSDOF 1
ENDMDL
MODEL 6
REMARK VINA RESULT:    -1.995      1.557      3.378
REMARK INTER + INTRA:          -1.995
REMARK INTER:                  -1.910
REMARK INTRA:                  -0.085
REMARK UNBOUND:                 0.117
REMARK SMILES CC1=CC[C@H]2[C@H]3[C@@H]1[C@]2(C)CC[C@H]3C(C)C
REMARK SMILES IDX 1 1 2 2 3 3 4 4 5 5 6 6 7 7 8 8 10 9 11 10 12 11 9 12 13 13
REMARK SMILES IDX 14 14 15 15
REMARK H PARENT
REMARK Flexibility Score: inf
ROOT
ATOM      1  C   UNL     1     143.876 142.195 130.295  1.00  0.00     0.039 C 
ATOM      2  C   UNL     1     144.545 143.525 130.472  1.00  0.00    -0.073 C 
ATOM      3  C   UNL     1     144.605 144.444 129.472  1.00  0.00    -0.027 C 
ATOM      4  C   UNL     1     145.306 145.782 129.739  1.00  0.00     0.031 C 
ATOM      5  C   UNL     1     145.811 145.848 131.217  1.00  0.00     0.003 C 
ATOM      6  C   UNL     1     144.654 145.364 132.120  1.00  0.00     0.004 C 
ATOM      7  C   UNL     1     145.143 143.925 131.822  1.00  0.00     0.024 C 
ATOM      8  C   UNL     1     146.546 144.549 131.623  1.00  0.00    -0.022 C 
ATOM      9  C   UNL     1     147.245 144.773 132.994  1.00  0.00     0.008 C 
ATOM     10  C   UNL     1     146.249 145.146 134.125  1.00  0.00     0.005 C 
ATOM     11  C   UNL     1     144.897 145.750 133.613  1.00  0.00    -0.005 C 
ATOM     12  C   UNL     1     147.517 143.897 130.610  1.00  0.00     0.012 C 
ENDROOT
BRANCH  11  13
ATOM     13  C   UNL     1     144.806 147.288 133.886  1.00  0.00    -0.014 C 
ATOM     14  C   UNL     1     146.170 147.996 133.801  1.00  0.00     0.007 C 
ATOM     15  C   UNL     1     143.840 147.967 132.896  1.00  0.00     0.007 C 
ENDBRANCH  11  13
TORSDOF 1
ENDMDL
MODEL 7
REMARK VINA RESULT:    -1.924      1.574      3.635
REMARK INTER + INTRA:          -1.920
REMARK INTER:                  -1.841
REMARK INTRA:                  -0.079
REMARK UNBOUND:                 0.117
REMARK SMILES CC1=CC[C@H]2[C@H]3[C@@H]1[C@]2(C)CC[C@H]3C(C)C
REMARK SMILES IDX 1 1 2 2 3 3 4 4 5 5 6 6 7 7 8 8 10 9 11 10 12 11 9 12 13 13
REMARK SMILES IDX 14 14 15 15
REMARK H PARENT
REMARK Flexibility Score: inf
ROOT
ATOM      1  C   UNL     1     141.870 146.202 134.125  1.00  0.00     0.039 C 
ATOM      2  C   UNL     1     143.171 146.308 133.385  1.00  0.00    -0.073 C 
ATOM      3  C   UNL     1     143.916 147.445 133.389  1.00  0.00    -0.027 C 
ATOM      4  C   UNL     1     145.235 147.467 132.609  1.00  0.00     0.031 C 
ATOM      5  C   UNL     1     145.504 146.074 131.951  1.00  0.00     0.003 C 
ATOM      6  C   UNL     1     145.236 144.998 133.028  1.00  0.00     0.004 C 
ATOM      7  C   UNL     1     143.743 145.103 132.635  1.00  0.00     0.024 C 
ATOM      8  C   UNL     1     144.244 145.533 131.235  1.00  0.00    -0.022 C 
ATOM      9  C   UNL     1     144.640 144.290 130.389  1.00  0.00     0.008 C 
ATOM     10  C   UNL     1     145.244 143.146 131.246  1.00  0.00     0.005 C 
ATOM     11  C   UNL     1     145.838 143.618 132.617  1.00  0.00    -0.005 C 
ATOM     12  C   UNL     1     143.385 146.515 130.402  1.00  0.00     0.012 C 
ENDROOT
BRANCH  11  13
ATOM     13  C   UNL     1     147.403 143.591 132.614  1.00  0.00    -0.014 C 
ATOM     14  C   UNL     1     148.006 143.829 131.218  1.00  0.00     0.007 C 
ATOM     15  C   UNL     1     147.973 144.648 133.579  1.00  0.00     0.007 C 
ENDBRANCH  11  13
TORSDOF 1
ENDMDL
MODEL 8
REMARK VINA RESULT:    -1.632      1.324      4.256
REMARK INTER + INTRA:          -1.610
REMARK INTER:                  -1.598
REMARK INTRA:                  -0.012
REMARK UNBOUND:                 0.117
REMARK SMILES CC1=CC[C@H]2[C@H]3[C@@H]1[C@]2(C)CC[C@H]3C(C)C
REMARK SMILES IDX 1 1 2 2 3 3 4 4 5 5 6 6 7 7 8 8 10 9 11 10 12 11 9 12 13 13
REMARK SMILES IDX 14 14 15 15
REMARK H PARENT
REMARK Flexibility Score: inf
ROOT
ATOM      1  C   UNL     1     142.572 148.368 131.986  1.00  0.00     0.039 C 
ATOM      2  C   UNL     1     143.835 147.629 132.314  1.00  0.00    -0.073 C 
ATOM      3  C   UNL     1     144.618 147.968 133.373  1.00  0.00    -0.027 C 
ATOM      4  C   UNL     1     145.892 147.158 133.641  1.00  0.00     0.031 C 
ATOM      5  C   UNL     1     146.030 146.000 132.600  1.00  0.00     0.003 C 
ATOM      6  C   UNL     1     144.653 145.305 132.500  1.00  0.00     0.004 C 
ATOM      7  C   UNL     1     144.266 146.413 131.492  1.00  0.00     0.024 C 
ATOM      8  C   UNL     1     145.775 146.499 131.158  1.00  0.00    -0.022 C 
ATOM      9  C   UNL     1     146.180 145.379 130.158  1.00  0.00     0.008 C 
ATOM     10  C   UNL     1     145.381 144.066 130.368  1.00  0.00     0.005 C 
ATOM     11  C   UNL     1     144.767 143.913 131.802  1.00  0.00    -0.005 C 
ATOM     12  C   UNL     1     146.370 147.863 130.730  1.00  0.00     0.012 C 
ENDROOT
BRANCH  11  13
ATOM     13  C   UNL     1     145.530 142.844 132.652  1.00  0.00    -0.014 C 
ATOM     14  C   UNL     1     147.059 143.017 132.603  1.00  0.00     0.007 C 
ATOM     15  C   UNL     1     145.081 142.889 134.125  1.00  0.00     0.007 C 
ENDBRANCH  11  13
TORSDOF 1
ENDMDL
