MODEL 1
REMARK VINA RESULT:    -4.999      0.000      0.000
REMARK INTER + INTRA:         -14.342
REMARK INTER:                 -11.428
REMARK INTRA:                  -2.914
REMARK UNBOUND:                -2.914
REMARK SMILES CCCCCCCCCCCCCCCCCCCCCCCC(=O)[O-]
REMARK SMILES IDX 13 1 14 2 15 3 16 4 17 5 18 6 19 7 20 8 21 9 22 10 23 11
REMARK SMILES IDX 24 12 25 13 26 14 12 15 11 16 10 17 9 18 8 19 7 20 6 21 5 22
REMARK SMILES IDX 4 23 3 24 2 25 1 26
REMARK H PARENT
REMARK Flexibility Score: inf
ROOT
ATOM      1  C   UNL     1      -7.241 -27.121  29.311  1.00  0.00     0.000 C 
ENDROOT
BRANCH   1   2
ATOM      2  C   UNL     1      -7.517 -27.622  27.882  1.00  0.00     0.000 C 
BRANCH   2   3
ATOM      3  C   UNL     1      -9.010 -27.606  27.522  1.00  0.00     0.000 C 
BRANCH   3   4
ATOM      4  C   UNL     1      -9.858 -27.148  28.718  1.00  0.00     0.000 C 
BRANCH   4   5
ATOM      5  C   UNL     1     -10.479 -25.753  28.515  1.00  0.00     0.000 C 
BRANCH   5   6
ATOM      6  C   UNL     1      -9.970 -24.987  27.281  1.00  0.00     0.000 C 
BRANCH   6   7
ATOM      7  C   UNL     1     -10.781 -23.716  26.988  1.00  0.00     0.000 C 
BRANCH   7   8
ATOM      8  C   UNL     1     -11.429 -23.783  25.598  1.00  0.00     0.000 C 
BRANCH   8   9
ATOM      9  C   UNL     1     -11.462 -25.212  25.030  1.00  0.00     0.000 C 
BRANCH   9  10
ATOM     10  C   UNL     1     -12.889 -25.774  24.922  1.00  0.00     0.006 C 
BRANCH  10  11
ATOM     11  C   UNL     1     -13.085 -26.952  25.880  1.00  0.00     0.053 C 
BRANCH  11  12
ATOM     12  C   UNL     1     -14.375 -27.654  25.593  1.00  0.00     0.041 C 
ATOM     13  O   UNL     1     -14.510 -28.324  24.537  1.00  0.00    -0.550 OA
ATOM     14  O   UNL     1     -15.445 -27.527  26.471  1.00  0.00    -0.550 OA
ENDBRANCH  11  12
ENDBRANCH  10  11
ENDBRANCH   9  10
ENDBRANCH   8   9
ENDBRANCH   7   8
ENDBRANCH   6   7
ENDBRANCH   5   6
ENDBRANCH   4   5
ENDBRANCH   3   4
ENDBRANCH   2   3
ENDBRANCH   1   2
BRANCH   1  15
ATOM     15  C   UNL     1      -5.755 -27.097  29.717  1.00  0.00     0.000 C 
BRANCH  15  16
ATOM     16  C   UNL     1      -5.371 -28.255  30.650  1.00  0.00     0.000 C 
BRANCH  16  17
ATOM     17  C   UNL     1      -3.844 -28.385  30.766  1.00  0.00     0.000 C 
BRANCH  17  18
ATOM     18  C   UNL     1      -3.366 -28.459  32.225  1.00  0.00    -0.000 C 
BRANCH  18  19
ATOM     19  C   UNL     1      -4.342 -27.781  33.203  1.00  0.00    -0.000 C 
BRANCH  19  20
ATOM     20  C   UNL     1      -3.678 -26.635  33.997  1.00  0.00    -0.000 C 
BRANCH  20  21
ATOM     21  C   UNL     1      -4.367 -25.268  33.813  1.00  0.00    -0.000 C 
BRANCH  21  22
ATOM     22  C   UNL     1      -5.173 -25.116  32.510  1.00  0.00    -0.000 C 
BRANCH  22  23
ATOM     23  C   UNL     1      -6.702 -25.037  32.691  1.00  0.00    -0.000 C 
BRANCH  23  24
ATOM     24  C   UNL     1      -7.408 -23.956  31.848  1.00  0.00    -0.000 C 
BRANCH  24  25
ATOM     25  C   UNL     1      -8.788 -24.360  31.301  1.00  0.00    -0.003 C 
ATOM     26  C   UNL     1      -9.453 -25.465  32.122  1.00  0.00     0.004 C 
ENDBRANCH  24  25
ENDBRANCH  23  24
ENDBRANCH  22  23
ENDBRANCH  21  22
ENDBRANCH  20  21
ENDBRANCH  19  20
ENDBRANCH  18  19
ENDBRANCH  17  18
ENDBRANCH  16  17
ENDBRANCH  15  16
ENDBRANCH   1  15
TORSDOF 22
ENDMDL
MODEL 2
REMARK VINA RESULT:    -4.833      2.181      4.320
REMARK INTER + INTRA:         -13.963
REMARK INTER:                 -11.058
REMARK INTRA:                  -2.904
REMARK UNBOUND:                -2.914
REMARK SMILES CCCCCCCCCCCCCCCCCCCCCCCC(=O)[O-]
REMARK SMILES IDX 13 1 14 2 15 3 16 4 17 5 18 6 19 7 20 8 21 9 22 10 23 11
REMARK SMILES IDX 24 12 25 13 26 14 12 15 11 16 10 17 9 18 8 19 7 20 6 21 5 22
REMARK SMILES IDX 4 23 3 24 2 25 1 26
REMARK H PARENT
REMARK Flexibility Score: inf
ROOT
ATOM      1  C   UNL     1      -6.859 -24.347  33.242  1.00  0.00     0.000 C 
ENDROOT
BRANCH   1   2
ATOM      2  C   UNL     1      -7.052 -24.405  31.716  1.00  0.00     0.000 C 
BRANCH   2   3
ATOM      3  C   UNL     1      -8.521 -24.249  31.294  1.00  0.00     0.000 C 
BRANCH   3   4
ATOM      4  C   UNL     1      -9.273 -25.582  31.419  1.00  0.00     0.000 C 
BRANCH   4   5
ATOM      5  C   UNL     1     -10.388 -25.743  30.369  1.00  0.00     0.000 C 
BRANCH   5   6
ATOM      6  C   UNL     1     -10.283 -27.007  29.497  1.00  0.00     0.000 C 
BRANCH   6   7
ATOM      7  C   UNL     1      -9.131 -26.942  28.483  1.00  0.00     0.000 C 
BRANCH   7   8
ATOM      8  C   UNL     1      -9.625 -27.267  27.066  1.00  0.00     0.000 C 
BRANCH   8   9
ATOM      9  C   UNL     1     -10.957 -26.574  26.731  1.00  0.00     0.000 C 
BRANCH   9  10
ATOM     10  C   UNL     1     -10.765 -25.274  25.934  1.00  0.00     0.006 C 
BRANCH  10  11
ATOM     11  C   UNL     1     -10.773 -24.058  26.865  1.00  0.00     0.053 C 
BRANCH  11  12
ATOM     12  C   UNL     1     -11.326 -22.860  26.159  1.00  0.00     0.041 C 
ATOM     13  O   UNL     1     -12.242 -22.994  25.306  1.00  0.00    -0.550 OA
ATOM     14  O   UNL     1     -10.796 -21.600  26.409  1.00  0.00    -0.550 OA
ENDBRANCH  11  12
ENDBRANCH  10  11
ENDBRANCH   9  10
ENDBRANCH   8   9
ENDBRANCH   7   8
ENDBRANCH   6   7
ENDBRANCH   5   6
ENDBRANCH   4   5
ENDBRANCH   3   4
ENDBRANCH   2   3
ENDBRANCH   1   2
BRANCH   1  15
ATOM     15  C   UNL     1      -6.603 -25.706  33.918  1.00  0.00     0.000 C 
BRANCH  15  16
ATOM     16  C   UNL     1      -5.616 -25.614  35.093  1.00  0.00     0.000 C 
BRANCH  16  17
ATOM     17  C   UNL     1      -4.766 -26.890  35.199  1.00  0.00     0.000 C 
BRANCH  17  18
ATOM     18  C   UNL     1      -3.958 -27.169  33.921  1.00  0.00    -0.000 C 
BRANCH  18  19
ATOM     19  C   UNL     1      -2.571 -27.767  34.216  1.00  0.00    -0.000 C 
BRANCH  19  20
ATOM     20  C   UNL     1      -2.122 -28.775  33.136  1.00  0.00    -0.000 C 
BRANCH  20  21
ATOM     21  C   UNL     1      -3.108 -28.909  31.959  1.00  0.00    -0.000 C 
BRANCH  21  22
ATOM     22  C   UNL     1      -2.555 -28.466  30.592  1.00  0.00    -0.000 C 
BRANCH  22  23
ATOM     23  C   UNL     1      -3.598 -27.865  29.628  1.00  0.00    -0.000 C 
BRANCH  23  24
ATOM     24  C   UNL     1      -4.627 -26.920  30.280  1.00  0.00    -0.000 C 
BRANCH  24  25
ATOM     25  C   UNL     1      -6.094 -27.363  30.138  1.00  0.00    -0.003 C 
ATOM     26  C   UNL     1      -6.587 -28.179  31.333  1.00  0.00     0.004 C 
ENDBRANCH  24  25
ENDBRANCH  23  24
ENDBRANCH  22  23
ENDBRANCH  21  22
ENDBRANCH  20  21
ENDBRANCH  19  20
ENDBRANCH  18  19
ENDBRANCH  17  18
ENDBRANCH  16  17
ENDBRANCH  15  16
ENDBRANCH   1  15
TORSDOF 22
ENDMDL
MODEL 3
REMARK VINA RESULT:    -4.802      3.908     10.059
REMARK INTER + INTRA:         -13.891
REMARK INTER:                 -11.466
REMARK INTRA:                  -2.425
REMARK UNBOUND:                -2.914
REMARK SMILES CCCCCCCCCCCCCCCCCCCCCCCC(=O)[O-]
REMARK SMILES IDX 13 1 14 2 15 3 16 4 17 5 18 6 19 7 20 8 21 9 22 10 23 11
REMARK SMILES IDX 24 12 25 13 26 14 12 15 11 16 10 17 9 18 8 19 7 20 6 21 5 22
REMARK SMILES IDX 4 23 3 24 2 25 1 26
REMARK H PARENT
REMARK Flexibility Score: inf
ROOT
ATOM      1  C   UNL     1     -10.249 -24.349  26.311  1.00  0.00     0.000 C 
ENDROOT
BRANCH   1   2
ATOM      2  C   UNL     1     -10.066 -24.920  27.729  1.00  0.00     0.000 C 
BRANCH   2   3
ATOM      3  C   UNL     1     -10.929 -26.164  27.987  1.00  0.00     0.000 C 
BRANCH   3   4
ATOM      4  C   UNL     1     -10.051 -27.392  28.269  1.00  0.00     0.000 C 
BRANCH   4   5
ATOM      5  C   UNL     1      -8.547 -27.062  28.294  1.00  0.00     0.000 C 
BRANCH   5   6
ATOM      6  C   UNL     1      -7.913 -27.017  29.696  1.00  0.00     0.000 C 
BRANCH   6   7
ATOM      7  C   UNL     1      -8.883 -27.450  30.807  1.00  0.00     0.000 C 
BRANCH   7   8
ATOM      8  C   UNL     1      -9.187 -26.284  31.758  1.00  0.00     0.000 C 
BRANCH   8   9
ATOM      9  C   UNL     1      -8.771 -24.922  31.177  1.00  0.00     0.000 C 
BRANCH   9  10
ATOM     10  C   UNL     1      -7.715 -24.209  32.035  1.00  0.00     0.006 C 
BRANCH  10  11
ATOM     11  C   UNL     1      -6.894 -25.219  32.842  1.00  0.00     0.053 C 
BRANCH  11  12
ATOM     12  C   UNL     1      -5.451 -25.157  32.449  1.00  0.00     0.041 C 
ATOM     13  O   UNL     1      -4.597 -24.692  33.248  1.00  0.00    -0.550 OA
ATOM     14  O   UNL     1      -5.058 -25.568  31.181  1.00  0.00    -0.550 OA
ENDBRANCH  11  12
ENDBRANCH  10  11
ENDBRANCH   9  10
ENDBRANCH   8   9
ENDBRANCH   7   8
ENDBRANCH   6   7
ENDBRANCH   5   6
ENDBRANCH   4   5
ENDBRANCH   3   4
ENDBRANCH   2   3
ENDBRANCH   1   2
BRANCH   1  15
ATOM     15  C   UNL     1     -11.141 -23.097  26.223  1.00  0.00     0.000 C 
BRANCH  15  16
ATOM     16  C   UNL     1     -12.307 -23.262  25.236  1.00  0.00     0.000 C 
BRANCH  16  17
ATOM     17  C   UNL     1     -12.496 -24.737  24.849  1.00  0.00     0.000 C 
BRANCH  17  18
ATOM     18  C   UNL     1     -13.949 -25.068  24.475  1.00  0.00    -0.000 C 
BRANCH  18  19
ATOM     19  C   UNL     1     -14.053 -26.216  23.454  1.00  0.00    -0.000 C 
BRANCH  19  20
ATOM     20  C   UNL     1     -14.691 -27.485  24.058  1.00  0.00    -0.000 C 
BRANCH  20  21
ATOM     21  C   UNL     1     -14.520 -27.604  25.585  1.00  0.00    -0.000 C 
BRANCH  21  22
ATOM     22  C   UNL     1     -15.832 -27.764  26.376  1.00  0.00    -0.000 C 
BRANCH  22  23
ATOM     23  C   UNL     1     -16.777 -26.546  26.328  1.00  0.00    -0.000 C 
BRANCH  23  24
ATOM     24  C   UNL     1     -18.267 -26.879  26.110  1.00  0.00    -0.000 C 
BRANCH  24  25
ATOM     25  C   UNL     1     -18.909 -26.202  24.887  1.00  0.00    -0.003 C 
ATOM     26  C   UNL     1     -18.213 -26.559  23.574  1.00  0.00     0.004 C 
ENDBRANCH  24  25
ENDBRANCH  23  24
ENDBRANCH  22  23
ENDBRANCH  21  22
ENDBRANCH  20  21
ENDBRANCH  19  20
ENDBRANCH  18  19
ENDBRANCH  17  18
ENDBRANCH  16  17
ENDBRANCH  15  16
ENDBRANCH   1  15
TORSDOF 22
ENDMDL
MODEL 4
REMARK VINA RESULT:    -4.794      1.661      3.247
REMARK INTER + INTRA:         -13.873
REMARK INTER:                 -10.345
REMARK INTRA:                  -3.528
REMARK UNBOUND:                -2.914
REMARK SMILES CCCCCCCCCCCCCCCCCCCCCCCC(=O)[O-]
REMARK SMILES IDX 13 1 14 2 15 3 16 4 17 5 18 6 19 7 20 8 21 9 22 10 23 11
REMARK SMILES IDX 24 12 25 13 26 14 12 15 11 16 10 17 9 18 8 19 7 20 6 21 5 22
REMARK SMILES IDX 4 23 3 24 2 25 1 26
REMARK H PARENT
REMARK Flexibility Score: inf
ROOT
ATOM      1  C   UNL     1      -9.991 -25.711  31.383  1.00  0.00     0.000 C 
ENDROOT
BRANCH   1   2
ATOM      2  C   UNL     1     -10.429 -26.053  29.948  1.00  0.00     0.000 C 
BRANCH   2   3
ATOM      3  C   UNL     1     -10.023 -24.978  28.928  1.00  0.00     0.000 C 
BRANCH   3   4
ATOM      4  C   UNL     1      -9.291 -25.605  27.733  1.00  0.00     0.000 C 
BRANCH   4   5
ATOM      5  C   UNL     1      -8.534 -26.894  28.100  1.00  0.00     0.000 C 
BRANCH   5   6
ATOM      6  C   UNL     1      -8.612 -28.018  27.050  1.00  0.00     0.000 C 
BRANCH   6   7
ATOM      7  C   UNL     1     -10.012 -28.167  26.436  1.00  0.00     0.000 C 
BRANCH   7   8
ATOM      8  C   UNL     1     -10.993 -28.786  27.443  1.00  0.00     0.000 C 
BRANCH   8   9
ATOM      9  C   UNL     1     -12.290 -27.971  27.583  1.00  0.00     0.000 C 
BRANCH   9  10
ATOM     10  C   UNL     1     -12.456 -26.926  26.468  1.00  0.00     0.006 C 
BRANCH  10  11
ATOM     11  C   UNL     1     -13.739 -27.179  25.670  1.00  0.00     0.053 C 
BRANCH  11  12
ATOM     12  C   UNL     1     -13.771 -26.325  24.442  1.00  0.00     0.041 C 
ATOM     13  O   UNL     1     -13.505 -25.097  24.517  1.00  0.00    -0.550 OA
ATOM     14  O   UNL     1     -14.142 -26.877  23.222  1.00  0.00    -0.550 OA
ENDBRANCH  11  12
ENDBRANCH  10  11
ENDBRANCH   9  10
ENDBRANCH   8   9
ENDBRANCH   7   8
ENDBRANCH   6   7
ENDBRANCH   5   6
ENDBRANCH   4   5
ENDBRANCH   3   4
ENDBRANCH   2   3
ENDBRANCH   1   2
BRANCH   1  15
ATOM     15  C   UNL     1      -9.473 -26.905  32.207  1.00  0.00     0.000 C 
BRANCH  15  16
ATOM     16  C   UNL     1      -8.695 -27.924  31.360  1.00  0.00     0.000 C 
BRANCH  16  17
ATOM     17  C   UNL     1      -7.205 -27.931  31.738  1.00  0.00     0.000 C 
BRANCH  17  18
ATOM     18  C   UNL     1      -6.291 -27.618  30.542  1.00  0.00    -0.000 C 
BRANCH  18  19
ATOM     19  C   UNL     1      -4.901 -27.120  30.973  1.00  0.00    -0.000 C 
BRANCH  19  20
ATOM     20  C   UNL     1      -4.386 -27.834  32.241  1.00  0.00    -0.000 C 
BRANCH  20  21
ATOM     21  C   UNL     1      -4.054 -26.878  33.404  1.00  0.00    -0.000 C 
BRANCH  21  22
ATOM     22  C   UNL     1      -4.746 -27.211  34.738  1.00  0.00    -0.000 C 
BRANCH  22  23
ATOM     23  C   UNL     1      -5.562 -26.058  35.358  1.00  0.00    -0.000 C 
BRANCH  23  24
ATOM     24  C   UNL     1      -6.811 -25.634  34.559  1.00  0.00    -0.000 C 
BRANCH  24  25
ATOM     25  C   UNL     1      -6.722 -24.242  33.910  1.00  0.00    -0.003 C 
ATOM     26  C   UNL     1      -6.800 -24.290  32.384  1.00  0.00     0.004 C 
ENDBRANCH  24  25
ENDBRANCH  23  24
ENDBRANCH  22  23
ENDBRANCH  21  22
ENDBRANCH  20  21
ENDBRANCH  19  20
ENDBRANCH  18  19
ENDBRANCH  17  18
ENDBRANCH  16  17
ENDBRANCH  15  16
ENDBRANCH   1  15
TORSDOF 22
ENDMDL
MODEL 5
REMARK VINA RESULT:    -4.764      4.079      8.816
REMARK INTER + INTRA:         -13.805
REMARK INTER:                 -10.750
REMARK INTRA:                  -3.055
REMARK UNBOUND:                -2.914
REMARK SMILES CCCCCCCCCCCCCCCCCCCCCCCC(=O)[O-]
REMARK SMILES IDX 13 1 14 2 15 3 16 4 17 5 18 6 19 7 20 8 21 9 22 10 23 11
REMARK SMILES IDX 24 12 25 13 26 14 12 15 11 16 10 17 9 18 8 19 7 20 6 21 5 22
REMARK SMILES IDX 4 23 3 24 2 25 1 26
REMARK H PARENT
REMARK Flexibility Score: inf
ROOT
ATOM      1  C   UNL     1      -6.913 -25.087  31.131  1.00  0.00     0.000 C 
ENDROOT
BRANCH   1   2
ATOM      2  C   UNL     1      -6.557 -26.563  31.386  1.00  0.00     0.000 C 
BRANCH   2   3
ATOM      3  C   UNL     1      -6.518 -27.398  30.098  1.00  0.00     0.000 C 
BRANCH   3   4
ATOM      4  C   UNL     1      -5.448 -26.868  29.132  1.00  0.00     0.000 C 
BRANCH   4   5
ATOM      5  C   UNL     1      -4.106 -27.613  29.255  1.00  0.00     0.000 C 
BRANCH   5   6
ATOM      6  C   UNL     1      -4.086 -28.752  30.290  1.00  0.00     0.000 C 
BRANCH   6   7
ATOM      7  C   UNL     1      -2.997 -28.573  31.358  1.00  0.00     0.000 C 
BRANCH   7   8
ATOM      8  C   UNL     1      -3.606 -28.555  32.768  1.00  0.00     0.000 C 
BRANCH   8   9
ATOM      9  C   UNL     1      -2.599 -28.110  33.842  1.00  0.00     0.000 C 
BRANCH   9  10
ATOM     10  C   UNL     1      -3.262 -27.337  34.992  1.00  0.00     0.006 C 
BRANCH  10  11
ATOM     11  C   UNL     1      -4.743 -27.082  34.696  1.00  0.00     0.053 C 
BRANCH  11  12
ATOM     12  C   UNL     1      -5.014 -25.614  34.600  1.00  0.00     0.041 C 
ATOM     13  O   UNL     1      -4.456 -24.923  33.708  1.00  0.00    -0.550 OA
ATOM     14  O   UNL     1      -5.847 -24.999  35.527  1.00  0.00    -0.550 OA
ENDBRANCH  11  12
ENDBRANCH  10  11
ENDBRANCH   9  10
ENDBRANCH   8   9
ENDBRANCH   7   8
ENDBRANCH   6   7
ENDBRANCH   5   6
ENDBRANCH   4   5
ENDBRANCH   3   4
ENDBRANCH   2   3
ENDBRANCH   1   2
BRANCH   1  15
ATOM     15  C   UNL     1      -7.813 -24.440  32.201  1.00  0.00     0.000 C 
BRANCH  15  16
ATOM     16  C   UNL     1      -8.413 -25.464  33.176  1.00  0.00     0.000 C 
BRANCH  16  17
ATOM     17  C   UNL     1      -9.920 -25.640  32.931  1.00  0.00     0.000 C 
BRANCH  17  18
ATOM     18  C   UNL     1     -10.232 -26.810  31.985  1.00  0.00    -0.000 C 
BRANCH  18  19
ATOM     19  C   UNL     1     -11.040 -26.375  30.750  1.00  0.00    -0.000 C 
BRANCH  19  20
ATOM     20  C   UNL     1     -10.138 -25.877  29.600  1.00  0.00    -0.000 C 
BRANCH  20  21
ATOM     21  C   UNL     1      -9.910 -26.920  28.489  1.00  0.00    -0.000 C 
BRANCH  21  22
ATOM     22  C   UNL     1      -9.827 -26.345  27.063  1.00  0.00    -0.000 C 
BRANCH  22  23
ATOM     23  C   UNL     1     -11.155 -25.797  26.500  1.00  0.00    -0.000 C 
BRANCH  23  24
ATOM     24  C   UNL     1     -11.016 -24.874  25.273  1.00  0.00    -0.000 C 
BRANCH  24  25
ATOM     25  C   UNL     1     -11.583 -23.456  25.462  1.00  0.00    -0.003 C 
ATOM     26  C   UNL     1     -11.085 -22.781  26.739  1.00  0.00     0.004 C 
ENDBRANCH  24  25
ENDBRANCH  23  24
ENDBRANCH  22  23
ENDBRANCH  21  22
ENDBRANCH  20  21
ENDBRANCH  19  20
ENDBRANCH  18  19
ENDBRANCH  17  18
ENDBRANCH  16  17
ENDBRANCH  15  16
ENDBRANCH   1  15
TORSDOF 22
ENDMDL
MODEL 6
REMARK VINA RESULT:    -4.756      1.543      3.841
REMARK INTER + INTRA:         -13.788
REMARK INTER:                 -10.365
REMARK INTRA:                  -3.423
REMARK UNBOUND:                -2.914
REMARK SMILES CCCCCCCCCCCCCCCCCCCCCCCC(=O)[O-]
REMARK SMILES IDX 13 1 14 2 15 3 16 4 17 5 18 6 19 7 20 8 21 9 22 10 23 11
REMARK SMILES IDX 24 12 25 13 26 14 12 15 11 16 10 17 9 18 8 19 7 20 6 21 5 22
REMARK SMILES IDX 4 23 3 24 2 25 1 26
REMARK H PARENT
REMARK Flexibility Score: inf
ROOT
ATOM      1  C   UNL     1      -8.532 -25.660  32.346  1.00  0.00     0.000 C 
ENDROOT
BRANCH   1   2
ATOM      2  C   UNL     1      -9.944 -25.499  31.754  1.00  0.00     0.000 C 
BRANCH   2   3
ATOM      3  C   UNL     1     -10.073 -26.100  30.346  1.00  0.00     0.000 C 
BRANCH   3   4
ATOM      4  C   UNL     1      -9.986 -25.006  29.273  1.00  0.00     0.000 C 
BRANCH   4   5
ATOM      5  C   UNL     1      -9.270 -25.476  27.993  1.00  0.00     0.000 C 
BRANCH   5   6
ATOM      6  C   UNL     1      -8.858 -26.959  27.985  1.00  0.00     0.000 C 
BRANCH   6   7
ATOM      7  C   UNL     1      -9.649 -27.795  26.968  1.00  0.00     0.000 C 
BRANCH   7   8
ATOM      8  C   UNL     1     -10.708 -28.659  27.669  1.00  0.00     0.000 C 
BRANCH   8   9
ATOM      9  C   UNL     1     -12.081 -27.969  27.741  1.00  0.00     0.000 C 
BRANCH   9  10
ATOM     10  C   UNL     1     -12.390 -27.133  26.490  1.00  0.00     0.006 C 
BRANCH  10  11
ATOM     11  C   UNL     1     -13.766 -27.492  25.920  1.00  0.00     0.053 C 
BRANCH  11  12
ATOM     12  C   UNL     1     -14.113 -26.590  24.778  1.00  0.00     0.041 C 
ATOM     13  O   UNL     1     -13.283 -25.738  24.367  1.00  0.00    -0.550 OA
ATOM     14  O   UNL     1     -15.374 -26.659  24.197  1.00  0.00    -0.550 OA
ENDBRANCH  11  12
ENDBRANCH  10  11
ENDBRANCH   9  10
ENDBRANCH   8   9
ENDBRANCH   7   8
ENDBRANCH   6   7
ENDBRANCH   5   6
ENDBRANCH   4   5
ENDBRANCH   3   4
ENDBRANCH   2   3
ENDBRANCH   1   2
BRANCH   1  15
ATOM     15  C   UNL     1      -7.453 -24.767  31.707  1.00  0.00     0.000 C 
BRANCH  15  16
ATOM     16  C   UNL     1      -6.414 -25.565  30.905  1.00  0.00     0.000 C 
BRANCH  16  17
ATOM     17  C   UNL     1      -6.569 -27.074  31.152  1.00  0.00     0.000 C 
BRANCH  17  18
ATOM     18  C   UNL     1      -5.950 -27.924  30.030  1.00  0.00    -0.000 C 
BRANCH  18  19
ATOM     19  C   UNL     1      -4.803 -27.200  29.303  1.00  0.00    -0.000 C 
BRANCH  19  20
ATOM     20  C   UNL     1      -3.420 -27.795  29.647  1.00  0.00    -0.000 C 
BRANCH  20  21
ATOM     21  C   UNL     1      -3.457 -28.854  30.766  1.00  0.00    -0.000 C 
BRANCH  21  22
ATOM     22  C   UNL     1      -2.853 -28.403  32.108  1.00  0.00    -0.000 C 
BRANCH  22  23
ATOM     23  C   UNL     1      -3.627 -28.862  33.361  1.00  0.00    -0.000 C 
BRANCH  23  24
ATOM     24  C   UNL     1      -3.700 -27.828  34.503  1.00  0.00    -0.000 C 
BRANCH  24  25
ATOM     25  C   UNL     1      -4.802 -26.766  34.344  1.00  0.00    -0.003 C 
ATOM     26  C   UNL     1      -4.266 -25.423  33.849  1.00  0.00     0.004 C 
ENDBRANCH  24  25
ENDBRANCH  23  24
ENDBRANCH  22  23
ENDBRANCH  21  22
ENDBRANCH  20  21
ENDBRANCH  19  20
ENDBRANCH  18  19
ENDBRANCH  17  18
ENDBRANCH  16  17
ENDBRANCH  15  16
ENDBRANCH   1  15
TORSDOF 22
ENDMDL
MODEL 7
REMARK VINA RESULT:    -4.756      1.646      4.138
REMARK INTER + INTRA:         -13.787
REMARK INTER:                 -11.202
REMARK INTRA:                  -2.585
REMARK UNBOUND:                -2.914
REMARK SMILES CCCCCCCCCCCCCCCCCCCCCCCC(=O)[O-]
REMARK SMILES IDX 13 1 14 2 15 3 16 4 17 5 18 6 19 7 20 8 21 9 22 10 23 11
REMARK SMILES IDX 24 12 25 13 26 14 12 15 11 16 10 17 9 18 8 19 7 20 6 21 5 22
REMARK SMILES IDX 4 23 3 24 2 25 1 26
REMARK H PARENT
REMARK Flexibility Score: inf
ROOT
ATOM      1  C   UNL     1     -10.390 -25.050  27.752  1.00  0.00     0.000 C 
ENDROOT
BRANCH   1   2
ATOM      2  C   UNL     1     -10.241 -24.096  26.552  1.00  0.00     0.000 C 
BRANCH   2   3
ATOM      3  C   UNL     1     -11.136 -22.853  26.664  1.00  0.00     0.000 C 
BRANCH   3   4
ATOM      4  C   UNL     1     -12.109 -22.769  25.479  1.00  0.00     0.000 C 
BRANCH   4   5
ATOM      5  C   UNL     1     -12.472 -24.149  24.902  1.00  0.00     0.000 C 
BRANCH   5   6
ATOM      6  C   UNL     1     -13.862 -24.235  24.245  1.00  0.00     0.000 C 
BRANCH   6   7
ATOM      7  C   UNL     1     -14.289 -25.677  23.931  1.00  0.00     0.000 C 
BRANCH   7   8
ATOM      8  C   UNL     1     -13.809 -26.644  25.024  1.00  0.00     0.000 C 
BRANCH   8   9
ATOM      9  C   UNL     1     -14.844 -27.735  25.343  1.00  0.00     0.000 C 
BRANCH   9  10
ATOM     10  C   UNL     1     -15.466 -27.573  26.739  1.00  0.00     0.006 C 
BRANCH  10  11
ATOM     11  C   UNL     1     -16.995 -27.550  26.656  1.00  0.00     0.053 C 
BRANCH  11  12
ATOM     12  C   UNL     1     -17.457 -26.407  25.807  1.00  0.00     0.041 C 
ATOM     13  O   UNL     1     -18.138 -26.622  24.771  1.00  0.00    -0.550 OA
ATOM     14  O   UNL     1     -17.095 -25.106  26.136  1.00  0.00    -0.550 OA
ENDBRANCH  11  12
ENDBRANCH  10  11
ENDBRANCH   9  10
ENDBRANCH   8   9
ENDBRANCH   7   8
ENDBRANCH   6   7
ENDBRANCH   5   6
ENDBRANCH   4   5
ENDBRANCH   3   4
ENDBRANCH   2   3
ENDBRANCH   1   2
BRANCH   1  15
ATOM     15  C   UNL     1     -10.946 -26.445  27.409  1.00  0.00     0.000 C 
BRANCH  15  16
ATOM     16  C   UNL     1      -9.893 -27.556  27.535  1.00  0.00     0.000 C 
BRANCH  16  17
ATOM     17  C   UNL     1      -9.079 -27.398  28.829  1.00  0.00     0.000 C 
BRANCH  17  18
ATOM     18  C   UNL     1      -7.575 -27.228  28.564  1.00  0.00    -0.000 C 
BRANCH  18  19
ATOM     19  C   UNL     1      -6.713 -27.580  29.789  1.00  0.00    -0.000 C 
BRANCH  19  20
ATOM     20  C   UNL     1      -5.463 -26.682  29.908  1.00  0.00    -0.000 C 
BRANCH  20  21
ATOM     21  C   UNL     1      -4.892 -26.594  31.336  1.00  0.00    -0.000 C 
BRANCH  21  22
ATOM     22  C   UNL     1      -5.149 -25.259  32.059  1.00  0.00    -0.000 C 
BRANCH  22  23
ATOM     23  C   UNL     1      -6.212 -24.354  31.404  1.00  0.00    -0.000 C 
BRANCH  23  24
ATOM     24  C   UNL     1      -7.608 -24.401  32.058  1.00  0.00    -0.000 C 
BRANCH  24  25
ATOM     25  C   UNL     1      -8.771 -24.660  31.086  1.00  0.00    -0.003 C 
ATOM     26  C   UNL     1      -9.907 -25.464  31.719  1.00  0.00     0.004 C 
ENDBRANCH  24  25
ENDBRANCH  23  24
ENDBRANCH  22  23
ENDBRANCH  21  22
ENDBRANCH  20  21
ENDBRANCH  19  20
ENDBRANCH  18  19
ENDBRANCH  17  18
ENDBRANCH  16  17
ENDBRANCH  15  16
ENDBRANCH   1  15
TORSDOF 22
ENDMDL
MODEL 8
REMARK VINA RESULT:    -4.730      2.034      4.330
REMARK INTER + INTRA:         -13.728
REMARK INTER:                 -10.699
REMARK INTRA:                  -3.028
REMARK UNBOUND:                -2.914
REMARK SMILES CCCCCCCCCCCCCCCCCCCCCCCC(=O)[O-]
REMARK SMILES IDX 13 1 14 2 15 3 16 4 17 5 18 6 19 7 20 8 21 9 22 10 23 11
REMARK SMILES IDX 24 12 25 13 26 14 12 15 11 16 10 17 9 18 8 19 7 20 6 21 5 22
REMARK SMILES IDX 4 23 3 24 2 25 1 26
REMARK H PARENT
REMARK Flexibility Score: inf
ROOT
ATOM      1  C   UNL     1      -8.207 -24.300  31.687  1.00  0.00     0.000 C 
ENDROOT
BRANCH   1   2
ATOM      2  C   UNL     1      -8.591 -25.369  32.727  1.00  0.00     0.000 C 
BRANCH   2   3
ATOM      3  C   UNL     1     -10.094 -25.686  32.729  1.00  0.00     0.000 C 
BRANCH   3   4
ATOM      4  C   UNL     1     -10.489 -26.480  31.475  1.00  0.00     0.000 C 
BRANCH   4   5
ATOM      5  C   UNL     1      -9.397 -27.468  31.022  1.00  0.00     0.000 C 
BRANCH   5   6
ATOM      6  C   UNL     1      -9.246 -27.615  29.497  1.00  0.00     0.000 C 
BRANCH   6   7
ATOM      7  C   UNL     1      -8.545 -26.413  28.845  1.00  0.00     0.000 C 
BRANCH   7   8
ATOM      8  C   UNL     1      -9.239 -26.016  27.533  1.00  0.00     0.000 C 
BRANCH   8   9
ATOM      9  C   UNL     1     -10.770 -25.976  27.663  1.00  0.00     0.000 C 
BRANCH   9  10
ATOM     10  C   UNL     1     -11.479 -25.903  26.301  1.00  0.00     0.006 C 
BRANCH  10  11
ATOM     11  C   UNL     1     -10.827 -24.848  25.402  1.00  0.00     0.053 C 
BRANCH  11  12
ATOM     12  C   UNL     1     -11.454 -23.508  25.626  1.00  0.00     0.041 C 
ATOM     13  O   UNL     1     -10.899 -22.667  26.380  1.00  0.00    -0.550 OA
ATOM     14  O   UNL     1     -12.677 -23.206  25.039  1.00  0.00    -0.550 OA
ENDBRANCH  11  12
ENDBRANCH  10  11
ENDBRANCH   9  10
ENDBRANCH   8   9
ENDBRANCH   7   8
ENDBRANCH   6   7
ENDBRANCH   5   6
ENDBRANCH   4   5
ENDBRANCH   3   4
ENDBRANCH   2   3
ENDBRANCH   1   2
BRANCH   1  15
ATOM     15  C   UNL     1      -6.725 -24.302  31.269  1.00  0.00     0.000 C 
BRANCH  15  16
ATOM     16  C   UNL     1      -5.953 -25.517  31.807  1.00  0.00     0.000 C 
BRANCH  16  17
ATOM     17  C   UNL     1      -4.796 -25.075  32.717  1.00  0.00     0.000 C 
BRANCH  17  18
ATOM     18  C   UNL     1      -5.048 -25.407  34.197  1.00  0.00    -0.000 C 
BRANCH  18  19
ATOM     19  C   UNL     1      -3.958 -26.313  34.795  1.00  0.00    -0.000 C 
BRANCH  19  20
ATOM     20  C   UNL     1      -4.442 -27.765  34.997  1.00  0.00    -0.000 C 
BRANCH  20  21
ATOM     21  C   UNL     1      -3.516 -28.824  34.371  1.00  0.00    -0.000 C 
BRANCH  21  22
ATOM     22  C   UNL     1      -2.825 -28.394  33.063  1.00  0.00    -0.000 C 
BRANCH  22  23
ATOM     23  C   UNL     1      -3.673 -28.571  31.787  1.00  0.00    -0.000 C 
BRANCH  23  24
ATOM     24  C   UNL     1      -2.913 -28.367  30.460  1.00  0.00    -0.000 C 
BRANCH  24  25
ATOM     25  C   UNL     1      -3.700 -27.615  29.373  1.00  0.00    -0.003 C 
ATOM     26  C   UNL     1      -5.181 -27.992  29.341  1.00  0.00     0.004 C 
ENDBRANCH  24  25
ENDBRANCH  23  24
ENDBRANCH  22  23
ENDBRANCH  21  22
ENDBRANCH  20  21
ENDBRANCH  19  20
ENDBRANCH  18  19
ENDBRANCH  17  18
ENDBRANCH  16  17
ENDBRANCH  15  16
ENDBRANCH   1  15
TORSDOF 22
ENDMDL
MODEL 9
REMARK VINA RESULT:    -4.659      1.095      3.143
REMARK INTER + INTRA:         -13.566
REMARK INTER:                 -10.939
REMARK INTRA:                  -2.627
REMARK UNBOUND:                -2.914
REMARK SMILES CCCCCCCCCCCCCCCCCCCCCCCC(=O)[O-]
REMARK SMILES IDX 13 1 14 2 15 3 16 4 17 5 18 6 19 7 20 8 21 9 22 10 23 11
REMARK SMILES IDX 24 12 25 13 26 14 12 15 11 16 10 17 9 18 8 19 7 20 6 21 5 22
REMARK SMILES IDX 4 23 3 24 2 25 1 26
REMARK H PARENT
REMARK Flexibility Score: inf
ROOT
ATOM      1  C   UNL     1     -10.210 -26.150  31.647  1.00  0.00     0.000 C 
ENDROOT
BRANCH   1   2
ATOM      2  C   UNL     1     -10.599 -26.453  30.188  1.00  0.00     0.000 C 
BRANCH   2   3
ATOM      3  C   UNL     1      -9.565 -25.939  29.176  1.00  0.00     0.000 C 
BRANCH   3   4
ATOM      4  C   UNL     1      -9.606 -26.766  27.882  1.00  0.00     0.000 C 
BRANCH   4   5
ATOM      5  C   UNL     1     -10.317 -26.038  26.726  1.00  0.00     0.000 C 
BRANCH   5   6
ATOM      6  C   UNL     1     -10.402 -24.508  26.874  1.00  0.00     0.000 C 
BRANCH   6   7
ATOM      7  C   UNL     1     -11.199 -23.841  25.743  1.00  0.00     0.000 C 
BRANCH   7   8
ATOM      8  C   UNL     1     -11.913 -24.890  24.878  1.00  0.00     0.000 C 
BRANCH   8   9
ATOM      9  C   UNL     1     -13.359 -24.492  24.538  1.00  0.00     0.000 C 
BRANCH   9  10
ATOM     10  C   UNL     1     -14.101 -25.576  23.741  1.00  0.00     0.006 C 
BRANCH  10  11
ATOM     11  C   UNL     1     -15.116 -26.305  24.625  1.00  0.00     0.053 C 
BRANCH  11  12
ATOM     12  C   UNL     1     -14.542 -27.590  25.134  1.00  0.00     0.041 C 
ATOM     13  O   UNL     1     -14.849 -28.682  24.588  1.00  0.00    -0.550 OA
ATOM     14  O   UNL     1     -13.704 -27.585  26.243  1.00  0.00    -0.550 OA
ENDBRANCH  11  12
ENDBRANCH  10  11
ENDBRANCH   9  10
ENDBRANCH   8   9
ENDBRANCH   7   8
ENDBRANCH   6   7
ENDBRANCH   5   6
ENDBRANCH   4   5
ENDBRANCH   3   4
ENDBRANCH   2   3
ENDBRANCH   1   2
BRANCH   1  15
ATOM     15  C   UNL     1      -9.201 -25.000  31.826  1.00  0.00     0.000 C 
BRANCH  15  16
ATOM     16  C   UNL     1      -8.055 -25.354  32.785  1.00  0.00     0.000 C 
BRANCH  16  17
ATOM     17  C   UNL     1      -6.890 -24.362  32.640  1.00  0.00     0.000 C 
BRANCH  17  18
ATOM     18  C   UNL     1      -5.533 -24.988  32.999  1.00  0.00    -0.000 C 
BRANCH  18  19
ATOM     19  C   UNL     1      -5.543 -25.677  34.375  1.00  0.00    -0.000 C 
BRANCH  19  20
ATOM     20  C   UNL     1      -4.296 -26.559  34.602  1.00  0.00    -0.000 C 
BRANCH  20  21
ATOM     21  C   UNL     1      -4.376 -27.939  33.919  1.00  0.00    -0.000 C 
BRANCH  21  22
ATOM     22  C   UNL     1      -3.513 -28.089  32.653  1.00  0.00    -0.000 C 
BRANCH  22  23
ATOM     23  C   UNL     1      -4.302 -28.251  31.338  1.00  0.00    -0.000 C 
BRANCH  23  24
ATOM     24  C   UNL     1      -5.829 -28.394  31.502  1.00  0.00    -0.000 C 
BRANCH  24  25
ATOM     25  C   UNL     1      -6.667 -27.590  30.493  1.00  0.00    -0.003 C 
ATOM     26  C   UNL     1      -5.910 -27.285  29.201  1.00  0.00     0.004 C 
ENDBRANCH  24  25
ENDBRANCH  23  24
ENDBRANCH  22  23
ENDBRANCH  21  22
ENDBRANCH  20  21
ENDBRANCH  19  20
ENDBRANCH  18  19
ENDBRANCH  17  18
ENDBRANCH  16  17
ENDBRANCH  15  16
ENDBRANCH   1  15
TORSDOF 22
ENDMDL
