MODEL 1
REMARK VINA RESULT:    -3.886      0.000      0.000
REMARK INTER + INTRA:          -5.940
REMARK INTER:                  -5.250
REMARK INTRA:                  -0.690
REMARK UNBOUND:                -0.690
REMARK SMILES O=C[C@@H](O)[C@H](O)[C@H](O)CO
REMARK SMILES IDX 7 1 9 2 10 3 5 5 3 6 2 7 1 8 4 9 6 11 8 13
REMARK H PARENT 10 4 4 10 6 12 8 14
REMARK Flexibility Score: inf
ROOT
ATOM      1  C   UNL     1       6.837  24.687  20.391  1.00  0.00     0.171 C 
ENDROOT
BRANCH   1   2
ATOM      2  C   UNL     1       8.263  25.266  20.504  1.00  0.00     0.190 C 
BRANCH   2   3
ATOM      3  O   UNL     1       9.196  24.233  20.672  1.00  0.00    -0.394 OA
ATOM      4  H   UNL     1       9.867  24.558  21.327  1.00  0.00     0.210 HD
ENDBRANCH   2   3
ENDBRANCH   1   2
BRANCH   1   5
ATOM      5  C   UNL     1       6.684  23.273  21.031  1.00  0.00     0.181 C 
BRANCH   5   6
ATOM      6  C   UNL     1       5.362  22.501  20.746  1.00  0.00     0.209 C 
BRANCH   6   7
ATOM      7  C   UNL     1       5.139  21.328  21.659  1.00  0.00     0.258 C 
ATOM      8  O   UNL     1       4.574  21.473  22.732  1.00  0.00    -0.300 OA
ENDBRANCH   6   7
BRANCH   6   9
ATOM      9  O   UNL     1       4.255  23.361  20.827  1.00  0.00    -0.383 OA
ATOM     10  H   UNL     1       3.461  22.840  20.536  1.00  0.00     0.211 HD
ENDBRANCH   6   9
ENDBRANCH   5   6
BRANCH   5  11
ATOM     11  O   UNL     1       6.936  23.324  22.414  1.00  0.00    -0.387 OA
ATOM     12  H   UNL     1       7.873  23.623  22.545  1.00  0.00     0.211 HD
ENDBRANCH   5  11
ENDBRANCH   1   5
BRANCH   1  13
ATOM     13  O   UNL     1       6.355  24.721  19.068  1.00  0.00    -0.388 OA
ATOM     14  H   UNL     1       5.825  25.550  18.944  1.00  0.00     0.211 HD
ENDBRANCH   1  13
TORSDOF 8
ENDMDL
MODEL 2
REMARK VINA RESULT:    -3.823      1.485      2.057
REMARK INTER + INTRA:          -5.854
REMARK INTER:                  -5.004
REMARK INTRA:                  -0.851
REMARK UNBOUND:                -0.690
REMARK SMILES O=C[C@@H](O)[C@H](O)[C@H](O)CO
REMARK SMILES IDX 7 1 9 2 10 3 5 5 3 6 2 7 1 8 4 9 6 11 8 13
REMARK H PARENT 10 4 4 10 6 12 8 14
REMARK Flexibility Score: inf
ROOT
ATOM      1  C   UNL     1       7.206  25.838  21.094  1.00  0.00     0.171 C 
ENDROOT
BRANCH   1   2
ATOM      2  C   UNL     1       8.237  25.809  22.242  1.00  0.00     0.190 C 
BRANCH   2   3
ATOM      3  O   UNL     1       8.017  24.695  23.065  1.00  0.00    -0.394 OA
ATOM      4  H   UNL     1       8.665  24.763  23.815  1.00  0.00     0.210 HD
ENDBRANCH   2   3
ENDBRANCH   1   2
BRANCH   1   5
ATOM      5  C   UNL     1       7.299  24.609  20.138  1.00  0.00     0.181 C 
BRANCH   5   6
ATOM      6  C   UNL     1       6.073  23.650  20.089  1.00  0.00     0.209 C 
BRANCH   6   7
ATOM      7  C   UNL     1       6.209  22.450  20.986  1.00  0.00     0.258 C 
ATOM      8  O   UNL     1       6.504  22.583  22.163  1.00  0.00    -0.300 OA
ENDBRANCH   6   7
BRANCH   6   9
ATOM      9  O   UNL     1       4.892  24.333  20.416  1.00  0.00    -0.383 OA
ATOM     10  H   UNL     1       4.135  23.767  20.111  1.00  0.00     0.211 HD
ENDBRANCH   6   9
ENDBRANCH   5   6
BRANCH   5  11
ATOM     11  O   UNL     1       8.481  23.885  20.374  1.00  0.00    -0.387 OA
ATOM     12  H   UNL     1       8.492  23.104  19.762  1.00  0.00     0.211 HD
ENDBRANCH   5  11
ENDBRANCH   1   5
BRANCH   1  13
ATOM     13  O   UNL     1       7.235  27.057  20.387  1.00  0.00    -0.388 OA
ATOM     14  H   UNL     1       6.433  27.105  19.806  1.00  0.00     0.211 HD
ENDBRANCH   1  13
TORSDOF 8
ENDMDL
MODEL 3
REMARK VINA RESULT:    -3.676     12.184     13.895
REMARK INTER + INTRA:          -5.655
REMARK INTER:                  -5.023
REMARK INTRA:                  -0.632
REMARK UNBOUND:                -0.690
REMARK SMILES O=C[C@@H](O)[C@H](O)[C@H](O)CO
REMARK SMILES IDX 7 1 9 2 10 3 5 5 3 6 2 7 1 8 4 9 6 11 8 13
REMARK H PARENT 10 4 4 10 6 12 8 14
REMARK Flexibility Score: inf
ROOT
ATOM      1  C   UNL     1      -2.882  15.145  18.688  1.00  0.00     0.171 C 
ENDROOT
BRANCH   1   2
ATOM      2  C   UNL     1      -1.662  14.316  18.234  1.00  0.00     0.190 C 
BRANCH   2   3
ATOM      3  O   UNL     1      -2.083  13.138  17.599  1.00  0.00    -0.394 OA
ATOM      4  H   UNL     1      -1.266  12.699  17.245  1.00  0.00     0.210 HD
ENDBRANCH   2   3
ENDBRANCH   1   2
BRANCH   1   5
ATOM      5  C   UNL     1      -3.787  15.624  17.511  1.00  0.00     0.181 C 
BRANCH   5   6
ATOM      6  C   UNL     1      -5.258  15.116  17.491  1.00  0.00     0.209 C 
BRANCH   6   7
ATOM      7  C   UNL     1      -5.442  13.770  18.134  1.00  0.00     0.258 C 
ATOM      8  O   UNL     1      -5.095  12.752  17.557  1.00  0.00    -0.300 OA
ENDBRANCH   6   7
BRANCH   6   9
ATOM      9  O   UNL     1      -6.113  16.040  18.113  1.00  0.00    -0.383 OA
ATOM     10  H   UNL     1      -6.367  16.709  17.425  1.00  0.00     0.211 HD
ENDBRANCH   6   9
ENDBRANCH   5   6
BRANCH   5  11
ATOM     11  O   UNL     1      -3.164  15.377  16.275  1.00  0.00    -0.387 OA
ATOM     12  H   UNL     1      -2.622  16.174  16.038  1.00  0.00     0.211 HD
ENDBRANCH   5  11
ENDBRANCH   1   5
BRANCH   1  13
ATOM     13  O   UNL     1      -2.513  16.209  19.535  1.00  0.00    -0.388 OA
ATOM     14  H   UNL     1      -3.059  16.161  20.361  1.00  0.00     0.211 HD
ENDBRANCH   1  13
TORSDOF 8
ENDMDL
MODEL 4
REMARK VINA RESULT:    -3.662     11.698     12.987
REMARK INTER + INTRA:          -5.637
REMARK INTER:                  -5.024
REMARK INTRA:                  -0.613
REMARK UNBOUND:                -0.690
REMARK SMILES O=C[C@@H](O)[C@H](O)[C@H](O)CO
REMARK SMILES IDX 7 1 9 2 10 3 5 5 3 6 2 7 1 8 4 9 6 11 8 13
REMARK H PARENT 10 4 4 10 6 12 8 14
REMARK Flexibility Score: inf
ROOT
ATOM      1  C   UNL     1      -2.538  15.350  18.343  1.00  0.00     0.171 C 
ENDROOT
BRANCH   1   2
ATOM      2  C   UNL     1      -3.757  15.428  17.400  1.00  0.00     0.190 C 
BRANCH   2   3
ATOM      3  O   UNL     1      -3.335  15.575  16.070  1.00  0.00    -0.394 OA
ATOM      4  H   UNL     1      -4.022  15.136  15.504  1.00  0.00     0.210 HD
ENDBRANCH   2   3
ENDBRANCH   1   2
BRANCH   1   5
ATOM      5  C   UNL     1      -2.077  13.892  18.649  1.00  0.00     0.181 C 
BRANCH   5   6
ATOM      6  C   UNL     1      -0.685  13.710  19.321  1.00  0.00     0.209 C 
BRANCH   6   7
ATOM      7  C   UNL     1      -0.005  12.418  18.964  1.00  0.00     0.258 C 
ATOM      8  O   UNL     1      -0.534  11.346  19.216  1.00  0.00    -0.300 OA
ENDBRANCH   6   7
BRANCH   6   9
ATOM      9  O   UNL     1       0.168  14.778  18.999  1.00  0.00    -0.383 OA
ATOM     10  H   UNL     1      -0.314  15.615  19.234  1.00  0.00     0.211 HD
ENDBRANCH   6   9
ENDBRANCH   5   6
BRANCH   5  11
ATOM     11  O   UNL     1      -2.178  13.088  17.500  1.00  0.00    -0.387 OA
ATOM     12  H   UNL     1      -2.674  12.263  17.743  1.00  0.00     0.211 HD
ENDBRANCH   5  11
ENDBRANCH   1   5
BRANCH   1  13
ATOM     13  O   UNL     1      -2.731  16.099  19.521  1.00  0.00    -0.388 OA
ATOM     14  H   UNL     1      -3.624  16.526  19.482  1.00  0.00     0.211 HD
ENDBRANCH   1  13
TORSDOF 8
ENDMDL
MODEL 5
REMARK VINA RESULT:    -3.660      4.713      7.239
REMARK INTER + INTRA:          -5.634
REMARK INTER:                  -5.357
REMARK INTRA:                  -0.277
REMARK UNBOUND:                -0.690
REMARK SMILES O=C[C@@H](O)[C@H](O)[C@H](O)CO
REMARK SMILES IDX 7 1 9 2 10 3 5 5 3 6 2 7 1 8 4 9 6 11 8 13
REMARK H PARENT 10 4 4 10 6 12 8 14
REMARK Flexibility Score: inf
ROOT
ATOM      1  C   UNL     1       2.938  17.531  19.605  1.00  0.00     0.171 C 
ENDROOT
BRANCH   1   2
ATOM      2  C   UNL     1       2.308  16.384  20.424  1.00  0.00     0.190 C 
BRANCH   2   3
ATOM      3  O   UNL     1       1.202  15.852  19.746  1.00  0.00    -0.394 OA
ATOM      4  H   UNL     1       0.985  14.990  20.187  1.00  0.00     0.210 HD
ENDBRANCH   2   3
ENDBRANCH   1   2
BRANCH   1   5
ATOM      5  C   UNL     1       2.274  18.919  19.861  1.00  0.00     0.181 C 
BRANCH   5   6
ATOM      6  C   UNL     1       2.596  19.625  21.211  1.00  0.00     0.209 C 
BRANCH   6   7
ATOM      7  C   UNL     1       3.954  20.269  21.247  1.00  0.00     0.258 C 
ATOM      8  O   UNL     1       4.077  21.446  21.546  1.00  0.00    -0.300 OA
ENDBRANCH   6   7
BRANCH   6   9
ATOM      9  O   UNL     1       1.624  20.592  21.512  1.00  0.00    -0.383 OA
ATOM     10  H   UNL     1       1.192  20.847  20.655  1.00  0.00     0.211 HD
ENDBRANCH   6   9
ENDBRANCH   5   6
BRANCH   5  11
ATOM     11  O   UNL     1       0.884  18.849  19.662  1.00  0.00    -0.387 OA
ATOM     12  H   UNL     1       0.449  19.463  20.308  1.00  0.00     0.211 HD
ENDBRANCH   5  11
ENDBRANCH   1   5
BRANCH   1  13
ATOM     13  O   UNL     1       3.006  17.226  18.231  1.00  0.00    -0.388 OA
ATOM     14  H   UNL     1       2.446  17.875  17.734  1.00  0.00     0.211 HD
ENDBRANCH   1  13
TORSDOF 8
ENDMDL
MODEL 6
REMARK VINA RESULT:    -3.655      3.438      6.235
REMARK INTER + INTRA:          -5.627
REMARK INTER:                  -5.129
REMARK INTRA:                  -0.498
REMARK UNBOUND:                -0.690
REMARK SMILES O=C[C@@H](O)[C@H](O)[C@H](O)CO
REMARK SMILES IDX 7 1 9 2 10 3 5 5 3 6 2 7 1 8 4 9 6 11 8 13
REMARK H PARENT 10 4 4 10 6 12 8 14
REMARK Flexibility Score: inf
ROOT
ATOM      1  C   UNL     1       1.785  19.948  20.995  1.00  0.00     0.171 C 
ENDROOT
BRANCH   1   2
ATOM      2  C   UNL     1       1.051  18.641  20.629  1.00  0.00     0.190 C 
BRANCH   2   3
ATOM      3  O   UNL     1      -0.094  18.921  19.869  1.00  0.00    -0.394 OA
ATOM      4  H   UNL     1       0.222  19.186  18.966  1.00  0.00     0.210 HD
ENDBRANCH   2   3
ENDBRANCH   1   2
BRANCH   1   5
ATOM      5  C   UNL     1       2.949  19.747  22.014  1.00  0.00     0.181 C 
BRANCH   5   6
ATOM      6  C   UNL     1       3.702  21.022  22.496  1.00  0.00     0.209 C 
BRANCH   6   7
ATOM      7  C   UNL     1       4.505  21.694  21.417  1.00  0.00     0.258 C 
ATOM      8  O   UNL     1       5.506  21.162  20.964  1.00  0.00    -0.300 OA
ENDBRANCH   6   7
BRANCH   6   9
ATOM      9  O   UNL     1       2.806  21.953  23.045  1.00  0.00    -0.383 OA
ATOM     10  H   UNL     1       2.359  22.409  22.285  1.00  0.00     0.211 HD
ENDBRANCH   6   9
ENDBRANCH   5   6
BRANCH   5  11
ATOM     11  O   UNL     1       3.861  18.786  21.543  1.00  0.00    -0.387 OA
ATOM     12  H   UNL     1       4.649  18.787  22.145  1.00  0.00     0.211 HD
ENDBRANCH   5  11
ENDBRANCH   1   5
BRANCH   1  13
ATOM     13  O   UNL     1       0.894  20.958  21.407  1.00  0.00    -0.388 OA
ATOM     14  H   UNL     1       1.379  21.823  21.421  1.00  0.00     0.211 HD
ENDBRANCH   1  13
TORSDOF 8
ENDMDL
MODEL 7
REMARK VINA RESULT:    -3.650     11.529     13.348
REMARK INTER + INTRA:          -5.621
REMARK INTER:                  -5.304
REMARK INTRA:                  -0.318
REMARK UNBOUND:                -0.690
REMARK SMILES O=C[C@@H](O)[C@H](O)[C@H](O)CO
REMARK SMILES IDX 7 1 9 2 10 3 5 5 3 6 2 7 1 8 4 9 6 11 8 13
REMARK H PARENT 10 4 4 10 6 12 8 14
REMARK Flexibility Score: inf
ROOT
ATOM      1  C   UNL     1      -1.877  14.072  18.043  1.00  0.00     0.171 C 
ENDROOT
BRANCH   1   2
ATOM      2  C   UNL     1      -1.029  14.251  19.320  1.00  0.00     0.190 C 
BRANCH   2   3
ATOM      3  O   UNL     1       0.159  14.935  19.024  1.00  0.00    -0.394 OA
ATOM      4  H   UNL     1       0.635  15.065  19.885  1.00  0.00     0.210 HD
ENDBRANCH   2   3
ENDBRANCH   1   2
BRANCH   1   5
ATOM      5  C   UNL     1      -3.336  14.605  18.181  1.00  0.00     0.181 C 
BRANCH   5   6
ATOM      6  C   UNL     1      -4.105  14.929  16.866  1.00  0.00     0.209 C 
BRANCH   6   7
ATOM      7  C   UNL     1      -5.372  15.707  17.084  1.00  0.00     0.258 C 
ATOM      8  O   UNL     1      -6.057  15.518  18.076  1.00  0.00    -0.300 OA
ENDBRANCH   6   7
BRANCH   6   9
ATOM      9  O   UNL     1      -3.285  15.631  15.969  1.00  0.00    -0.383 OA
ATOM     10  H   UNL     1      -2.759  16.281  16.504  1.00  0.00     0.211 HD
ENDBRANCH   6   9
ENDBRANCH   5   6
BRANCH   5  11
ATOM     11  O   UNL     1      -3.382  15.702  19.061  1.00  0.00    -0.387 OA
ATOM     12  H   UNL     1      -4.183  15.600  19.638  1.00  0.00     0.211 HD
ENDBRANCH   5  11
ENDBRANCH   1   5
BRANCH   1  13
ATOM     13  O   UNL     1      -1.844  12.747  17.567  1.00  0.00    -0.388 OA
ATOM     14  H   UNL     1      -2.477  12.202  18.102  1.00  0.00     0.211 HD
ENDBRANCH   1  13
TORSDOF 8
ENDMDL
MODEL 8
REMARK VINA RESULT:    -3.629     12.122     13.347
REMARK INTER + INTRA:          -5.593
REMARK INTER:                  -4.807
REMARK INTRA:                  -0.786
REMARK UNBOUND:                -0.690
REMARK SMILES O=C[C@@H](O)[C@H](O)[C@H](O)CO
REMARK SMILES IDX 7 1 9 2 10 3 5 5 3 6 2 7 1 8 4 9 6 11 8 13
REMARK H PARENT 10 4 4 10 6 12 8 14
REMARK Flexibility Score: inf
ROOT
ATOM      1  C   UNL     1      -4.136  15.217  18.211  1.00  0.00     0.171 C 
ENDROOT
BRANCH   1   2
ATOM      2  C   UNL     1      -4.473  15.580  16.749  1.00  0.00     0.190 C 
BRANCH   2   3
ATOM      3  O   UNL     1      -3.299  15.666  15.986  1.00  0.00    -0.394 OA
ATOM      4  H   UNL     1      -2.666  15.000  16.362  1.00  0.00     0.210 HD
ENDBRANCH   2   3
ENDBRANCH   1   2
BRANCH   1   5
ATOM      5  C   UNL     1      -2.641  15.456  18.586  1.00  0.00     0.181 C 
BRANCH   5   6
ATOM      6  C   UNL     1      -1.684  14.231  18.519  1.00  0.00     0.209 C 
BRANCH   6   7
ATOM      7  C   UNL     1      -1.518  13.521  19.834  1.00  0.00     0.258 C 
ATOM      8  O   UNL     1      -2.487  13.269  20.532  1.00  0.00    -0.300 OA
ENDBRANCH   6   7
BRANCH   6   9
ATOM      9  O   UNL     1      -2.121  13.309  17.555  1.00  0.00    -0.383 OA
ATOM     10  H   UNL     1      -3.056  13.550  17.325  1.00  0.00     0.211 HD
ENDBRANCH   6   9
ENDBRANCH   5   6
BRANCH   5  11
ATOM     11  O   UNL     1      -2.539  16.093  19.836  1.00  0.00    -0.387 OA
ATOM     12  H   UNL     1      -3.311  16.709  19.932  1.00  0.00     0.211 HD
ENDBRANCH   5  11
ENDBRANCH   1   5
BRANCH   1  13
ATOM     13  O   UNL     1      -4.560  13.915  18.544  1.00  0.00    -0.388 OA
ATOM     14  H   UNL     1      -3.762  13.365  18.754  1.00  0.00     0.211 HD
ENDBRANCH   1  13
TORSDOF 8
ENDMDL
MODEL 9
REMARK VINA RESULT:    -3.508      6.183      7.551
REMARK INTER + INTRA:          -5.428
REMARK INTER:                  -4.728
REMARK INTRA:                  -0.700
REMARK UNBOUND:                -0.690
REMARK SMILES O=C[C@@H](O)[C@H](O)[C@H](O)CO
REMARK SMILES IDX 7 1 9 2 10 3 5 5 3 6 2 7 1 8 4 9 6 11 8 13
REMARK H PARENT 10 4 4 10 6 12 8 14
REMARK Flexibility Score: inf
ROOT
ATOM      1  C   UNL     1       1.791  19.412  20.736  1.00  0.00     0.171 C 
ENDROOT
BRANCH   1   2
ATOM      2  C   UNL     1       0.413  19.812  20.167  1.00  0.00     0.190 C 
BRANCH   2   3
ATOM      3  O   UNL     1      -0.292  18.672  19.753  1.00  0.00    -0.394 OA
ATOM      4  H   UNL     1       0.152  18.348  18.926  1.00  0.00     0.210 HD
ENDBRANCH   2   3
ENDBRANCH   1   2
BRANCH   1   5
ATOM      5  C   UNL     1       2.101  17.888  20.612  1.00  0.00     0.181 C 
BRANCH   5   6
ATOM      6  C   UNL     1       3.193  17.304  21.554  1.00  0.00     0.209 C 
BRANCH   6   7
ATOM      7  C   UNL     1       3.757  15.992  21.085  1.00  0.00     0.258 C 
ATOM      8  O   UNL     1       3.020  15.053  20.829  1.00  0.00    -0.300 OA
ENDBRANCH   6   7
BRANCH   6   9
ATOM      9  O   UNL     1       4.245  18.218  21.727  1.00  0.00    -0.383 OA
ATOM     10  H   UNL     1       5.059  17.800  21.341  1.00  0.00     0.211 HD
ENDBRANCH   6   9
ENDBRANCH   5   6
BRANCH   5  11
ATOM     11  O   UNL     1       2.368  17.544  19.275  1.00  0.00    -0.387 OA
ATOM     12  H   UNL     1       1.755  18.064  18.694  1.00  0.00     0.211 HD
ENDBRANCH   5  11
ENDBRANCH   1   5
BRANCH   1  13
ATOM     13  O   UNL     1       1.977  19.881  22.052  1.00  0.00    -0.388 OA
ATOM     14  H   UNL     1       2.696  19.349  22.479  1.00  0.00     0.211 HD
ENDBRANCH   1  13
TORSDOF 8
ENDMDL
