MODEL 1
REMARK VINA RESULT:    -6.995      0.000      0.000
REMARK INTER + INTRA:          -7.199
REMARK INTER:                  -7.199
REMARK INTRA:                   0.000
REMARK UNBOUND:                 0.000
REMARK SMILES O=c1ccc2cc(O)ccc2o1
REMARK SMILES IDX 9 1 10 2 11 3 5 4 4 5 3 6 2 7 1 8 12 9 6 10 7 11 8 12
REMARK H PARENT 8 13
REMARK Flexibility Score: inf
ROOT
ATOM      1  C   UNL     1       9.748  68.638   2.916  1.00  0.00     0.050 A 
ATOM      2  C   UNL     1       9.598  67.807   1.801  1.00  0.00     0.052 A 
ATOM      3  C   UNL     1       9.545  68.358   0.517  1.00  0.00     0.138 A 
ATOM      4  C   UNL     1       9.641  69.758   0.351  1.00  0.00     0.021 A 
ATOM      5  C   UNL     1       9.583  70.281  -0.944  1.00  0.00     0.019 A 
ATOM      6  C   UNL     1       9.434  69.413  -2.027  1.00  0.00     0.094 A 
ATOM      7  C   UNL     1       9.344  68.038  -1.786  1.00  0.00     0.336 A 
ATOM      8  O   UNL     1       9.210  67.239  -2.750  1.00  0.00    -0.246 OA
ATOM      9  O   UNL     1       9.402  67.566  -0.543  1.00  0.00    -0.423 OA
ATOM     10  C   UNL     1       9.791  70.588   1.472  1.00  0.00     0.058 A 
ATOM     11  C   UNL     1       9.845  70.028   2.754  1.00  0.00     0.116 A 
ENDROOT
BRANCH  11  12
ATOM     12  O   UNL     1       9.994  70.861   3.861  1.00  0.00    -0.508 OA
ATOM     13  H   UNL     1       9.728  71.839   3.827  1.00  0.00     0.293 HD
ENDBRANCH  11  12
TORSDOF 1
ENDMDL
MODEL 2
REMARK VINA RESULT:    -6.883      1.627      4.147
REMARK INTER + INTRA:          -7.084
REMARK INTER:                  -7.084
REMARK INTRA:                   0.000
REMARK UNBOUND:                 0.000
REMARK SMILES O=c1ccc2cc(O)ccc2o1
REMARK SMILES IDX 9 1 10 2 11 3 5 4 4 5 3 6 2 7 1 8 12 9 6 10 7 11 8 12
REMARK H PARENT 8 13
REMARK Flexibility Score: inf
ROOT
ATOM      1  C   UNL     1       9.700  68.662  -2.365  1.00  0.00     0.050 A 
ATOM      2  C   UNL     1       9.675  67.868  -1.215  1.00  0.00     0.052 A 
ATOM      3  C   UNL     1       9.706  68.464   0.050  1.00  0.00     0.138 A 
ATOM      4  C   UNL     1       9.763  69.871   0.161  1.00  0.00     0.021 A 
ATOM      5  C   UNL     1       9.793  70.438   1.438  1.00  0.00     0.019 A 
ATOM      6  C   UNL     1       9.766  69.606   2.558  1.00  0.00     0.094 A 
ATOM      7  C   UNL     1       9.710  68.221   2.372  1.00  0.00     0.336 A 
ATOM      8  O   UNL     1       9.684  67.454   3.369  1.00  0.00    -0.246 OA
ATOM      9  O   UNL     1       9.682  67.706   1.145  1.00  0.00    -0.423 OA
ATOM     10  C   UNL     1       9.787  70.664  -0.996  1.00  0.00     0.058 A 
ATOM     11  C   UNL     1       9.755  70.060  -2.259  1.00  0.00     0.116 A 
ENDROOT
BRANCH  11  12
ATOM     12  O   UNL     1       9.781  70.857  -3.401  1.00  0.00    -0.508 OA
ATOM     13  H   UNL     1      10.650  71.223  -3.772  1.00  0.00     0.293 HD
ENDBRANCH  11  12
TORSDOF 1
ENDMDL
MODEL 3
REMARK VINA RESULT:    -6.761      1.872      4.275
REMARK INTER + INTRA:          -6.959
REMARK INTER:                  -6.959
REMARK INTRA:                   0.000
REMARK UNBOUND:                 0.000
REMARK SMILES O=c1ccc2cc(O)ccc2o1
REMARK SMILES IDX 9 1 10 2 11 3 5 4 4 5 3 6 2 7 1 8 12 9 6 10 7 11 8 12
REMARK H PARENT 8 13
REMARK Flexibility Score: inf
ROOT
ATOM      1  C   UNL     1       9.902  71.344  -1.215  1.00  0.00     0.050 A 
ATOM      2  C   UNL     1       9.849  70.922   0.117  1.00  0.00     0.052 A 
ATOM      3  C   UNL     1       9.712  69.563   0.417  1.00  0.00     0.138 A 
ATOM      4  C   UNL     1       9.626  68.618  -0.631  1.00  0.00     0.021 A 
ATOM      5  C   UNL     1       9.488  67.267  -0.301  1.00  0.00     0.019 A 
ATOM      6  C   UNL     1       9.442  66.892   1.042  1.00  0.00     0.094 A 
ATOM      7  C   UNL     1       9.533  67.881   2.026  1.00  0.00     0.336 A 
ATOM      8  O   UNL     1       9.492  67.563   3.244  1.00  0.00    -0.246 OA
ATOM      9  O   UNL     1       9.663  69.161   1.686  1.00  0.00    -0.423 OA
ATOM     10  C   UNL     1       9.678  69.047  -1.965  1.00  0.00     0.058 A 
ATOM     11  C   UNL     1       9.817  70.410  -2.258  1.00  0.00     0.116 A 
ENDROOT
BRANCH  11  12
ATOM     12  O   UNL     1       9.868  70.824  -3.586  1.00  0.00    -0.508 OA
ATOM     13  H   UNL     1       9.024  70.981  -4.125  1.00  0.00     0.293 HD
ENDBRANCH  11  12
TORSDOF 1
ENDMDL
MODEL 4
REMARK VINA RESULT:    -6.751      0.994      2.091
REMARK INTER + INTRA:          -6.948
REMARK INTER:                  -6.948
REMARK INTRA:                   0.000
REMARK UNBOUND:                 0.000
REMARK SMILES O=c1ccc2cc(O)ccc2o1
REMARK SMILES IDX 9 1 10 2 11 3 5 4 4 5 3 6 2 7 1 8 12 9 6 10 7 11 8 12
REMARK H PARENT 8 13
REMARK Flexibility Score: inf
ROOT
ATOM      1  C   UNL     1      10.056  71.533   1.523  1.00  0.00     0.050 A 
ATOM      2  C   UNL     1       9.978  71.064   0.209  1.00  0.00     0.052 A 
ATOM      3  C   UNL     1       9.685  69.719  -0.040  1.00  0.00     0.138 A 
ATOM      4  C   UNL     1       9.469  68.837   1.043  1.00  0.00     0.021 A 
ATOM      5  C   UNL     1       9.179  67.498   0.764  1.00  0.00     0.019 A 
ATOM      6  C   UNL     1       9.110  67.075  -0.564  1.00  0.00     0.094 A 
ATOM      7  C   UNL     1       9.336  68.004  -1.584  1.00  0.00     0.336 A 
ATOM      8  O   UNL     1       9.278  67.641  -2.788  1.00  0.00    -0.246 OA
ATOM      9  O   UNL     1       9.610  69.273  -1.292  1.00  0.00    -0.423 OA
ATOM     10  C   UNL     1       9.549  69.312   2.360  1.00  0.00     0.058 A 
ATOM     11  C   UNL     1       9.841  70.660   2.601  1.00  0.00     0.116 A 
ENDROOT
BRANCH  11  12
ATOM     12  O   UNL     1       9.918  71.122   3.913  1.00  0.00    -0.508 OA
ATOM     13  H   UNL     1      10.279  70.539   4.659  1.00  0.00     0.293 HD
ENDBRANCH  11  12
TORSDOF 1
ENDMDL
MODEL 5
REMARK VINA RESULT:    -6.595      0.813      4.770
REMARK INTER + INTRA:          -6.788
REMARK INTER:                  -6.788
REMARK INTRA:                   0.000
REMARK UNBOUND:                 0.000
REMARK SMILES O=c1ccc2cc(O)ccc2o1
REMARK SMILES IDX 9 1 10 2 11 3 5 4 4 5 3 6 2 7 1 8 12 9 6 10 7 11 8 12
REMARK H PARENT 8 13
REMARK Flexibility Score: inf
ROOT
ATOM      1  C   UNL     1       9.345  69.370  -1.931  1.00  0.00     0.050 A 
ATOM      2  C   UNL     1       9.437  70.219  -0.824  1.00  0.00     0.052 A 
ATOM      3  C   UNL     1       9.504  69.685   0.467  1.00  0.00     0.138 A 
ATOM      4  C   UNL     1       9.477  68.284   0.648  1.00  0.00     0.021 A 
ATOM      5  C   UNL     1       9.544  67.778   1.949  1.00  0.00     0.019 A 
ATOM      6  C   UNL     1       9.636  68.664   3.023  1.00  0.00     0.094 A 
ATOM      7  C   UNL     1       9.657  70.039   2.769  1.00  0.00     0.336 A 
ATOM      8  O   UNL     1       9.740  70.854   3.725  1.00  0.00    -0.246 OA
ATOM      9  O   UNL     1       9.592  70.494   1.520  1.00  0.00    -0.423 OA
ATOM     10  C   UNL     1       9.384  67.436  -0.466  1.00  0.00     0.058 A 
ATOM     11  C   UNL     1       9.319  67.978  -1.755  1.00  0.00     0.116 A 
ENDROOT
BRANCH  11  12
ATOM     12  O   UNL     1       9.227  67.127  -2.854  1.00  0.00    -0.508 OA
ATOM     13  H   UNL     1       8.640  67.350  -3.649  1.00  0.00     0.293 HD
ENDBRANCH  11  12
TORSDOF 1
ENDMDL
MODEL 6
REMARK VINA RESULT:    -6.588      1.845      2.318
REMARK INTER + INTRA:          -6.781
REMARK INTER:                  -6.781
REMARK INTRA:                   0.000
REMARK UNBOUND:                 0.000
REMARK SMILES O=c1ccc2cc(O)ccc2o1
REMARK SMILES IDX 9 1 10 2 11 3 5 4 4 5 3 6 2 7 1 8 12 9 6 10 7 11 8 12
REMARK H PARENT 8 13
REMARK Flexibility Score: inf
ROOT
ATOM      1  C   UNL     1       9.474  66.899   0.820  1.00  0.00     0.050 A 
ATOM      2  C   UNL     1       9.611  67.296  -0.513  1.00  0.00     0.052 A 
ATOM      3  C   UNL     1       9.758  68.650  -0.830  1.00  0.00     0.138 A 
ATOM      4  C   UNL     1       9.767  69.615   0.201  1.00  0.00     0.021 A 
ATOM      5  C   UNL     1       9.914  70.961  -0.146  1.00  0.00     0.019 A 
ATOM      6  C   UNL     1      10.048  71.310  -1.490  1.00  0.00     0.094 A 
ATOM      7  C   UNL     1      10.030  70.301  -2.458  1.00  0.00     0.336 A 
ATOM      8  O   UNL     1      10.149  70.596  -3.676  1.00  0.00    -0.246 OA
ATOM      9  O   UNL     1       9.888  69.027  -2.101  1.00  0.00    -0.423 OA
ATOM     10  C   UNL     1       9.629  69.212   1.538  1.00  0.00     0.058 A 
ATOM     11  C   UNL     1       9.484  67.854   1.848  1.00  0.00     0.116 A 
ENDROOT
BRANCH  11  12
ATOM     12  O   UNL     1       9.348  67.465   3.178  1.00  0.00    -0.508 OA
ATOM     13  H   UNL     1      10.136  67.116   3.711  1.00  0.00     0.293 HD
ENDBRANCH  11  12
TORSDOF 1
ENDMDL
MODEL 7
REMARK VINA RESULT:    -6.582      1.797      2.456
REMARK INTER + INTRA:          -6.775
REMARK INTER:                  -6.775
REMARK INTRA:                   0.000
REMARK UNBOUND:                 0.000
REMARK SMILES O=c1ccc2cc(O)ccc2o1
REMARK SMILES IDX 9 1 10 2 11 3 5 4 4 5 3 6 2 7 1 8 12 9 6 10 7 11 8 12
REMARK H PARENT 8 13
REMARK Flexibility Score: inf
ROOT
ATOM      1  C   UNL     1       9.948  69.392   2.320  1.00  0.00     0.050 A 
ATOM      2  C   UNL     1      10.108  70.155   1.160  1.00  0.00     0.052 A 
ATOM      3  C   UNL     1       9.904  69.574  -0.096  1.00  0.00     0.138 A 
ATOM      4  C   UNL     1       9.537  68.213  -0.187  1.00  0.00     0.021 A 
ATOM      5  C   UNL     1       9.341  67.659  -1.456  1.00  0.00     0.019 A 
ATOM      6  C   UNL     1       9.511  68.460  -2.586  1.00  0.00     0.094 A 
ATOM      7  C   UNL     1       9.876  69.800  -2.419  1.00  0.00     0.336 A 
ATOM      8  O   UNL     1      10.034  70.538  -3.426  1.00  0.00    -0.246 OA
ATOM      9  O   UNL     1      10.056  70.303  -1.200  1.00  0.00    -0.423 OA
ATOM     10  C   UNL     1       9.378  67.451   0.980  1.00  0.00     0.058 A 
ATOM     11  C   UNL     1       9.582  68.040   2.233  1.00  0.00     0.116 A 
ENDROOT
BRANCH  11  12
ATOM     12  O   UNL     1       9.422  67.274   3.386  1.00  0.00    -0.508 OA
ATOM     13  H   UNL     1      10.072  67.339   4.160  1.00  0.00     0.293 HD
ENDBRANCH  11  12
TORSDOF 1
ENDMDL
MODEL 8
REMARK VINA RESULT:    -6.563      1.054      4.310
REMARK INTER + INTRA:          -6.755
REMARK INTER:                  -6.755
REMARK INTRA:                   0.000
REMARK UNBOUND:                 0.000
REMARK SMILES O=c1ccc2cc(O)ccc2o1
REMARK SMILES IDX 9 1 10 2 11 3 5 4 4 5 3 6 2 7 1 8 12 9 6 10 7 11 8 12
REMARK H PARENT 8 13
REMARK Flexibility Score: inf
ROOT
ATOM      1  C   UNL     1       9.027  67.050  -0.280  1.00  0.00     0.050 A 
ATOM      2  C   UNL     1       9.003  67.541   1.029  1.00  0.00     0.052 A 
ATOM      3  C   UNL     1       9.329  68.876   1.284  1.00  0.00     0.138 A 
ATOM      4  C   UNL     1       9.684  69.728   0.214  1.00  0.00     0.021 A 
ATOM      5  C   UNL     1      10.005  71.058   0.499  1.00  0.00     0.019 A 
ATOM      6  C   UNL     1       9.967  71.504   1.821  1.00  0.00     0.094 A 
ATOM      7  C   UNL     1       9.608  70.604   2.829  1.00  0.00     0.336 A 
ATOM      8  O   UNL     1       9.568  70.987   4.028  1.00  0.00    -0.246 OA
ATOM      9  O   UNL     1       9.306  69.342   2.531  1.00  0.00    -0.423 OA
ATOM     10  C   UNL     1       9.706  69.232  -1.098  1.00  0.00     0.058 A 
ATOM     11  C   UNL     1       9.377  67.893  -1.345  1.00  0.00     0.116 A 
ENDROOT
BRANCH  11  12
ATOM     12  O   UNL     1       9.403  67.411  -2.652  1.00  0.00    -0.508 OA
ATOM     13  H   UNL     1       9.699  67.994  -3.426  1.00  0.00     0.293 HD
ENDBRANCH  11  12
TORSDOF 1
ENDMDL
MODEL 9
REMARK VINA RESULT:    -6.429      2.032      3.387
REMARK INTER + INTRA:          -6.617
REMARK INTER:                  -6.617
REMARK INTRA:                   0.000
REMARK UNBOUND:                 0.000
REMARK SMILES O=c1ccc2cc(O)ccc2o1
REMARK SMILES IDX 9 1 10 2 11 3 5 4 4 5 3 6 2 7 1 8 12 9 6 10 7 11 8 12
REMARK H PARENT 8 13
REMARK Flexibility Score: inf
ROOT
ATOM      1  C   UNL     1       9.393  68.147   2.395  1.00  0.00     0.050 A 
ATOM      2  C   UNL     1       9.803  69.474   2.228  1.00  0.00     0.052 A 
ATOM      3  C   UNL     1       9.785  70.059   0.958  1.00  0.00     0.138 A 
ATOM      4  C   UNL     1       9.352  69.304  -0.156  1.00  0.00     0.021 A 
ATOM      5  C   UNL     1       9.346  69.915  -1.413  1.00  0.00     0.019 A 
ATOM      6  C   UNL     1       9.763  71.242  -1.531  1.00  0.00     0.094 A 
ATOM      7  C   UNL     1      10.178  71.927  -0.385  1.00  0.00     0.336 A 
ATOM      8  O   UNL     1      10.557  73.124  -0.471  1.00  0.00    -0.246 OA
ATOM      9  O   UNL     1      10.174  71.322   0.801  1.00  0.00    -0.423 OA
ATOM     10  C   UNL     1       8.943  67.974   0.017  1.00  0.00     0.058 A 
ATOM     11  C   UNL     1       8.962  67.395   1.292  1.00  0.00     0.116 A 
ENDROOT
BRANCH  11  12
ATOM     12  O   UNL     1       8.554  66.073   1.451  1.00  0.00    -0.508 OA
ATOM     13  H   UNL     1       8.410  65.463   0.655  1.00  0.00     0.293 HD
ENDBRANCH  11  12
TORSDOF 1
ENDMDL
