MODEL 1
REMARK VINA RESULT:    -3.395      0.000      0.000
REMARK INTER + INTRA:          -4.168
REMARK INTER:                  -3.990
REMARK INTRA:                  -0.177
REMARK UNBOUND:                -0.177
REMARK SMILES O=C([O-])CCC(=O)[O-]
REMARK SMILES IDX 4 1 2 2 1 3 3 4 5 5 6 6 7 7 8 8
REMARK H PARENT
REMARK Flexibility Score: inf
ROOT
ATOM      1  C   UNL     1      99.295  91.210  85.531  1.00  0.00     0.059 C 
ENDROOT
BRANCH   1   2
ATOM      2  C   UNL     1     100.370  91.706  86.448  1.00  0.00     0.042 C 
ATOM      3  O   UNL     1     100.095  92.020  87.636  1.00  0.00    -0.550 OA
ATOM      4  O   UNL     1     101.684  91.781  86.004  1.00  0.00    -0.550 OA
ENDBRANCH   1   2
BRANCH   1   5
ATOM      5  C   UNL     1      99.643  89.839  84.940  1.00  0.00     0.059 C 
BRANCH   5   6
ATOM      6  C   UNL     1      99.890  88.822  86.012  1.00  0.00     0.042 C 
ATOM      7  O   UNL     1     101.012  88.259  86.104  1.00  0.00    -0.550 OA
ATOM      8  O   UNL     1      98.895  88.526  86.935  1.00  0.00    -0.550 OA
ENDBRANCH   5   6
ENDBRANCH   1   5
TORSDOF 3
ENDMDL
MODEL 2
REMARK VINA RESULT:    -3.388      0.060      3.465
REMARK INTER + INTRA:          -4.160
REMARK INTER:                  -3.988
REMARK INTRA:                  -0.171
REMARK UNBOUND:                -0.177
REMARK SMILES O=C([O-])CCC(=O)[O-]
REMARK SMILES IDX 4 1 2 2 1 3 3 4 5 5 6 6 7 7 8 8
REMARK H PARENT
REMARK Flexibility Score: inf
ROOT
ATOM      1  C   UNL     1      99.636  89.883  84.963  1.00  0.00     0.059 C 
ENDROOT
BRANCH   1   2
ATOM      2  C   UNL     1      99.888  88.845  86.013  1.00  0.00     0.042 C 
ATOM      3  O   UNL     1     101.007  88.273  86.083  1.00  0.00    -0.550 OA
ATOM      4  O   UNL     1      98.900  88.539  86.941  1.00  0.00    -0.550 OA
ENDBRANCH   1   2
BRANCH   1   5
ATOM      5  C   UNL     1      99.297  91.243  85.583  1.00  0.00     0.059 C 
BRANCH   5   6
ATOM      6  C   UNL     1     100.409  91.747  86.451  1.00  0.00     0.042 C 
ATOM      7  O   UNL     1     100.172  92.120  87.630  1.00  0.00    -0.550 OA
ATOM      8  O   UNL     1     101.713  91.767  85.972  1.00  0.00    -0.550 OA
ENDBRANCH   5   6
ENDBRANCH   1   5
TORSDOF 3
ENDMDL
MODEL 3
REMARK VINA RESULT:    -3.372      1.905      2.961
REMARK INTER + INTRA:          -4.140
REMARK INTER:                  -4.050
REMARK INTRA:                  -0.090
REMARK UNBOUND:                -0.177
REMARK SMILES O=C([O-])CCC(=O)[O-]
REMARK SMILES IDX 4 1 2 2 1 3 3 4 5 5 6 6 7 7 8 8
REMARK H PARENT
REMARK Flexibility Score: inf
ROOT
ATOM      1  C   UNL     1      98.820  91.624  86.842  1.00  0.00     0.059 C 
ENDROOT
BRANCH   1   2
ATOM      2  C   UNL     1      98.766  92.480  88.070  1.00  0.00     0.042 C 
ATOM      3  O   UNL     1      97.798  93.263  88.254  1.00  0.00    -0.550 OA
ATOM      4  O   UNL     1      99.764  92.382  89.032  1.00  0.00    -0.550 OA
ENDBRANCH   1   2
BRANCH   1   5
ATOM      5  C   UNL     1      99.902  92.100  85.867  1.00  0.00     0.059 C 
BRANCH   5   6
ATOM      6  C   UNL     1     101.159  91.297  86.003  1.00  0.00     0.042 C 
ATOM      7  O   UNL     1     101.101  90.046  86.129  1.00  0.00    -0.550 OA
ATOM      8  O   UNL     1     102.398  91.925  85.947  1.00  0.00    -0.550 OA
ENDBRANCH   5   6
ENDBRANCH   1   5
TORSDOF 3
ENDMDL
MODEL 4
REMARK VINA RESULT:    -3.370      1.915      3.568
REMARK INTER + INTRA:          -4.139
REMARK INTER:                  -4.048
REMARK INTRA:                  -0.091
REMARK UNBOUND:                -0.177
REMARK SMILES O=C([O-])CCC(=O)[O-]
REMARK SMILES IDX 4 1 2 2 1 3 3 4 5 5 6 6 7 7 8 8
REMARK H PARENT
REMARK Flexibility Score: inf
ROOT
ATOM      1  C   UNL     1      99.975  92.135  85.878  1.00  0.00     0.059 C 
ENDROOT
BRANCH   1   2
ATOM      2  C   UNL     1     101.227  91.331  86.046  1.00  0.00     0.042 C 
ATOM      3  O   UNL     1     102.354  91.883  85.940  1.00  0.00    -0.550 OA
ATOM      4  O   UNL     1     101.150  89.979  86.361  1.00  0.00    -0.550 OA
ENDBRANCH   1   2
BRANCH   1   5
ATOM      5  C   UNL     1      98.871  91.669  86.833  1.00  0.00     0.059 C 
BRANCH   5   6
ATOM      6  C   UNL     1      98.794  92.537  88.052  1.00  0.00     0.042 C 
ATOM      7  O   UNL     1      97.783  93.260  88.251  1.00  0.00    -0.550 OA
ATOM      8  O   UNL     1      99.819  92.515  88.990  1.00  0.00    -0.550 OA
ENDBRANCH   5   6
ENDBRANCH   1   5
TORSDOF 3
ENDMDL
MODEL 5
REMARK VINA RESULT:    -3.316      0.990      3.537
REMARK INTER + INTRA:          -4.075
REMARK INTER:                  -3.935
REMARK INTRA:                  -0.140
REMARK UNBOUND:                -0.177
REMARK SMILES O=C([O-])CCC(=O)[O-]
REMARK SMILES IDX 4 1 2 2 1 3 3 4 5 5 6 6 7 7 8 8
REMARK H PARENT
REMARK Flexibility Score: inf
ROOT
ATOM      1  C   UNL     1      99.724  89.563  85.188  1.00  0.00     0.059 C 
ENDROOT
BRANCH   1   2
ATOM      2  C   UNL     1     100.005  88.502  86.206  1.00  0.00     0.042 C 
ATOM      3  O   UNL     1     101.141  87.962  86.261  1.00  0.00    -0.550 OA
ATOM      4  O   UNL     1      99.025  88.140  87.123  1.00  0.00    -0.550 OA
ENDBRANCH   1   2
BRANCH   1   5
ATOM      5  C   UNL     1     100.400  90.889  85.550  1.00  0.00     0.059 C 
BRANCH   5   6
ATOM      6  C   UNL     1      99.608  91.653  86.567  1.00  0.00     0.042 C 
ATOM      7  O   UNL     1      98.380  91.865  86.385  1.00  0.00    -0.550 OA
ATOM      8  O   UNL     1     100.215  92.095  87.736  1.00  0.00    -0.550 OA
ENDBRANCH   5   6
ENDBRANCH   1   5
TORSDOF 3
ENDMDL
MODEL 6
REMARK VINA RESULT:    -3.304      0.986      1.763
REMARK INTER + INTRA:          -4.061
REMARK INTER:                  -3.923
REMARK INTRA:                  -0.138
REMARK UNBOUND:                -0.177
REMARK SMILES O=C([O-])CCC(=O)[O-]
REMARK SMILES IDX 4 1 2 2 1 3 3 4 5 5 6 6 7 7 8 8
REMARK H PARENT
REMARK Flexibility Score: inf
ROOT
ATOM      1  C   UNL     1     100.387  91.009  85.669  1.00  0.00     0.059 C 
ENDROOT
BRANCH   1   2
ATOM      2  C   UNL     1      99.621  91.734  86.732  1.00  0.00     0.042 C 
ATOM      3  O   UNL     1     100.207  92.145  87.767  1.00  0.00    -0.550 OA
ATOM      4  O   UNL     1      98.266  91.993  86.559  1.00  0.00    -0.550 OA
ENDBRANCH   1   2
BRANCH   1   5
ATOM      5  C   UNL     1      99.680  89.719  85.242  1.00  0.00     0.059 C 
BRANCH   5   6
ATOM      6  C   UNL     1      99.892  88.618  86.235  1.00  0.00     0.042 C 
ATOM      7  O   UNL     1      98.953  88.259  86.993  1.00  0.00    -0.550 OA
ATOM      8  O   UNL     1     101.114  87.958  86.295  1.00  0.00    -0.550 OA
ENDBRANCH   5   6
ENDBRANCH   1   5
TORSDOF 3
ENDMDL
MODEL 7
REMARK VINA RESULT:    -3.253      0.754      3.051
REMARK INTER + INTRA:          -4.001
REMARK INTER:                  -3.816
REMARK INTRA:                  -0.185
REMARK UNBOUND:                -0.177
REMARK SMILES O=C([O-])CCC(=O)[O-]
REMARK SMILES IDX 4 1 2 2 1 3 3 4 5 5 6 6 7 7 8 8
REMARK H PARENT
REMARK Flexibility Score: inf
ROOT
ATOM      1  C   UNL     1      99.170  89.487  85.613  1.00  0.00     0.059 C 
ENDROOT
BRANCH   1   2
ATOM      2  C   UNL     1      99.964  88.652  86.569  1.00  0.00     0.042 C 
ATOM      3  O   UNL     1      99.594  88.535  87.767  1.00  0.00    -0.550 OA
ATOM      4  O   UNL     1     101.089  87.967  86.126  1.00  0.00    -0.550 OA
ENDBRANCH   1   2
BRANCH   1   5
ATOM      5  C   UNL     1     100.028  90.583  84.971  1.00  0.00     0.059 C 
BRANCH   5   6
ATOM      6  C   UNL     1     100.645  91.476  86.003  1.00  0.00     0.042 C 
ATOM      7  O   UNL     1     101.892  91.652  86.025  1.00  0.00    -0.550 OA
ATOM      8  O   UNL     1      99.840  92.149  86.914  1.00  0.00    -0.550 OA
ENDBRANCH   5   6
ENDBRANCH   1   5
TORSDOF 3
ENDMDL
MODEL 8
REMARK VINA RESULT:    -3.175      2.680      3.400
REMARK INTER + INTRA:          -3.909
REMARK INTER:                  -3.792
REMARK INTRA:                  -0.117
REMARK UNBOUND:                -0.177
REMARK SMILES O=C([O-])CCC(=O)[O-]
REMARK SMILES IDX 4 1 2 2 1 3 3 4 5 5 6 6 7 7 8 8
REMARK H PARENT
REMARK Flexibility Score: inf
ROOT
ATOM      1  C   UNL     1      98.573  92.453  87.825  1.00  0.00     0.059 C 
ENDROOT
BRANCH   1   2
ATOM      2  C   UNL     1      99.057  91.933  86.506  1.00  0.00     0.042 C 
ATOM      3  O   UNL     1     100.263  92.073  86.173  1.00  0.00    -0.550 OA
ATOM      4  O   UNL     1      98.184  91.255  85.663  1.00  0.00    -0.550 OA
ENDBRANCH   1   2
BRANCH   1   5
ATOM      5  C   UNL     1      99.536  92.096  88.962  1.00  0.00     0.059 C 
BRANCH   5   6
ATOM      6  C   UNL     1      99.228  90.750  89.544  1.00  0.00     0.042 C 
ATOM      7  O   UNL     1      99.855  89.731  89.151  1.00  0.00    -0.550 OA
ATOM      8  O   UNL     1      98.278  90.627  90.550  1.00  0.00    -0.550 OA
ENDBRANCH   5   6
ENDBRANCH   1   5
TORSDOF 3
ENDMDL
MODEL 9
REMARK VINA RESULT:    -3.157      2.706      3.979
REMARK INTER + INTRA:          -3.888
REMARK INTER:                  -3.762
REMARK INTRA:                  -0.126
REMARK UNBOUND:                -0.177
REMARK SMILES O=C([O-])CCC(=O)[O-]
REMARK SMILES IDX 4 1 2 2 1 3 3 4 5 5 6 6 7 7 8 8
REMARK H PARENT
REMARK Flexibility Score: inf
ROOT
ATOM      1  C   UNL     1      99.569  92.062  89.009  1.00  0.00     0.059 C 
ENDROOT
BRANCH   1   2
ATOM      2  C   UNL     1      99.278  90.719  89.605  1.00  0.00     0.042 C 
ATOM      3  O   UNL     1      99.913  89.704  89.218  1.00  0.00    -0.550 OA
ATOM      4  O   UNL     1      98.335  90.597  90.618  1.00  0.00    -0.550 OA
ENDBRANCH   1   2
BRANCH   1   5
ATOM      5  C   UNL     1      98.556  92.430  87.920  1.00  0.00     0.059 C 
BRANCH   5   6
ATOM      6  C   UNL     1      98.955  91.876  86.586  1.00  0.00     0.042 C 
ATOM      7  O   UNL     1      98.074  91.510  85.764  1.00  0.00    -0.550 OA
ATOM      8  O   UNL     1     100.297  91.803  86.234  1.00  0.00    -0.550 OA
ENDBRANCH   5   6
ENDBRANCH   1   5
TORSDOF 3
ENDMDL
