MODEL 1
REMARK VINA RESULT:    -4.176      0.000      0.000
REMARK INTER + INTRA:         -11.185
REMARK INTER:                  -9.059
REMARK INTRA:                  -2.126
REMARK UNBOUND:                -2.126
REMARK SMILES CCCCCCCCCCCCCCCCCCCCCC(=O)[O-]
REMARK SMILES IDX 12 1 11 2 10 3 9 4 8 5 7 6 6 7 5 8 4 9 3 10 2 11 1 12 13 13
REMARK SMILES IDX 14 14 15 15 16 16 17 17 18 18 19 19 20 20 21 21 22 22 23 23
REMARK SMILES IDX 24 24
REMARK H PARENT
REMARK Flexibility Score: inf
ROOT
ATOM      1  C   UNL     1      84.595 123.197 125.576  1.00  0.00     0.000 C 
ENDROOT
BRANCH   1   2
ATOM      2  C   UNL     1      84.239 122.109 124.550  1.00  0.00     0.000 C 
BRANCH   2   3
ATOM      3  C   UNL     1      82.726 121.998 124.293  1.00  0.00     0.000 C 
BRANCH   3   4
ATOM      4  C   UNL     1      81.994 120.904 125.094  1.00  0.00    -0.000 C 
BRANCH   4   5
ATOM      5  C   UNL     1      82.662 119.526 124.983  1.00  0.00    -0.000 C 
BRANCH   5   6
ATOM      6  C   UNL     1      83.087 118.959 126.349  1.00  0.00    -0.000 C 
BRANCH   6   7
ATOM      7  C   UNL     1      83.346 120.040 127.419  1.00  0.00    -0.000 C 
BRANCH   7   8
ATOM      8  C   UNL     1      84.838 120.163 127.780  1.00  0.00    -0.000 C 
BRANCH   8   9
ATOM      9  C   UNL     1      85.077 121.118 128.967  1.00  0.00    -0.000 C 
BRANCH   9  10
ATOM     10  C   UNL     1      86.376 120.831 129.742  1.00  0.00    -0.000 C 
BRANCH  10  11
ATOM     11  C   UNL     1      86.138 120.062 131.049  1.00  0.00    -0.003 C 
ATOM     12  C   UNL     1      86.075 121.011 132.245  1.00  0.00     0.004 C 
ENDBRANCH  10  11
ENDBRANCH   9  10
ENDBRANCH   8   9
ENDBRANCH   7   8
ENDBRANCH   6   7
ENDBRANCH   5   6
ENDBRANCH   4   5
ENDBRANCH   3   4
ENDBRANCH   2   3
ENDBRANCH   1   2
BRANCH   1  13
ATOM     13  C   UNL     1      83.386 124.064 125.972  1.00  0.00     0.000 C 
BRANCH  13  14
ATOM     14  C   UNL     1      82.862 123.855 127.408  1.00  0.00     0.000 C 
BRANCH  14  15
ATOM     15  C   UNL     1      83.715 124.488 128.522  1.00  0.00     0.000 C 
BRANCH  15  16
ATOM     16  C   UNL     1      82.984 125.618 129.267  1.00  0.00     0.000 C 
BRANCH  16  17
ATOM     17  C   UNL     1      83.355 125.682 130.758  1.00  0.00     0.000 C 
BRANCH  17  18
ATOM     18  C   UNL     1      83.350 127.117 131.314  1.00  0.00     0.000 C 
BRANCH  18  19
ATOM     19  C   UNL     1      83.263 128.175 130.200  1.00  0.00     0.000 C 
BRANCH  19  20
ATOM     20  C   UNL     1      82.977 129.583 130.742  1.00  0.00     0.006 C 
BRANCH  20  21
ATOM     21  C   UNL     1      83.185 129.640 132.258  1.00  0.00     0.053 C 
BRANCH  21  22
ATOM     22  C   UNL     1      84.431 130.399 132.588  1.00  0.00     0.041 C 
ATOM     23  O   UNL     1      84.386 131.647 132.755  1.00  0.00    -0.550 OA
ATOM     24  O   UNL     1      85.636 129.725 132.751  1.00  0.00    -0.550 OA
ENDBRANCH  21  22
ENDBRANCH  20  21
ENDBRANCH  19  20
ENDBRANCH  18  19
ENDBRANCH  17  18
ENDBRANCH  16  17
ENDBRANCH  15  16
ENDBRANCH  14  15
ENDBRANCH  13  14
ENDBRANCH   1  13
TORSDOF 20
ENDMDL
MODEL 2
REMARK VINA RESULT:    -4.060      3.133      7.525
REMARK INTER + INTRA:         -10.933
REMARK INTER:                  -8.128
REMARK INTRA:                  -2.806
REMARK UNBOUND:                -2.126
REMARK SMILES CCCCCCCCCCCCCCCCCCCCCC(=O)[O-]
REMARK SMILES IDX 12 1 11 2 10 3 9 4 8 5 7 6 6 7 5 8 4 9 3 10 2 11 1 12 13 13
REMARK SMILES IDX 14 14 15 15 16 16 17 17 18 18 19 19 20 20 21 21 22 22 23 23
REMARK SMILES IDX 24 24
REMARK H PARENT
REMARK Flexibility Score: inf
ROOT
ATOM      1  C   UNL     1      84.524 124.457 127.120  1.00  0.00     0.000 C 
ENDROOT
BRANCH   1   2
ATOM      2  C   UNL     1      83.894 125.156 128.335  1.00  0.00     0.000 C 
BRANCH   2   3
ATOM      3  C   UNL     1      82.856 124.280 129.060  1.00  0.00     0.000 C 
BRANCH   3   4
ATOM      4  C   UNL     1      83.360 123.564 130.327  1.00  0.00    -0.000 C 
BRANCH   4   5
ATOM      5  C   UNL     1      82.237 123.239 131.323  1.00  0.00    -0.000 C 
BRANCH   5   6
ATOM      6  C   UNL     1      82.337 124.061 132.621  1.00  0.00    -0.000 C 
BRANCH   6   7
ATOM      7  C   UNL     1      83.463 125.115 132.605  1.00  0.00    -0.000 C 
BRANCH   7   8
ATOM      8  C   UNL     1      82.921 126.554 132.513  1.00  0.00    -0.000 C 
BRANCH   8   9
ATOM      9  C   UNL     1      83.971 127.543 131.968  1.00  0.00    -0.000 C 
BRANCH   9  10
ATOM     10  C   UNL     1      83.611 128.133 130.592  1.00  0.00    -0.000 C 
BRANCH  10  11
ATOM     11  C   UNL     1      82.671 129.342 130.685  1.00  0.00    -0.003 C 
ATOM     12  C   UNL     1      83.302 130.472 131.497  1.00  0.00     0.004 C 
ENDBRANCH  10  11
ENDBRANCH   9  10
ENDBRANCH   8   9
ENDBRANCH   7   8
ENDBRANCH   6   7
ENDBRANCH   5   6
ENDBRANCH   4   5
ENDBRANCH   3   4
ENDBRANCH   2   3
ENDBRANCH   1   2
BRANCH   1  13
ATOM     13  C   UNL     1      83.501 124.145 126.012  1.00  0.00     0.000 C 
BRANCH  13  14
ATOM     14  C   UNL     1      84.012 123.237 124.875  1.00  0.00     0.000 C 
BRANCH  14  15
ATOM     15  C   UNL     1      83.181 121.967 124.617  1.00  0.00     0.000 C 
BRANCH  15  16
ATOM     16  C   UNL     1      82.019 121.800 125.612  1.00  0.00     0.000 C 
BRANCH  16  17
ATOM     17  C   UNL     1      82.181 120.561 126.510  1.00  0.00     0.000 C 
BRANCH  17  18
ATOM     18  C   UNL     1      82.999 120.847 127.781  1.00  0.00     0.000 C 
BRANCH  18  19
ATOM     19  C   UNL     1      84.493 120.526 127.600  1.00  0.00     0.000 C 
BRANCH  19  20
ATOM     20  C   UNL     1      85.374 121.184 128.671  1.00  0.00     0.006 C 
BRANCH  20  21
ATOM     21  C   UNL     1      85.832 120.159 129.711  1.00  0.00     0.053 C 
BRANCH  21  22
ATOM     22  C   UNL     1      86.843 120.762 130.634  1.00  0.00     0.041 C 
ATOM     23  O   UNL     1      86.721 120.631 131.881  1.00  0.00    -0.550 OA
ATOM     24  O   UNL     1      87.943 121.437 130.116  1.00  0.00    -0.550 OA
ENDBRANCH  21  22
ENDBRANCH  20  21
ENDBRANCH  19  20
ENDBRANCH  18  19
ENDBRANCH  17  18
ENDBRANCH  16  17
ENDBRANCH  15  16
ENDBRANCH  14  15
ENDBRANCH  13  14
ENDBRANCH   1  13
TORSDOF 20
ENDMDL
MODEL 3
REMARK VINA RESULT:    -3.932      1.792      2.668
REMARK INTER + INTRA:         -10.655
REMARK INTER:                  -7.233
REMARK INTRA:                  -3.422
REMARK UNBOUND:                -2.126
REMARK SMILES CCCCCCCCCCCCCCCCCCCCCC(=O)[O-]
REMARK SMILES IDX 12 1 11 2 10 3 9 4 8 5 7 6 6 7 5 8 4 9 3 10 2 11 1 12 13 13
REMARK SMILES IDX 14 14 15 15 16 16 17 17 18 18 19 19 20 20 21 21 22 22 23 23
REMARK SMILES IDX 24 24
REMARK H PARENT
REMARK Flexibility Score: inf
ROOT
ATOM      1  C   UNL     1      84.518 124.551 127.536  1.00  0.00     0.000 C 
ENDROOT
BRANCH   1   2
ATOM      2  C   UNL     1      85.208 123.207 127.253  1.00  0.00     0.000 C 
BRANCH   2   3
ATOM      3  C   UNL     1      84.604 122.464 126.048  1.00  0.00     0.000 C 
BRANCH   3   4
ATOM      4  C   UNL     1      84.395 120.950 126.239  1.00  0.00    -0.000 C 
BRANCH   4   5
ATOM      5  C   UNL     1      83.337 120.617 127.302  1.00  0.00    -0.000 C 
BRANCH   5   6
ATOM      6  C   UNL     1      83.951 120.053 128.595  1.00  0.00    -0.000 C 
BRANCH   6   7
ATOM      7  C   UNL     1      85.367 119.470 128.409  1.00  0.00    -0.000 C 
BRANCH   7   8
ATOM      8  C   UNL     1      86.351 119.962 129.488  1.00  0.00    -0.000 C 
BRANCH   8   9
ATOM      9  C   UNL     1      85.734 121.047 130.394  1.00  0.00    -0.000 C 
BRANCH   9  10
ATOM     10  C   UNL     1      86.247 121.009 131.845  1.00  0.00    -0.000 C 
BRANCH  10  11
ATOM     11  C   UNL     1      85.116 120.955 132.881  1.00  0.00    -0.003 C 
ATOM     12  C   UNL     1      84.101 119.867 132.535  1.00  0.00     0.004 C 
ENDBRANCH  10  11
ENDBRANCH   9  10
ENDBRANCH   8   9
ENDBRANCH   7   8
ENDBRANCH   6   7
ENDBRANCH   5   6
ENDBRANCH   4   5
ENDBRANCH   3   4
ENDBRANCH   2   3
ENDBRANCH   1   2
BRANCH   1  13
ATOM     13  C   UNL     1      82.984 124.433 127.601  1.00  0.00     0.000 C 
BRANCH  13  14
ATOM     14  C   UNL     1      82.377 124.453 129.019  1.00  0.00     0.000 C 
BRANCH  14  15
ATOM     15  C   UNL     1      82.042 123.073 129.615  1.00  0.00     0.000 C 
BRANCH  15  16
ATOM     16  C   UNL     1      82.418 122.957 131.103  1.00  0.00     0.000 C 
BRANCH  16  17
ATOM     17  C   UNL     1      83.481 123.984 131.528  1.00  0.00     0.000 C 
BRANCH  17  18
ATOM     18  C   UNL     1      83.283 124.487 132.969  1.00  0.00     0.000 C 
BRANCH  18  19
ATOM     19  C   UNL     1      83.323 126.022 133.063  1.00  0.00     0.000 C 
BRANCH  19  20
ATOM     20  C   UNL     1      83.609 126.690 131.711  1.00  0.00     0.006 C 
BRANCH  20  21
ATOM     21  C   UNL     1      83.991 128.161 131.896  1.00  0.00     0.053 C 
BRANCH  21  22
ATOM     22  C   UNL     1      83.668 128.946 130.663  1.00  0.00     0.041 C 
ATOM     23  O   UNL     1      84.219 128.658 129.568  1.00  0.00    -0.550 OA
ATOM     24  O   UNL     1      82.731 129.971 130.716  1.00  0.00    -0.550 OA
ENDBRANCH  21  22
ENDBRANCH  20  21
ENDBRANCH  19  20
ENDBRANCH  18  19
ENDBRANCH  17  18
ENDBRANCH  16  17
ENDBRANCH  15  16
ENDBRANCH  14  15
ENDBRANCH  13  14
ENDBRANCH   1  13
TORSDOF 20
ENDMDL
MODEL 4
REMARK VINA RESULT:    -3.865      1.311      2.296
REMARK INTER + INTRA:         -10.510
REMARK INTER:                  -7.813
REMARK INTRA:                  -2.696
REMARK UNBOUND:                -2.126
REMARK SMILES CCCCCCCCCCCCCCCCCCCCCC(=O)[O-]
REMARK SMILES IDX 12 1 11 2 10 3 9 4 8 5 7 6 6 7 5 8 4 9 3 10 2 11 1 12 13 13
REMARK SMILES IDX 14 14 15 15 16 16 17 17 18 18 19 19 20 20 21 21 22 22 23 23
REMARK SMILES IDX 24 24
REMARK H PARENT
REMARK Flexibility Score: inf
ROOT
ATOM      1  C   UNL     1      84.664 124.583 127.207  1.00  0.00     0.000 C 
ENDROOT
BRANCH   1   2
ATOM      2  C   UNL     1      84.777 123.323 126.334  1.00  0.00     0.000 C 
BRANCH   2   3
ATOM      3  C   UNL     1      84.069 123.469 124.975  1.00  0.00     0.000 C 
BRANCH   3   4
ATOM      4  C   UNL     1      83.078 122.344 124.618  1.00  0.00    -0.000 C 
BRANCH   4   5
ATOM      5  C   UNL     1      81.875 122.276 125.570  1.00  0.00    -0.000 C 
BRANCH   5   6
ATOM      6  C   UNL     1      81.949 121.081 126.537  1.00  0.00    -0.000 C 
BRANCH   6   7
ATOM      7  C   UNL     1      82.119 119.719 125.831  1.00  0.00    -0.000 C 
BRANCH   7   8
ATOM      8  C   UNL     1      83.303 118.910 126.393  1.00  0.00    -0.000 C 
BRANCH   8   9
ATOM      9  C   UNL     1      84.511 119.803 126.743  1.00  0.00    -0.000 C 
BRANCH   9  10
ATOM     10  C   UNL     1      85.014 119.627 128.187  1.00  0.00    -0.000 C 
BRANCH  10  11
ATOM     11  C   UNL     1      84.777 120.866 129.062  1.00  0.00    -0.003 C 
ATOM     12  C   UNL     1      85.985 121.155 129.951  1.00  0.00     0.004 C 
ENDBRANCH  10  11
ENDBRANCH   9  10
ENDBRANCH   8   9
ENDBRANCH   7   8
ENDBRANCH   6   7
ENDBRANCH   5   6
ENDBRANCH   4   5
ENDBRANCH   3   4
ENDBRANCH   2   3
ENDBRANCH   1   2
BRANCH   1  13
ATOM     13  C   UNL     1      83.314 124.683 127.942  1.00  0.00     0.000 C 
BRANCH  13  14
ATOM     14  C   UNL     1      83.402 124.787 129.478  1.00  0.00     0.000 C 
BRANCH  14  15
ATOM     15  C   UNL     1      82.771 123.619 130.258  1.00  0.00     0.000 C 
BRANCH  15  16
ATOM     16  C   UNL     1      83.063 123.680 131.768  1.00  0.00     0.000 C 
BRANCH  16  17
ATOM     17  C   UNL     1      83.499 125.080 132.231  1.00  0.00     0.000 C 
BRANCH  17  18
ATOM     18  C   UNL     1      82.315 125.958 132.674  1.00  0.00     0.000 C 
BRANCH  18  19
ATOM     19  C   UNL     1      82.486 127.427 132.250  1.00  0.00     0.000 C 
BRANCH  19  20
ATOM     20  C   UNL     1      83.876 127.716 131.665  1.00  0.00     0.006 C 
BRANCH  20  21
ATOM     21  C   UNL     1      83.848 128.961 130.774  1.00  0.00     0.053 C 
BRANCH  21  22
ATOM     22  C   UNL     1      83.735 130.199 131.605  1.00  0.00     0.041 C 
ATOM     23  O   UNL     1      84.605 130.455 132.480  1.00  0.00    -0.550 OA
ATOM     24  O   UNL     1      82.693 131.092 131.388  1.00  0.00    -0.550 OA
ENDBRANCH  21  22
ENDBRANCH  20  21
ENDBRANCH  19  20
ENDBRANCH  18  19
ENDBRANCH  17  18
ENDBRANCH  16  17
ENDBRANCH  15  16
ENDBRANCH  14  15
ENDBRANCH  13  14
ENDBRANCH   1  13
TORSDOF 20
ENDMDL
MODEL 5
REMARK VINA RESULT:    -3.720      1.602      3.844
REMARK INTER + INTRA:         -10.195
REMARK INTER:                  -7.356
REMARK INTRA:                  -2.839
REMARK UNBOUND:                -2.126
REMARK SMILES CCCCCCCCCCCCCCCCCCCCCC(=O)[O-]
REMARK SMILES IDX 12 1 11 2 10 3 9 4 8 5 7 6 6 7 5 8 4 9 3 10 2 11 1 12 13 13
REMARK SMILES IDX 14 14 15 15 16 16 17 17 18 18 19 19 20 20 21 21 22 22 23 23
REMARK SMILES IDX 24 24
REMARK H PARENT
REMARK Flexibility Score: inf
ROOT
ATOM      1  C   UNL     1      84.569 124.543 127.234  1.00  0.00     0.000 C 
ENDROOT
BRANCH   1   2
ATOM      2  C   UNL     1      85.547 123.512 127.821  1.00  0.00     0.000 C 
BRANCH   2   3
ATOM      3  C   UNL     1      84.893 122.142 128.078  1.00  0.00     0.000 C 
BRANCH   3   4
ATOM      4  C   UNL     1      85.511 121.315 129.221  1.00  0.00    -0.000 C 
BRANCH   4   5
ATOM      5  C   UNL     1      85.661 119.826 128.875  1.00  0.00    -0.000 C 
BRANCH   5   6
ATOM      6  C   UNL     1      84.804 119.408 127.666  1.00  0.00    -0.000 C 
BRANCH   6   7
ATOM      7  C   UNL     1      83.374 118.964 128.041  1.00  0.00    -0.000 C 
BRANCH   7   8
ATOM      8  C   UNL     1      82.331 119.400 126.994  1.00  0.00    -0.000 C 
BRANCH   8   9
ATOM      9  C   UNL     1      82.981 120.033 125.746  1.00  0.00    -0.000 C 
BRANCH   9  10
ATOM     10  C   UNL     1      82.185 121.217 125.167  1.00  0.00    -0.000 C 
BRANCH  10  11
ATOM     11  C   UNL     1      83.083 122.305 124.561  1.00  0.00    -0.003 C 
ATOM     12  C   UNL     1      84.551 121.881 124.573  1.00  0.00     0.004 C 
ENDBRANCH  10  11
ENDBRANCH   9  10
ENDBRANCH   8   9
ENDBRANCH   7   8
ENDBRANCH   6   7
ENDBRANCH   5   6
ENDBRANCH   4   5
ENDBRANCH   3   4
ENDBRANCH   2   3
ENDBRANCH   1   2
BRANCH   1  13
ATOM     13  C   UNL     1      83.122 124.340 127.722  1.00  0.00     0.000 C 
BRANCH  13  14
ATOM     14  C   UNL     1      82.798 124.950 129.102  1.00  0.00     0.000 C 
BRANCH  14  15
ATOM     15  C   UNL     1      82.100 124.003 130.096  1.00  0.00     0.000 C 
BRANCH  15  16
ATOM     16  C   UNL     1      83.078 123.356 131.093  1.00  0.00     0.000 C 
BRANCH  16  17
ATOM     17  C   UNL     1      83.379 124.261 132.300  1.00  0.00     0.000 C 
BRANCH  17  18
ATOM     18  C   UNL     1      82.183 125.143 132.699  1.00  0.00     0.000 C 
BRANCH  18  19
ATOM     19  C   UNL     1      82.571 126.625 132.837  1.00  0.00     0.000 C 
BRANCH  19  20
ATOM     20  C   UNL     1      83.818 126.989 132.019  1.00  0.00     0.006 C 
BRANCH  20  21
ATOM     21  C   UNL     1      84.180 128.466 132.199  1.00  0.00     0.053 C 
BRANCH  21  22
ATOM     22  C   UNL     1      83.907 129.230 130.941  1.00  0.00     0.041 C 
ATOM     23  O   UNL     1      83.090 130.189 130.949  1.00  0.00    -0.550 OA
ATOM     24  O   UNL     1      84.584 128.910 129.771  1.00  0.00    -0.550 OA
ENDBRANCH  21  22
ENDBRANCH  20  21
ENDBRANCH  19  20
ENDBRANCH  18  19
ENDBRANCH  17  18
ENDBRANCH  16  17
ENDBRANCH  15  16
ENDBRANCH  14  15
ENDBRANCH  13  14
ENDBRANCH   1  13
TORSDOF 20
ENDMDL
MODEL 6
REMARK VINA RESULT:    -3.629      3.723      6.344
REMARK INTER + INTRA:          -9.998
REMARK INTER:                  -6.410
REMARK INTRA:                  -3.588
REMARK UNBOUND:                -2.126
REMARK SMILES CCCCCCCCCCCCCCCCCCCCCC(=O)[O-]
REMARK SMILES IDX 12 1 11 2 10 3 9 4 8 5 7 6 6 7 5 8 4 9 3 10 2 11 1 12 13 13
REMARK SMILES IDX 14 14 15 15 16 16 17 17 18 18 19 19 20 20 21 21 22 22 23 23
REMARK SMILES IDX 24 24
REMARK H PARENT
REMARK Flexibility Score: inf
ROOT
ATOM      1  C   UNL     1      84.485 123.946 128.243  1.00  0.00     0.000 C 
ENDROOT
BRANCH   1   2
ATOM      2  C   UNL     1      84.133 122.465 128.033  1.00  0.00     0.000 C 
BRANCH   2   3
ATOM      3  C   UNL     1      82.616 122.201 128.040  1.00  0.00     0.000 C 
BRANCH   3   4
ATOM      4  C   UNL     1      82.196 120.735 127.827  1.00  0.00    -0.000 C 
BRANCH   4   5
ATOM      5  C   UNL     1      83.372 119.818 127.458  1.00  0.00    -0.000 C 
BRANCH   5   6
ATOM      6  C   UNL     1      83.046 118.875 126.286  1.00  0.00    -0.000 C 
BRANCH   6   7
ATOM      7  C   UNL     1      81.902 119.379 125.382  1.00  0.00    -0.000 C 
BRANCH   7   8
ATOM      8  C   UNL     1      82.259 119.304 123.885  1.00  0.00    -0.000 C 
BRANCH   8   9
ATOM      9  C   UNL     1      82.581 120.690 123.289  1.00  0.00    -0.000 C 
BRANCH   9  10
ATOM     10  C   UNL     1      82.152 121.865 124.186  1.00  0.00    -0.000 C 
BRANCH  10  11
ATOM     11  C   UNL     1      83.317 122.793 124.558  1.00  0.00    -0.003 C 
ATOM     12  C   UNL     1      84.635 122.024 124.630  1.00  0.00     0.004 C 
ENDBRANCH  10  11
ENDBRANCH   9  10
ENDBRANCH   8   9
ENDBRANCH   7   8
ENDBRANCH   6   7
ENDBRANCH   5   6
ENDBRANCH   4   5
ENDBRANCH   3   4
ENDBRANCH   2   3
ENDBRANCH   1   2
BRANCH   1  13
ATOM     13  C   UNL     1      83.241 124.849 128.343  1.00  0.00     0.000 C 
BRANCH  13  14
ATOM     14  C   UNL     1      83.057 125.577 129.691  1.00  0.00     0.000 C 
BRANCH  14  15
ATOM     15  C   UNL     1      82.194 124.838 130.730  1.00  0.00     0.000 C 
BRANCH  15  16
ATOM     16  C   UNL     1      82.785 124.898 132.150  1.00  0.00     0.000 C 
BRANCH  16  17
ATOM     17  C   UNL     1      83.163 123.510 132.694  1.00  0.00     0.000 C 
BRANCH  17  18
ATOM     18  C   UNL     1      83.719 122.573 131.607  1.00  0.00     0.000 C 
BRANCH  18  19
ATOM     19  C   UNL     1      83.147 121.149 131.713  1.00  0.00     0.000 C 
BRANCH  19  20
ATOM     20  C   UNL     1      84.176 120.135 132.230  1.00  0.00     0.006 C 
BRANCH  20  21
ATOM     21  C   UNL     1      84.716 119.271 131.087  1.00  0.00     0.053 C 
BRANCH  21  22
ATOM     22  C   UNL     1      85.996 119.839 130.559  1.00  0.00     0.041 C 
ATOM     23  O   UNL     1      86.782 120.450 131.330  1.00  0.00    -0.550 OA
ATOM     24  O   UNL     1      86.339 119.659 129.225  1.00  0.00    -0.550 OA
ENDBRANCH  21  22
ENDBRANCH  20  21
ENDBRANCH  19  20
ENDBRANCH  18  19
ENDBRANCH  17  18
ENDBRANCH  16  17
ENDBRANCH  15  16
ENDBRANCH  14  15
ENDBRANCH  13  14
ENDBRANCH   1  13
TORSDOF 20
ENDMDL
MODEL 7
REMARK VINA RESULT:    -3.124      3.229      6.433
REMARK INTER + INTRA:          -8.902
REMARK INTER:                  -6.777
REMARK INTRA:                  -2.126
REMARK UNBOUND:                -2.126
REMARK SMILES CCCCCCCCCCCCCCCCCCCCCC(=O)[O-]
REMARK SMILES IDX 12 1 11 2 10 3 9 4 8 5 7 6 6 7 5 8 4 9 3 10 2 11 1 12 13 13
REMARK SMILES IDX 14 14 15 15 16 16 17 17 18 18 19 19 20 20 21 21 22 22 23 23
REMARK SMILES IDX 24 24
REMARK H PARENT
REMARK Flexibility Score: inf
ROOT
ATOM      1  C   UNL     1      83.746 125.365 129.084  1.00  0.00     0.000 C 
ENDROOT
BRANCH   1   2
ATOM      2  C   UNL     1      83.229 124.798 127.752  1.00  0.00     0.000 C 
BRANCH   2   3
ATOM      3  C   UNL     1      81.884 124.062 127.894  1.00  0.00     0.000 C 
BRANCH   3   4
ATOM      4  C   UNL     1      81.914 122.555 127.576  1.00  0.00    -0.000 C 
BRANCH   4   5
ATOM      5  C   UNL     1      82.905 121.774 128.451  1.00  0.00    -0.000 C 
BRANCH   5   6
ATOM      6  C   UNL     1      83.127 120.333 127.958  1.00  0.00    -0.000 C 
BRANCH   6   7
ATOM      7  C   UNL     1      83.808 120.247 126.576  1.00  0.00    -0.000 C 
BRANCH   7   8
ATOM      8  C   UNL     1      84.621 121.511 126.241  1.00  0.00    -0.000 C 
BRANCH   8   9
ATOM      9  C   UNL     1      84.471 121.932 124.765  1.00  0.00    -0.000 C 
BRANCH   9  10
ATOM     10  C   UNL     1      83.030 121.824 124.233  1.00  0.00    -0.000 C 
BRANCH  10  11
ATOM     11  C   UNL     1      82.805 120.587 123.353  1.00  0.00    -0.003 C 
ATOM     12  C   UNL     1      82.400 120.985 121.934  1.00  0.00     0.004 C 
ENDBRANCH  10  11
ENDBRANCH   9  10
ENDBRANCH   8   9
ENDBRANCH   7   8
ENDBRANCH   6   7
ENDBRANCH   5   6
ENDBRANCH   4   5
ENDBRANCH   3   4
ENDBRANCH   2   3
ENDBRANCH   1   2
BRANCH   1  13
ATOM     13  C   UNL     1      82.854 126.491 129.641  1.00  0.00     0.000 C 
BRANCH  13  14
ATOM     14  C   UNL     1      82.817 126.608 131.178  1.00  0.00     0.000 C 
BRANCH  14  15
ATOM     15  C   UNL     1      82.339 125.349 131.926  1.00  0.00     0.000 C 
BRANCH  15  16
ATOM     16  C   UNL     1      83.497 124.541 132.537  1.00  0.00     0.000 C 
BRANCH  16  17
ATOM     17  C   UNL     1      83.482 123.065 132.106  1.00  0.00     0.000 C 
BRANCH  17  18
ATOM     18  C   UNL     1      84.209 122.144 133.101  1.00  0.00     0.000 C 
BRANCH  18  19
ATOM     19  C   UNL     1      85.407 121.422 132.462  1.00  0.00     0.000 C 
BRANCH  19  20
ATOM     20  C   UNL     1      84.988 120.443 131.356  1.00  0.00     0.006 C 
BRANCH  20  21
ATOM     21  C   UNL     1      86.207 119.936 130.581  1.00  0.00     0.053 C 
BRANCH  21  22
ATOM     22  C   UNL     1      86.915 121.073 129.915  1.00  0.00     0.041 C 
ATOM     23  O   UNL     1      86.256 121.985 129.350  1.00  0.00    -0.550 OA
ATOM     24  O   UNL     1      88.303 121.147 129.953  1.00  0.00    -0.550 OA
ENDBRANCH  21  22
ENDBRANCH  20  21
ENDBRANCH  19  20
ENDBRANCH  18  19
ENDBRANCH  17  18
ENDBRANCH  16  17
ENDBRANCH  15  16
ENDBRANCH  14  15
ENDBRANCH  13  14
ENDBRANCH   1  13
TORSDOF 20
ENDMDL
MODEL 8
REMARK VINA RESULT:    -3.076      1.786      4.689
REMARK INTER + INTRA:          -8.798
REMARK INTER:                  -5.754
REMARK INTRA:                  -3.044
REMARK UNBOUND:                -2.126
REMARK SMILES CCCCCCCCCCCCCCCCCCCCCC(=O)[O-]
REMARK SMILES IDX 12 1 11 2 10 3 9 4 8 5 7 6 6 7 5 8 4 9 3 10 2 11 1 12 13 13
REMARK SMILES IDX 14 14 15 15 16 16 17 17 18 18 19 19 20 20 21 21 22 22 23 23
REMARK SMILES IDX 24 24
REMARK H PARENT
REMARK Flexibility Score: inf
ROOT
ATOM      1  C   UNL     1      87.006 122.259 129.200  1.00  0.00     0.000 C 
ENDROOT
BRANCH   1   2
ATOM      2  C   UNL     1      87.459 121.259 130.275  1.00  0.00     0.000 C 
BRANCH   2   3
ATOM      3  C   UNL     1      86.293 120.453 130.876  1.00  0.00     0.000 C 
BRANCH   3   4
ATOM      4  C   UNL     1      86.334 120.265 132.404  1.00  0.00    -0.000 C 
BRANCH   4   5
ATOM      5  C   UNL     1      85.147 120.921 133.125  1.00  0.00    -0.000 C 
BRANCH   5   6
ATOM      6  C   UNL     1      84.461 122.004 132.274  1.00  0.00    -0.000 C 
BRANCH   6   7
ATOM      7  C   UNL     1      82.947 121.777 132.081  1.00  0.00    -0.000 C 
BRANCH   7   8
ATOM      8  C   UNL     1      82.547 120.300 132.258  1.00  0.00    -0.000 C 
BRANCH   8   9
ATOM      9  C   UNL     1      82.504 119.540 130.917  1.00  0.00    -0.000 C 
BRANCH   9  10
ATOM     10  C   UNL     1      82.467 120.460 129.683  1.00  0.00    -0.000 C 
BRANCH  10  11
ATOM     11  C   UNL     1      81.888 119.774 128.438  1.00  0.00    -0.003 C 
ATOM     12  C   UNL     1      82.371 120.453 127.158  1.00  0.00     0.004 C 
ENDBRANCH  10  11
ENDBRANCH   9  10
ENDBRANCH   8   9
ENDBRANCH   7   8
ENDBRANCH   6   7
ENDBRANCH   5   6
ENDBRANCH   4   5
ENDBRANCH   3   4
ENDBRANCH   2   3
ENDBRANCH   1   2
BRANCH   1  13
ATOM     13  C   UNL     1      85.609 121.940 128.636  1.00  0.00     0.000 C 
BRANCH  13  14
ATOM     14  C   UNL     1      84.834 123.145 128.065  1.00  0.00     0.000 C 
BRANCH  14  15
ATOM     15  C   UNL     1      83.678 123.664 128.941  1.00  0.00     0.000 C 
BRANCH  15  16
ATOM     16  C   UNL     1      82.630 124.456 128.141  1.00  0.00     0.000 C 
BRANCH  16  17
ATOM     17  C   UNL     1      81.880 125.486 129.003  1.00  0.00     0.000 C 
BRANCH  17  18
ATOM     18  C   UNL     1      81.944 125.167 130.507  1.00  0.00     0.000 C 
BRANCH  18  19
ATOM     19  C   UNL     1      82.673 126.260 131.306  1.00  0.00     0.000 C 
BRANCH  19  20
ATOM     20  C   UNL     1      82.490 127.658 130.700  1.00  0.00     0.006 C 
BRANCH  20  21
ATOM     21  C   UNL     1      83.843 128.289 130.358  1.00  0.00     0.053 C 
BRANCH  21  22
ATOM     22  C   UNL     1      84.160 129.399 131.310  1.00  0.00     0.041 C 
ATOM     23  O   UNL     1      85.243 129.390 131.953  1.00  0.00    -0.550 OA
ATOM     24  O   UNL     1      83.279 130.463 131.457  1.00  0.00    -0.550 OA
ENDBRANCH  21  22
ENDBRANCH  20  21
ENDBRANCH  19  20
ENDBRANCH  18  19
ENDBRANCH  17  18
ENDBRANCH  16  17
ENDBRANCH  15  16
ENDBRANCH  14  15
ENDBRANCH  13  14
ENDBRANCH   1  13
TORSDOF 20
ENDMDL
