MODEL 1
REMARK VINA RESULT:    -3.346      0.000      0.000
REMARK INTER + INTRA:          -4.011
REMARK INTER:                  -3.933
REMARK INTRA:                  -0.078
REMARK UNBOUND:                -0.078
REMARK SMILES CCCCC(=O)[O-]
REMARK SMILES IDX 4 1 5 2 6 3 7 4 3 5 2 6 1 7
REMARK H PARENT
REMARK Flexibility Score: inf
ROOT
ATOM      1  C   UNL     1      53.160 -51.271  -9.747  1.00  0.00     0.053 C 
ENDROOT
BRANCH   1   2
ATOM      2  C   UNL     1      52.908 -50.989 -11.196  1.00  0.00     0.041 C 
ATOM      3  O   UNL     1      52.159 -50.036 -11.534  1.00  0.00    -0.550 OA
ATOM      4  O   UNL     1      53.528 -51.758 -12.173  1.00  0.00    -0.550 OA
ENDBRANCH   1   2
BRANCH   1   5
ATOM      5  C   UNL     1      52.945 -50.025  -8.878  1.00  0.00     0.006 C 
BRANCH   5   6
ATOM      6  C   UNL     1      51.620 -50.078  -8.104  1.00  0.00    -0.003 C 
ATOM      7  C   UNL     1      51.153 -51.518  -7.910  1.00  0.00     0.004 C 
ENDBRANCH   5   6
ENDBRANCH   1   5
TORSDOF 3
ENDMDL
MODEL 2
REMARK VINA RESULT:    -3.321      2.532      3.330
REMARK INTER + INTRA:          -3.981
REMARK INTER:                  -3.900
REMARK INTRA:                  -0.082
REMARK UNBOUND:                -0.078
REMARK SMILES CCCCC(=O)[O-]
REMARK SMILES IDX 4 1 5 2 6 3 7 4 3 5 2 6 1 7
REMARK H PARENT
REMARK Flexibility Score: inf
ROOT
ATOM      1  C   UNL     1      51.726 -49.676  -8.071  1.00  0.00     0.053 C 
ENDROOT
BRANCH   1   2
ATOM      2  C   UNL     1      51.408 -51.122  -8.302  1.00  0.00     0.041 C 
ATOM      3  O   UNL     1      50.924 -51.819  -7.372  1.00  0.00    -0.550 OA
ATOM      4  O   UNL     1      51.617 -51.690  -9.552  1.00  0.00    -0.550 OA
ENDBRANCH   1   2
BRANCH   1   5
ATOM      5  C   UNL     1      52.762 -49.154  -9.075  1.00  0.00     0.006 C 
BRANCH   5   6
ATOM      6  C   UNL     1      52.224 -47.980  -9.907  1.00  0.00    -0.003 C 
ATOM      7  C   UNL     1      50.849 -47.540  -9.413  1.00  0.00     0.004 C 
ENDBRANCH   5   6
ENDBRANCH   1   5
TORSDOF 3
ENDMDL
MODEL 3
REMARK VINA RESULT:    -3.309      1.979      2.771
REMARK INTER + INTRA:          -3.967
REMARK INTER:                  -3.886
REMARK INTRA:                  -0.081
REMARK UNBOUND:                -0.078
REMARK SMILES CCCCC(=O)[O-]
REMARK SMILES IDX 4 1 5 2 6 3 7 4 3 5 2 6 1 7
REMARK H PARENT
REMARK Flexibility Score: inf
ROOT
ATOM      1  C   UNL     1      51.960 -49.187  -8.211  1.00  0.00     0.053 C 
ENDROOT
BRANCH   1   2
ATOM      2  C   UNL     1      51.429 -48.375  -9.352  1.00  0.00     0.041 C 
ATOM      3  O   UNL     1      50.685 -47.384  -9.130  1.00  0.00    -0.550 OA
ATOM      4  O   UNL     1      51.783 -48.692 -10.657  1.00  0.00    -0.550 OA
ENDBRANCH   1   2
BRANCH   1   5
ATOM      5  C   UNL     1      52.878 -50.318  -8.695  1.00  0.00     0.006 C 
BRANCH   5   6
ATOM      6  C   UNL     1      52.157 -51.673  -8.740  1.00  0.00    -0.003 C 
ATOM      7  C   UNL     1      51.028 -51.729  -7.716  1.00  0.00     0.004 C 
ENDBRANCH   5   6
ENDBRANCH   1   5
TORSDOF 3
ENDMDL
MODEL 4
REMARK VINA RESULT:    -3.305      2.019      3.060
REMARK INTER + INTRA:          -3.962
REMARK INTER:                  -3.880
REMARK INTRA:                  -0.082
REMARK UNBOUND:                -0.078
REMARK SMILES CCCCC(=O)[O-]
REMARK SMILES IDX 4 1 5 2 6 3 7 4 3 5 2 6 1 7
REMARK H PARENT
REMARK Flexibility Score: inf
ROOT
ATOM      1  C   UNL     1      51.909 -49.226  -8.189  1.00  0.00     0.053 C 
ENDROOT
BRANCH   1   2
ATOM      2  C   UNL     1      51.416 -48.384  -9.324  1.00  0.00     0.041 C 
ATOM      3  O   UNL     1      51.646 -48.727 -10.514  1.00  0.00    -0.550 OA
ATOM      4  O   UNL     1      50.674 -47.237  -9.070  1.00  0.00    -0.550 OA
ENDBRANCH   1   2
BRANCH   1   5
ATOM      5  C   UNL     1      52.859 -50.331  -8.669  1.00  0.00     0.006 C 
BRANCH   5   6
ATOM      6  C   UNL     1      52.182 -51.709  -8.693  1.00  0.00    -0.003 C 
ATOM      7  C   UNL     1      51.031 -51.774  -7.694  1.00  0.00     0.004 C 
ENDBRANCH   5   6
ENDBRANCH   1   5
TORSDOF 3
ENDMDL
MODEL 5
REMARK VINA RESULT:    -3.286      1.445      2.030
REMARK INTER + INTRA:          -3.940
REMARK INTER:                  -3.971
REMARK INTRA:                   0.030
REMARK UNBOUND:                -0.078
REMARK SMILES CCCCC(=O)[O-]
REMARK SMILES IDX 4 1 5 2 6 3 7 4 3 5 2 6 1 7
REMARK H PARENT
REMARK Flexibility Score: inf
ROOT
ATOM      1  C   UNL     1      52.986 -50.039  -8.779  1.00  0.00     0.053 C 
ENDROOT
BRANCH   1   2
ATOM      2  C   UNL     1      53.549 -51.187  -9.560  1.00  0.00     0.041 C 
ATOM      3  O   UNL     1      54.239 -52.067  -8.982  1.00  0.00    -0.550 OA
ATOM      4  O   UNL     1      53.283 -51.303 -10.918  1.00  0.00    -0.550 OA
ENDBRANCH   1   2
BRANCH   1   5
ATOM      5  C   UNL     1      51.474 -50.181  -8.566  1.00  0.00     0.006 C 
BRANCH   5   6
ATOM      6  C   UNL     1      51.036 -51.650  -8.468  1.00  0.00    -0.003 C 
ATOM      7  C   UNL     1      50.892 -52.085  -7.013  1.00  0.00     0.004 C 
ENDBRANCH   5   6
ENDBRANCH   1   5
TORSDOF 3
ENDMDL
MODEL 6
REMARK VINA RESULT:    -3.268      1.910      2.473
REMARK INTER + INTRA:          -3.919
REMARK INTER:                  -3.838
REMARK INTRA:                  -0.080
REMARK UNBOUND:                -0.078
REMARK SMILES CCCCC(=O)[O-]
REMARK SMILES IDX 4 1 5 2 6 3 7 4 3 5 2 6 1 7
REMARK H PARENT
REMARK Flexibility Score: inf
ROOT
ATOM      1  C   UNL     1      51.739 -51.078  -9.033  1.00  0.00     0.053 C 
ENDROOT
BRANCH   1   2
ATOM      2  C   UNL     1      53.067 -51.388  -9.654  1.00  0.00     0.041 C 
ATOM      3  O   UNL     1      54.045 -51.706  -8.929  1.00  0.00    -0.550 OA
ATOM      4  O   UNL     1      53.214 -51.356 -11.035  1.00  0.00    -0.550 OA
ENDBRANCH   1   2
BRANCH   1   5
ATOM      5  C   UNL     1      51.756 -49.734  -8.293  1.00  0.00     0.006 C 
BRANCH   5   6
ATOM      6  C   UNL     1      52.083 -48.560  -9.228  1.00  0.00    -0.003 C 
ATOM      7  C   UNL     1      50.885 -47.627  -9.378  1.00  0.00     0.004 C 
ENDBRANCH   5   6
ENDBRANCH   1   5
TORSDOF 3
ENDMDL
MODEL 7
REMARK VINA RESULT:    -3.194      2.363      2.951
REMARK INTER + INTRA:          -3.831
REMARK INTER:                  -3.775
REMARK INTRA:                  -0.056
REMARK UNBOUND:                -0.078
REMARK SMILES CCCCC(=O)[O-]
REMARK SMILES IDX 4 1 5 2 6 3 7 4 3 5 2 6 1 7
REMARK H PARENT
REMARK Flexibility Score: inf
ROOT
ATOM      1  C   UNL     1      52.941 -49.760  -9.092  1.00  0.00     0.053 C 
ENDROOT
BRANCH   1   2
ATOM      2  C   UNL     1      52.921 -51.245  -8.905  1.00  0.00     0.041 C 
ATOM      3  O   UNL     1      51.827 -51.849  -8.749  1.00  0.00    -0.550 OA
ATOM      4  O   UNL     1      54.108 -51.967  -8.936  1.00  0.00    -0.550 OA
ENDBRANCH   1   2
BRANCH   1   5
ATOM      5  C   UNL     1      51.807 -49.073  -8.319  1.00  0.00     0.006 C 
BRANCH   5   6
ATOM      6  C   UNL     1      51.065 -48.036  -9.175  1.00  0.00    -0.003 C 
ATOM      7  C   UNL     1      51.985 -47.438 -10.236  1.00  0.00     0.004 C 
ENDBRANCH   5   6
ENDBRANCH   1   5
TORSDOF 3
ENDMDL
MODEL 8
REMARK VINA RESULT:    -2.904      2.146      3.160
REMARK INTER + INTRA:          -3.491
REMARK INTER:                  -3.439
REMARK INTRA:                  -0.052
REMARK UNBOUND:                -0.078
REMARK SMILES CCCCC(=O)[O-]
REMARK SMILES IDX 4 1 5 2 6 3 7 4 3 5 2 6 1 7
REMARK H PARENT
REMARK Flexibility Score: inf
ROOT
ATOM      1  C   UNL     1      51.322 -48.277  -8.858  1.00  0.00     0.053 C 
ENDROOT
BRANCH   1   2
ATOM      2  C   UNL     1      50.764 -48.006 -10.221  1.00  0.00     0.041 C 
ATOM      3  O   UNL     1      49.582 -47.591 -10.350  1.00  0.00    -0.550 OA
ATOM      4  O   UNL     1      51.559 -48.180 -11.347  1.00  0.00    -0.550 OA
ENDBRANCH   1   2
BRANCH   1   5
ATOM      5  C   UNL     1      51.629 -49.767  -8.654  1.00  0.00     0.006 C 
BRANCH   5   6
ATOM      6  C   UNL     1      53.131 -50.069  -8.755  1.00  0.00    -0.003 C 
ATOM      7  C   UNL     1      53.374 -51.531  -9.120  1.00  0.00     0.004 C 
ENDBRANCH   5   6
ENDBRANCH   1   5
TORSDOF 3
ENDMDL
MODEL 9
REMARK VINA RESULT:    -2.468      2.232      2.755
REMARK INTER + INTRA:          -2.979
REMARK INTER:                  -2.867
REMARK INTRA:                  -0.112
REMARK UNBOUND:                -0.078
REMARK SMILES CCCCC(=O)[O-]
REMARK SMILES IDX 4 1 5 2 6 3 7 4 3 5 2 6 1 7
REMARK H PARENT
REMARK Flexibility Score: inf
ROOT
ATOM      1  C   UNL     1      53.029 -50.834  -8.875  1.00  0.00     0.053 C 
ENDROOT
BRANCH   1   2
ATOM      2  C   UNL     1      51.766 -51.587  -9.158  1.00  0.00     0.041 C 
ATOM      3  O   UNL     1      51.384 -51.760 -10.345  1.00  0.00    -0.550 OA
ATOM      4  O   UNL     1      51.027 -52.125  -8.111  1.00  0.00    -0.550 OA
ENDBRANCH   1   2
BRANCH   1   5
ATOM      5  C   UNL     1      52.880 -49.337  -9.176  1.00  0.00     0.006 C 
BRANCH   5   6
ATOM      6  C   UNL     1      51.644 -48.728  -8.497  1.00  0.00    -0.003 C 
ATOM      7  C   UNL     1      50.853 -47.859  -9.471  1.00  0.00     0.004 C 
ENDBRANCH   5   6
ENDBRANCH   1   5
TORSDOF 3
ENDMDL
