MODEL 1
REMARK VINA RESULT:    -4.750      0.000      0.000
REMARK INTER + INTRA:          -8.088
REMARK INTER:                  -7.388
REMARK INTRA:                  -0.700
REMARK UNBOUND:                -0.700
REMARK SMILES COc1cc(CNC(=O)CCCCC=CC(C)C)ccc1O
REMARK SMILES IDX 11 1 12 2 13 3 14 4 15 5 16 6 17 7 18 8 10 9 8 10 9 11 7 12
REMARK SMILES IDX 6 14 5 15 4 16 19 17 3 18 20 19 21 20 2 21 1 22 22 23
REMARK H PARENT 7 13 22 24
REMARK Flexibility Score: inf
ROOT
ATOM      1  C   UNL     1     140.554 136.054 135.015  1.00  0.00     0.010 C 
ENDROOT
BRANCH   1   2
ATOM      2  C   UNL     1     140.609 137.588 135.167  1.00  0.00     0.005 C 
BRANCH   2   3
ATOM      3  C   UNL     1     139.240 138.276 135.317  1.00  0.00     0.027 C 
BRANCH   3   4
ATOM      4  C   UNL     1     138.951 138.702 136.731  1.00  0.00    -0.031 C 
ATOM      5  C   UNL     1     138.105 138.017 137.515  1.00  0.00    -0.028 C 
BRANCH   5   6
ATOM      6  C   UNL     1     137.803 138.469 138.925  1.00  0.00     0.005 C 
ATOM      7  C   UNL     1     139.063 139.032 139.595  1.00  0.00     0.012 C 
ATOM      8  C   UNL     1     137.235 137.307 139.749  1.00  0.00     0.012 C 
ENDBRANCH   5   6
ENDBRANCH   3   4
ENDBRANCH   2   3
ENDBRANCH   1   2
BRANCH   1   9
ATOM      9  C   UNL     1     140.981 135.281 136.275  1.00  0.00     0.100 C 
BRANCH   9  10
ATOM     10  C   UNL     1     141.551 133.929 135.950  1.00  0.00     0.220 C 
ATOM     11  O   UNL     1     140.794 132.919 135.960  1.00  0.00    -0.275 OA
ATOM     12  N   UNL     1     142.944 133.783 135.642  1.00  0.00    -0.352 N 
ATOM     13  H   UNL     1     143.566 134.621 135.705  1.00  0.00     0.163 HD
BRANCH  12  14
ATOM     14  C   UNL     1     143.490 132.506 135.182  1.00  0.00     0.151 C 
BRANCH  14  15
ATOM     15  C   UNL     1     144.020 131.709 136.343  1.00  0.00    -0.025 A 
ATOM     16  C   UNL     1     145.250 132.044 136.935  1.00  0.00     0.056 A 
ATOM     17  C   UNL     1     143.319 130.583 136.800  1.00  0.00     0.009 A 
ATOM     18  C   UNL     1     145.766 131.276 137.997  1.00  0.00     0.160 A 
ATOM     19  C   UNL     1     143.826 129.817 137.853  1.00  0.00     0.050 A 
ATOM     20  C   UNL     1     145.045 130.162 138.454  1.00  0.00     0.157 A 
BRANCH  18  21
ATOM     21  O   UNL     1     146.985 131.586 138.622  1.00  0.00    -0.493 OA
ATOM     22  C   UNL     1     147.113 132.415 139.775  1.00  0.00     0.278 C 
ENDBRANCH  18  21
BRANCH  20  23
ATOM     23  O   UNL     1     145.549 129.398 139.505  1.00  0.00    -0.504 OA
ATOM     24  H   UNL     1     145.231 128.451 139.672  1.00  0.00     0.293 HD
ENDBRANCH  20  23
ENDBRANCH  14  15
ENDBRANCH  12  14
ENDBRANCH   9  10
ENDBRANCH   1   9
TORSDOF 10
ENDMDL
MODEL 2
REMARK VINA RESULT:    -4.652      2.040      2.899
REMARK INTER + INTRA:          -7.935
REMARK INTER:                  -7.057
REMARK INTRA:                  -0.879
REMARK UNBOUND:                -0.700
REMARK SMILES COc1cc(CNC(=O)CCCCC=CC(C)C)ccc1O
REMARK SMILES IDX 11 1 12 2 13 3 14 4 15 5 16 6 17 7 18 8 10 9 8 10 9 11 7 12
REMARK SMILES IDX 6 14 5 15 4 16 19 17 3 18 20 19 21 20 2 21 1 22 22 23
REMARK H PARENT 7 13 22 24
REMARK Flexibility Score: inf
ROOT
ATOM      1  C   UNL     1     137.853 136.682 134.162  1.00  0.00     0.010 C 
ENDROOT
BRANCH   1   2
ATOM      2  C   UNL     1     137.467 138.041 134.780  1.00  0.00     0.005 C 
BRANCH   2   3
ATOM      3  C   UNL     1     138.641 138.842 135.372  1.00  0.00     0.027 C 
BRANCH   3   4
ATOM      4  C   UNL     1     138.737 138.720 136.869  1.00  0.00    -0.031 C 
ATOM      5  C   UNL     1     137.656 138.820 137.656  1.00  0.00    -0.028 C 
BRANCH   5   6
ATOM      6  C   UNL     1     137.767 138.721 139.159  1.00  0.00     0.005 C 
ATOM      7  C   UNL     1     139.215 138.953 139.611  1.00  0.00     0.012 C 
ATOM      8  C   UNL     1     137.270 137.354 139.644  1.00  0.00     0.012 C 
ENDBRANCH   5   6
ENDBRANCH   3   4
ENDBRANCH   2   3
ENDBRANCH   1   2
BRANCH   1   9
ATOM      9  C   UNL     1     138.457 135.682 135.164  1.00  0.00     0.100 C 
BRANCH   9  10
ATOM     10  C   UNL     1     139.679 134.997 134.622  1.00  0.00     0.220 C 
ATOM     11  O   UNL     1     140.571 135.683 134.051  1.00  0.00    -0.275 OA
ATOM     12  N   UNL     1     139.827 133.576 134.738  1.00  0.00    -0.352 N 
ATOM     13  H   UNL     1     139.045 133.019 135.155  1.00  0.00     0.163 HD
BRANCH  12  14
ATOM     14  C   UNL     1     141.068 132.907 134.349  1.00  0.00     0.151 C 
BRANCH  14  15
ATOM     15  C   UNL     1     141.912 132.614 135.560  1.00  0.00    -0.025 A 
ATOM     16  C   UNL     1     141.452 132.945 136.846  1.00  0.00     0.056 A 
ATOM     17  C   UNL     1     143.195 132.068 135.405  1.00  0.00     0.009 A 
ATOM     18  C   UNL     1     142.258 132.705 137.977  1.00  0.00     0.160 A 
ATOM     19  C   UNL     1     143.998 131.830 136.523  1.00  0.00     0.050 A 
ATOM     20  C   UNL     1     143.532 132.144 137.807  1.00  0.00     0.157 A 
BRANCH  18  21
ATOM     21  O   UNL     1     141.829 133.010 139.279  1.00  0.00    -0.493 OA
ATOM     22  C   UNL     1     141.747 134.329 139.813  1.00  0.00     0.278 C 
ENDBRANCH  18  21
BRANCH  20  23
ATOM     23  O   UNL     1     144.334 131.904 138.922  1.00  0.00    -0.504 OA
ATOM     24  H   UNL     1     144.880 131.055 139.010  1.00  0.00     0.293 HD
ENDBRANCH  20  23
ENDBRANCH  14  15
ENDBRANCH  12  14
ENDBRANCH   9  10
ENDBRANCH   1   9
TORSDOF 10
ENDMDL
MODEL 3
REMARK VINA RESULT:    -4.528      8.710     14.352
REMARK INTER + INTRA:          -7.743
REMARK INTER:                  -7.002
REMARK INTRA:                  -0.741
REMARK UNBOUND:                -0.700
REMARK SMILES COc1cc(CNC(=O)CCCCC=CC(C)C)ccc1O
REMARK SMILES IDX 11 1 12 2 13 3 14 4 15 5 16 6 17 7 18 8 10 9 8 10 9 11 7 12
REMARK SMILES IDX 6 14 5 15 4 16 19 17 3 18 20 19 21 20 2 21 1 22 22 23
REMARK H PARENT 7 13 22 24
REMARK Flexibility Score: inf
ROOT
ATOM      1  C   UNL     1     136.552 140.344 135.126  1.00  0.00     0.010 C 
ENDROOT
BRANCH   1   2
ATOM      2  C   UNL     1     137.076 138.938 135.482  1.00  0.00     0.005 C 
BRANCH   2   3
ATOM      3  C   UNL     1     138.531 138.895 135.983  1.00  0.00     0.027 C 
BRANCH   3   4
ATOM      4  C   UNL     1     138.655 138.322 137.369  1.00  0.00    -0.031 C 
ATOM      5  C   UNL     1     137.689 138.479 138.286  1.00  0.00    -0.028 C 
BRANCH   5   6
ATOM      6  C   UNL     1     137.835 137.923 139.683  1.00  0.00     0.005 C 
ATOM      7  C   UNL     1     139.216 137.282 139.869  1.00  0.00     0.012 C 
ATOM      8  C   UNL     1     136.730 136.900 139.970  1.00  0.00     0.012 C 
ENDBRANCH   5   6
ENDBRANCH   3   4
ENDBRANCH   2   3
ENDBRANCH   1   2
BRANCH   1   9
ATOM      9  C   UNL     1     135.724 141.009 136.241  1.00  0.00     0.100 C 
BRANCH   9  10
ATOM     10  C   UNL     1     135.104 142.303 135.797  1.00  0.00     0.220 C 
ATOM     11  O   UNL     1     135.842 143.221 135.345  1.00  0.00    -0.275 OA
ATOM     12  N   UNL     1     133.688 142.502 135.899  1.00  0.00    -0.352 N 
ATOM     13  H   UNL     1     133.103 141.755 136.339  1.00  0.00     0.163 HD
BRANCH  12  14
ATOM     14  C   UNL     1     133.046 143.693 135.342  1.00  0.00     0.151 C 
BRANCH  14  15
ATOM     15  C   UNL     1     132.537 144.583 136.443  1.00  0.00    -0.025 A 
ATOM     16  C   UNL     1     131.266 144.369 137.002  1.00  0.00     0.056 A 
ATOM     17  C   UNL     1     133.304 145.676 136.873  1.00  0.00     0.009 A 
ATOM     18  C   UNL     1     130.773 145.224 138.007  1.00  0.00     0.160 A 
ATOM     19  C   UNL     1     132.820 146.528 137.868  1.00  0.00     0.050 A 
ATOM     20  C   UNL     1     131.558 146.304 138.437  1.00  0.00     0.157 A 
BRANCH  18  21
ATOM     21  O   UNL     1     129.513 145.035 138.599  1.00  0.00    -0.493 OA
ATOM     22  C   UNL     1     128.291 145.552 138.078  1.00  0.00     0.278 C 
ENDBRANCH  18  21
BRANCH  20  23
ATOM     23  O   UNL     1     131.077 147.154 139.432  1.00  0.00    -0.504 OA
ATOM     24  H   UNL     1     130.896 148.134 139.250  1.00  0.00     0.293 HD
ENDBRANCH  20  23
ENDBRANCH  14  15
ENDBRANCH  12  14
ENDBRANCH   9  10
ENDBRANCH   1   9
TORSDOF 10
ENDMDL
MODEL 4
REMARK VINA RESULT:    -4.515      3.927      4.911
REMARK INTER + INTRA:          -7.723
REMARK INTER:                  -7.087
REMARK INTRA:                  -0.636
REMARK UNBOUND:                -0.700
REMARK SMILES COc1cc(CNC(=O)CCCCC=CC(C)C)ccc1O
REMARK SMILES IDX 11 1 12 2 13 3 14 4 15 5 16 6 17 7 18 8 10 9 8 10 9 11 7 12
REMARK SMILES IDX 6 14 5 15 4 16 19 17 3 18 20 19 21 20 2 21 1 22 22 23
REMARK H PARENT 7 13 22 24
REMARK Flexibility Score: inf
ROOT
ATOM      1  C   UNL     1     136.759 135.830 134.996  1.00  0.00     0.010 C 
ENDROOT
BRANCH   1   2
ATOM      2  C   UNL     1     135.616 136.781 135.405  1.00  0.00     0.005 C 
BRANCH   2   3
ATOM      3  C   UNL     1     134.247 136.460 134.778  1.00  0.00     0.027 C 
BRANCH   3   4
ATOM      4  C   UNL     1     133.353 135.672 135.697  1.00  0.00    -0.031 C 
ATOM      5  C   UNL     1     133.610 134.392 136.004  1.00  0.00    -0.028 C 
BRANCH   5   6
ATOM      6  C   UNL     1     132.691 133.602 136.906  1.00  0.00     0.005 C 
ATOM      7  C   UNL     1     131.347 133.339 136.214  1.00  0.00     0.012 C 
ATOM      8  C   UNL     1     132.472 134.345 138.230  1.00  0.00     0.012 C 
ENDBRANCH   5   6
ENDBRANCH   3   4
ENDBRANCH   2   3
ENDBRANCH   1   2
BRANCH   1   9
ATOM      9  C   UNL     1     138.166 136.351 135.338  1.00  0.00     0.100 C 
BRANCH   9  10
ATOM     10  C   UNL     1     139.249 135.550 134.674  1.00  0.00     0.220 C 
ATOM     11  O   UNL     1     139.954 136.085 133.776  1.00  0.00    -0.275 OA
ATOM     12  N   UNL     1     139.474 134.183 135.047  1.00  0.00    -0.352 N 
ATOM     13  H   UNL     1     138.834 133.739 135.746  1.00  0.00     0.163 HD
BRANCH  12  14
ATOM     14  C   UNL     1     140.611 133.429 134.521  1.00  0.00     0.151 C 
BRANCH  14  15
ATOM     15  C   UNL     1     141.513 132.983 135.641  1.00  0.00    -0.025 A 
ATOM     16  C   UNL     1     141.256 133.382 136.964  1.00  0.00     0.056 A 
ATOM     17  C   UNL     1     142.655 132.220 135.360  1.00  0.00     0.009 A 
ATOM     18  C   UNL     1     142.120 132.997 138.007  1.00  0.00     0.160 A 
ATOM     19  C   UNL     1     143.517 131.836 136.391  1.00  0.00     0.050 A 
ATOM     20  C   UNL     1     143.251 132.220 137.713  1.00  0.00     0.157 A 
BRANCH  18  21
ATOM     21  O   UNL     1     141.891 133.365 139.343  1.00  0.00    -0.493 OA
ATOM     22  C   UNL     1     141.510 134.671 139.766  1.00  0.00     0.278 C 
ENDBRANCH  18  21
BRANCH  20  23
ATOM     23  O   UNL     1     144.110 131.834 138.741  1.00  0.00    -0.504 OA
ATOM     24  H   UNL     1     144.238 132.406 139.567  1.00  0.00     0.293 HD
ENDBRANCH  20  23
ENDBRANCH  14  15
ENDBRANCH  12  14
ENDBRANCH   9  10
ENDBRANCH   1   9
TORSDOF 10
ENDMDL
MODEL 5
REMARK VINA RESULT:    -4.464      7.101     10.040
REMARK INTER + INTRA:          -7.644
REMARK INTER:                  -6.897
REMARK INTRA:                  -0.746
REMARK UNBOUND:                -0.700
REMARK SMILES COc1cc(CNC(=O)CCCCC=CC(C)C)ccc1O
REMARK SMILES IDX 11 1 12 2 13 3 14 4 15 5 16 6 17 7 18 8 10 9 8 10 9 11 7 12
REMARK SMILES IDX 6 14 5 15 4 16 19 17 3 18 20 19 21 20 2 21 1 22 22 23
REMARK H PARENT 7 13 22 24
REMARK Flexibility Score: inf
ROOT
ATOM      1  C   UNL     1     132.360 134.464 137.743  1.00  0.00     0.010 C 
ENDROOT
BRANCH   1   2
ATOM      2  C   UNL     1     131.375 133.383 137.254  1.00  0.00     0.005 C 
BRANCH   2   3
ATOM      3  C   UNL     1     131.965 132.371 136.254  1.00  0.00     0.027 C 
BRANCH   3   4
ATOM      4  C   UNL     1     131.646 130.944 136.610  1.00  0.00    -0.031 C 
ATOM      5  C   UNL     1     131.218 130.601 137.834  1.00  0.00    -0.028 C 
BRANCH   5   6
ATOM      6  C   UNL     1     130.926 129.161 138.189  1.00  0.00     0.005 C 
ATOM      7  C   UNL     1     129.413 128.917 138.257  1.00  0.00     0.012 C 
ATOM      8  C   UNL     1     131.585 128.794 139.523  1.00  0.00     0.012 C 
ENDBRANCH   5   6
ENDBRANCH   3   4
ENDBRANCH   2   3
ENDBRANCH   1   2
BRANCH   1   9
ATOM      9  C   UNL     1     133.805 134.270 137.250  1.00  0.00     0.100 C 
BRANCH   9  10
ATOM     10  C   UNL     1     134.173 135.240 136.164  1.00  0.00     0.220 C 
ATOM     11  O   UNL     1     133.261 135.873 135.564  1.00  0.00    -0.275 OA
ATOM     12  N   UNL     1     135.546 135.438 135.801  1.00  0.00    -0.352 N 
ATOM     13  H   UNL     1     136.280 134.854 136.264  1.00  0.00     0.163 HD
BRANCH  12  14
ATOM     14  C   UNL     1     135.938 136.479 134.851  1.00  0.00     0.151 C 
BRANCH  14  15
ATOM     15  C   UNL     1     137.002 137.362 135.445  1.00  0.00    -0.025 A 
ATOM     16  C   UNL     1     137.395 137.201 136.785  1.00  0.00     0.056 A 
ATOM     17  C   UNL     1     137.563 138.396 134.681  1.00  0.00     0.009 A 
ATOM     18  C   UNL     1     138.364 138.052 137.353  1.00  0.00     0.160 A 
ATOM     19  C   UNL     1     138.523 139.243 135.240  1.00  0.00     0.050 A 
ATOM     20  C   UNL     1     138.927 139.072 136.571  1.00  0.00     0.157 A 
BRANCH  18  21
ATOM     21  O   UNL     1     138.791 137.916 138.684  1.00  0.00    -0.493 OA
ATOM     22  C   UNL     1     137.996 138.233 139.823  1.00  0.00     0.278 C 
ENDBRANCH  18  21
BRANCH  20  23
ATOM     23  O   UNL     1     139.887 139.917 137.127  1.00  0.00    -0.504 OA
ATOM     24  H   UNL     1     139.632 140.798 137.557  1.00  0.00     0.293 HD
ENDBRANCH  20  23
ENDBRANCH  14  15
ENDBRANCH  12  14
ENDBRANCH   9  10
ENDBRANCH   1   9
TORSDOF 10
ENDMDL
MODEL 6
REMARK VINA RESULT:    -4.408      7.000      8.164
REMARK INTER + INTRA:          -7.556
REMARK INTER:                  -6.457
REMARK INTRA:                  -1.100
REMARK UNBOUND:                -0.700
REMARK SMILES COc1cc(CNC(=O)CCCCC=CC(C)C)ccc1O
REMARK SMILES IDX 11 1 12 2 13 3 14 4 15 5 16 6 17 7 18 8 10 9 8 10 9 11 7 12
REMARK SMILES IDX 6 14 5 15 4 16 19 17 3 18 20 19 21 20 2 21 1 22 22 23
REMARK H PARENT 7 13 22 24
REMARK Flexibility Score: inf
ROOT
ATOM      1  C   UNL     1     138.952 138.342 133.340  1.00  0.00     0.010 C 
ENDROOT
BRANCH   1   2
ATOM      2  C   UNL     1     138.738 138.184 134.859  1.00  0.00     0.005 C 
BRANCH   2   3
ATOM      3  C   UNL     1     139.298 139.333 135.718  1.00  0.00     0.027 C 
BRANCH   3   4
ATOM      4  C   UNL     1     139.129 139.095 137.194  1.00  0.00    -0.031 C 
ATOM      5  C   UNL     1     137.928 138.837 137.734  1.00  0.00    -0.028 C 
BRANCH   5   6
ATOM      6  C   UNL     1     137.765 138.627 139.221  1.00  0.00     0.005 C 
ATOM      7  C   UNL     1     139.099 138.840 139.947  1.00  0.00     0.012 C 
ATOM      8  C   UNL     1     137.222 137.221 139.506  1.00  0.00     0.012 C 
ENDBRANCH   5   6
ENDBRANCH   3   4
ENDBRANCH   2   3
ENDBRANCH   1   2
BRANCH   1   9
ATOM      9  C   UNL     1     140.091 137.478 132.771  1.00  0.00     0.100 C 
BRANCH   9  10
ATOM     10  C   UNL     1     141.345 138.270 132.533  1.00  0.00     0.220 C 
ATOM     11  O   UNL     1     141.549 138.781 131.398  1.00  0.00    -0.275 OA
ATOM     12  N   UNL     1     142.310 138.434 133.581  1.00  0.00    -0.352 N 
ATOM     13  H   UNL     1     142.154 137.947 134.493  1.00  0.00     0.163 HD
BRANCH  12  14
ATOM     14  C   UNL     1     143.464 139.318 133.420  1.00  0.00     0.151 C 
BRANCH  14  15
ATOM     15  C   UNL     1     143.243 140.615 134.150  1.00  0.00    -0.025 A 
ATOM     16  C   UNL     1     143.007 140.622 135.535  1.00  0.00     0.056 A 
ATOM     17  C   UNL     1     143.204 141.824 133.438  1.00  0.00     0.009 A 
ATOM     18  C   UNL     1     142.763 141.832 136.214  1.00  0.00     0.160 A 
ATOM     19  C   UNL     1     142.961 143.027 134.105  1.00  0.00     0.050 A 
ATOM     20  C   UNL     1     142.743 143.034 135.490  1.00  0.00     0.157 A 
BRANCH  18  21
ATOM     21  O   UNL     1     142.536 141.881 137.599  1.00  0.00    -0.493 OA
ATOM     22  C   UNL     1     143.562 142.001 138.581  1.00  0.00     0.278 C 
ENDBRANCH  18  21
BRANCH  20  23
ATOM     23  O   UNL     1     142.502 144.235 136.155  1.00  0.00    -0.504 OA
ATOM     24  H   UNL     1     141.716 144.345 136.784  1.00  0.00     0.293 HD
ENDBRANCH  20  23
ENDBRANCH  14  15
ENDBRANCH  12  14
ENDBRANCH   9  10
ENDBRANCH   1   9
TORSDOF 10
ENDMDL
MODEL 7
REMARK VINA RESULT:    -4.366      5.137      9.052
REMARK INTER + INTRA:          -7.491
REMARK INTER:                  -6.929
REMARK INTRA:                  -0.561
REMARK UNBOUND:                -0.700
REMARK SMILES COc1cc(CNC(=O)CCCCC=CC(C)C)ccc1O
REMARK SMILES IDX 11 1 12 2 13 3 14 4 15 5 16 6 17 7 18 8 10 9 8 10 9 11 7 12
REMARK SMILES IDX 6 14 5 15 4 16 19 17 3 18 20 19 21 20 2 21 1 22 22 23
REMARK H PARENT 7 13 22 24
REMARK Flexibility Score: inf
ROOT
ATOM      1  C   UNL     1     139.847 136.771 135.152  1.00  0.00     0.010 C 
ENDROOT
BRANCH   1   2
ATOM      2  C   UNL     1     140.777 135.713 135.779  1.00  0.00     0.005 C 
BRANCH   2   3
ATOM      3  C   UNL     1     140.642 134.297 135.189  1.00  0.00     0.027 C 
BRANCH   3   4
ATOM      4  C   UNL     1     141.292 133.243 136.045  1.00  0.00    -0.031 C 
ATOM      5  C   UNL     1     142.494 132.729 135.740  1.00  0.00    -0.028 C 
BRANCH   5   6
ATOM      6  C   UNL     1     143.125 131.652 136.592  1.00  0.00     0.005 C 
ATOM      7  C   UNL     1     142.852 131.909 138.079  1.00  0.00     0.012 C 
ATOM      8  C   UNL     1     144.635 131.581 136.332  1.00  0.00     0.012 C 
ENDBRANCH   5   6
ENDBRANCH   3   4
ENDBRANCH   2   3
ENDBRANCH   1   2
BRANCH   1   9
ATOM      9  C   UNL     1     139.764 138.087 135.946  1.00  0.00     0.100 C 
BRANCH   9  10
ATOM     10  C   UNL     1     140.358 139.245 135.195  1.00  0.00     0.220 C 
ATOM     11  O   UNL     1     139.602 140.004 134.528  1.00  0.00    -0.275 OA
ATOM     12  N   UNL     1     141.772 139.481 135.223  1.00  0.00    -0.352 N 
ATOM     13  H   UNL     1     142.387 138.801 135.726  1.00  0.00     0.163 HD
BRANCH  12  14
ATOM     14  C   UNL     1     142.354 140.680 134.622  1.00  0.00     0.151 C 
BRANCH  14  15
ATOM     15  C   UNL     1     143.093 141.485 135.657  1.00  0.00    -0.025 A 
ATOM     16  C   UNL     1     142.793 141.337 137.022  1.00  0.00     0.056 A 
ATOM     17  C   UNL     1     144.042 142.438 135.259  1.00  0.00     0.009 A 
ATOM     18  C   UNL     1     143.458 142.116 137.989  1.00  0.00     0.160 A 
ATOM     19  C   UNL     1     144.704 143.214 136.213  1.00  0.00     0.050 A 
ATOM     20  C   UNL     1     144.416 143.054 137.576  1.00  0.00     0.157 A 
BRANCH  18  21
ATOM     21  O   UNL     1     143.195 141.988 139.363  1.00  0.00    -0.493 OA
ATOM     22  C   UNL     1     141.918 141.677 139.914  1.00  0.00     0.278 C 
ENDBRANCH  18  21
BRANCH  20  23
ATOM     23  O   UNL     1     145.078 143.828 138.528  1.00  0.00    -0.504 OA
ATOM     24  H   UNL     1     144.710 143.947 139.464  1.00  0.00     0.293 HD
ENDBRANCH  20  23
ENDBRANCH  14  15
ENDBRANCH  12  14
ENDBRANCH   9  10
ENDBRANCH   1   9
TORSDOF 10
ENDMDL
MODEL 8
REMARK VINA RESULT:    -4.335      7.130     10.381
REMARK INTER + INTRA:          -7.443
REMARK INTER:                  -6.585
REMARK INTRA:                  -0.858
REMARK UNBOUND:                -0.700
REMARK SMILES COc1cc(CNC(=O)CCCCC=CC(C)C)ccc1O
REMARK SMILES IDX 11 1 12 2 13 3 14 4 15 5 16 6 17 7 18 8 10 9 8 10 9 11 7 12
REMARK SMILES IDX 6 14 5 15 4 16 19 17 3 18 20 19 21 20 2 21 1 22 22 23
REMARK H PARENT 7 13 22 24
REMARK Flexibility Score: inf
ROOT
ATOM      1  C   UNL     1     132.360 134.536 137.683  1.00  0.00     0.010 C 
ENDROOT
BRANCH   1   2
ATOM      2  C   UNL     1     131.229 133.616 137.180  1.00  0.00     0.005 C 
BRANCH   2   3
ATOM      3  C   UNL     1     131.699 132.387 136.381  1.00  0.00     0.027 C 
BRANCH   3   4
ATOM      4  C   UNL     1     131.466 131.091 137.111  1.00  0.00    -0.031 C 
ATOM      5  C   UNL     1     131.283 131.053 138.439  1.00  0.00    -0.028 C 
BRANCH   5   6
ATOM      6  C   UNL     1     131.076 129.744 139.165  1.00  0.00     0.005 C 
ATOM      7  C   UNL     1     132.309 129.391 140.007  1.00  0.00     0.012 C 
ATOM      8  C   UNL     1     130.773 128.620 138.167  1.00  0.00     0.012 C 
ENDBRANCH   5   6
ENDBRANCH   3   4
ENDBRANCH   2   3
ENDBRANCH   1   2
BRANCH   1   9
ATOM      9  C   UNL     1     133.740 134.228 137.077  1.00  0.00     0.100 C 
BRANCH   9  10
ATOM     10  C   UNL     1     134.102 135.175 135.968  1.00  0.00     0.220 C 
ATOM     11  O   UNL     1     133.287 136.079 135.635  1.00  0.00    -0.275 OA
ATOM     12  N   UNL     1     135.355 135.048 135.284  1.00  0.00    -0.352 N 
ATOM     13  H   UNL     1     135.987 134.251 135.530  1.00  0.00     0.163 HD
BRANCH  12  14
ATOM     14  C   UNL     1     135.791 136.043 134.304  1.00  0.00     0.151 C 
BRANCH  14  15
ATOM     15  C   UNL     1     136.717 137.043 134.942  1.00  0.00    -0.025 A 
ATOM     16  C   UNL     1     136.547 138.419 134.712  1.00  0.00     0.056 A 
ATOM     17  C   UNL     1     137.799 136.602 135.719  1.00  0.00     0.009 A 
ATOM     18  C   UNL     1     137.436 139.354 135.278  1.00  0.00     0.160 A 
ATOM     19  C   UNL     1     138.684 137.525 136.282  1.00  0.00     0.050 A 
ATOM     20  C   UNL     1     138.503 138.898 136.066  1.00  0.00     0.157 A 
BRANCH  18  21
ATOM     21  O   UNL     1     137.292 140.737 135.082  1.00  0.00    -0.493 OA
ATOM     22  C   UNL     1     136.149 141.493 135.476  1.00  0.00     0.278 C 
ENDBRANCH  18  21
BRANCH  20  23
ATOM     23  O   UNL     1     139.386 139.818 136.630  1.00  0.00    -0.504 OA
ATOM     24  H   UNL     1     139.530 139.869 137.631  1.00  0.00     0.293 HD
ENDBRANCH  20  23
ENDBRANCH  14  15
ENDBRANCH  12  14
ENDBRANCH   9  10
ENDBRANCH   1   9
TORSDOF 10
ENDMDL
MODEL 9
REMARK VINA RESULT:    -4.310      7.874     11.298
REMARK INTER + INTRA:          -7.404
REMARK INTER:                  -6.780
REMARK INTRA:                  -0.623
REMARK UNBOUND:                -0.700
REMARK SMILES COc1cc(CNC(=O)CCCCC=CC(C)C)ccc1O
REMARK SMILES IDX 11 1 12 2 13 3 14 4 15 5 16 6 17 7 18 8 10 9 8 10 9 11 7 12
REMARK SMILES IDX 6 14 5 15 4 16 19 17 3 18 20 19 21 20 2 21 1 22 22 23
REMARK H PARENT 7 13 22 24
REMARK Flexibility Score: inf
ROOT
ATOM      1  C   UNL     1     134.660 144.093 137.432  1.00  0.00     0.010 C 
ENDROOT
BRANCH   1   2
ATOM      2  C   UNL     1     133.559 145.137 137.705  1.00  0.00     0.005 C 
BRANCH   2   3
ATOM      3  C   UNL     1     132.359 145.084 136.742  1.00  0.00     0.027 C 
BRANCH   3   4
ATOM      4  C   UNL     1     131.052 145.396 137.419  1.00  0.00    -0.031 C 
ATOM      5  C   UNL     1     130.711 144.835 138.589  1.00  0.00    -0.028 C 
BRANCH   5   6
ATOM      6  C   UNL     1     129.385 145.135 139.247  1.00  0.00     0.005 C 
ATOM      7  C   UNL     1     129.406 146.522 139.901  1.00  0.00     0.012 C 
ATOM      8  C   UNL     1     129.049 144.060 140.288  1.00  0.00     0.012 C 
ENDBRANCH   5   6
ENDBRANCH   3   4
ENDBRANCH   2   3
ENDBRANCH   1   2
BRANCH   1   9
ATOM      9  C   UNL     1     134.215 142.930 136.526  1.00  0.00     0.100 C 
BRANCH   9  10
ATOM     10  C   UNL     1     135.379 142.148 135.987  1.00  0.00     0.220 C 
ATOM     11  O   UNL     1     136.235 142.729 135.266  1.00  0.00    -0.275 OA
ATOM     12  N   UNL     1     135.511 140.750 136.278  1.00  0.00    -0.352 N 
ATOM     13  H   UNL     1     134.755 140.273 136.821  1.00  0.00     0.163 HD
BRANCH  12  14
ATOM     14  C   UNL     1     136.706 140.003 135.887  1.00  0.00     0.151 C 
BRANCH  14  15
ATOM     15  C   UNL     1     136.353 138.579 135.550  1.00  0.00    -0.025 A 
ATOM     16  C   UNL     1     135.394 138.298 134.562  1.00  0.00     0.056 A 
ATOM     17  C   UNL     1     136.932 137.523 136.269  1.00  0.00     0.009 A 
ATOM     18  C   UNL     1     135.035 136.967 134.272  1.00  0.00     0.160 A 
ATOM     19  C   UNL     1     136.579 136.201 135.986  1.00  0.00     0.050 A 
ATOM     20  C   UNL     1     135.635 135.921 134.988  1.00  0.00     0.157 A 
BRANCH  18  21
ATOM     21  O   UNL     1     134.091 136.646 133.283  1.00  0.00    -0.493 OA
ATOM     22  C   UNL     1     132.678 136.707 133.466  1.00  0.00     0.278 C 
ENDBRANCH  18  21
BRANCH  20  23
ATOM     23  O   UNL     1     135.285 134.602 134.705  1.00  0.00    -0.504 OA
ATOM     24  H   UNL     1     135.268 133.891 135.428  1.00  0.00     0.293 HD
ENDBRANCH  20  23
ENDBRANCH  14  15
ENDBRANCH  12  14
ENDBRANCH   9  10
ENDBRANCH   1   9
TORSDOF 10
ENDMDL
