MODEL 1
REMARK VINA RESULT:    -7.157      0.000      0.000
REMARK INTER + INTRA:          -8.269
REMARK INTER:                  -8.412
REMARK INTRA:                   0.143
REMARK UNBOUND:                 0.143
REMARK SMILES CC1(C)CC[C@@]2(C(=O)[O-])CC[C@@]3(C)C(=CC[C@H]4[C@]5(C)CC[C@H](O)[C@@](C)(CO)[C@@H]5CC[C@@]43C)[C@H]2C1
REMARK SMILES IDX 6 1 5 2 10 3 33 4 4 5 11 6 14 7 34 8 2 9 12 10 15 11 1 12
REMARK SMILES IDX 3 13 13 14 31 15 16 16 17 17 30 18 32 19 18 20 29 21 28 22
REMARK SMILES IDX 20 23 19 24 24 25 21 26 22 27 25 28 7 29 8 30 9 31 26 32
REMARK SMILES IDX 27 33 23 35
REMARK H PARENT 27 34 23 36
REMARK Flexibility Score: inf
ROOT
ATOM      1  C   UNL     1      50.419  47.542  36.562  1.00  0.00     0.017 C 
ATOM      2  C   UNL     1      48.939  47.049  36.604  1.00  0.00     0.014 C 
ATOM      3  C   UNL     1      50.779  48.180  37.945  1.00  0.00     0.014 C 
ATOM      4  C   UNL     1      51.360  46.335  36.180  1.00  0.00     0.028 C 
ATOM      5  C   UNL     1      48.475  46.394  35.295  1.00  0.00     0.007 C 
ATOM      6  C   UNL     1      52.041  47.607  38.604  1.00  0.00     0.013 C 
ATOM      7  C   UNL     1      51.748  45.419  37.370  1.00  0.00    -0.064 C 
ATOM      8  C   UNL     1      50.860  45.647  34.868  1.00  0.00     0.015 C 
ATOM      9  C   UNL     1      49.369  45.204  34.873  1.00  0.00    -0.035 C 
ATOM     10  C   UNL     1      52.038  46.048  38.742  1.00  0.00    -0.006 C 
ATOM     11  C   UNL     1      52.119  44.131  37.154  1.00  0.00    -0.027 C 
ATOM     12  C   UNL     1      49.129  43.987  35.795  1.00  0.00     0.011 C 
ATOM     13  C   UNL     1      48.978  44.784  33.438  1.00  0.00     0.011 C 
ATOM     14  C   UNL     1      50.847  45.664  39.682  1.00  0.00     0.017 C 
ATOM     15  C   UNL     1      53.464  45.523  39.291  1.00  0.00    -0.020 C 
ATOM     16  C   UNL     1      53.097  43.354  38.001  1.00  0.00     0.032 C 
ATOM     17  C   UNL     1      53.456  43.962  39.386  1.00  0.00     0.006 C 
ATOM     18  C   UNL     1      53.720  46.035  40.728  1.00  0.00     0.008 C 
ATOM     19  C   UNL     1      54.606  46.005  38.331  1.00  0.00     0.012 C 
ATOM     20  C   UNL     1      54.686  43.266  40.196  1.00  0.00    -0.025 C 
ATOM     21  C   UNL     1      55.043  45.596  41.357  1.00  0.00     0.005 C 
ATOM     22  C   UNL     1      55.729  44.305  40.809  1.00  0.00     0.006 C 
ATOM     23  C   UNL     1      54.077  42.449  41.379  1.00  0.00     0.010 C 
ATOM     24  C   UNL     1      55.422  42.275  39.243  1.00  0.00     0.012 C 
ATOM     25  C   UNL     1      56.778  43.719  41.883  1.00  0.00     0.020 C 
ATOM     26  C   UNL     1      55.106  41.800  42.317  1.00  0.00     0.033 C 
ATOM     27  C   UNL     1      56.052  42.830  42.950  1.00  0.00     0.123 C 
ATOM     28  C   UNL     1      57.535  44.876  42.616  1.00  0.00     0.017 C 
ENDROOT
BRANCH   1  29
ATOM     29  C   UNL     1      50.543  48.657  35.519  1.00  0.00     0.048 C 
ATOM     30  O   UNL     1      49.570  48.956  34.776  1.00  0.00    -0.550 OA
ATOM     31  O   UNL     1      51.770  49.270  35.284  1.00  0.00    -0.550 OA
ENDBRANCH   1  29
BRANCH  25  32
ATOM     32  C   UNL     1      57.934  42.874  41.238  1.00  0.00     0.165 C 
BRANCH  32  33
ATOM     33  O   UNL     1      58.592  43.583  40.218  1.00  0.00    -0.396 OA
ATOM     34  H   UNL     1      59.568  43.473  40.362  1.00  0.00     0.210 HD
ENDBRANCH  32  33
ENDBRANCH  25  32
BRANCH  27  35
ATOM     35  O   UNL     1      55.312  43.611  43.859  1.00  0.00    -0.392 OA
ATOM     36  H   UNL     1      54.721  42.996  44.369  1.00  0.00     0.210 HD
ENDBRANCH  27  35
TORSDOF 4
ENDMDL
MODEL 2
REMARK VINA RESULT:    -7.086      2.192      3.337
REMARK INTER + INTRA:          -8.185
REMARK INTER:                  -7.999
REMARK INTRA:                  -0.186
REMARK UNBOUND:                 0.143
REMARK SMILES CC1(C)CC[C@@]2(C(=O)[O-])CC[C@@]3(C)C(=CC[C@H]4[C@]5(C)CC[C@H](O)[C@@](C)(CO)[C@@H]5CC[C@@]43C)[C@H]2C1
REMARK SMILES IDX 6 1 5 2 10 3 33 4 4 5 11 6 14 7 34 8 2 9 12 10 15 11 1 12
REMARK SMILES IDX 3 13 13 14 31 15 16 16 17 17 30 18 32 19 18 20 29 21 28 22
REMARK SMILES IDX 20 23 19 24 24 25 21 26 22 27 25 28 7 29 8 30 9 31 26 32
REMARK SMILES IDX 27 33 23 35
REMARK H PARENT 27 34 23 36
REMARK Flexibility Score: inf
ROOT
ATOM      1  C   UNL     1      53.825  47.930  36.602  1.00  0.00     0.017 C 
ATOM      2  C   UNL     1      52.942  49.212  36.715  1.00  0.00     0.014 C 
ATOM      3  C   UNL     1      55.060  48.081  37.551  1.00  0.00     0.014 C 
ATOM      4  C   UNL     1      52.948  46.662  36.934  1.00  0.00     0.028 C 
ATOM      5  C   UNL     1      51.689  49.172  35.828  1.00  0.00     0.007 C 
ATOM      6  C   UNL     1      55.260  46.917  38.530  1.00  0.00     0.013 C 
ATOM      7  C   UNL     1      52.793  46.365  38.448  1.00  0.00    -0.064 C 
ATOM      8  C   UNL     1      51.655  46.647  36.056  1.00  0.00     0.015 C 
ATOM      9  C   UNL     1      50.795  47.942  36.112  1.00  0.00    -0.035 C 
ATOM     10  C   UNL     1      53.994  46.576  39.384  1.00  0.00    -0.006 C 
ATOM     11  C   UNL     1      51.731  45.652  38.904  1.00  0.00    -0.027 C 
ATOM     12  C   UNL     1      50.069  48.097  37.467  1.00  0.00     0.011 C 
ATOM     13  C   UNL     1      49.713  47.861  35.011  1.00  0.00     0.011 C 
ATOM     14  C   UNL     1      53.671  47.831  40.264  1.00  0.00     0.017 C 
ATOM     15  C   UNL     1      54.241  45.243  40.262  1.00  0.00    -0.020 C 
ATOM     16  C   UNL     1      51.743  44.750  40.114  1.00  0.00     0.032 C 
ATOM     17  C   UNL     1      52.954  44.896  41.079  1.00  0.00     0.006 C 
ATOM     18  C   UNL     1      55.358  45.474  41.307  1.00  0.00     0.008 C 
ATOM     19  C   UNL     1      54.622  44.054  39.314  1.00  0.00     0.012 C 
ATOM     20  C   UNL     1      53.101  43.769  42.246  1.00  0.00    -0.025 C 
ATOM     21  C   UNL     1      55.679  44.278  42.204  1.00  0.00     0.005 C 
ATOM     22  C   UNL     1      54.578  43.188  42.403  1.00  0.00     0.006 C 
ATOM     23  C   UNL     1      52.703  44.430  43.603  1.00  0.00     0.010 C 
ATOM     24  C   UNL     1      52.103  42.606  41.954  1.00  0.00     0.012 C 
ATOM     25  C   UNL     1      54.870  42.321  43.730  1.00  0.00     0.020 C 
ATOM     26  C   UNL     1      52.878  43.534  44.838  1.00  0.00     0.033 C 
ATOM     27  C   UNL     1      54.325  43.048  45.007  1.00  0.00     0.123 C 
ATOM     28  C   UNL     1      56.404  42.068  43.907  1.00  0.00     0.017 C 
ENDROOT
BRANCH   1  29
ATOM     29  C   UNL     1      54.377  47.830  35.176  1.00  0.00     0.048 C 
ATOM     30  O   UNL     1      54.696  46.713  34.686  1.00  0.00    -0.550 OA
ATOM     31  O   UNL     1      54.658  48.979  34.445  1.00  0.00    -0.550 OA
ENDBRANCH   1  29
BRANCH  25  32
ATOM     32  C   UNL     1      54.261  40.874  43.684  1.00  0.00     0.165 C 
BRANCH  32  33
ATOM     33  O   UNL     1      54.649  40.182  42.524  1.00  0.00    -0.396 OA
ATOM     34  H   UNL     1      53.825  39.819  42.106  1.00  0.00     0.210 HD
ENDBRANCH  32  33
ENDBRANCH  25  32
BRANCH  27  35
ATOM     35  O   UNL     1      55.125  44.152  45.358  1.00  0.00    -0.392 OA
ATOM     36  H   UNL     1      56.063  43.833  45.420  1.00  0.00     0.210 HD
ENDBRANCH  27  35
TORSDOF 4
ENDMDL
MODEL 3
REMARK VINA RESULT:    -7.000      3.645      5.583
REMARK INTER + INTRA:          -8.085
REMARK INTER:                  -7.908
REMARK INTRA:                  -0.177
REMARK UNBOUND:                 0.143
REMARK SMILES CC1(C)CC[C@@]2(C(=O)[O-])CC[C@@]3(C)C(=CC[C@H]4[C@]5(C)CC[C@H](O)[C@@](C)(CO)[C@@H]5CC[C@@]43C)[C@H]2C1
REMARK SMILES IDX 6 1 5 2 10 3 33 4 4 5 11 6 14 7 34 8 2 9 12 10 15 11 1 12
REMARK SMILES IDX 3 13 13 14 31 15 16 16 17 17 30 18 32 19 18 20 29 21 28 22
REMARK SMILES IDX 20 23 19 24 24 25 21 26 22 27 25 28 7 29 8 30 9 31 26 32
REMARK SMILES IDX 27 33 23 35
REMARK H PARENT 27 34 23 36
REMARK Flexibility Score: inf
ROOT
ATOM      1  C   UNL     1      54.238  51.563  33.709  1.00  0.00     0.017 C 
ATOM      2  C   UNL     1      53.911  53.006  34.205  1.00  0.00     0.014 C 
ATOM      3  C   UNL     1      55.610  51.118  34.318  1.00  0.00     0.014 C 
ATOM      4  C   UNL     1      53.053  50.597  34.097  1.00  0.00     0.028 C 
ATOM      5  C   UNL     1      52.576  53.546  33.673  1.00  0.00     0.007 C 
ATOM      6  C   UNL     1      55.574  49.776  35.060  1.00  0.00     0.013 C 
ATOM      7  C   UNL     1      53.110  50.061  35.552  1.00  0.00    -0.064 C 
ATOM      8  C   UNL     1      51.692  51.172  33.588  1.00  0.00     0.015 C 
ATOM      9  C   UNL     1      51.379  52.632  34.025  1.00  0.00    -0.035 C 
ATOM     10  C   UNL     1      54.468  49.686  36.164  1.00  0.00    -0.006 C 
ATOM     11  C   UNL     1      51.978  49.643  36.174  1.00  0.00    -0.027 C 
ATOM     12  C   UNL     1      51.042  52.728  35.530  1.00  0.00     0.011 C 
ATOM     13  C   UNL     1      50.142  53.124  33.240  1.00  0.00     0.011 C 
ATOM     14  C   UNL     1      54.796  50.770  37.245  1.00  0.00     0.017 C 
ATOM     15  C   UNL     1      54.396  48.192  36.776  1.00  0.00    -0.020 C 
ATOM     16  C   UNL     1      51.911  48.556  37.219  1.00  0.00     0.032 C 
ATOM     17  C   UNL     1      53.261  48.110  37.849  1.00  0.00     0.006 C 
ATOM     18  C   UNL     1      55.707  47.840  37.517  1.00  0.00     0.008 C 
ATOM     19  C   UNL     1      54.131  47.165  35.622  1.00  0.00     0.012 C 
ATOM     20  C   UNL     1      53.229  46.781  38.789  1.00  0.00    -0.025 C 
ATOM     21  C   UNL     1      55.754  46.446  38.146  1.00  0.00     0.005 C 
ATOM     22  C   UNL     1      54.402  45.744  38.486  1.00  0.00     0.006 C 
ATOM     23  C   UNL     1      53.372  47.241  40.274  1.00  0.00     0.010 C 
ATOM     24  C   UNL     1      51.846  46.079  38.624  1.00  0.00     0.012 C 
ATOM     25  C   UNL     1      54.626  44.577  39.575  1.00  0.00     0.020 C 
ATOM     26  C   UNL     1      53.461  46.103  41.301  1.00  0.00     0.033 C 
ATOM     27  C   UNL     1      54.642  45.161  41.029  1.00  0.00     0.123 C 
ATOM     28  C   UNL     1      55.972  43.821  39.316  1.00  0.00     0.017 C 
ENDROOT
BRANCH   1  29
ATOM     29  C   UNL     1      54.421  51.588  32.188  1.00  0.00     0.048 C 
ATOM     30  O   UNL     1      54.270  50.539  31.505  1.00  0.00    -0.550 OA
ATOM     31  O   UNL     1      54.883  52.734  31.551  1.00  0.00    -0.550 OA
ENDBRANCH   1  29
BRANCH  25  32
ATOM     32  C   UNL     1      53.546  43.438  39.509  1.00  0.00     0.165 C 
BRANCH  32  33
ATOM     33  O   UNL     1      53.410  42.923  38.209  1.00  0.00    -0.396 OA
ATOM     34  H   UNL     1      54.319  42.869  37.815  1.00  0.00     0.210 HD
ENDBRANCH  32  33
ENDBRANCH  25  32
BRANCH  27  35
ATOM     35  O   UNL     1      55.836  45.859  41.296  1.00  0.00    -0.392 OA
ATOM     36  H   UNL     1      56.371  45.306  41.923  1.00  0.00     0.210 HD
ENDBRANCH  27  35
TORSDOF 4
ENDMDL
MODEL 4
REMARK VINA RESULT:    -6.890      2.115      8.342
REMARK INTER + INTRA:          -7.955
REMARK INTER:                  -7.815
REMARK INTRA:                  -0.141
REMARK UNBOUND:                 0.143
REMARK SMILES CC1(C)CC[C@@]2(C(=O)[O-])CC[C@@]3(C)C(=CC[C@H]4[C@]5(C)CC[C@H](O)[C@@](C)(CO)[C@@H]5CC[C@@]43C)[C@H]2C1
REMARK SMILES IDX 6 1 5 2 10 3 33 4 4 5 11 6 14 7 34 8 2 9 12 10 15 11 1 12
REMARK SMILES IDX 3 13 13 14 31 15 16 16 17 17 30 18 32 19 18 20 29 21 28 22
REMARK SMILES IDX 20 23 19 24 24 25 21 26 22 27 25 28 7 29 8 30 9 31 26 32
REMARK SMILES IDX 27 33 23 35
REMARK H PARENT 27 34 23 36
REMARK Flexibility Score: inf
ROOT
ATOM      1  C   UNL     1      54.317  43.162  43.857  1.00  0.00     0.017 C 
ATOM      2  C   UNL     1      55.854  43.034  44.095  1.00  0.00     0.014 C 
ATOM      3  C   UNL     1      53.904  44.663  44.018  1.00  0.00     0.014 C 
ATOM      4  C   UNL     1      53.959  42.577  42.437  1.00  0.00     0.028 C 
ATOM      5  C   UNL     1      56.376  41.597  43.954  1.00  0.00     0.007 C 
ATOM      6  C   UNL     1      53.123  45.242  42.831  1.00  0.00     0.013 C 
ATOM      7  C   UNL     1      54.177  43.563  41.260  1.00  0.00    -0.064 C 
ATOM      8  C   UNL     1      54.527  41.129  42.284  1.00  0.00     0.015 C 
ATOM      9  C   UNL     1      56.046  40.974  42.577  1.00  0.00    -0.035 C 
ATOM     10  C   UNL     1      53.828  45.048  41.448  1.00  0.00    -0.006 C 
ATOM     11  C   UNL     1      54.382  43.097  40.002  1.00  0.00    -0.027 C 
ATOM     12  C   UNL     1      56.918  41.607  41.469  1.00  0.00     0.011 C 
ATOM     13  C   UNL     1      56.385  39.466  42.630  1.00  0.00     0.011 C 
ATOM     14  C   UNL     1      55.182  45.832  41.498  1.00  0.00     0.017 C 
ATOM     15  C   UNL     1      52.865  45.538  40.245  1.00  0.00    -0.020 C 
ATOM     16  C   UNL     1      53.968  43.804  38.734  1.00  0.00     0.032 C 
ATOM     17  C   UNL     1      53.569  45.301  38.869  1.00  0.00     0.006 C 
ATOM     18  C   UNL     1      52.608  47.060  40.335  1.00  0.00     0.008 C 
ATOM     19  C   UNL     1      51.510  44.752  40.306  1.00  0.00     0.012 C 
ATOM     20  C   UNL     1      52.892  46.000  37.563  1.00  0.00    -0.025 C 
ATOM     21  C   UNL     1      51.710  47.641  39.241  1.00  0.00     0.005 C 
ATOM     22  C   UNL     1      51.592  46.864  37.892  1.00  0.00     0.006 C 
ATOM     23  C   UNL     1      53.951  46.957  36.929  1.00  0.00     0.010 C 
ATOM     24  C   UNL     1      52.543  44.893  36.521  1.00  0.00     0.012 C 
ATOM     25  C   UNL     1      51.062  47.836  36.721  1.00  0.00     0.020 C 
ATOM     26  C   UNL     1      53.448  47.781  35.735  1.00  0.00     0.033 C 
ATOM     27  C   UNL     1      52.241  48.659  36.097  1.00  0.00     0.123 C 
ATOM     28  C   UNL     1      49.981  48.829  37.264  1.00  0.00     0.017 C 
ENDROOT
BRANCH   1  29
ATOM     29  C   UNL     1      53.576  42.384  44.950  1.00  0.00     0.048 C 
ATOM     30  O   UNL     1      52.468  41.834  44.709  1.00  0.00    -0.550 OA
ATOM     31  O   UNL     1      54.048  42.381  46.258  1.00  0.00    -0.550 OA
ENDBRANCH   1  29
BRANCH  25  32
ATOM     32  C   UNL     1      50.318  47.080  35.563  1.00  0.00     0.165 C 
BRANCH  32  33
ATOM     33  O   UNL     1      49.808  47.969  34.602  1.00  0.00    -0.396 OA
ATOM     34  H   UNL     1      49.166  47.462  34.039  1.00  0.00     0.210 HD
ENDBRANCH  32  33
ENDBRANCH  25  32
BRANCH  27  35
ATOM     35  O   UNL     1      52.679  49.678  36.964  1.00  0.00    -0.392 OA
ATOM     36  H   UNL     1      53.631  49.863  36.751  1.00  0.00     0.210 HD
ENDBRANCH  27  35
TORSDOF 4
ENDMDL
MODEL 5
REMARK VINA RESULT:    -6.876      2.372      8.917
REMARK INTER + INTRA:          -7.938
REMARK INTER:                  -7.967
REMARK INTRA:                   0.029
REMARK UNBOUND:                 0.143
REMARK SMILES CC1(C)CC[C@@]2(C(=O)[O-])CC[C@@]3(C)C(=CC[C@H]4[C@]5(C)CC[C@H](O)[C@@](C)(CO)[C@@H]5CC[C@@]43C)[C@H]2C1
REMARK SMILES IDX 6 1 5 2 10 3 33 4 4 5 11 6 14 7 34 8 2 9 12 10 15 11 1 12
REMARK SMILES IDX 3 13 13 14 31 15 16 16 17 17 30 18 32 19 18 20 29 21 28 22
REMARK SMILES IDX 20 23 19 24 24 25 21 26 22 27 25 28 7 29 8 30 9 31 26 32
REMARK SMILES IDX 27 33 23 35
REMARK H PARENT 27 34 23 36
REMARK Flexibility Score: inf
ROOT
ATOM      1  C   UNL     1      55.294  41.095  43.661  1.00  0.00     0.017 C 
ATOM      2  C   UNL     1      54.273  40.476  44.666  1.00  0.00     0.014 C 
ATOM      3  C   UNL     1      54.950  40.593  42.218  1.00  0.00     0.014 C 
ATOM      4  C   UNL     1      55.262  42.667  43.786  1.00  0.00     0.028 C 
ATOM      5  C   UNL     1      54.510  40.908  46.120  1.00  0.00     0.007 C 
ATOM      6  C   UNL     1      54.776  41.708  41.178  1.00  0.00     0.013 C 
ATOM      7  C   UNL     1      54.126  43.355  42.984  1.00  0.00    -0.064 C 
ATOM      8  C   UNL     1      55.464  43.099  45.274  1.00  0.00     0.015 C 
ATOM      9  C   UNL     1      54.492  42.445  46.297  1.00  0.00    -0.035 C 
ATOM     10  C   UNL     1      53.752  42.815  41.595  1.00  0.00    -0.006 C 
ATOM     11  C   UNL     1      53.671  44.580  43.351  1.00  0.00    -0.027 C 
ATOM     12  C   UNL     1      53.054  42.993  46.163  1.00  0.00     0.011 C 
ATOM     13  C   UNL     1      54.985  42.777  47.724  1.00  0.00     0.011 C 
ATOM     14  C   UNL     1      52.351  42.130  41.733  1.00  0.00     0.017 C 
ATOM     15  C   UNL     1      53.755  44.024  40.523  1.00  0.00    -0.020 C 
ATOM     16  C   UNL     1      53.119  45.620  42.408  1.00  0.00     0.032 C 
ATOM     17  C   UNL     1      52.756  45.139  40.975  1.00  0.00     0.006 C 
ATOM     18  C   UNL     1      53.252  43.536  39.144  1.00  0.00     0.008 C 
ATOM     19  C   UNL     1      55.204  44.610  40.396  1.00  0.00     0.012 C 
ATOM     20  C   UNL     1      52.394  46.293  39.883  1.00  0.00    -0.025 C 
ATOM     21  C   UNL     1      53.206  44.599  38.046  1.00  0.00     0.005 C 
ATOM     22  C   UNL     1      53.112  46.098  38.472  1.00  0.00     0.006 C 
ATOM     23  C   UNL     1      50.852  46.257  39.642  1.00  0.00     0.010 C 
ATOM     24  C   UNL     1      52.765  47.686  40.479  1.00  0.00     0.012 C 
ATOM     25  C   UNL     1      52.560  47.001  37.256  1.00  0.00     0.020 C 
ATOM     26  C   UNL     1      50.342  47.219  38.559  1.00  0.00     0.033 C 
ATOM     27  C   UNL     1      50.995  46.963  37.194  1.00  0.00     0.123 C 
ATOM     28  C   UNL     1      53.136  46.508  35.887  1.00  0.00     0.017 C 
ENDROOT
BRANCH   1  29
ATOM     29  C   UNL     1      56.695  40.568  43.986  1.00  0.00     0.048 C 
ATOM     30  O   UNL     1      57.719  41.255  43.719  1.00  0.00    -0.550 OA
ATOM     31  O   UNL     1      56.871  39.273  44.459  1.00  0.00    -0.550 OA
ENDBRANCH   1  29
BRANCH  25  32
ATOM     32  C   UNL     1      53.017  48.502  37.329  1.00  0.00     0.165 C 
BRANCH  32  33
ATOM     33  O   UNL     1      51.969  49.383  37.013  1.00  0.00    -0.396 OA
ATOM     34  H   UNL     1      52.378  50.237  36.717  1.00  0.00     0.210 HD
ENDBRANCH  32  33
ENDBRANCH  25  32
BRANCH  27  35
ATOM     35  O   UNL     1      50.525  45.731  36.702  1.00  0.00    -0.392 OA
ATOM     36  H   UNL     1      50.697  45.045  37.401  1.00  0.00     0.210 HD
ENDBRANCH  27  35
TORSDOF 4
ENDMDL
MODEL 6
REMARK VINA RESULT:    -6.803      3.642      6.087
REMARK INTER + INTRA:          -7.853
REMARK INTER:                  -7.775
REMARK INTRA:                  -0.079
REMARK UNBOUND:                 0.143
REMARK SMILES CC1(C)CC[C@@]2(C(=O)[O-])CC[C@@]3(C)C(=CC[C@H]4[C@]5(C)CC[C@H](O)[C@@](C)(CO)[C@@H]5CC[C@@]43C)[C@H]2C1
REMARK SMILES IDX 6 1 5 2 10 3 33 4 4 5 11 6 14 7 34 8 2 9 12 10 15 11 1 12
REMARK SMILES IDX 3 13 13 14 31 15 16 16 17 17 30 18 32 19 18 20 29 21 28 22
REMARK SMILES IDX 20 23 19 24 24 25 21 26 22 27 25 28 7 29 8 30 9 31 26 32
REMARK SMILES IDX 27 33 23 35
REMARK H PARENT 27 34 23 36
REMARK Flexibility Score: inf
ROOT
ATOM      1  C   UNL     1      55.226  45.827  39.707  1.00  0.00     0.017 C 
ATOM      2  C   UNL     1      54.359  46.999  39.154  1.00  0.00     0.014 C 
ATOM      3  C   UNL     1      55.810  46.243  41.099  1.00  0.00     0.014 C 
ATOM      4  C   UNL     1      54.350  44.517  39.777  1.00  0.00     0.028 C 
ATOM      5  C   UNL     1      53.724  46.698  37.788  1.00  0.00     0.007 C 
ATOM      6  C   UNL     1      55.535  45.245  42.232  1.00  0.00     0.013 C 
ATOM      7  C   UNL     1      53.466  44.401  41.047  1.00  0.00    -0.064 C 
ATOM      8  C   UNL     1      53.675  44.237  38.395  1.00  0.00     0.015 C 
ATOM      9  C   UNL     1      52.856  45.418  37.802  1.00  0.00    -0.035 C 
ATOM     10  C   UNL     1      54.025  44.871  42.399  1.00  0.00    -0.006 C 
ATOM     11  C   UNL     1      52.347  43.632  41.037  1.00  0.00    -0.027 C 
ATOM     12  C   UNL     1      51.541  45.660  38.578  1.00  0.00     0.011 C 
ATOM     13  C   UNL     1      52.478  45.070  36.344  1.00  0.00     0.011 C 
ATOM     14  C   UNL     1      53.256  46.181  42.779  1.00  0.00     0.017 C 
ATOM     15  C   UNL     1      53.848  43.700  43.498  1.00  0.00    -0.020 C 
ATOM     16  C   UNL     1      51.783  42.901  42.230  1.00  0.00     0.032 C 
ATOM     17  C   UNL     1      52.338  43.311  43.624  1.00  0.00     0.006 C 
ATOM     18  C   UNL     1      54.278  44.193  44.899  1.00  0.00     0.008 C 
ATOM     19  C   UNL     1      54.698  42.452  43.076  1.00  0.00     0.012 C 
ATOM     20  C   UNL     1      51.922  42.368  44.885  1.00  0.00    -0.025 C 
ATOM     21  C   UNL     1      54.149  43.168  46.027  1.00  0.00     0.005 C 
ATOM     22  C   UNL     1      53.140  41.991  45.842  1.00  0.00     0.006 C 
ATOM     23  C   UNL     1      50.870  43.147  45.738  1.00  0.00     0.010 C 
ATOM     24  C   UNL     1      51.250  41.068  44.345  1.00  0.00     0.012 C 
ATOM     25  C   UNL     1      52.758  41.342  47.268  1.00  0.00     0.020 C 
ATOM     26  C   UNL     1      50.435  42.444  47.032  1.00  0.00     0.033 C 
ATOM     27  C   UNL     1      51.617  42.157  47.968  1.00  0.00     0.123 C 
ATOM     28  C   UNL     1      54.003  41.296  48.214  1.00  0.00     0.017 C 
ENDROOT
BRANCH   1  29
ATOM     29  C   UNL     1      56.424  45.610  38.776  1.00  0.00     0.048 C 
ATOM     30  O   UNL     1      57.152  44.587  38.891  1.00  0.00    -0.550 OA
ATOM     31  O   UNL     1      56.806  46.599  37.876  1.00  0.00    -0.550 OA
ENDBRANCH   1  29
BRANCH  25  32
ATOM     32  C   UNL     1      52.310  39.839  47.176  1.00  0.00     0.165 C 
BRANCH  32  33
ATOM     33  O   UNL     1      51.671  39.412  48.352  1.00  0.00    -0.396 OA
ATOM     34  H   UNL     1      52.291  38.794  48.819  1.00  0.00     0.210 HD
ENDBRANCH  32  33
ENDBRANCH  25  32
BRANCH  27  35
ATOM     35  O   UNL     1      52.090  43.383  48.473  1.00  0.00    -0.392 OA
ATOM     36  H   UNL     1      53.077  43.390  48.365  1.00  0.00     0.210 HD
ENDBRANCH  27  35
TORSDOF 4
ENDMDL
MODEL 7
REMARK VINA RESULT:    -6.693      1.887      8.521
REMARK INTER + INTRA:          -7.724
REMARK INTER:                  -7.591
REMARK INTRA:                  -0.133
REMARK UNBOUND:                 0.143
REMARK SMILES CC1(C)CC[C@@]2(C(=O)[O-])CC[C@@]3(C)C(=CC[C@H]4[C@]5(C)CC[C@H](O)[C@@](C)(CO)[C@@H]5CC[C@@]43C)[C@H]2C1
REMARK SMILES IDX 6 1 5 2 10 3 33 4 4 5 11 6 14 7 34 8 2 9 12 10 15 11 1 12
REMARK SMILES IDX 3 13 13 14 31 15 16 16 17 17 30 18 32 19 18 20 29 21 28 22
REMARK SMILES IDX 20 23 19 24 24 25 21 26 22 27 25 28 7 29 8 30 9 31 26 32
REMARK SMILES IDX 27 33 23 35
REMARK H PARENT 27 34 23 36
REMARK Flexibility Score: inf
ROOT
ATOM      1  C   UNL     1      55.246  44.653  43.229  1.00  0.00     0.017 C 
ATOM      2  C   UNL     1      56.604  45.350  43.554  1.00  0.00     0.014 C 
ATOM      3  C   UNL     1      54.082  45.665  43.493  1.00  0.00     0.014 C 
ATOM      4  C   UNL     1      55.274  44.125  41.743  1.00  0.00     0.028 C 
ATOM      5  C   UNL     1      57.825  44.447  43.322  1.00  0.00     0.007 C 
ATOM      6  C   UNL     1      53.120  45.855  42.312  1.00  0.00     0.013 C 
ATOM      7  C   UNL     1      54.929  45.194  40.673  1.00  0.00    -0.064 C 
ATOM      8  C   UNL     1      56.539  43.240  41.501  1.00  0.00     0.015 C 
ATOM      9  C   UNL     1      57.896  43.899  41.878  1.00  0.00    -0.035 C 
ATOM     10  C   UNL     1      53.827  46.225  40.966  1.00  0.00    -0.006 C 
ATOM     11  C   UNL     1      55.363  45.052  39.395  1.00  0.00    -0.027 C 
ATOM     12  C   UNL     1      58.292  45.019  40.888  1.00  0.00     0.011 C 
ATOM     13  C   UNL     1      59.000  42.818  41.821  1.00  0.00     0.011 C 
ATOM     14  C   UNL     1      54.537  47.605  41.172  1.00  0.00     0.017 C 
ATOM     15  C   UNL     1      52.762  46.244  39.751  1.00  0.00    -0.020 C 
ATOM     16  C   UNL     1      54.641  45.556  38.169  1.00  0.00     0.032 C 
ATOM     17  C   UNL     1      53.491  46.576  38.408  1.00  0.00     0.006 C 
ATOM     18  C   UNL     1      51.717  47.366  39.956  1.00  0.00     0.008 C 
ATOM     19  C   UNL     1      52.051  44.850  39.655  1.00  0.00     0.012 C 
ATOM     20  C   UNL     1      52.552  46.936  37.127  1.00  0.00    -0.025 C 
ATOM     21  C   UNL     1      50.655  47.485  38.861  1.00  0.00     0.005 C 
ATOM     22  C   UNL     1      50.989  46.919  37.445  1.00  0.00     0.006 C 
ATOM     23  C   UNL     1      52.925  48.374  36.649  1.00  0.00     0.010 C 
ATOM     24  C   UNL     1      52.868  45.937  35.972  1.00  0.00     0.012 C 
ATOM     25  C   UNL     1      50.024  47.572  36.331  1.00  0.00     0.020 C 
ATOM     26  C   UNL     1      52.063  48.921  35.502  1.00  0.00     0.033 C 
ATOM     27  C   UNL     1      50.571  48.963  35.860  1.00  0.00     0.123 C 
ATOM     28  C   UNL     1      48.573  47.758  36.887  1.00  0.00     0.017 C 
ENDROOT
BRANCH   1  29
ATOM     29  C   UNL     1      55.040  43.485  44.198  1.00  0.00     0.048 C 
ATOM     30  O   UNL     1      54.358  42.480  43.860  1.00  0.00    -0.550 OA
ATOM     31  O   UNL     1      55.490  43.570  45.512  1.00  0.00    -0.550 OA
ENDBRANCH   1  29
BRANCH  25  32
ATOM     32  C   UNL     1      49.819  46.664  35.065  1.00  0.00     0.165 C 
BRANCH  32  33
ATOM     33  O   UNL     1      48.700  47.061  34.314  1.00  0.00    -0.396 OA
ATOM     34  H   UNL     1      47.982  47.301  34.955  1.00  0.00     0.210 HD
ENDBRANCH  32  33
ENDBRANCH  25  32
BRANCH  27  35
ATOM     35  O   UNL     1      50.378  49.955  36.839  1.00  0.00    -0.392 OA
ATOM     36  H   UNL     1      49.424  50.230  36.802  1.00  0.00     0.210 HD
ENDBRANCH  27  35
TORSDOF 4
ENDMDL
MODEL 8
REMARK VINA RESULT:    -6.646      2.138      8.492
REMARK INTER + INTRA:          -7.668
REMARK INTER:                  -7.537
REMARK INTRA:                  -0.132
REMARK UNBOUND:                 0.143
REMARK SMILES CC1(C)CC[C@@]2(C(=O)[O-])CC[C@@]3(C)C(=CC[C@H]4[C@]5(C)CC[C@H](O)[C@@](C)(CO)[C@@H]5CC[C@@]43C)[C@H]2C1
REMARK SMILES IDX 6 1 5 2 10 3 33 4 4 5 11 6 14 7 34 8 2 9 12 10 15 11 1 12
REMARK SMILES IDX 3 13 13 14 31 15 16 16 17 17 30 18 32 19 18 20 29 21 28 22
REMARK SMILES IDX 20 23 19 24 24 25 21 26 22 27 25 28 7 29 8 30 9 31 26 32
REMARK SMILES IDX 27 33 23 35
REMARK H PARENT 27 34 23 36
REMARK Flexibility Score: inf
ROOT
ATOM      1  C   UNL     1      56.044  43.109  43.962  1.00  0.00     0.017 C 
ATOM      2  C   UNL     1      55.872  41.571  44.159  1.00  0.00     0.014 C 
ATOM      3  C   UNL     1      56.972  43.360  42.726  1.00  0.00     0.014 C 
ATOM      4  C   UNL     1      54.623  43.777  43.806  1.00  0.00     0.028 C 
ATOM      5  C   UNL     1      54.968  41.205  45.345  1.00  0.00     0.007 C 
ATOM      6  C   UNL     1      56.386  44.302  41.667  1.00  0.00     0.013 C 
ATOM      7  C   UNL     1      54.031  43.706  42.373  1.00  0.00    -0.064 C 
ATOM      8  C   UNL     1      53.695  43.369  44.995  1.00  0.00     0.015 C 
ATOM      9  C   UNL     1      53.561  41.839  45.242  1.00  0.00    -0.035 C 
ATOM     10  C   UNL     1      54.962  43.891  41.164  1.00  0.00    -0.006 C 
ATOM     11  C   UNL     1      52.690  43.782  42.180  1.00  0.00    -0.027 C 
ATOM     12  C   UNL     1      52.729  41.144  44.141  1.00  0.00     0.011 C 
ATOM     13  C   UNL     1      52.829  41.622  46.586  1.00  0.00     0.011 C 
ATOM     14  C   UNL     1      55.095  42.492  40.474  1.00  0.00     0.017 C 
ATOM     15  C   UNL     1      54.358  45.020  40.179  1.00  0.00    -0.020 C 
ATOM     16  C   UNL     1      52.019  44.369  40.962  1.00  0.00     0.032 C 
ATOM     17  C   UNL     1      52.920  44.611  39.719  1.00  0.00     0.006 C 
ATOM     18  C   UNL     1      55.203  45.131  38.889  1.00  0.00     0.008 C 
ATOM     19  C   UNL     1      54.320  46.399  40.924  1.00  0.00     0.012 C 
ATOM     20  C   UNL     1      52.267  45.464  38.494  1.00  0.00    -0.025 C 
ATOM     21  C   UNL     1      54.722  46.169  37.874  1.00  0.00     0.005 C 
ATOM     22  C   UNL     1      53.222  46.603  37.916  1.00  0.00     0.006 C 
ATOM     23  C   UNL     1      51.954  44.470  37.331  1.00  0.00     0.010 C 
ATOM     24  C   UNL     1      50.924  46.094  38.977  1.00  0.00     0.012 C 
ATOM     25  C   UNL     1      52.783  47.264  36.513  1.00  0.00     0.020 C 
ATOM     26  C   UNL     1      51.421  45.121  36.047  1.00  0.00     0.033 C 
ATOM     27  C   UNL     1      52.392  46.161  35.471  1.00  0.00     0.123 C 
ATOM     28  C   UNL     1      53.938  48.137  35.919  1.00  0.00     0.017 C 
ENDROOT
BRANCH   1  29
ATOM     29  C   UNL     1      56.768  43.691  45.180  1.00  0.00     0.048 C 
ATOM     30  O   UNL     1      56.620  44.901  45.500  1.00  0.00    -0.550 OA
ATOM     31  O   UNL     1      57.701  42.930  45.876  1.00  0.00    -0.550 OA
ENDBRANCH   1  29
BRANCH  25  32
ATOM     32  C   UNL     1      51.586  48.273  36.640  1.00  0.00     0.165 C 
BRANCH  32  33
ATOM     33  O   UNL     1      52.027  49.567  36.964  1.00  0.00    -0.396 OA
ATOM     34  H   UNL     1      51.654  50.187  36.285  1.00  0.00     0.210 HD
ENDBRANCH  32  33
ENDBRANCH  25  32
BRANCH  27  35
ATOM     35  O   UNL     1      53.525  45.485  34.980  1.00  0.00    -0.392 OA
ATOM     36  H   UNL     1      53.204  44.752  34.392  1.00  0.00     0.210 HD
ENDBRANCH  27  35
TORSDOF 4
ENDMDL
MODEL 9
REMARK VINA RESULT:    -6.314      4.511      7.507
REMARK INTER + INTRA:          -7.278
REMARK INTER:                  -7.186
REMARK INTRA:                  -0.092
REMARK UNBOUND:                 0.143
REMARK SMILES CC1(C)CC[C@@]2(C(=O)[O-])CC[C@@]3(C)C(=CC[C@H]4[C@]5(C)CC[C@H](O)[C@@](C)(CO)[C@@H]5CC[C@@]43C)[C@H]2C1
REMARK SMILES IDX 6 1 5 2 10 3 33 4 4 5 11 6 14 7 34 8 2 9 12 10 15 11 1 12
REMARK SMILES IDX 3 13 13 14 31 15 16 16 17 17 30 18 32 19 18 20 29 21 28 22
REMARK SMILES IDX 20 23 19 24 24 25 21 26 22 27 25 28 7 29 8 30 9 31 26 32
REMARK SMILES IDX 27 33 23 35
REMARK H PARENT 27 34 23 36
REMARK Flexibility Score: inf
ROOT
ATOM      1  C   UNL     1      55.847  45.638  40.068  1.00  0.00     0.017 C 
ATOM      2  C   UNL     1      57.201  46.231  40.567  1.00  0.00     0.014 C 
ATOM      3  C   UNL     1      55.909  44.078  40.174  1.00  0.00     0.014 C 
ATOM      4  C   UNL     1      54.664  46.262  40.904  1.00  0.00     0.028 C 
ATOM      5  C   UNL     1      57.252  47.765  40.516  1.00  0.00     0.007 C 
ATOM      6  C   UNL     1      54.749  43.443  40.952  1.00  0.00     0.013 C 
ATOM      7  C   UNL     1      54.408  45.574  42.271  1.00  0.00    -0.064 C 
ATOM      8  C   UNL     1      54.743  47.823  40.881  1.00  0.00     0.015 C 
ATOM      9  C   UNL     1      56.108  48.428  41.319  1.00  0.00    -0.035 C 
ATOM     10  C   UNL     1      54.534  44.047  42.380  1.00  0.00    -0.006 C 
ATOM     11  C   UNL     1      53.796  46.250  43.276  1.00  0.00    -0.027 C 
ATOM     12  C   UNL     1      56.348  48.276  42.838  1.00  0.00     0.011 C 
ATOM     13  C   UNL     1      56.099  49.940  40.999  1.00  0.00     0.011 C 
ATOM     14  C   UNL     1      55.826  43.753  43.213  1.00  0.00     0.017 C 
ATOM     15  C   UNL     1      53.200  43.438  43.059  1.00  0.00    -0.020 C 
ATOM     16  C   UNL     1      52.919  45.628  44.335  1.00  0.00     0.032 C 
ATOM     17  C   UNL     1      52.978  44.080  44.467  1.00  0.00     0.006 C 
ATOM     18  C   UNL     1      53.354  41.919  43.304  1.00  0.00     0.008 C 
ATOM     19  C   UNL     1      51.966  43.716  42.132  1.00  0.00     0.012 C 
ATOM     20  C   UNL     1      51.863  43.383  45.429  1.00  0.00    -0.025 C 
ATOM     21  C   UNL     1      52.150  41.230  43.950  1.00  0.00     0.005 C 
ATOM     22  C   UNL     1      51.162  42.103  44.786  1.00  0.00     0.006 C 
ATOM     23  C   UNL     1      52.580  42.926  46.739  1.00  0.00     0.010 C 
ATOM     24  C   UNL     1      50.785  44.446  45.805  1.00  0.00     0.012 C 
ATOM     25  C   UNL     1      50.297  41.181  45.787  1.00  0.00     0.020 C 
ATOM     26  C   UNL     1      51.694  42.154  47.728  1.00  0.00     0.033 C 
ATOM     27  C   UNL     1      51.090  40.887  47.106  1.00  0.00     0.123 C 
ATOM     28  C   UNL     1      49.917  39.823  45.109  1.00  0.00     0.017 C 
ENDROOT
BRANCH   1  29
ATOM     29  C   UNL     1      55.675  45.971  38.582  1.00  0.00     0.048 C 
ATOM     30  O   UNL     1      54.544  45.886  38.031  1.00  0.00    -0.550 OA
ATOM     31  O   UNL     1      56.782  46.244  37.787  1.00  0.00    -0.550 OA
ENDBRANCH   1  29
BRANCH  25  32
ATOM     32  C   UNL     1      48.907  41.802  46.172  1.00  0.00     0.165 C 
BRANCH  32  33
ATOM     33  O   UNL     1      47.972  40.813  46.522  1.00  0.00    -0.396 OA
ATOM     34  H   UNL     1      47.336  40.725  45.766  1.00  0.00     0.210 HD
ENDBRANCH  32  33
ENDBRANCH  25  32
BRANCH  27  35
ATOM     35  O   UNL     1      52.128  39.960  46.893  1.00  0.00    -0.392 OA
ATOM     36  H   UNL     1      52.702  40.317  46.165  1.00  0.00     0.210 HD
ENDBRANCH  27  35
TORSDOF 4
ENDMDL
