MODEL 1
REMARK VINA RESULT:    -4.899      0.000      0.000
REMARK INTER + INTRA:          -7.351
REMARK INTER:                  -6.617
REMARK INTRA:                  -0.734
REMARK UNBOUND:                -0.734
REMARK SMILES CC(=O)CCC=C(C)CCC=C(C)C
REMARK SMILES IDX 7 1 6 2 8 3 9 4 10 5 11 6 13 7 12 8 14 9 5 10 4 11 2 12 3 13
REMARK SMILES IDX 1 14
REMARK H PARENT
REMARK Flexibility Score: inf
ROOT
ATOM      1  C   UNL     1     -23.713  19.476 -32.800  1.00  0.00    -0.077 C 
ATOM      2  C   UNL     1     -24.529  18.542 -32.264  1.00  0.00    -0.028 C 
ATOM      3  C   UNL     1     -22.609  20.114 -31.991  1.00  0.00     0.039 C 
ENDROOT
BRANCH   1   4
ATOM      4  C   UNL     1     -23.904  19.882 -34.246  1.00  0.00     0.034 C 
BRANCH   4   5
ATOM      5  C   UNL     1     -25.389  19.876 -34.624  1.00  0.00     0.032 C 
BRANCH   5   6
ATOM      6  C   UNL     1     -26.111  21.061 -34.029  1.00  0.00    -0.028 C 
ATOM      7  C   UNL     1     -28.015  19.634 -33.273  1.00  0.00     0.039 C 
ATOM      8  C   UNL     1     -27.306  20.960 -33.411  1.00  0.00    -0.080 C 
ATOM      9  C   UNL     1     -27.940  22.209 -32.852  1.00  0.00     0.039 C 
ENDBRANCH   5   6
ENDBRANCH   4   5
ENDBRANCH   1   4
BRANCH   2  10
ATOM     10  C   UNL     1     -24.417  18.073 -30.832  1.00  0.00     0.035 C 
BRANCH  10  11
ATOM     11  C   UNL     1     -25.549  17.106 -30.476  1.00  0.00     0.079 C 
BRANCH  11  12
ATOM     12  C   UNL     1     -25.083  15.677 -30.583  1.00  0.00     0.130 C 
ATOM     13  O   UNL     1     -23.976  15.439 -31.046  1.00  0.00    -0.300 OA
ATOM     14  C   UNL     1     -25.950  14.536 -30.145  1.00  0.00     0.087 C 
ENDBRANCH  11  12
ENDBRANCH  10  11
ENDBRANCH   2  10
TORSDOF 6
ENDMDL
MODEL 2
REMARK VINA RESULT:    -4.887     11.076     12.934
REMARK INTER + INTRA:          -7.334
REMARK INTER:                  -6.366
REMARK INTRA:                  -0.969
REMARK UNBOUND:                -0.734
REMARK SMILES CC(=O)CCC=C(C)CCC=C(C)C
REMARK SMILES IDX 7 1 6 2 8 3 9 4 10 5 11 6 13 7 12 8 14 9 5 10 4 11 2 12 3 13
REMARK SMILES IDX 1 14
REMARK H PARENT
REMARK Flexibility Score: inf
ROOT
ATOM      1  C   UNL     1     -14.059  12.598 -31.212  1.00  0.00    -0.077 C 
ATOM      2  C   UNL     1     -12.925  13.332 -31.187  1.00  0.00    -0.028 C 
ATOM      3  C   UNL     1     -14.276  11.453 -30.251  1.00  0.00     0.039 C 
ENDROOT
BRANCH   1   4
ATOM      4  C   UNL     1     -15.138  12.937 -32.218  1.00  0.00     0.034 C 
BRANCH   4   5
ATOM      5  C   UNL     1     -16.152  13.918 -31.622  1.00  0.00     0.032 C 
BRANCH   5   6
ATOM      6  C   UNL     1     -17.463  13.233 -31.316  1.00  0.00    -0.028 C 
ATOM      7  C   UNL     1     -17.121  13.483 -28.855  1.00  0.00     0.039 C 
ATOM      8  C   UNL     1     -17.912  13.031 -30.059  1.00  0.00    -0.080 C 
ATOM      9  C   UNL     1     -19.236  12.335 -29.866  1.00  0.00     0.039 C 
ENDBRANCH   5   6
ENDBRANCH   4   5
ENDBRANCH   1   4
BRANCH   2  10
ATOM     10  C   UNL     1     -11.794  13.070 -30.221  1.00  0.00     0.035 C 
BRANCH  10  11
ATOM     11  C   UNL     1     -11.705  14.170 -29.160  1.00  0.00     0.079 C 
BRANCH  11  12
ATOM     12  C   UNL     1     -11.692  13.575 -27.775  1.00  0.00     0.130 C 
ATOM     13  O   UNL     1     -11.729  14.314 -26.803  1.00  0.00    -0.300 OA
ATOM     14  C   UNL     1     -11.621  12.093 -27.562  1.00  0.00     0.087 C 
ENDBRANCH  11  12
ENDBRANCH  10  11
ENDBRANCH   2  10
TORSDOF 6
ENDMDL
MODEL 3
REMARK VINA RESULT:    -4.883     10.744     13.441
REMARK INTER + INTRA:          -7.329
REMARK INTER:                  -6.107
REMARK INTRA:                  -1.222
REMARK UNBOUND:                -0.734
REMARK SMILES CC(=O)CCC=C(C)CCC=C(C)C
REMARK SMILES IDX 7 1 6 2 8 3 9 4 10 5 11 6 13 7 12 8 14 9 5 10 4 11 2 12 3 13
REMARK SMILES IDX 1 14
REMARK H PARENT
REMARK Flexibility Score: inf
ROOT
ATOM      1  C   UNL     1     -16.212  11.758 -28.127  1.00  0.00    -0.077 C 
ATOM      2  C   UNL     1     -16.683  13.013 -28.292  1.00  0.00    -0.028 C 
ATOM      3  C   UNL     1     -16.323  10.725 -29.223  1.00  0.00     0.039 C 
ENDROOT
BRANCH   1   4
ATOM      4  C   UNL     1     -15.549  11.383 -26.818  1.00  0.00     0.034 C 
BRANCH   4   5
ATOM      5  C   UNL     1     -14.086  10.986 -27.041  1.00  0.00     0.032 C 
BRANCH   5   6
ATOM      6  C   UNL     1     -13.195  12.203 -27.125  1.00  0.00    -0.028 C 
ATOM      7  C   UNL     1     -12.741  11.812 -29.550  1.00  0.00     0.039 C 
ATOM      8  C   UNL     1     -12.579  12.587 -28.264  1.00  0.00    -0.080 C 
ATOM      9  C   UNL     1     -11.710  13.818 -28.237  1.00  0.00     0.039 C 
ENDBRANCH   5   6
ENDBRANCH   4   5
ENDBRANCH   1   4
BRANCH   2  10
ATOM     10  C   UNL     1     -17.360  13.479 -29.560  1.00  0.00     0.035 C 
BRANCH  10  11
ATOM     11  C   UNL     1     -16.433  14.378 -30.384  1.00  0.00     0.079 C 
BRANCH  11  12
ATOM     12  C   UNL     1     -16.327  13.877 -31.801  1.00  0.00     0.130 C 
ATOM     13  O   UNL     1     -17.170  14.209 -32.622  1.00  0.00    -0.300 OA
ATOM     14  C   UNL     1     -15.215  12.966 -32.228  1.00  0.00     0.087 C 
ENDBRANCH  11  12
ENDBRANCH  10  11
ENDBRANCH   2  10
TORSDOF 6
ENDMDL
MODEL 4
REMARK VINA RESULT:    -4.852     10.818     12.686
REMARK INTER + INTRA:          -7.288
REMARK INTER:                  -6.495
REMARK INTRA:                  -0.792
REMARK UNBOUND:                -0.734
REMARK SMILES CC(=O)CCC=C(C)CCC=C(C)C
REMARK SMILES IDX 7 1 6 2 8 3 9 4 10 5 11 6 13 7 12 8 14 9 5 10 4 11 2 12 3 13
REMARK SMILES IDX 1 14
REMARK H PARENT
REMARK Flexibility Score: inf
ROOT
ATOM      1  C   UNL     1     -14.113  14.087 -31.148  1.00  0.00    -0.077 C 
ATOM      2  C   UNL     1     -13.064  13.408 -30.635  1.00  0.00    -0.028 C 
ATOM      3  C   UNL     1     -14.275  15.571 -30.923  1.00  0.00     0.039 C 
ENDROOT
BRANCH   1   4
ATOM      4  C   UNL     1     -15.141  13.345 -31.976  1.00  0.00     0.034 C 
BRANCH   4   5
ATOM      5  C   UNL     1     -16.528  13.978 -31.818  1.00  0.00     0.032 C 
BRANCH   5   6
ATOM      6  C   UNL     1     -17.517  12.992 -31.242  1.00  0.00    -0.028 C 
ATOM      7  C   UNL     1     -17.071  13.772 -28.912  1.00  0.00     0.039 C 
ATOM      8  C   UNL     1     -17.771  12.892 -29.920  1.00  0.00    -0.080 C 
ATOM      9  C   UNL     1     -18.778  11.873 -29.451  1.00  0.00     0.039 C 
ENDBRANCH   5   6
ENDBRANCH   4   5
ENDBRANCH   1   4
BRANCH   2  10
ATOM     10  C   UNL     1     -11.990  14.060 -29.798  1.00  0.00     0.035 C 
BRANCH  10  11
ATOM     11  C   UNL     1     -11.355  13.056 -28.831  1.00  0.00     0.079 C 
BRANCH  11  12
ATOM     12  C   UNL     1     -11.934  13.208 -27.448  1.00  0.00     0.130 C 
ATOM     13  O   UNL     1     -11.696  14.220 -26.805  1.00  0.00    -0.300 OA
ATOM     14  C   UNL     1     -12.788  12.139 -26.836  1.00  0.00     0.087 C 
ENDBRANCH  11  12
ENDBRANCH  10  11
ENDBRANCH   2  10
TORSDOF 6
ENDMDL
MODEL 5
REMARK VINA RESULT:    -4.852     11.261     13.634
REMARK INTER + INTRA:          -7.288
REMARK INTER:                  -6.170
REMARK INTRA:                  -1.118
REMARK UNBOUND:                -0.734
REMARK SMILES CC(=O)CCC=C(C)CCC=C(C)C
REMARK SMILES IDX 7 1 6 2 8 3 9 4 10 5 11 6 13 7 12 8 14 9 5 10 4 11 2 12 3 13
REMARK SMILES IDX 1 14
REMARK H PARENT
REMARK Flexibility Score: inf
ROOT
ATOM      1  C   UNL     1     -12.280  14.022 -30.123  1.00  0.00    -0.077 C 
ATOM      2  C   UNL     1     -13.556  14.423 -30.314  1.00  0.00    -0.028 C 
ATOM      3  C   UNL     1     -11.405  13.602 -31.280  1.00  0.00     0.039 C 
ENDROOT
BRANCH   1   4
ATOM      4  C   UNL     1     -11.714  14.002 -28.719  1.00  0.00     0.034 C 
BRANCH   4   5
ATOM      5  C   UNL     1     -11.791  12.595 -28.118  1.00  0.00     0.032 C 
BRANCH   5   6
ATOM      6  C   UNL     1     -13.053  12.415 -27.308  1.00  0.00    -0.028 C 
ATOM      7  C   UNL     1     -14.088  10.984 -29.074  1.00  0.00     0.039 C 
ATOM      8  C   UNL     1     -14.103  11.683 -27.735  1.00  0.00    -0.080 C 
ATOM      9  C   UNL     1     -15.316  11.568 -26.846  1.00  0.00     0.039 C 
ENDBRANCH   5   6
ENDBRANCH   4   5
ENDBRANCH   1   4
BRANCH   2  10
ATOM     10  C   UNL     1     -14.208  14.475 -31.676  1.00  0.00     0.035 C 
BRANCH  10  11
ATOM     11  C   UNL     1     -15.056  13.226 -31.932  1.00  0.00     0.079 C 
BRANCH  11  12
ATOM     12  C   UNL     1     -16.525  13.558 -31.877  1.00  0.00     0.130 C 
ATOM     13  O   UNL     1     -17.016  14.261 -32.749  1.00  0.00    -0.300 OA
ATOM     14  C   UNL     1     -17.399  13.056 -30.767  1.00  0.00     0.087 C 
ENDBRANCH  11  12
ENDBRANCH  10  11
ENDBRANCH   2  10
TORSDOF 6
ENDMDL
MODEL 6
REMARK VINA RESULT:    -4.829     10.171     12.473
REMARK INTER + INTRA:          -7.257
REMARK INTER:                  -5.952
REMARK INTRA:                  -1.305
REMARK UNBOUND:                -0.734
REMARK SMILES CC(=O)CCC=C(C)CCC=C(C)C
REMARK SMILES IDX 7 1 6 2 8 3 9 4 10 5 11 6 13 7 12 8 14 9 5 10 4 11 2 12 3 13
REMARK SMILES IDX 1 14
REMARK H PARENT
REMARK Flexibility Score: inf
ROOT
ATOM      1  C   UNL     1     -17.956  12.969 -29.926  1.00  0.00    -0.077 C 
ATOM      2  C   UNL     1     -17.707  13.003 -31.253  1.00  0.00    -0.028 C 
ATOM      3  C   UNL     1     -17.260  13.908 -28.970  1.00  0.00     0.039 C 
ENDROOT
BRANCH   1   4
ATOM      4  C   UNL     1     -18.962  11.974 -29.388  1.00  0.00     0.034 C 
BRANCH   4   5
ATOM      5  C   UNL     1     -18.390  10.553 -29.407  1.00  0.00     0.032 C 
BRANCH   5   6
ATOM      6  C   UNL     1     -17.444  10.327 -28.251  1.00  0.00    -0.028 C 
ATOM      7  C   UNL     1     -15.456  10.329 -29.762  1.00  0.00     0.039 C 
ATOM      8  C   UNL     1     -16.107  10.224 -28.403  1.00  0.00    -0.080 C 
ATOM      9  C   UNL     1     -15.254   9.999 -27.181  1.00  0.00     0.039 C 
ENDBRANCH   5   6
ENDBRANCH   4   5
ENDBRANCH   1   4
BRANCH   2  10
ATOM     10  C   UNL     1     -16.721  13.959 -31.883  1.00  0.00     0.035 C 
BRANCH  10  11
ATOM     11  C   UNL     1     -15.414  13.248 -32.246  1.00  0.00     0.079 C 
BRANCH  11  12
ATOM     12  C   UNL     1     -14.232  13.975 -31.662  1.00  0.00     0.130 C 
ATOM     13  O   UNL     1     -13.603  14.758 -32.359  1.00  0.00    -0.300 OA
ATOM     14  C   UNL     1     -13.798  13.752 -30.244  1.00  0.00     0.087 C 
ENDBRANCH  11  12
ENDBRANCH  10  11
ENDBRANCH   2  10
TORSDOF 6
ENDMDL
MODEL 7
REMARK VINA RESULT:    -4.790     11.051     13.285
REMARK INTER + INTRA:          -7.204
REMARK INTER:                  -5.936
REMARK INTRA:                  -1.268
REMARK UNBOUND:                -0.734
REMARK SMILES CC(=O)CCC=C(C)CCC=C(C)C
REMARK SMILES IDX 7 1 6 2 8 3 9 4 10 5 11 6 13 7 12 8 14 9 5 10 4 11 2 12 3 13
REMARK SMILES IDX 1 14
REMARK H PARENT
REMARK Flexibility Score: inf
ROOT
ATOM      1  C   UNL     1     -13.649  14.609 -31.668  1.00  0.00    -0.077 C 
ATOM      2  C   UNL     1     -14.568  13.659 -31.944  1.00  0.00    -0.028 C 
ATOM      3  C   UNL     1     -14.024  15.881 -30.944  1.00  0.00     0.039 C 
ENDROOT
BRANCH   1   4
ATOM      4  C   UNL     1     -12.210  14.390 -32.084  1.00  0.00     0.034 C 
BRANCH   4   5
ATOM      5  C   UNL     1     -11.574  13.256 -31.274  1.00  0.00     0.032 C 
BRANCH   5   6
ATOM      6  C   UNL     1     -11.302  13.685 -29.851  1.00  0.00    -0.028 C 
ATOM      7  C   UNL     1     -12.981  12.071 -28.950  1.00  0.00     0.039 C 
ATOM      8  C   UNL     1     -11.937  13.151 -28.787  1.00  0.00    -0.080 C 
ATOM      9  C   UNL     1     -11.589  13.653 -27.409  1.00  0.00     0.039 C 
ENDBRANCH   5   6
ENDBRANCH   4   5
ENDBRANCH   1   4
BRANCH   2  10
ATOM     10  C   UNL     1     -16.026  13.788 -31.570  1.00  0.00     0.035 C 
BRANCH  10  11
ATOM     11  C   UNL     1     -16.416  12.766 -30.498  1.00  0.00     0.079 C 
BRANCH  11  12
ATOM     12  C   UNL     1     -16.511  13.423 -29.146  1.00  0.00     0.130 C 
ATOM     13  O   UNL     1     -16.569  14.642 -29.071  1.00  0.00    -0.300 OA
ATOM     14  C   UNL     1     -16.525  12.615 -27.883  1.00  0.00     0.087 C 
ENDBRANCH  11  12
ENDBRANCH  10  11
ENDBRANCH   2  10
TORSDOF 6
ENDMDL
MODEL 8
REMARK VINA RESULT:    -4.737      3.960      8.628
REMARK INTER + INTRA:          -7.133
REMARK INTER:                  -6.323
REMARK INTRA:                  -0.809
REMARK UNBOUND:                -0.734
REMARK SMILES CC(=O)CCC=C(C)CCC=C(C)C
REMARK SMILES IDX 7 1 6 2 8 3 9 4 10 5 11 6 13 7 12 8 14 9 5 10 4 11 2 12 3 13
REMARK SMILES IDX 1 14
REMARK H PARENT
REMARK Flexibility Score: inf
ROOT
ATOM      1  C   UNL     1     -25.131  11.013 -28.667  1.00  0.00    -0.077 C 
ATOM      2  C   UNL     1     -25.319  12.350 -28.703  1.00  0.00    -0.028 C 
ATOM      3  C   UNL     1     -24.354  10.298 -29.747  1.00  0.00     0.039 C 
ENDROOT
BRANCH   1   4
ATOM      4  C   UNL     1     -25.702  10.216 -27.513  1.00  0.00     0.034 C 
BRANCH   4   5
ATOM      5  C   UNL     1     -27.199  10.495 -27.344  1.00  0.00     0.032 C 
BRANCH   5   6
ATOM      6  C   UNL     1     -27.940  10.319 -28.649  1.00  0.00    -0.028 C 
ATOM      7  C   UNL     1     -29.016  12.563 -28.443  1.00  0.00     0.039 C 
ATOM      8  C   UNL     1     -28.769  11.255 -29.157  1.00  0.00    -0.080 C 
ATOM      9  C   UNL     1     -29.459  10.977 -30.468  1.00  0.00     0.039 C 
ENDBRANCH   5   6
ENDBRANCH   4   5
ENDBRANCH   1   4
BRANCH   2  10
ATOM     10  C   UNL     1     -24.789  13.228 -29.811  1.00  0.00     0.035 C 
BRANCH  10  11
ATOM     11  C   UNL     1     -25.775  14.349 -30.150  1.00  0.00     0.079 C 
BRANCH  11  12
ATOM     12  C   UNL     1     -25.040  15.595 -30.573  1.00  0.00     0.130 C 
ATOM     13  O   UNL     1     -23.929  15.497 -31.075  1.00  0.00    -0.300 OA
ATOM     14  C   UNL     1     -25.635  16.958 -30.381  1.00  0.00     0.087 C 
ENDBRANCH  11  12
ENDBRANCH  10  11
ENDBRANCH   2  10
TORSDOF 6
ENDMDL
MODEL 9
REMARK VINA RESULT:    -4.714     11.507     13.480
REMARK INTER + INTRA:          -7.102
REMARK INTER:                  -5.968
REMARK INTRA:                  -1.134
REMARK UNBOUND:                -0.734
REMARK SMILES CC(=O)CCC=C(C)CCC=C(C)C
REMARK SMILES IDX 7 1 6 2 8 3 9 4 10 5 11 6 13 7 12 8 14 9 5 10 4 11 2 12 3 13
REMARK SMILES IDX 1 14
REMARK H PARENT
REMARK Flexibility Score: inf
ROOT
ATOM      1  C   UNL     1     -15.619  12.335 -29.086  1.00  0.00    -0.077 C 
ATOM      2  C   UNL     1     -14.383  11.954 -28.695  1.00  0.00    -0.028 C 
ATOM      3  C   UNL     1     -16.573  13.011 -28.130  1.00  0.00     0.039 C 
ENDROOT
BRANCH   1   4
ATOM      4  C   UNL     1     -16.051  12.089 -30.516  1.00  0.00     0.034 C 
BRANCH   4   5
ATOM      5  C   UNL     1     -16.012  13.387 -31.329  1.00  0.00     0.032 C 
BRANCH   5   6
ATOM      6  C   UNL     1     -14.665  13.583 -31.983  1.00  0.00    -0.028 C 
ATOM      7  C   UNL     1     -14.167  15.576 -30.563  1.00  0.00     0.039 C 
ATOM      8  C   UNL     1     -13.818  14.576 -31.640  1.00  0.00    -0.080 C 
ATOM      9  C   UNL     1     -12.497  14.682 -32.358  1.00  0.00     0.039 C 
ENDBRANCH   5   6
ENDBRANCH   4   5
ENDBRANCH   1   4
BRANCH   2  10
ATOM     10  C   UNL     1     -13.863  12.156 -27.291  1.00  0.00     0.035 C 
BRANCH  10  11
ATOM     11  C   UNL     1     -12.333  12.127 -27.258  1.00  0.00     0.079 C 
BRANCH  11  12
ATOM     12  C   UNL     1     -11.767  13.486 -27.583  1.00  0.00     0.130 C 
ATOM     13  O   UNL     1     -11.731  14.346 -26.714  1.00  0.00    -0.300 OA
ATOM     14  C   UNL     1     -11.258  13.813 -28.954  1.00  0.00     0.087 C 
ENDBRANCH  11  12
ENDBRANCH  10  11
ENDBRANCH   2  10
TORSDOF 6
ENDMDL
