MODEL 1
REMARK VINA RESULT:    -4.572      0.000      0.000
REMARK INTER + INTRA:          -5.500
REMARK INTER:                  -5.374
REMARK INTRA:                  -0.126
REMARK UNBOUND:                -0.126
REMARK SMILES O=C([O-])C=Cc1ccc(O)c(O)c1
REMARK SMILES IDX 6 1 13 2 7 3 11 4 8 5 9 6 5 7 4 8 2 9 1 10 3 11 12 12 10 14
REMARK H PARENT 12 13 10 15
REMARK Flexibility Score: inf
ROOT
ATOM      1  C   UNL     1     137.746 147.003 159.370  1.00  0.00    -0.022 A 
ATOM      2  C   UNL     1     138.649 147.711 158.551  1.00  0.00     0.058 A 
ATOM      3  C   UNL     1     137.891 147.080 160.765  1.00  0.00     0.012 A 
ATOM      4  C   UNL     1     139.692 148.458 159.120  1.00  0.00     0.157 A 
ATOM      5  C   UNL     1     138.930 147.823 161.331  1.00  0.00     0.051 A 
ATOM      6  C   UNL     1     139.834 148.510 160.516  1.00  0.00     0.157 A 
ENDROOT
BRANCH   1   7
ATOM      7  C   UNL     1     136.621 146.209 158.817  1.00  0.00     0.010 C 
ATOM      8  C   UNL     1     135.556 146.750 158.208  1.00  0.00     0.025 C 
BRANCH   8   9
ATOM      9  C   UNL     1     134.462 145.930 157.660  1.00  0.00     0.064 C 
ATOM     10  O   UNL     1     134.698 144.946 156.909  1.00  0.00    -0.545 OA
ATOM     11  O   UNL     1     133.148 146.246 157.978  1.00  0.00    -0.545 OA
ENDBRANCH   8   9
ENDBRANCH   1   7
BRANCH   4  12
ATOM     12  O   UNL     1     140.583 149.151 158.303  1.00  0.00    -0.504 OA
ATOM     13  H   UNL     1     141.085 148.690 157.553  1.00  0.00     0.293 HD
ENDBRANCH   4  12
BRANCH   6  14
ATOM     14  O   UNL     1     140.862 149.242 161.111  1.00  0.00    -0.504 OA
ATOM     15  H   UNL     1     140.757 150.221 161.350  1.00  0.00     0.293 HD
ENDBRANCH   6  14
TORSDOF 4
ENDMDL
MODEL 2
REMARK VINA RESULT:    -4.551      0.919      1.991
REMARK INTER + INTRA:          -5.475
REMARK INTER:                  -5.350
REMARK INTRA:                  -0.125
REMARK UNBOUND:                -0.126
REMARK SMILES O=C([O-])C=Cc1ccc(O)c(O)c1
REMARK SMILES IDX 6 1 13 2 7 3 11 4 8 5 9 6 5 7 4 8 2 9 1 10 3 11 12 12 10 14
REMARK H PARENT 12 13 10 15
REMARK Flexibility Score: inf
ROOT
ATOM      1  C   UNL     1     137.935 146.918 158.735  1.00  0.00    -0.022 A 
ATOM      2  C   UNL     1     138.058 147.786 159.838  1.00  0.00     0.058 A 
ATOM      3  C   UNL     1     139.033 146.752 157.876  1.00  0.00     0.012 A 
ATOM      4  C   UNL     1     139.251 148.493 160.060  1.00  0.00     0.157 A 
ATOM      5  C   UNL     1     140.220 147.456 158.095  1.00  0.00     0.051 A 
ATOM      6  C   UNL     1     140.334 148.329 159.181  1.00  0.00     0.157 A 
ENDROOT
BRANCH   1   7
ATOM      7  C   UNL     1     136.700 146.140 158.465  1.00  0.00     0.010 C 
ATOM      8  C   UNL     1     135.624 146.643 157.842  1.00  0.00     0.025 C 
BRANCH   8   9
ATOM      9  C   UNL     1     134.419 145.838 157.581  1.00  0.00     0.064 C 
ATOM     10  O   UNL     1     133.278 146.236 157.939  1.00  0.00    -0.545 OA
ATOM     11  O   UNL     1     134.542 144.619 156.927  1.00  0.00    -0.545 OA
ENDBRANCH   8   9
ENDBRANCH   1   7
BRANCH   4  12
ATOM     12  O   UNL     1     139.363 149.353 161.151  1.00  0.00    -0.504 OA
ATOM     13  H   UNL     1     140.261 149.568 161.569  1.00  0.00     0.293 HD
ENDBRANCH   4  12
BRANCH   6  14
ATOM     14  O   UNL     1     141.530 149.020 159.373  1.00  0.00    -0.504 OA
ATOM     15  H   UNL     1     141.950 149.581 158.642  1.00  0.00     0.293 HD
ENDBRANCH   6  14
TORSDOF 4
ENDMDL
MODEL 3
REMARK VINA RESULT:    -4.520      4.416      6.054
REMARK INTER + INTRA:          -5.438
REMARK INTER:                  -5.304
REMARK INTRA:                  -0.134
REMARK UNBOUND:                -0.126
REMARK SMILES O=C([O-])C=Cc1ccc(O)c(O)c1
REMARK SMILES IDX 6 1 13 2 7 3 11 4 8 5 9 6 5 7 4 8 2 9 1 10 3 11 12 12 10 14
REMARK H PARENT 12 13 10 15
REMARK Flexibility Score: inf
ROOT
ATOM      1  C   UNL     1     140.966 146.207 156.660  1.00  0.00    -0.022 A 
ATOM      2  C   UNL     1     142.159 145.467 156.787  1.00  0.00     0.058 A 
ATOM      3  C   UNL     1     140.572 146.647 155.386  1.00  0.00     0.012 A 
ATOM      4  C   UNL     1     142.953 145.196 155.661  1.00  0.00     0.157 A 
ATOM      5  C   UNL     1     141.363 146.378 154.266  1.00  0.00     0.051 A 
ATOM      6  C   UNL     1     142.553 145.658 154.397  1.00  0.00     0.157 A 
ENDROOT
BRANCH   1   7
ATOM      7  C   UNL     1     140.087 146.509 157.817  1.00  0.00     0.010 C 
ATOM      8  C   UNL     1     139.884 147.745 158.296  1.00  0.00     0.025 C 
BRANCH   8   9
ATOM      9  C   UNL     1     138.996 148.009 159.440  1.00  0.00     0.064 C 
ATOM     10  O   UNL     1     139.332 148.804 160.358  1.00  0.00    -0.545 OA
ATOM     11  O   UNL     1     137.764 147.372 159.507  1.00  0.00    -0.545 OA
ENDBRANCH   8   9
ENDBRANCH   1   7
BRANCH   4  12
ATOM     12  O   UNL     1     144.133 144.467 155.797  1.00  0.00    -0.504 OA
ATOM     13  H   UNL     1     144.562 144.312 156.702  1.00  0.00     0.293 HD
ENDBRANCH   4  12
BRANCH   6  14
ATOM     14  O   UNL     1     143.323 145.407 153.261  1.00  0.00    -0.504 OA
ATOM     15  H   UNL     1     144.190 145.898 153.079  1.00  0.00     0.293 HD
ENDBRANCH   6  14
TORSDOF 4
ENDMDL
MODEL 4
REMARK VINA RESULT:    -4.476      3.570      5.023
REMARK INTER + INTRA:          -5.387
REMARK INTER:                  -5.258
REMARK INTRA:                  -0.129
REMARK UNBOUND:                -0.126
REMARK SMILES O=C([O-])C=Cc1ccc(O)c(O)c1
REMARK SMILES IDX 6 1 13 2 7 3 11 4 8 5 9 6 5 7 4 8 2 9 1 10 3 11 12 12 10 14
REMARK H PARENT 12 13 10 15
REMARK Flexibility Score: inf
ROOT
ATOM      1  C   UNL     1     139.992 146.840 157.561  1.00  0.00    -0.022 A 
ATOM      2  C   UNL     1     138.635 146.825 157.940  1.00  0.00     0.058 A 
ATOM      3  C   UNL     1     140.910 147.550 158.353  1.00  0.00     0.012 A 
ATOM      4  C   UNL     1     138.203 147.529 159.075  1.00  0.00     0.157 A 
ATOM      5  C   UNL     1     140.480 148.252 159.482  1.00  0.00     0.051 A 
ATOM      6  C   UNL     1     139.131 148.248 159.846  1.00  0.00     0.157 A 
ENDROOT
BRANCH   1   7
ATOM      7  C   UNL     1     140.499 146.103 156.377  1.00  0.00     0.010 C 
ATOM      8  C   UNL     1     140.915 146.699 155.250  1.00  0.00     0.025 C 
BRANCH   8   9
ATOM      9  C   UNL     1     141.423 145.935 154.098  1.00  0.00     0.064 C 
ATOM     10  O   UNL     1     142.658 145.859 153.860  1.00  0.00    -0.545 OA
ATOM     11  O   UNL     1     140.525 145.286 153.261  1.00  0.00    -0.545 OA
ENDBRANCH   8   9
ENDBRANCH   1   7
BRANCH   4  12
ATOM     12  O   UNL     1     136.858 147.512 159.439  1.00  0.00    -0.504 OA
ATOM     13  H   UNL     1     136.299 148.358 159.450  1.00  0.00     0.293 HD
ENDBRANCH   4  12
BRANCH   6  14
ATOM     14  O   UNL     1     138.732 148.960 160.977  1.00  0.00    -0.504 OA
ATOM     15  H   UNL     1     137.974 148.646 161.571  1.00  0.00     0.293 HD
ENDBRANCH   6  14
TORSDOF 4
ENDMDL
MODEL 5
REMARK VINA RESULT:    -4.465      3.328      4.878
REMARK INTER + INTRA:          -5.373
REMARK INTER:                  -5.249
REMARK INTRA:                  -0.124
REMARK UNBOUND:                -0.126
REMARK SMILES O=C([O-])C=Cc1ccc(O)c(O)c1
REMARK SMILES IDX 6 1 13 2 7 3 11 4 8 5 9 6 5 7 4 8 2 9 1 10 3 11 12 12 10 14
REMARK H PARENT 12 13 10 15
REMARK Flexibility Score: inf
ROOT
ATOM      1  C   UNL     1     140.009 146.889 157.657  1.00  0.00    -0.022 A 
ATOM      2  C   UNL     1     140.917 147.624 158.446  1.00  0.00     0.058 A 
ATOM      3  C   UNL     1     138.651 146.880 158.015  1.00  0.00     0.012 A 
ATOM      4  C   UNL     1     140.475 148.314 159.586  1.00  0.00     0.157 A 
ATOM      5  C   UNL     1     138.211 147.565 159.150  1.00  0.00     0.051 A 
ATOM      6  C   UNL     1     139.116 148.280 159.940  1.00  0.00     0.157 A 
ENDROOT
BRANCH   1   7
ATOM      7  C   UNL     1     140.426 146.153 156.438  1.00  0.00     0.010 C 
ATOM      8  C   UNL     1     140.925 146.747 155.344  1.00  0.00     0.025 C 
BRANCH   8   9
ATOM      9  C   UNL     1     141.339 145.984 154.155  1.00  0.00     0.064 C 
ATOM     10  O   UNL     1     140.495 145.379 153.440  1.00  0.00    -0.545 OA
ATOM     11  O   UNL     1     142.684 145.930 153.813  1.00  0.00    -0.545 OA
ENDBRANCH   8   9
ENDBRANCH   1   7
BRANCH   4  12
ATOM     12  O   UNL     1     141.380 149.035 160.363  1.00  0.00    -0.504 OA
ATOM     13  H   UNL     1     141.757 149.923 160.053  1.00  0.00     0.293 HD
ENDBRANCH   4  12
BRANCH   6  14
ATOM     14  O   UNL     1     138.647 148.953 161.068  1.00  0.00    -0.504 OA
ATOM     15  H   UNL     1     138.622 148.518 161.982  1.00  0.00     0.293 HD
ENDBRANCH   6  14
TORSDOF 4
ENDMDL
MODEL 6
REMARK VINA RESULT:    -4.282      4.859      5.948
REMARK INTER + INTRA:          -5.158
REMARK INTER:                  -5.009
REMARK INTRA:                  -0.150
REMARK UNBOUND:                -0.126
REMARK SMILES O=C([O-])C=Cc1ccc(O)c(O)c1
REMARK SMILES IDX 6 1 13 2 7 3 11 4 8 5 9 6 5 7 4 8 2 9 1 10 3 11 12 12 10 14
REMARK H PARENT 12 13 10 15
REMARK Flexibility Score: inf
ROOT
ATOM      1  C   UNL     1     141.298 146.072 156.207  1.00  0.00    -0.022 A 
ATOM      2  C   UNL     1     141.672 146.198 154.854  1.00  0.00     0.058 A 
ATOM      3  C   UNL     1     142.092 145.290 157.061  1.00  0.00     0.012 A 
ATOM      4  C   UNL     1     142.807 145.532 154.363  1.00  0.00     0.157 A 
ATOM      5  C   UNL     1     143.220 144.626 156.572  1.00  0.00     0.051 A 
ATOM      6  C   UNL     1     143.580 144.740 155.226  1.00  0.00     0.157 A 
ENDROOT
BRANCH   1   7
ATOM      7  C   UNL     1     140.115 146.765 156.775  1.00  0.00     0.010 C 
ATOM      8  C   UNL     1     139.615 146.508 157.993  1.00  0.00     0.025 C 
BRANCH   8   9
ATOM      9  C   UNL     1     138.447 147.225 158.530  1.00  0.00     0.064 C 
ATOM     10  O   UNL     1     138.569 148.072 159.455  1.00  0.00    -0.545 OA
ATOM     11  O   UNL     1     137.187 146.963 158.007  1.00  0.00    -0.545 OA
ENDBRANCH   8   9
ENDBRANCH   1   7
BRANCH   4  12
ATOM     12  O   UNL     1     143.167 145.659 153.022  1.00  0.00    -0.504 OA
ATOM     13  H   UNL     1     143.240 144.853 152.412  1.00  0.00     0.293 HD
ENDBRANCH   4  12
BRANCH   6  14
ATOM     14  O   UNL     1     144.711 144.064 154.767  1.00  0.00    -0.504 OA
ATOM     15  H   UNL     1     145.590 144.538 154.601  1.00  0.00     0.293 HD
ENDBRANCH   6  14
TORSDOF 4
ENDMDL
MODEL 7
REMARK VINA RESULT:    -4.161      2.734      4.056
REMARK INTER + INTRA:          -5.016
REMARK INTER:                  -4.877
REMARK INTRA:                  -0.140
REMARK UNBOUND:                -0.126
REMARK SMILES O=C([O-])C=Cc1ccc(O)c(O)c1
REMARK SMILES IDX 6 1 13 2 7 3 11 4 8 5 9 6 5 7 4 8 2 9 1 10 3 11 12 12 10 14
REMARK H PARENT 12 13 10 15
REMARK Flexibility Score: inf
ROOT
ATOM      1  C   UNL     1     138.817 148.442 161.746  1.00  0.00    -0.022 A 
ATOM      2  C   UNL     1     139.027 149.765 162.181  1.00  0.00     0.058 A 
ATOM      3  C   UNL     1     138.644 147.431 162.705  1.00  0.00     0.012 A 
ATOM      4  C   UNL     1     139.087 150.064 163.552  1.00  0.00     0.157 A 
ATOM      5  C   UNL     1     138.706 147.728 164.069  1.00  0.00     0.051 A 
ATOM      6  C   UNL     1     138.930 149.039 164.498  1.00  0.00     0.157 A 
ENDROOT
BRANCH   1   7
ATOM      7  C   UNL     1     138.733 148.078 160.310  1.00  0.00     0.010 C 
ATOM      8  C   UNL     1     137.739 147.348 159.783  1.00  0.00     0.025 C 
BRANCH   8   9
ATOM      9  C   UNL     1     137.682 147.016 158.350  1.00  0.00     0.064 C 
ATOM     10  O   UNL     1     136.580 146.930 157.743  1.00  0.00    -0.545 OA
ATOM     11  O   UNL     1     138.863 146.795 157.653  1.00  0.00    -0.545 OA
ENDBRANCH   8   9
ENDBRANCH   1   7
BRANCH   4  12
ATOM     12  O   UNL     1     139.299 151.376 163.974  1.00  0.00    -0.504 OA
ATOM     13  H   UNL     1     140.222 151.794 163.966  1.00  0.00     0.293 HD
ENDBRANCH   4  12
BRANCH   6  14
ATOM     14  O   UNL     1     138.988 149.304 165.866  1.00  0.00    -0.504 OA
ATOM     15  H   UNL     1     138.160 149.521 166.408  1.00  0.00     0.293 HD
ENDBRANCH   6  14
TORSDOF 4
ENDMDL
MODEL 8
REMARK VINA RESULT:    -4.078      1.520      6.184
REMARK INTER + INTRA:          -4.919
REMARK INTER:                  -4.782
REMARK INTRA:                  -0.137
REMARK UNBOUND:                -0.126
REMARK SMILES O=C([O-])C=Cc1ccc(O)c(O)c1
REMARK SMILES IDX 6 1 13 2 7 3 11 4 8 5 9 6 5 7 4 8 2 9 1 10 3 11 12 12 10 14
REMARK H PARENT 12 13 10 15
REMARK Flexibility Score: inf
ROOT
ATOM      1  C   UNL     1     136.084 146.507 159.113  1.00  0.00    -0.022 A 
ATOM      2  C   UNL     1     135.623 145.424 159.888  1.00  0.00     0.058 A 
ATOM      3  C   UNL     1     135.340 146.901 157.988  1.00  0.00     0.012 A 
ATOM      4  C   UNL     1     134.455 144.734 159.528  1.00  0.00     0.157 A 
ATOM      5  C   UNL     1     134.178 146.214 157.629  1.00  0.00     0.051 A 
ATOM      6  C   UNL     1     133.732 145.131 158.391  1.00  0.00     0.157 A 
ENDROOT
BRANCH   1   7
ATOM      7  C   UNL     1     137.306 147.275 159.459  1.00  0.00     0.010 C 
ATOM      8  C   UNL     1     138.363 147.399 158.644  1.00  0.00     0.025 C 
BRANCH   8   9
ATOM      9  C   UNL     1     139.555 148.179 159.016  1.00  0.00     0.064 C 
ATOM     10  O   UNL     1     139.756 148.534 160.209  1.00  0.00    -0.545 OA
ATOM     11  O   UNL     1     140.475 148.527 158.037  1.00  0.00    -0.545 OA
ENDBRANCH   8   9
ENDBRANCH   1   7
BRANCH   4  12
ATOM     12  O   UNL     1     134.009 143.662 160.299  1.00  0.00    -0.504 OA
ATOM     13  H   UNL     1     133.933 142.727 159.915  1.00  0.00     0.293 HD
ENDBRANCH   4  12
BRANCH   6  14
ATOM     14  O   UNL     1     132.570 144.463 158.006  1.00  0.00    -0.504 OA
ATOM     15  H   UNL     1     132.549 143.832 157.213  1.00  0.00     0.293 HD
ENDBRANCH   6  14
TORSDOF 4
ENDMDL
MODEL 9
REMARK VINA RESULT:    -4.050      7.347      9.638
REMARK INTER + INTRA:          -4.886
REMARK INTER:                  -4.764
REMARK INTRA:                  -0.122
REMARK UNBOUND:                -0.126
REMARK SMILES O=C([O-])C=Cc1ccc(O)c(O)c1
REMARK SMILES IDX 6 1 13 2 7 3 11 4 8 5 9 6 5 7 4 8 2 9 1 10 3 11 12 12 10 14
REMARK H PARENT 12 13 10 15
REMARK Flexibility Score: inf
ROOT
ATOM      1  C   UNL     1     144.131 144.385 155.278  1.00  0.00    -0.022 A 
ATOM      2  C   UNL     1     143.219 144.815 156.262  1.00  0.00     0.058 A 
ATOM      3  C   UNL     1     143.896 144.733 153.937  1.00  0.00     0.012 A 
ATOM      4  C   UNL     1     142.081 145.556 155.906  1.00  0.00     0.157 A 
ATOM      5  C   UNL     1     142.763 145.468 153.582  1.00  0.00     0.051 A 
ATOM      6  C   UNL     1     141.852 145.879 154.559  1.00  0.00     0.157 A 
ENDROOT
BRANCH   1   7
ATOM      7  C   UNL     1     145.354 143.611 155.606  1.00  0.00     0.010 C 
ATOM      8  C   UNL     1     146.077 143.797 156.720  1.00  0.00     0.025 C 
BRANCH   8   9
ATOM      9  C   UNL     1     147.279 143.001 157.019  1.00  0.00     0.064 C 
ATOM     10  O   UNL     1     147.382 142.353 158.095  1.00  0.00    -0.545 OA
ATOM     11  O   UNL     1     148.317 142.963 156.098  1.00  0.00    -0.545 OA
ENDBRANCH   8   9
ENDBRANCH   1   7
BRANCH   4  12
ATOM     12  O   UNL     1     141.182 145.973 156.886  1.00  0.00    -0.504 OA
ATOM     13  H   UNL     1     140.208 145.694 156.867  1.00  0.00     0.293 HD
ENDBRANCH   4  12
BRANCH   6  14
ATOM     14  O   UNL     1     140.728 146.611 154.173  1.00  0.00    -0.504 OA
ATOM     15  H   UNL     1     140.584 146.911 153.217  1.00  0.00     0.293 HD
ENDBRANCH   6  14
TORSDOF 4
ENDMDL
