MODEL 1
REMARK VINA RESULT:    -3.607      0.000      0.000
REMARK INTER + INTRA:          -4.537
REMARK INTER:                  -4.451
REMARK INTRA:                  -0.086
REMARK UNBOUND:                -0.086
REMARK SMILES CCCCCC(=O)[O-]
REMARK SMILES IDX 4 1 5 2 6 3 7 4 8 5 3 6 2 7 1 8
REMARK H PARENT
REMARK Flexibility Score: inf
ROOT
ATOM      1  C   UNL     1      -4.184  -1.399  -6.355  1.00  0.00     0.006 C 
ENDROOT
BRANCH   1   2
ATOM      2  C   UNL     1      -3.601  -0.237  -7.172  1.00  0.00     0.053 C 
BRANCH   2   3
ATOM      3  C   UNL     1      -2.244  -0.559  -7.720  1.00  0.00     0.041 C 
ATOM      4  O   UNL     1      -2.029  -1.674  -8.263  1.00  0.00    -0.550 OA
ATOM      5  O   UNL     1      -1.227   0.385  -7.660  1.00  0.00    -0.550 OA
ENDBRANCH   2   3
ENDBRANCH   1   2
BRANCH   1   6
ATOM      6  C   UNL     1      -5.378  -1.014  -5.457  1.00  0.00     0.000 C 
BRANCH   6   7
ATOM      7  C   UNL     1      -5.107   0.147  -4.483  1.00  0.00    -0.003 C 
ATOM      8  C   UNL     1      -6.373   0.907  -4.090  1.00  0.00     0.004 C 
ENDBRANCH   6   7
ENDBRANCH   1   6
TORSDOF 4
ENDMDL
MODEL 2
REMARK VINA RESULT:    -3.556      0.144      1.150
REMARK INTER + INTRA:          -4.474
REMARK INTER:                  -4.401
REMARK INTRA:                  -0.074
REMARK UNBOUND:                -0.086
REMARK SMILES CCCCCC(=O)[O-]
REMARK SMILES IDX 4 1 5 2 6 3 7 4 8 5 3 6 2 7 1 8
REMARK H PARENT
REMARK Flexibility Score: inf
ROOT
ATOM      1  C   UNL     1      -4.061  -1.263  -6.330  1.00  0.00     0.006 C 
ENDROOT
BRANCH   1   2
ATOM      2  C   UNL     1      -3.571  -0.158  -7.278  1.00  0.00     0.053 C 
BRANCH   2   3
ATOM      3  C   UNL     1      -2.192  -0.432  -7.794  1.00  0.00     0.041 C 
ATOM      4  O   UNL     1      -1.269   0.404  -7.608  1.00  0.00    -0.550 OA
ATOM      5  O   UNL     1      -1.918  -1.625  -8.451  1.00  0.00    -0.550 OA
ENDBRANCH   2   3
ENDBRANCH   1   2
BRANCH   1   6
ATOM      6  C   UNL     1      -5.344  -0.910  -5.546  1.00  0.00     0.000 C 
BRANCH   6   7
ATOM      7  C   UNL     1      -5.143   0.085  -4.390  1.00  0.00    -0.003 C 
ATOM      8  C   UNL     1      -6.386   0.925  -4.100  1.00  0.00     0.004 C 
ENDBRANCH   6   7
ENDBRANCH   1   6
TORSDOF 4
ENDMDL
MODEL 3
REMARK VINA RESULT:    -3.290     13.104     14.027
REMARK INTER + INTRA:          -4.146
REMARK INTER:                  -4.053
REMARK INTRA:                  -0.093
REMARK UNBOUND:                -0.086
REMARK SMILES CCCCCC(=O)[O-]
REMARK SMILES IDX 4 1 5 2 6 3 7 4 8 5 3 6 2 7 1 8
REMARK H PARENT
REMARK Flexibility Score: inf
ROOT
ATOM      1  C   UNL     1      -3.630  -1.079   8.065  1.00  0.00     0.006 C 
ENDROOT
BRANCH   1   2
ATOM      2  C   UNL     1      -3.804   0.042   7.029  1.00  0.00     0.053 C 
BRANCH   2   3
ATOM      3  C   UNL     1      -3.153   1.318   7.467  1.00  0.00     0.041 C 
ATOM      4  O   UNL     1      -2.089   1.288   8.140  1.00  0.00    -0.550 OA
ATOM      5  O   UNL     1      -3.702   2.540   7.101  1.00  0.00    -0.550 OA
ENDBRANCH   2   3
ENDBRANCH   1   2
BRANCH   1   6
ATOM      6  C   UNL     1      -4.001  -2.486   7.554  1.00  0.00     0.000 C 
BRANCH   6   7
ATOM      7  C   UNL     1      -5.288  -2.550   6.711  1.00  0.00    -0.003 C 
ATOM      8  C   UNL     1      -5.247  -3.636   5.637  1.00  0.00     0.004 C 
ENDBRANCH   6   7
ENDBRANCH   1   6
TORSDOF 4
ENDMDL
MODEL 4
REMARK VINA RESULT:    -3.287      2.440      2.745
REMARK INTER + INTRA:          -4.142
REMARK INTER:                  -4.062
REMARK INTRA:                  -0.080
REMARK UNBOUND:                -0.086
REMARK SMILES CCCCCC(=O)[O-]
REMARK SMILES IDX 4 1 5 2 6 3 7 4 8 5 3 6 2 7 1 8
REMARK H PARENT
REMARK Flexibility Score: inf
ROOT
ATOM      1  C   UNL     1      -4.526  -0.645  -6.484  1.00  0.00     0.006 C 
ENDROOT
BRANCH   1   2
ATOM      2  C   UNL     1      -3.687  -1.795  -7.061  1.00  0.00     0.053 C 
BRANCH   2   3
ATOM      3  C   UNL     1      -4.449  -3.085  -7.093  1.00  0.00     0.041 C 
ATOM      4  O   UNL     1      -3.906  -4.150  -6.697  1.00  0.00    -0.550 OA
ATOM      5  O   UNL     1      -5.768  -3.104  -7.528  1.00  0.00    -0.550 OA
ENDBRANCH   2   3
ENDBRANCH   1   2
BRANCH   1   6
ATOM      6  C   UNL     1      -4.985  -0.858  -5.026  1.00  0.00     0.000 C 
BRANCH   6   7
ATOM      7  C   UNL     1      -5.169   0.434  -4.210  1.00  0.00    -0.003 C 
ATOM      8  C   UNL     1      -6.623   0.894  -4.136  1.00  0.00     0.004 C 
ENDBRANCH   6   7
ENDBRANCH   1   6
TORSDOF 4
ENDMDL
MODEL 5
REMARK VINA RESULT:    -3.267     12.320     13.485
REMARK INTER + INTRA:          -4.117
REMARK INTER:                  -4.041
REMARK INTRA:                  -0.076
REMARK UNBOUND:                -0.086
REMARK SMILES CCCCCC(=O)[O-]
REMARK SMILES IDX 4 1 5 2 6 3 7 4 8 5 3 6 2 7 1 8
REMARK H PARENT
REMARK Flexibility Score: inf
ROOT
ATOM      1  C   UNL     1      -3.883  -2.422   7.036  1.00  0.00     0.006 C 
ENDROOT
BRANCH   1   2
ATOM      2  C   UNL     1      -3.935  -1.199   7.963  1.00  0.00     0.053 C 
BRANCH   2   3
ATOM      3  C   UNL     1      -3.741   0.084   7.213  1.00  0.00     0.041 C 
ATOM      4  O   UNL     1      -4.629   0.494   6.420  1.00  0.00    -0.550 OA
ATOM      5  O   UNL     1      -2.596   0.843   7.417  1.00  0.00    -0.550 OA
ENDBRANCH   2   3
ENDBRANCH   1   2
BRANCH   1   6
ATOM      6  C   UNL     1      -5.260  -3.034   6.706  1.00  0.00     0.000 C 
BRANCH   6   7
ATOM      7  C   UNL     1      -5.298  -3.896   5.431  1.00  0.00    -0.003 C 
ATOM      8  C   UNL     1      -6.519  -3.618   4.557  1.00  0.00     0.004 C 
ENDBRANCH   6   7
ENDBRANCH   1   6
TORSDOF 4
ENDMDL
MODEL 6
REMARK VINA RESULT:    -3.257      2.983      4.559
REMARK INTER + INTRA:          -4.105
REMARK INTER:                  -3.991
REMARK INTRA:                  -0.113
REMARK UNBOUND:                -0.086
REMARK SMILES CCCCCC(=O)[O-]
REMARK SMILES IDX 4 1 5 2 6 3 7 4 8 5 3 6 2 7 1 8
REMARK H PARENT
REMARK Flexibility Score: inf
ROOT
ATOM      1  C   UNL     1      -5.069  -0.128  -6.959  1.00  0.00     0.006 C 
ENDROOT
BRANCH   1   2
ATOM      2  C   UNL     1      -4.710  -0.938  -5.703  1.00  0.00     0.053 C 
BRANCH   2   3
ATOM      3  C   UNL     1      -5.305  -0.344  -4.463  1.00  0.00     0.041 C 
ATOM      4  O   UNL     1      -4.731   0.616  -3.883  1.00  0.00    -0.550 OA
ATOM      5  O   UNL     1      -6.509  -0.828  -3.968  1.00  0.00    -0.550 OA
ENDBRANCH   2   3
ENDBRANCH   1   2
BRANCH   1   6
ATOM      6  C   UNL     1      -3.941  -0.046  -8.010  1.00  0.00     0.000 C 
BRANCH   6   7
ATOM      7  C   UNL     1      -2.605  -0.675  -7.577  1.00  0.00    -0.003 C 
ATOM      8  C   UNL     1      -1.409   0.249  -7.800  1.00  0.00     0.004 C 
ENDBRANCH   6   7
ENDBRANCH   1   6
TORSDOF 4
ENDMDL
MODEL 7
REMARK VINA RESULT:    -3.223     12.666     13.677
REMARK INTER + INTRA:          -4.063
REMARK INTER:                  -4.014
REMARK INTRA:                  -0.049
REMARK UNBOUND:                -0.086
REMARK SMILES CCCCCC(=O)[O-]
REMARK SMILES IDX 4 1 5 2 6 3 7 4 8 5 3 6 2 7 1 8
REMARK H PARENT
REMARK Flexibility Score: inf
ROOT
ATOM      1  C   UNL     1      -4.009  -2.344   7.139  1.00  0.00     0.006 C 
ENDROOT
BRANCH   1   2
ATOM      2  C   UNL     1      -5.430  -2.421   6.560  1.00  0.00     0.053 C 
BRANCH   2   3
ATOM      3  C   UNL     1      -5.657  -3.686   5.791  1.00  0.00     0.041 C 
ATOM      4  O   UNL     1      -5.098  -3.858   4.676  1.00  0.00    -0.550 OA
ATOM      5  O   UNL     1      -6.458  -4.689   6.322  1.00  0.00    -0.550 OA
ENDBRANCH   2   3
ENDBRANCH   1   2
BRANCH   1   6
ATOM      6  C   UNL     1      -3.729  -1.083   7.982  1.00  0.00     0.000 C 
BRANCH   6   7
ATOM      7  C   UNL     1      -3.349   0.168   7.170  1.00  0.00    -0.003 C 
ATOM      8  C   UNL     1      -2.549   1.187   7.979  1.00  0.00     0.004 C 
ENDBRANCH   6   7
ENDBRANCH   1   6
TORSDOF 4
ENDMDL
MODEL 8
REMARK VINA RESULT:    -3.162     14.248     14.854
REMARK INTER + INTRA:          -3.988
REMARK INTER:                  -3.910
REMARK INTRA:                  -0.078
REMARK UNBOUND:                -0.086
REMARK SMILES CCCCCC(=O)[O-]
REMARK SMILES IDX 4 1 5 2 6 3 7 4 8 5 3 6 2 7 1 8
REMARK H PARENT
REMARK Flexibility Score: inf
ROOT
ATOM      1  C   UNL     1      -3.266   0.285   7.202  1.00  0.00     0.006 C 
ENDROOT
BRANCH   1   2
ATOM      2  C   UNL     1      -3.694   1.755   7.329  1.00  0.00     0.053 C 
BRANCH   2   3
ATOM      3  C   UNL     1      -3.012   2.443   8.472  1.00  0.00     0.041 C 
ATOM      4  O   UNL     1      -3.235   3.660   8.702  1.00  0.00    -0.550 OA
ATOM      5  O   UNL     1      -2.159   1.729   9.304  1.00  0.00    -0.550 OA
ENDBRANCH   2   3
ENDBRANCH   1   2
BRANCH   1   6
ATOM      6  C   UNL     1      -4.433  -0.707   7.021  1.00  0.00     0.000 C 
BRANCH   6   7
ATOM      7  C   UNL     1      -4.070  -2.184   7.258  1.00  0.00    -0.003 C 
ATOM      8  C   UNL     1      -3.623  -2.467   8.692  1.00  0.00     0.004 C 
ENDBRANCH   6   7
ENDBRANCH   1   6
TORSDOF 4
ENDMDL
MODEL 9
REMARK VINA RESULT:    -3.138     12.697     13.760
REMARK INTER + INTRA:          -3.958
REMARK INTER:                  -3.828
REMARK INTRA:                  -0.130
REMARK UNBOUND:                -0.086
REMARK SMILES CCCCCC(=O)[O-]
REMARK SMILES IDX 4 1 5 2 6 3 7 4 8 5 3 6 2 7 1 8
REMARK H PARENT
REMARK Flexibility Score: inf
ROOT
ATOM      1  C   UNL     1      -3.892  -1.048   7.952  1.00  0.00     0.006 C 
ENDROOT
BRANCH   1   2
ATOM      2  C   UNL     1      -3.434   0.151   7.109  1.00  0.00     0.053 C 
BRANCH   2   3
ATOM      3  C   UNL     1      -4.521   1.168   6.940  1.00  0.00     0.041 C 
ATOM      4  O   UNL     1      -5.231   1.170   5.900  1.00  0.00    -0.550 OA
ATOM      5  O   UNL     1      -4.773   2.090   7.948  1.00  0.00    -0.550 OA
ENDBRANCH   2   3
ENDBRANCH   1   2
BRANCH   1   6
ATOM      6  C   UNL     1      -3.985  -2.379   7.175  1.00  0.00     0.000 C 
BRANCH   6   7
ATOM      7  C   UNL     1      -5.314  -2.603   6.432  1.00  0.00    -0.003 C 
ATOM      8  C   UNL     1      -5.265  -3.781   5.460  1.00  0.00     0.004 C 
ENDBRANCH   6   7
ENDBRANCH   1   6
TORSDOF 4
ENDMDL
