MODEL 1
REMARK VINA RESULT:    -4.038      0.000      0.000
REMARK INTER + INTRA:          -5.265
REMARK INTER:                  -5.690
REMARK INTRA:                   0.425
REMARK UNBOUND:                 0.425
REMARK SMILES CC1=CCC(=C(C)C)C(=O)CC(C)=CCC1
REMARK SMILES IDX 12 1 14 2 13 3 15 4 16 5 2 6 1 7 3 8 11 10 9 11 10 12 5 13
REMARK SMILES IDX 6 14 7 15 8 16 4 17
REMARK H PARENT
REMARK Flexibility Score: 60.00
ROOT
ATOM      1  C   UNL     1       4.718 -19.334 -37.273  1.00  0.00    -0.070 C 
ATOM      2  C   UNL     1       5.733 -19.004 -38.106  1.00  0.00    -0.027 C 
ATOM      3  C   UNL     1       4.226 -20.758 -37.284  1.00  0.00     0.039 C 
ENDROOT
BRANCH   2   4
ATOM      4  C   UNL     1       6.309 -17.617 -38.270  1.00  0.00     0.032 C 
BRANCH   4   5
ATOM      5  C   UNL     1       5.638 -16.856 -39.423  1.00  0.00     0.034 C 
BRANCH   5   6
ATOM      6  C   UNL     1       5.287 -15.416 -39.079  1.00  0.00    -0.077 C 
ATOM      7  C   UNL     1       6.363 -14.363 -39.164  1.00  0.00     0.039 C 
ATOM      8  C   UNL     1       4.055 -15.027 -38.678  1.00  0.00    -0.023 CG0
ATOM      9  G   UNL     1       2.837 -15.918 -38.597  1.00  0.00     0.000 G0
ENDBRANCH   5   6
ENDBRANCH   4   5
ENDBRANCH   2   4
BRANCH   1  10
ATOM     10  C   UNL     1       4.065 -18.339 -36.334  1.00  0.00     0.111 C 
BRANCH  10  11
ATOM     11  C   UNL     1       2.753 -17.855 -36.885  1.00  0.00     0.163 C 
ATOM     12  O   UNL     1       1.830 -18.685 -37.103  1.00  0.00    -0.294 OA
BRANCH  11  13
ATOM     13  C   UNL     1       2.530 -16.420 -37.199  1.00  0.00    -0.002 C 
ATOM     14  C   UNL     1       2.068 -15.572 -36.240  1.00  0.00    -0.069 C 
ATOM     15  C   UNL     1       1.885 -14.099 -36.526  1.00  0.00     0.039 C 
ATOM     16  C   UNL     1       1.683 -16.077 -34.867  1.00  0.00     0.039 C 
BRANCH  13  17
ATOM     17  C   UNL     1       2.824 -15.913 -38.607  1.00  0.00     0.066 CG0
ATOM     18  G   UNL     1       4.039 -15.018 -38.689  1.00  0.00     0.000 G0
ENDBRANCH  13  17
ENDBRANCH  11  13
ENDBRANCH  10  11
ENDBRANCH   1  10
TORSDOF 0
ENDMDL
MODEL 2
REMARK VINA RESULT:    -3.942      1.663      3.762
REMARK INTER + INTRA:          -5.129
REMARK INTER:                  -5.707
REMARK INTRA:                   0.577
REMARK UNBOUND:                 0.425
REMARK SMILES CC1=CCC(=C(C)C)C(=O)CC(C)=CCC1
REMARK SMILES IDX 12 1 14 2 13 3 15 4 16 5 2 6 1 7 3 8 11 10 9 11 10 12 5 13
REMARK SMILES IDX 6 14 7 15 8 16 4 17
REMARK H PARENT
REMARK Flexibility Score: 60.00
ROOT
ATOM      1  C   UNL     1       3.718 -16.279 -39.031  1.00  0.00    -0.070 C 
ATOM      2  C   UNL     1       4.814 -17.074 -39.080  1.00  0.00    -0.027 C 
ATOM      3  C   UNL     1       3.923 -14.801 -38.824  1.00  0.00     0.039 C 
ENDROOT
BRANCH   2   4
ATOM      4  C   UNL     1       4.793 -18.578 -39.219  1.00  0.00     0.032 C 
BRANCH   4   5
ATOM      5  C   UNL     1       5.404 -19.270 -37.991  1.00  0.00     0.034 C 
BRANCH   5   6
ATOM      6  C   UNL     1       4.378 -19.987 -37.125  1.00  0.00    -0.077 C 
ATOM      7  C   UNL     1       4.260 -21.487 -37.228  1.00  0.00     0.039 C 
ATOM      8  C   UNL     1       3.546 -19.346 -36.273  1.00  0.00    -0.023 CG0
ATOM      9  G   UNL     1       3.561 -17.863 -35.983  1.00  0.00     0.000 G0
ENDBRANCH   5   6
ENDBRANCH   4   5
ENDBRANCH   2   4
BRANCH   1  10
ATOM     10  C   UNL     1       2.306 -16.812 -39.178  1.00  0.00     0.111 C 
BRANCH  10  11
ATOM     11  C   UNL     1       1.869 -17.538 -37.936  1.00  0.00     0.163 C 
ATOM     12  O   UNL     1       1.068 -18.505 -38.036  1.00  0.00    -0.294 OA
BRANCH  11  13
ATOM     13  C   UNL     1       2.347 -17.124 -36.592  1.00  0.00    -0.002 C 
ATOM     14  C   UNL     1       1.731 -16.108 -35.928  1.00  0.00    -0.069 C 
ATOM     15  C   UNL     1       2.168 -15.707 -34.538  1.00  0.00     0.039 C 
ATOM     16  C   UNL     1       0.613 -15.316 -36.571  1.00  0.00     0.039 C 
BRANCH  13  17
ATOM     17  C   UNL     1       3.534 -17.851 -35.969  1.00  0.00     0.066 CG0
ATOM     18  G   UNL     1       3.562 -19.333 -36.264  1.00  0.00     0.000 G0
ENDBRANCH  13  17
ENDBRANCH  11  13
ENDBRANCH  10  11
ENDBRANCH   1  10
TORSDOF 0
ENDMDL
MODEL 3
REMARK VINA RESULT:    -3.872      1.488      3.661
REMARK INTER + INTRA:          -5.032
REMARK INTER:                  -5.298
REMARK INTRA:                   0.266
REMARK UNBOUND:                 0.425
REMARK SMILES CC1=CCC(=C(C)C)C(=O)CC(C)=CCC1
REMARK SMILES IDX 12 1 14 2 13 3 15 4 16 5 2 6 1 7 3 8 11 10 9 11 10 12 5 13
REMARK SMILES IDX 6 14 7 15 8 16 4 17
REMARK H PARENT
REMARK Flexibility Score: 60.00
ROOT
ATOM      1  C   UNL     1       3.984 -19.510 -37.395  1.00  0.00    -0.070 C 
ATOM      2  C   UNL     1       2.673 -19.373 -37.083  1.00  0.00    -0.027 C 
ATOM      3  C   UNL     1       4.452 -20.841 -37.923  1.00  0.00     0.039 C 
ENDROOT
BRANCH   2   4
ATOM      4  C   UNL     1       2.044 -18.135 -36.489  1.00  0.00     0.032 C 
BRANCH   4   5
ATOM      5  C   UNL     1       1.680 -17.107 -37.571  1.00  0.00     0.034 C 
BRANCH   5   6
ATOM      6  C   UNL     1       2.172 -15.700 -37.264  1.00  0.00    -0.077 C 
ATOM      7  C   UNL     1       1.560 -14.951 -36.107  1.00  0.00     0.039 C 
ATOM      8  C   UNL     1       3.125 -15.071 -37.990  1.00  0.00    -0.023 CG0
ATOM      9  G   UNL     1       3.899 -15.680 -39.136  1.00  0.00     0.000 G0
ENDBRANCH   5   6
ENDBRANCH   4   5
ENDBRANCH   2   4
BRANCH   1  10
ATOM     10  C   UNL     1       4.990 -18.387 -37.240  1.00  0.00     0.111 C 
BRANCH  10  11
ATOM     11  C   UNL     1       5.322 -17.770 -38.570  1.00  0.00     0.163 C 
ATOM     12  O   UNL     1       5.701 -18.510 -39.516  1.00  0.00    -0.294 OA
BRANCH  11  13
ATOM     13  C   UNL     1       5.234 -16.303 -38.784  1.00  0.00    -0.002 C 
ATOM     14  C   UNL     1       6.340 -15.521 -38.642  1.00  0.00    -0.069 C 
ATOM     15  C   UNL     1       6.282 -14.034 -38.905  1.00  0.00     0.039 C 
ATOM     16  C   UNL     1       7.656 -16.103 -38.175  1.00  0.00     0.039 C 
BRANCH  13  17
ATOM     17  C   UNL     1       3.892 -15.686 -39.162  1.00  0.00     0.066 CG0
ATOM     18  G   UNL     1       3.151 -15.079 -37.993  1.00  0.00     0.000 G0
ENDBRANCH  13  17
ENDBRANCH  11  13
ENDBRANCH  10  11
ENDBRANCH   1  10
TORSDOF 0
ENDMDL
MODEL 4
REMARK VINA RESULT:    -3.728      2.359      3.629
REMARK INTER + INTRA:          -4.828
REMARK INTER:                  -5.208
REMARK INTRA:                   0.380
REMARK UNBOUND:                 0.425
REMARK SMILES CC1=CCC(=C(C)C)C(=O)CC(C)=CCC1
REMARK SMILES IDX 12 1 14 2 13 3 15 4 16 5 2 6 1 7 3 8 11 10 9 11 10 12 5 13
REMARK SMILES IDX 6 14 7 15 8 16 4 17
REMARK H PARENT
REMARK Flexibility Score: 60.00
ROOT
ATOM      1  C   UNL     1       8.372 -17.652 -38.875  1.00  0.00    -0.070 C 
ATOM      2  C   UNL     1       8.839 -16.399 -39.089  1.00  0.00    -0.027 C 
ATOM      3  C   UNL     1       9.211 -18.590 -38.045  1.00  0.00     0.039 C 
ENDROOT
BRANCH   2   4
ATOM      4  C   UNL     1       8.163 -15.351 -39.941  1.00  0.00     0.032 C 
BRANCH   4   5
ATOM      5  C   UNL     1       6.943 -14.744 -39.232  1.00  0.00     0.034 C 
BRANCH   5   6
ATOM      6  C   UNL     1       5.667 -14.804 -40.060  1.00  0.00    -0.077 C 
ATOM      7  C   UNL     1       5.636 -14.117 -41.402  1.00  0.00     0.039 C 
ATOM      8  C   UNL     1       4.541 -15.428 -39.645  1.00  0.00    -0.023 CG0
ATOM      9  G   UNL     1       4.400 -16.226 -38.369  1.00  0.00     0.000 G0
ENDBRANCH   5   6
ENDBRANCH   4   5
ENDBRANCH   2   4
BRANCH   1  10
ATOM     10  C   UNL     1       7.049 -18.144 -39.427  1.00  0.00     0.111 C 
BRANCH  10  11
ATOM     11  C   UNL     1       6.018 -18.260 -38.340  1.00  0.00     0.163 C 
ATOM     12  O   UNL     1       6.321 -18.828 -37.257  1.00  0.00    -0.294 OA
BRANCH  11  13
ATOM     13  C   UNL     1       4.640 -17.735 -38.524  1.00  0.00    -0.002 C 
ATOM     14  C   UNL     1       3.621 -18.580 -38.843  1.00  0.00    -0.069 C 
ATOM     15  C   UNL     1       2.204 -18.073 -38.984  1.00  0.00     0.039 C 
ATOM     16  C   UNL     1       3.874 -20.048 -39.107  1.00  0.00     0.039 C 
BRANCH  13  17
ATOM     17  C   UNL     1       4.384 -16.242 -38.354  1.00  0.00     0.066 CG0
ATOM     18  G   UNL     1       4.539 -15.449 -39.632  1.00  0.00     0.000 G0
ENDBRANCH  13  17
ENDBRANCH  11  13
ENDBRANCH  10  11
ENDBRANCH   1  10
TORSDOF 0
ENDMDL
MODEL 5
REMARK VINA RESULT:    -3.694      1.773      3.528
REMARK INTER + INTRA:          -4.781
REMARK INTER:                  -5.239
REMARK INTRA:                   0.458
REMARK UNBOUND:                 0.425
REMARK SMILES CC1=CCC(=C(C)C)C(=O)CC(C)=CCC1
REMARK SMILES IDX 12 1 14 2 13 3 15 4 16 5 2 6 1 7 3 8 11 10 9 11 10 12 5 13
REMARK SMILES IDX 6 14 7 15 8 16 4 17
REMARK H PARENT
REMARK Flexibility Score: 60.00
ROOT
ATOM      1  C   UNL     1       6.275 -17.102 -39.047  1.00  0.00    -0.070 C 
ATOM      2  C   UNL     1       6.264 -18.358 -38.543  1.00  0.00    -0.027 C 
ATOM      3  C   UNL     1       6.991 -16.868 -40.352  1.00  0.00     0.039 C 
ENDROOT
BRANCH   2   4
ATOM      4  C   UNL     1       5.649 -18.762 -37.223  1.00  0.00     0.032 C 
BRANCH   4   5
ATOM      5  C   UNL     1       4.588 -19.858 -37.403  1.00  0.00     0.034 C 
BRANCH   5   6
ATOM      6  C   UNL     1       3.578 -19.553 -38.501  1.00  0.00    -0.077 C 
ATOM      7  C   UNL     1       3.482 -20.487 -39.680  1.00  0.00     0.039 C 
ATOM      8  C   UNL     1       2.768 -18.470 -38.486  1.00  0.00    -0.023 CG0
ATOM      9  G   UNL     1       2.671 -17.463 -37.363  1.00  0.00     0.000 G0
ENDBRANCH   5   6
ENDBRANCH   4   5
ENDBRANCH   2   4
BRANCH   1  10
ATOM     10  C   UNL     1       5.598 -15.932 -38.360  1.00  0.00     0.111 C 
BRANCH  10  11
ATOM     11  C   UNL     1       4.150 -15.839 -38.750  1.00  0.00     0.163 C 
ATOM     12  O   UNL     1       3.847 -15.568 -39.943  1.00  0.00    -0.294 OA
BRANCH  11  13
ATOM     13  C   UNL     1       3.068 -16.038 -37.752  1.00  0.00    -0.002 C 
ATOM     14  C   UNL     1       2.442 -14.965 -37.195  1.00  0.00    -0.069 C 
ATOM     15  C   UNL     1       1.304 -15.147 -36.217  1.00  0.00     0.039 C 
ATOM     16  C   UNL     1       2.888 -13.552 -37.502  1.00  0.00     0.039 C 
BRANCH  13  17
ATOM     17  C   UNL     1       2.670 -17.457 -37.361  1.00  0.00     0.066 CG0
ATOM     18  G   UNL     1       2.772 -18.451 -38.494  1.00  0.00     0.000 G0
ENDBRANCH  13  17
ENDBRANCH  11  13
ENDBRANCH  10  11
ENDBRANCH   1  10
TORSDOF 0
ENDMDL
MODEL 6
REMARK VINA RESULT:    -3.661      1.925      2.595
REMARK INTER + INTRA:          -4.734
REMARK INTER:                  -5.088
REMARK INTRA:                   0.355
REMARK UNBOUND:                 0.425
REMARK SMILES CC1=CCC(=C(C)C)C(=O)CC(C)=CCC1
REMARK SMILES IDX 12 1 14 2 13 3 15 4 16 5 2 6 1 7 3 8 11 10 9 11 10 12 5 13
REMARK SMILES IDX 6 14 7 15 8 16 4 17
REMARK H PARENT
REMARK Flexibility Score: 60.00
ROOT
ATOM      1  C   UNL     1       5.238 -18.466 -37.608  1.00  0.00    -0.070 C 
ATOM      2  C   UNL     1       6.566 -18.401 -37.867  1.00  0.00    -0.027 C 
ATOM      3  C   UNL     1       4.802 -18.968 -36.256  1.00  0.00     0.039 C 
ENDROOT
BRANCH   2   4
ATOM      4  C   UNL     1       7.177 -17.982 -39.183  1.00  0.00     0.032 C 
BRANCH   4   5
ATOM      5  C   UNL     1       7.381 -16.461 -39.256  1.00  0.00     0.034 C 
BRANCH   5   6
ATOM      6  C   UNL     1       6.739 -15.819 -40.477  1.00  0.00    -0.077 C 
ATOM      7  C   UNL     1       7.374 -16.028 -41.828  1.00  0.00     0.039 C 
ATOM      8  C   UNL     1       5.629 -15.048 -40.414  1.00  0.00    -0.023 CG0
ATOM      9  G   UNL     1       4.816 -14.781 -39.168  1.00  0.00     0.000 G0
ENDBRANCH   5   6
ENDBRANCH   4   5
ENDBRANCH   2   4
BRANCH   1  10
ATOM     10  C   UNL     1       4.181 -18.053 -38.614  1.00  0.00     0.111 C 
BRANCH  10  11
ATOM     11  C   UNL     1       3.504 -16.778 -38.195  1.00  0.00     0.163 C 
ATOM     12  O   UNL     1       2.890 -16.737 -37.095  1.00  0.00    -0.294 OA
BRANCH  11  13
ATOM     13  C   UNL     1       3.525 -15.573 -39.062  1.00  0.00    -0.002 C 
ATOM     14  C   UNL     1       2.412 -15.205 -39.754  1.00  0.00    -0.069 C 
ATOM     15  C   UNL     1       2.397 -13.953 -40.600  1.00  0.00     0.039 C 
ATOM     16  C   UNL     1       1.161 -16.057 -39.735  1.00  0.00     0.039 C 
BRANCH  13  17
ATOM     17  C   UNL     1       4.808 -14.755 -39.167  1.00  0.00     0.066 CG0
ATOM     18  G   UNL     1       5.629 -15.068 -40.397  1.00  0.00     0.000 G0
ENDBRANCH  13  17
ENDBRANCH  11  13
ENDBRANCH  10  11
ENDBRANCH   1  10
TORSDOF 0
ENDMDL
MODEL 7
REMARK VINA RESULT:    -3.646      2.161      5.168
REMARK INTER + INTRA:          -4.713
REMARK INTER:                  -5.088
REMARK INTRA:                   0.375
REMARK UNBOUND:                 0.425
REMARK SMILES CC1=CCC(=C(C)C)C(=O)CC(C)=CCC1
REMARK SMILES IDX 12 1 14 2 13 3 15 4 16 5 2 6 1 7 3 8 11 10 9 11 10 12 5 13
REMARK SMILES IDX 6 14 7 15 8 16 4 17
REMARK H PARENT
REMARK Flexibility Score: 60.00
ROOT
ATOM      1  C   UNL     1       2.776 -15.488 -37.735  1.00  0.00    -0.070 C 
ATOM      2  C   UNL     1       2.424 -16.502 -36.909  1.00  0.00    -0.027 C 
ATOM      3  C   UNL     1       2.414 -14.083 -37.329  1.00  0.00     0.039 C 
ENDROOT
BRANCH   2   4
ATOM      4  C   UNL     1       2.652 -17.969 -37.184  1.00  0.00     0.032 C 
BRANCH   4   5
ATOM      5  C   UNL     1       4.062 -18.413 -36.767  1.00  0.00     0.034 C 
BRANCH   5   6
ATOM      6  C   UNL     1       4.846 -19.082 -37.888  1.00  0.00    -0.077 C 
ATOM      7  C   UNL     1       4.415 -20.447 -38.363  1.00  0.00     0.039 C 
ATOM      8  C   UNL     1       5.929 -18.523 -38.474  1.00  0.00    -0.023 CG0
ATOM      9  G   UNL     1       6.468 -17.141 -38.184  1.00  0.00     0.000 G0
ENDBRANCH   5   6
ENDBRANCH   4   5
ENDBRANCH   2   4
BRANCH   1  10
ATOM     10  C   UNL     1       3.517 -15.708 -39.040  1.00  0.00     0.111 C 
BRANCH  10  11
ATOM     11  C   UNL     1       4.930 -15.203 -38.951  1.00  0.00     0.163 C 
ATOM     12  O   UNL     1       5.138 -13.997 -38.652  1.00  0.00    -0.294 OA
BRANCH  11  13
ATOM     13  C   UNL     1       6.086 -16.093 -39.231  1.00  0.00    -0.002 C 
ATOM     14  C   UNL     1       6.773 -15.979 -40.400  1.00  0.00    -0.069 C 
ATOM     15  C   UNL     1       7.983 -16.840 -40.681  1.00  0.00     0.039 C 
ATOM     16  C   UNL     1       6.328 -15.017 -41.480  1.00  0.00     0.039 C 
BRANCH  13  17
ATOM     17  C   UNL     1       6.491 -17.135 -38.193  1.00  0.00     0.066 CG0
ATOM     18  G   UNL     1       5.925 -18.510 -38.460  1.00  0.00     0.000 G0
ENDBRANCH  13  17
ENDBRANCH  11  13
ENDBRANCH  10  11
ENDBRANCH   1  10
TORSDOF 0
ENDMDL
MODEL 8
REMARK VINA RESULT:    -3.620      1.257      3.862
REMARK INTER + INTRA:          -4.676
REMARK INTER:                  -4.989
REMARK INTRA:                   0.313
REMARK UNBOUND:                 0.425
REMARK SMILES CC1=CCC(=C(C)C)C(=O)CC(C)=CCC1
REMARK SMILES IDX 12 1 14 2 13 3 15 4 16 5 2 6 1 7 3 8 11 10 9 11 10 12 5 13
REMARK SMILES IDX 6 14 7 15 8 16 4 17
REMARK H PARENT
REMARK Flexibility Score: 60.00
ROOT
ATOM      1  C   UNL     1       1.176 -16.113 -35.421  1.00  0.00    -0.070 C 
ATOM      2  C   UNL     1       0.894 -14.901 -35.957  1.00  0.00    -0.027 C 
ATOM      3  C   UNL     1       0.071 -16.845 -34.704  1.00  0.00     0.039 C 
ENDROOT
BRANCH   2   4
ATOM      4  C   UNL     1       1.891 -14.005 -36.655  1.00  0.00     0.032 C 
BRANCH   4   5
ATOM      5  C   UNL     1       2.169 -14.476 -38.091  1.00  0.00     0.034 C 
BRANCH   5   6
ATOM      6  C   UNL     1       3.649 -14.503 -38.446  1.00  0.00    -0.077 C 
ATOM      7  C   UNL     1       4.437 -13.220 -38.380  1.00  0.00     0.039 C 
ATOM      8  C   UNL     1       4.298 -15.623 -38.839  1.00  0.00    -0.023 CG0
ATOM      9  G   UNL     1       3.698 -17.009 -38.900  1.00  0.00     0.000 G0
ENDBRANCH   5   6
ENDBRANCH   4   5
ENDBRANCH   2   4
BRANCH   1  10
ATOM     10  C   UNL     1       2.544 -16.759 -35.516  1.00  0.00     0.111 C 
BRANCH  10  11
ATOM     11  C   UNL     1       2.602 -17.739 -36.655  1.00  0.00     0.163 C 
ATOM     12  O   UNL     1       1.653 -18.552 -36.819  1.00  0.00    -0.294 OA
BRANCH  11  13
ATOM     13  C   UNL     1       3.766 -17.782 -37.577  1.00  0.00    -0.002 C 
ATOM     14  C   UNL     1       4.874 -18.500 -37.249  1.00  0.00    -0.069 C 
ATOM     15  C   UNL     1       6.047 -18.599 -38.196  1.00  0.00     0.039 C 
ATOM     16  C   UNL     1       4.992 -19.192 -35.908  1.00  0.00     0.039 C 
BRANCH  13  17
ATOM     17  C   UNL     1       3.701 -17.013 -38.891  1.00  0.00     0.066 CG0
ATOM     18  G   UNL     1       4.288 -15.622 -38.811  1.00  0.00     0.000 G0
ENDBRANCH  13  17
ENDBRANCH  11  13
ENDBRANCH  10  11
ENDBRANCH   1  10
TORSDOF 0
ENDMDL
MODEL 9
REMARK VINA RESULT:    -3.511      1.989      4.222
REMARK INTER + INTRA:          -4.522
REMARK INTER:                  -5.014
REMARK INTRA:                   0.491
REMARK UNBOUND:                 0.425
REMARK SMILES CC1=CCC(=C(C)C)C(=O)CC(C)=CCC1
REMARK SMILES IDX 12 1 14 2 13 3 15 4 16 5 2 6 1 7 3 8 11 10 9 11 10 12 5 13
REMARK SMILES IDX 6 14 7 15 8 16 4 17
REMARK H PARENT
REMARK Flexibility Score: 60.00
ROOT
ATOM      1  C   UNL     1       1.647 -17.771 -38.214  1.00  0.00    -0.070 C 
ATOM      2  C   UNL     1       2.121 -19.040 -38.215  1.00  0.00    -0.027 C 
ATOM      3  C   UNL     1       0.512 -17.439 -37.280  1.00  0.00     0.039 C 
ENDROOT
BRANCH   2   4
ATOM      4  C   UNL     1       3.208 -19.563 -39.124  1.00  0.00     0.032 C 
BRANCH   4   5
ATOM      5  C   UNL     1       4.386 -20.141 -38.326  1.00  0.00     0.034 C 
BRANCH   5   6
ATOM      6  C   UNL     1       4.872 -19.227 -37.210  1.00  0.00    -0.077 C 
ATOM      7  C   UNL     1       4.817 -19.722 -35.787  1.00  0.00     0.039 C 
ATOM      8  C   UNL     1       5.338 -17.975 -37.425  1.00  0.00    -0.023 CG0
ATOM      9  G   UNL     1       5.532 -17.332 -38.779  1.00  0.00     0.000 G0
ENDBRANCH   5   6
ENDBRANCH   4   5
ENDBRANCH   2   4
BRANCH   1  10
ATOM     10  C   UNL     1       2.210 -16.680 -39.103  1.00  0.00     0.111 C 
BRANCH  10  11
ATOM     11  C   UNL     1       3.350 -15.968 -38.430  1.00  0.00     0.163 C 
ATOM     12  O   UNL     1       3.126 -15.278 -37.400  1.00  0.00    -0.294 OA
BRANCH  11  13
ATOM     13  C   UNL     1       4.732 -16.043 -38.970  1.00  0.00    -0.002 C 
ATOM     14  C   UNL     1       5.272 -14.979 -39.624  1.00  0.00    -0.069 C 
ATOM     15  C   UNL     1       6.694 -15.017 -40.134  1.00  0.00     0.039 C 
ATOM     16  C   UNL     1       4.457 -13.734 -39.902  1.00  0.00     0.039 C 
BRANCH  13  17
ATOM     17  C   UNL     1       5.535 -17.325 -38.781  1.00  0.00     0.066 CG0
ATOM     18  G   UNL     1       5.338 -17.971 -37.428  1.00  0.00     0.000 G0
ENDBRANCH  13  17
ENDBRANCH  11  13
ENDBRANCH  10  11
ENDBRANCH   1  10
TORSDOF 0
ENDMDL
