MODEL 1
REMARK VINA RESULT:    -6.000      0.000      0.000
REMARK INTER + INTRA:          -6.175
REMARK INTER:                  -6.175
REMARK INTRA:                   0.000
REMARK UNBOUND:                 0.000
REMARK SMILES O=c1ccc2ccc(O)cc2o1
REMARK SMILES IDX 6 1 7 2 8 3 10 4 11 5 5 6 4 7 3 8 2 9 1 10 12 11 9 12
REMARK H PARENT 9 13
REMARK Flexibility Score: inf
ROOT
ATOM      1  C   UNL     1      21.242  -5.602  16.190  1.00  0.00     0.016 A 
ATOM      2  C   UNL     1      21.390  -6.916  15.736  1.00  0.00     0.047 A 
ATOM      3  C   UNL     1      21.819  -7.923  16.608  1.00  0.00     0.119 A 
ATOM      4  C   UNL     1      22.102  -7.614  17.947  1.00  0.00     0.094 A 
ATOM      5  C   UNL     1      21.957  -6.303  18.411  1.00  0.00     0.142 A 
ATOM      6  C   UNL     1      21.525  -5.289  17.527  1.00  0.00     0.018 A 
ATOM      7  C   UNL     1      21.390  -3.988  18.021  1.00  0.00     0.019 A 
ATOM      8  C   UNL     1      21.683  -3.730  19.359  1.00  0.00     0.094 A 
ATOM      9  C   UNL     1      22.107  -4.783  20.176  1.00  0.00     0.336 A 
ATOM     10  O   UNL     1      22.377  -4.570  21.387  1.00  0.00    -0.246 OA
ATOM     11  O   UNL     1      22.227  -6.013  19.682  1.00  0.00    -0.423 OA
ENDROOT
BRANCH   3  12
ATOM     12  O   UNL     1      21.959  -9.226  16.135  1.00  0.00    -0.508 OA
ATOM     13  H   UNL     1      21.436  -9.995  16.540  1.00  0.00     0.293 HD
ENDBRANCH   3  12
TORSDOF 1
ENDMDL
MODEL 2
REMARK VINA RESULT:    -5.575     17.482     17.967
REMARK INTER + INTRA:          -5.738
REMARK INTER:                  -5.738
REMARK INTRA:                   0.000
REMARK UNBOUND:                 0.000
REMARK SMILES O=c1ccc2ccc(O)cc2o1
REMARK SMILES IDX 6 1 7 2 8 3 10 4 11 5 5 6 4 7 3 8 2 9 1 10 12 11 9 12
REMARK H PARENT 9 13
REMARK Flexibility Score: inf
ROOT
ATOM      1  C   UNL     1      19.379   8.961  27.997  1.00  0.00     0.016 A 
ATOM      2  C   UNL     1      20.337   9.300  27.037  1.00  0.00     0.047 A 
ATOM      3  C   UNL     1      21.655   8.845  27.159  1.00  0.00     0.119 A 
ATOM      4  C   UNL     1      22.019   8.043  28.251  1.00  0.00     0.094 A 
ATOM      5  C   UNL     1      21.068   7.699  29.217  1.00  0.00     0.142 A 
ATOM      6  C   UNL     1      19.740   8.161  29.090  1.00  0.00     0.018 A 
ATOM      7  C   UNL     1      18.811   7.800  30.072  1.00  0.00     0.019 A 
ATOM      8  C   UNL     1      19.221   7.001  31.139  1.00  0.00     0.094 A 
ATOM      9  C   UNL     1      20.554   6.581  31.200  1.00  0.00     0.336 A 
ATOM     10  O   UNL     1      20.942   5.859  32.157  1.00  0.00    -0.246 OA
ATOM     11  O   UNL     1      21.417   6.938  30.253  1.00  0.00    -0.423 OA
ENDROOT
BRANCH   3  12
ATOM     12  O   UNL     1      22.593   9.194  26.191  1.00  0.00    -0.508 OA
ATOM     13  H   UNL     1      23.552   9.414  26.438  1.00  0.00     0.293 HD
ENDBRANCH   3  12
TORSDOF 1
ENDMDL
MODEL 3
REMARK VINA RESULT:    -5.493     18.493     19.078
REMARK INTER + INTRA:          -5.653
REMARK INTER:                  -5.653
REMARK INTRA:                   0.000
REMARK UNBOUND:                 0.000
REMARK SMILES O=c1ccc2ccc(O)cc2o1
REMARK SMILES IDX 6 1 7 2 8 3 10 4 11 5 5 6 4 7 3 8 2 9 1 10 12 11 9 12
REMARK H PARENT 9 13
REMARK Flexibility Score: inf
ROOT
ATOM      1  C   UNL     1      20.943   8.143  31.625  1.00  0.00     0.016 A 
ATOM      2  C   UNL     1      20.255   7.123  32.290  1.00  0.00     0.047 A 
ATOM      3  C   UNL     1      19.081   6.588  31.745  1.00  0.00     0.119 A 
ATOM      4  C   UNL     1      18.590   7.078  30.526  1.00  0.00     0.094 A 
ATOM      5  C   UNL     1      19.270   8.098  29.854  1.00  0.00     0.142 A 
ATOM      6  C   UNL     1      20.454   8.636  30.407  1.00  0.00     0.018 A 
ATOM      7  C   UNL     1      21.111   9.655  29.711  1.00  0.00     0.019 A 
ATOM      8  C   UNL     1      20.585  10.109  28.502  1.00  0.00     0.094 A 
ATOM      9  C   UNL     1      19.407   9.530  28.016  1.00  0.00     0.336 A 
ATOM     10  O   UNL     1      18.916   9.927  26.926  1.00  0.00    -0.246 OA
ATOM     11  O   UNL     1      18.801   8.561  28.696  1.00  0.00    -0.423 OA
ENDROOT
BRANCH   3  12
ATOM     12  O   UNL     1      18.413   5.572  32.423  1.00  0.00    -0.508 OA
ATOM     13  H   UNL     1      18.917   4.854  32.931  1.00  0.00     0.293 HD
ENDBRANCH   3  12
TORSDOF 1
ENDMDL
MODEL 4
REMARK VINA RESULT:    -5.367      1.566      4.768
REMARK INTER + INTRA:          -5.524
REMARK INTER:                  -5.524
REMARK INTRA:                   0.000
REMARK UNBOUND:                 0.000
REMARK SMILES O=c1ccc2ccc(O)cc2o1
REMARK SMILES IDX 6 1 7 2 8 3 10 4 11 5 5 6 4 7 3 8 2 9 1 10 12 11 9 12
REMARK H PARENT 9 13
REMARK Flexibility Score: inf
ROOT
ATOM      1  C   UNL     1      22.504  -5.877  20.012  1.00  0.00     0.016 A 
ATOM      2  C   UNL     1      22.448  -4.560  20.480  1.00  0.00     0.047 A 
ATOM      3  C   UNL     1      21.900  -3.548  19.683  1.00  0.00     0.119 A 
ATOM      4  C   UNL     1      21.402  -3.854  18.407  1.00  0.00     0.094 A 
ATOM      5  C   UNL     1      21.454  -5.168  17.931  1.00  0.00     0.142 A 
ATOM      6  C   UNL     1      22.009  -6.186  18.737  1.00  0.00     0.018 A 
ATOM      7  C   UNL     1      22.047  -7.490  18.233  1.00  0.00     0.019 A 
ATOM      8  C   UNL     1      21.541  -7.746  16.959  1.00  0.00     0.094 A 
ATOM      9  C   UNL     1      21.007  -6.687  16.216  1.00  0.00     0.336 A 
ATOM     10  O   UNL     1      20.546  -6.899  15.064  1.00  0.00    -0.246 OA
ATOM     11  O   UNL     1      20.982  -5.456  16.719  1.00  0.00    -0.423 OA
ENDROOT
BRANCH   3  12
ATOM     12  O   UNL     1      21.852  -2.243  20.168  1.00  0.00    -0.508 OA
ATOM     13  H   UNL     1      21.967  -2.041  21.156  1.00  0.00     0.293 HD
ENDBRANCH   3  12
TORSDOF 1
ENDMDL
MODEL 5
REMARK VINA RESULT:    -5.260     17.632     18.700
REMARK INTER + INTRA:          -5.414
REMARK INTER:                  -5.414
REMARK INTRA:                   0.000
REMARK UNBOUND:                 0.000
REMARK SMILES O=c1ccc2ccc(O)cc2o1
REMARK SMILES IDX 6 1 7 2 8 3 10 4 11 5 5 6 4 7 3 8 2 9 1 10 12 11 9 12
REMARK H PARENT 9 13
REMARK Flexibility Score: inf
ROOT
ATOM      1  C   UNL     1      22.399   9.710  29.889  1.00  0.00     0.016 A 
ATOM      2  C   UNL     1      22.841   9.902  28.577  1.00  0.00     0.047 A 
ATOM      3  C   UNL     1      22.164   9.305  27.506  1.00  0.00     0.119 A 
ATOM      4  C   UNL     1      21.035   8.509  27.750  1.00  0.00     0.094 A 
ATOM      5  C   UNL     1      20.585   8.310  29.059  1.00  0.00     0.142 A 
ATOM      6  C   UNL     1      21.271   8.913  30.136  1.00  0.00     0.018 A 
ATOM      7  C   UNL     1      20.797   8.696  31.434  1.00  0.00     0.019 A 
ATOM      8  C   UNL     1      19.671   7.897  31.626  1.00  0.00     0.094 A 
ATOM      9  C   UNL     1      19.043   7.330  30.511  1.00  0.00     0.336 A 
ATOM     10  O   UNL     1      18.025   6.605  30.665  1.00  0.00    -0.246 OA
ATOM     11  O   UNL     1      19.513   7.553  29.287  1.00  0.00    -0.423 OA
ENDROOT
BRANCH   3  12
ATOM     12  O   UNL     1      22.621   9.511  26.207  1.00  0.00    -0.508 OA
ATOM     13  H   UNL     1      23.600   9.403  25.967  1.00  0.00     0.293 HD
ENDBRANCH   3  12
TORSDOF 1
ENDMDL
MODEL 6
REMARK VINA RESULT:    -5.209     18.297     18.940
REMARK INTER + INTRA:          -5.361
REMARK INTER:                  -5.361
REMARK INTRA:                   0.000
REMARK UNBOUND:                 0.000
REMARK SMILES O=c1ccc2ccc(O)cc2o1
REMARK SMILES IDX 6 1 7 2 8 3 10 4 11 5 5 6 4 7 3 8 2 9 1 10 12 11 9 12
REMARK H PARENT 9 13
REMARK Flexibility Score: inf
ROOT
ATOM      1  C   UNL     1      21.023   9.812  29.473  1.00  0.00     0.016 A 
ATOM      2  C   UNL     1      20.270  10.125  28.336  1.00  0.00     0.047 A 
ATOM      3  C   UNL     1      19.134   9.376  28.011  1.00  0.00     0.119 A 
ATOM      4  C   UNL     1      18.745   8.304  28.828  1.00  0.00     0.094 A 
ATOM      5  C   UNL     1      19.491   7.983  29.966  1.00  0.00     0.142 A 
ATOM      6  C   UNL     1      20.638   8.740  30.291  1.00  0.00     0.018 A 
ATOM      7  C   UNL     1      21.363   8.395  31.436  1.00  0.00     0.019 A 
ATOM      8  C   UNL     1      20.938   7.321  32.217  1.00  0.00     0.094 A 
ATOM      9  C   UNL     1      19.793   6.614  31.833  1.00  0.00     0.336 A 
ATOM     10  O   UNL     1      19.394   5.642  32.526  1.00  0.00    -0.246 OA
ATOM     11  O   UNL     1      19.120   6.964  30.740  1.00  0.00    -0.423 OA
ENDROOT
BRANCH   3  12
ATOM     12  O   UNL     1      18.398   9.705  26.875  1.00  0.00    -0.508 OA
ATOM     13  H   UNL     1      18.483  10.615  26.435  1.00  0.00     0.293 HD
ENDBRANCH   3  12
TORSDOF 1
ENDMDL
MODEL 7
REMARK VINA RESULT:    -5.018     17.435     17.884
REMARK INTER + INTRA:          -5.165
REMARK INTER:                  -5.165
REMARK INTRA:                   0.000
REMARK UNBOUND:                 0.000
REMARK SMILES O=c1ccc2ccc(O)cc2o1
REMARK SMILES IDX 6 1 7 2 8 3 10 4 11 5 5 6 4 7 3 8 2 9 1 10 12 11 9 12
REMARK H PARENT 9 13
REMARK Flexibility Score: inf
ROOT
ATOM      1  C   UNL     1      21.788   8.368  27.343  1.00  0.00     0.016 A 
ATOM      2  C   UNL     1      20.632   9.020  26.901  1.00  0.00     0.047 A 
ATOM      3  C   UNL     1      19.477   9.029  27.691  1.00  0.00     0.119 A 
ATOM      4  C   UNL     1      19.475   8.380  28.934  1.00  0.00     0.094 A 
ATOM      5  C   UNL     1      20.625   7.725  29.386  1.00  0.00     0.142 A 
ATOM      6  C   UNL     1      21.789   7.718  28.586  1.00  0.00     0.018 A 
ATOM      7  C   UNL     1      22.924   7.055  29.065  1.00  0.00     0.019 A 
ATOM      8  C   UNL     1      22.874   6.424  30.307  1.00  0.00     0.094 A 
ATOM      9  C   UNL     1      21.686   6.472  31.045  1.00  0.00     0.336 A 
ATOM     10  O   UNL     1      21.622   5.908  32.169  1.00  0.00    -0.246 OA
ATOM     11  O   UNL     1      20.621   7.110  30.567  1.00  0.00    -0.423 OA
ENDROOT
BRANCH   3  12
ATOM     12  O   UNL     1      18.337   9.685  27.231  1.00  0.00    -0.508 OA
ATOM     13  H   UNL     1      18.297  10.087  26.301  1.00  0.00     0.293 HD
ENDBRANCH   3  12
TORSDOF 1
ENDMDL
MODEL 8
REMARK VINA RESULT:    -4.926     17.614     18.211
REMARK INTER + INTRA:          -5.070
REMARK INTER:                  -5.070
REMARK INTRA:                   0.000
REMARK UNBOUND:                 0.000
REMARK SMILES O=c1ccc2ccc(O)cc2o1
REMARK SMILES IDX 6 1 7 2 8 3 10 4 11 5 5 6 4 7 3 8 2 9 1 10 12 11 9 12
REMARK H PARENT 9 13
REMARK Flexibility Score: inf
ROOT
ATOM      1  C   UNL     1      18.698   7.702  30.415  1.00  0.00     0.016 A 
ATOM      2  C   UNL     1      19.175   6.849  31.416  1.00  0.00     0.047 A 
ATOM      3  C   UNL     1      20.500   6.397  31.390  1.00  0.00     0.119 A 
ATOM      4  C   UNL     1      21.356   6.801  30.355  1.00  0.00     0.094 A 
ATOM      5  C   UNL     1      20.889   7.653  29.349  1.00  0.00     0.142 A 
ATOM      6  C   UNL     1      19.552   8.106  29.378  1.00  0.00     0.018 A 
ATOM      7  C   UNL     1      19.114   8.958  28.358  1.00  0.00     0.019 A 
ATOM      8  C   UNL     1      20.003   9.332  27.351  1.00  0.00     0.094 A 
ATOM      9  C   UNL     1      21.313   8.842  27.386  1.00  0.00     0.336 A 
ATOM     10  O   UNL     1      22.129   9.169  26.485  1.00  0.00    -0.246 OA
ATOM     11  O   UNL     1      21.704   8.034  28.367  1.00  0.00    -0.423 OA
ENDROOT
BRANCH   3  12
ATOM     12  O   UNL     1      20.954   5.549  32.397  1.00  0.00    -0.508 OA
ATOM     13  H   UNL     1      20.956   5.837  33.370  1.00  0.00     0.293 HD
ENDBRANCH   3  12
TORSDOF 1
ENDMDL
MODEL 9
REMARK VINA RESULT:    -4.854      8.780     10.703
REMARK INTER + INTRA:          -4.996
REMARK INTER:                  -4.996
REMARK INTRA:                   0.000
REMARK UNBOUND:                 0.000
REMARK SMILES O=c1ccc2ccc(O)cc2o1
REMARK SMILES IDX 6 1 7 2 8 3 10 4 11 5 5 6 4 7 3 8 2 9 1 10 12 11 9 12
REMARK H PARENT 9 13
REMARK Flexibility Score: inf
ROOT
ATOM      1  C   UNL     1      24.009   4.774  16.375  1.00  0.00     0.016 A 
ATOM      2  C   UNL     1      24.958   5.488  17.113  1.00  0.00     0.047 A 
ATOM      3  C   UNL     1      26.178   4.896  17.461  1.00  0.00     0.119 A 
ATOM      4  C   UNL     1      26.452   3.578  17.067  1.00  0.00     0.094 A 
ATOM      5  C   UNL     1      25.509   2.855  16.329  1.00  0.00     0.142 A 
ATOM      6  C   UNL     1      24.279   3.456  15.982  1.00  0.00     0.018 A 
ATOM      7  C   UNL     1      23.356   2.707  15.243  1.00  0.00     0.019 A 
ATOM      8  C   UNL     1      23.674   1.400  14.875  1.00  0.00     0.094 A 
ATOM      9  C   UNL     1      24.912   0.870  15.256  1.00  0.00     0.336 A 
ATOM     10  O   UNL     1      25.216  -0.309  14.933  1.00  0.00    -0.246 OA
ATOM     11  O   UNL     1      25.772   1.603  15.958  1.00  0.00    -0.423 OA
ENDROOT
BRANCH   3  12
ATOM     12  O   UNL     1      27.110   5.626  18.195  1.00  0.00    -0.508 OA
ATOM     13  H   UNL     1      27.669   6.354  17.765  1.00  0.00     0.293 HD
ENDBRANCH   3  12
TORSDOF 1
ENDMDL
