MODEL 1
REMARK VINA RESULT:    -5.485      0.000      0.000
REMARK INTER + INTRA:          -6.384
REMARK INTER:                  -6.286
REMARK INTRA:                  -0.098
REMARK UNBOUND:                -0.098
REMARK SMILES COc1cc(C(=O)[O-])ccc1O
REMARK SMILES IDX 5 1 9 2 4 3 10 4 3 5 11 6 6 7 7 8 8 9 2 10 1 11 12 12
REMARK H PARENT 12 13
REMARK Flexibility Score: inf
ROOT
ATOM      1  C   UNL     1       3.703  -6.755  -3.418  1.00  0.00     0.001 A 
ATOM      2  C   UNL     1       3.308  -7.977  -3.985  1.00  0.00     0.014 A 
ATOM      3  C   UNL     1       4.720  -6.010  -4.040  1.00  0.00     0.060 A 
ATOM      4  C   UNL     1       3.916  -8.446  -5.150  1.00  0.00     0.051 A 
ATOM      5  C   UNL     1       5.338  -6.478  -5.218  1.00  0.00     0.161 A 
ATOM      6  C   UNL     1       4.926  -7.705  -5.769  1.00  0.00     0.157 A 
ENDROOT
BRANCH   1   7
ATOM      7  C   UNL     1       3.061  -6.256  -2.181  1.00  0.00     0.072 C 
ATOM      8  O   UNL     1       3.760  -5.884  -1.201  1.00  0.00    -0.545 OA
ATOM      9  O   UNL     1       1.675  -6.193  -2.082  1.00  0.00    -0.545 OA
ENDBRANCH   1   7
BRANCH   5  10
ATOM     10  O   UNL     1       6.356  -5.755  -5.862  1.00  0.00    -0.493 OA
ATOM     11  C   UNL     1       6.135  -4.697  -6.787  1.00  0.00     0.278 C 
ENDBRANCH   5  10
BRANCH   6  12
ATOM     12  O   UNL     1       5.511  -8.205  -6.933  1.00  0.00    -0.504 OA
ATOM     13  H   UNL     1       5.108  -8.976  -7.452  1.00  0.00     0.293 HD
ENDBRANCH   6  12
TORSDOF 3
ENDMDL
MODEL 2
REMARK VINA RESULT:    -5.183      1.334      4.940
REMARK INTER + INTRA:          -6.039
REMARK INTER:                  -5.951
REMARK INTRA:                  -0.087
REMARK UNBOUND:                -0.098
REMARK SMILES COc1cc(C(=O)[O-])ccc1O
REMARK SMILES IDX 5 1 9 2 4 3 10 4 3 5 11 6 6 7 7 8 8 9 2 10 1 11 12 12
REMARK H PARENT 12 13
REMARK Flexibility Score: inf
ROOT
ATOM      1  C   UNL     1       5.167  -6.848  -4.326  1.00  0.00     0.001 A 
ATOM      2  C   UNL     1       6.244  -6.472  -3.508  1.00  0.00     0.014 A 
ATOM      3  C   UNL     1       3.865  -6.834  -3.795  1.00  0.00     0.060 A 
ATOM      4  C   UNL     1       6.025  -6.090  -2.183  1.00  0.00     0.051 A 
ATOM      5  C   UNL     1       3.638  -6.449  -2.458  1.00  0.00     0.161 A 
ATOM      6  C   UNL     1       4.731  -6.075  -1.654  1.00  0.00     0.157 A 
ENDROOT
BRANCH   1   7
ATOM      7  C   UNL     1       5.396  -7.255  -5.731  1.00  0.00     0.072 C 
ATOM      8  O   UNL     1       4.992  -8.373  -6.148  1.00  0.00    -0.545 OA
ATOM      9  O   UNL     1       6.063  -6.410  -6.611  1.00  0.00    -0.545 OA
ENDBRANCH   1   7
BRANCH   5  10
ATOM     10  O   UNL     1       2.350  -6.425  -1.899  1.00  0.00    -0.493 OA
ATOM     11  C   UNL     1       1.461  -7.537  -1.867  1.00  0.00     0.278 C 
ENDBRANCH   5  10
BRANCH   6  12
ATOM     12  O   UNL     1       4.551  -5.688  -0.326  1.00  0.00    -0.504 OA
ATOM     13  H   UNL     1       3.632  -5.611   0.094  1.00  0.00     0.293 HD
ENDBRANCH   6  12
TORSDOF 3
ENDMDL
MODEL 3
REMARK VINA RESULT:    -5.043      1.609      2.872
REMARK INTER + INTRA:          -5.878
REMARK INTER:                  -5.790
REMARK INTRA:                  -0.088
REMARK UNBOUND:                -0.098
REMARK SMILES COc1cc(C(=O)[O-])ccc1O
REMARK SMILES IDX 5 1 9 2 4 3 10 4 3 5 11 6 6 7 7 8 8 9 2 10 1 11 12 12
REMARK H PARENT 12 13
REMARK Flexibility Score: inf
ROOT
ATOM      1  C   UNL     1       2.743  -7.580  -3.007  1.00  0.00     0.001 A 
ATOM      2  C   UNL     1       3.365  -6.364  -2.677  1.00  0.00     0.014 A 
ATOM      3  C   UNL     1       3.261  -8.348  -4.064  1.00  0.00     0.060 A 
ATOM      4  C   UNL     1       4.482  -5.925  -3.390  1.00  0.00     0.051 A 
ATOM      5  C   UNL     1       4.389  -7.910  -4.788  1.00  0.00     0.161 A 
ATOM      6  C   UNL     1       4.996  -6.689  -4.441  1.00  0.00     0.157 A 
ENDROOT
BRANCH   1   7
ATOM      7  C   UNL     1       1.558  -8.047  -2.253  1.00  0.00     0.072 C 
ATOM      8  O   UNL     1       1.322  -9.279  -2.129  1.00  0.00    -0.545 OA
ATOM      9  O   UNL     1       0.686  -7.133  -1.671  1.00  0.00    -0.545 OA
ENDBRANCH   1   7
BRANCH   5  10
ATOM     10  O   UNL     1       4.928  -8.656  -5.848  1.00  0.00    -0.493 OA
ATOM     11  C   UNL     1       5.938  -9.650  -5.707  1.00  0.00     0.278 C 
ENDBRANCH   5  10
BRANCH   6  12
ATOM     12  O   UNL     1       6.114  -6.219  -5.131  1.00  0.00    -0.504 OA
ATOM     13  H   UNL     1       6.040  -5.772  -6.037  1.00  0.00     0.293 HD
ENDBRANCH   6  12
TORSDOF 3
ENDMDL
MODEL 4
REMARK VINA RESULT:    -4.800      3.192      4.388
REMARK INTER + INTRA:          -5.599
REMARK INTER:                  -5.508
REMARK INTRA:                  -0.092
REMARK UNBOUND:                -0.098
REMARK SMILES COc1cc(C(=O)[O-])ccc1O
REMARK SMILES IDX 5 1 9 2 4 3 10 4 3 5 11 6 6 7 7 8 8 9 2 10 1 11 12 12
REMARK H PARENT 12 13
REMARK Flexibility Score: inf
ROOT
ATOM      1  C   UNL     1       3.196  -7.487  -2.072  1.00  0.00     0.001 A 
ATOM      2  C   UNL     1       3.640  -6.269  -2.611  1.00  0.00     0.014 A 
ATOM      3  C   UNL     1       4.125  -8.340  -1.451  1.00  0.00     0.060 A 
ATOM      4  C   UNL     1       4.987  -5.910  -2.531  1.00  0.00     0.051 A 
ATOM      5  C   UNL     1       5.487  -7.983  -1.367  1.00  0.00     0.161 A 
ATOM      6  C   UNL     1       5.911  -6.757  -1.913  1.00  0.00     0.157 A 
ENDROOT
BRANCH   1   7
ATOM      7  C   UNL     1       1.769  -7.871  -2.156  1.00  0.00     0.072 C 
ATOM      8  O   UNL     1       1.436  -9.016  -2.565  1.00  0.00    -0.545 OA
ATOM      9  O   UNL     1       0.774  -6.973  -1.788  1.00  0.00    -0.545 OA
ENDBRANCH   1   7
BRANCH   5  10
ATOM     10  O   UNL     1       6.437  -8.814  -0.752  1.00  0.00    -0.493 OA
ATOM     11  C   UNL     1       6.756  -8.791   0.635  1.00  0.00     0.278 C 
ENDBRANCH   5  10
BRANCH   6  12
ATOM     12  O   UNL     1       7.248  -6.365  -1.852  1.00  0.00    -0.504 OA
ATOM     13  H   UNL     1       7.723  -6.199  -0.972  1.00  0.00     0.293 HD
ENDBRANCH   6  12
TORSDOF 3
ENDMDL
MODEL 5
REMARK VINA RESULT:    -4.785      1.773      2.697
REMARK INTER + INTRA:          -5.582
REMARK INTER:                  -5.483
REMARK INTRA:                  -0.100
REMARK UNBOUND:                -0.098
REMARK SMILES COc1cc(C(=O)[O-])ccc1O
REMARK SMILES IDX 5 1 9 2 4 3 10 4 3 5 11 6 6 7 7 8 8 9 2 10 1 11 12 12
REMARK H PARENT 12 13
REMARK Flexibility Score: inf
ROOT
ATOM      1  C   UNL     1       3.256  -7.093  -2.655  1.00  0.00     0.001 A 
ATOM      2  C   UNL     1       4.136  -6.308  -1.893  1.00  0.00     0.014 A 
ATOM      3  C   UNL     1       3.743  -7.757  -3.794  1.00  0.00     0.060 A 
ATOM      4  C   UNL     1       5.477  -6.187  -2.262  1.00  0.00     0.051 A 
ATOM      5  C   UNL     1       5.097  -7.639  -4.172  1.00  0.00     0.161 A 
ATOM      6  C   UNL     1       5.962  -6.847  -3.395  1.00  0.00     0.157 A 
ENDROOT
BRANCH   1   7
ATOM      7  C   UNL     1       1.834  -7.221  -2.266  1.00  0.00     0.072 C 
ATOM      8  O   UNL     1       1.169  -6.207  -1.925  1.00  0.00    -0.545 OA
ATOM      9  O   UNL     1       1.210  -8.464  -2.269  1.00  0.00    -0.545 OA
ENDBRANCH   1   7
BRANCH   5  10
ATOM     10  O   UNL     1       5.612  -8.290  -5.305  1.00  0.00    -0.493 OA
ATOM     11  C   UNL     1       5.435  -7.843  -6.645  1.00  0.00     0.278 C 
ENDBRANCH   5  10
BRANCH   6  12
ATOM     12  O   UNL     1       7.307  -6.704  -3.733  1.00  0.00    -0.504 OA
ATOM     13  H   UNL     1       7.814  -7.415  -4.247  1.00  0.00     0.293 HD
ENDBRANCH   6  12
TORSDOF 3
ENDMDL
MODEL 6
REMARK VINA RESULT:    -4.721     14.143     15.536
REMARK INTER + INTRA:          -5.509
REMARK INTER:                  -5.416
REMARK INTRA:                  -0.093
REMARK UNBOUND:                -0.098
REMARK SMILES COc1cc(C(=O)[O-])ccc1O
REMARK SMILES IDX 5 1 9 2 4 3 10 4 3 5 11 6 6 7 7 8 8 9 2 10 1 11 12 12
REMARK H PARENT 12 13
REMARK Flexibility Score: inf
ROOT
ATOM      1  C   UNL     1      -3.869   4.092  -7.467  1.00  0.00     0.001 A 
ATOM      2  C   UNL     1      -3.166   5.280  -7.209  1.00  0.00     0.014 A 
ATOM      3  C   UNL     1      -5.182   3.954  -6.984  1.00  0.00     0.060 A 
ATOM      4  C   UNL     1      -3.764   6.310  -6.480  1.00  0.00     0.051 A 
ATOM      5  C   UNL     1      -5.791   4.991  -6.248  1.00  0.00     0.161 A 
ATOM      6  C   UNL     1      -5.069   6.173  -6.000  1.00  0.00     0.157 A 
ENDROOT
BRANCH   1   7
ATOM      7  C   UNL     1      -3.237   2.997  -8.238  1.00  0.00     0.072 C 
ATOM      8  O   UNL     1      -3.931   2.257  -8.986  1.00  0.00    -0.545 OA
ATOM      9  O   UNL     1      -1.869   2.768  -8.146  1.00  0.00    -0.545 OA
ENDBRANCH   1   7
BRANCH   5  10
ATOM     10  O   UNL     1      -7.100   4.882  -5.753  1.00  0.00    -0.493 OA
ATOM     11  C   UNL     1      -8.272   5.242  -6.477  1.00  0.00     0.278 C 
ENDBRANCH   5  10
BRANCH   6  12
ATOM     12  O   UNL     1      -5.634   7.224  -5.276  1.00  0.00    -0.504 OA
ATOM     13  H   UNL     1      -5.150   7.671  -4.507  1.00  0.00     0.293 HD
ENDBRANCH   6  12
TORSDOF 3
ENDMDL
MODEL 7
REMARK VINA RESULT:    -4.702      2.244      5.100
REMARK INTER + INTRA:          -5.487
REMARK INTER:                  -5.399
REMARK INTRA:                  -0.088
REMARK UNBOUND:                -0.098
REMARK SMILES COc1cc(C(=O)[O-])ccc1O
REMARK SMILES IDX 5 1 9 2 4 3 10 4 3 5 11 6 6 7 7 8 8 9 2 10 1 11 12 12
REMARK H PARENT 12 13
REMARK Flexibility Score: inf
ROOT
ATOM      1  C   UNL     1       6.354  -6.804  -4.211  1.00  0.00     0.001 A 
ATOM      2  C   UNL     1       5.093  -6.250  -4.481  1.00  0.00     0.014 A 
ATOM      3  C   UNL     1       6.713  -7.074  -2.879  1.00  0.00     0.060 A 
ATOM      4  C   UNL     1       4.206  -5.970  -3.439  1.00  0.00     0.051 A 
ATOM      5  C   UNL     1       5.821  -6.793  -1.823  1.00  0.00     0.161 A 
ATOM      6  C   UNL     1       4.562  -6.238  -2.115  1.00  0.00     0.157 A 
ENDROOT
BRANCH   1   7
ATOM      7  C   UNL     1       7.297  -7.101  -5.314  1.00  0.00     0.072 C 
ATOM      8  O   UNL     1       7.698  -8.278  -5.514  1.00  0.00    -0.545 OA
ATOM      9  O   UNL     1       7.755  -6.083  -6.143  1.00  0.00    -0.545 OA
ENDBRANCH   1   7
BRANCH   5  10
ATOM     10  O   UNL     1       6.152  -7.052  -0.483  1.00  0.00    -0.493 OA
ATOM     11  C   UNL     1       6.497  -8.333   0.033  1.00  0.00     0.278 C 
ENDBRANCH   5  10
BRANCH   6  12
ATOM     12  O   UNL     1       3.650  -5.945  -1.100  1.00  0.00    -0.504 OA
ATOM     13  H   UNL     1       3.126  -5.079  -1.079  1.00  0.00     0.293 HD
ENDBRANCH   6  12
TORSDOF 3
ENDMDL
MODEL 8
REMARK VINA RESULT:    -4.670     14.795     15.871
REMARK INTER + INTRA:          -5.451
REMARK INTER:                  -5.362
REMARK INTRA:                  -0.089
REMARK UNBOUND:                -0.098
REMARK SMILES COc1cc(C(=O)[O-])ccc1O
REMARK SMILES IDX 5 1 9 2 4 3 10 4 3 5 11 6 6 7 7 8 8 9 2 10 1 11 12 12
REMARK H PARENT 12 13
REMARK Flexibility Score: inf
ROOT
ATOM      1  C   UNL     1       0.378  -0.341   9.124  1.00  0.00     0.001 A 
ATOM      2  C   UNL     1      -0.220   0.641   9.929  1.00  0.00     0.014 A 
ATOM      3  C   UNL     1       1.603  -0.058   8.494  1.00  0.00     0.060 A 
ATOM      4  C   UNL     1       0.394   1.884  10.101  1.00  0.00     0.051 A 
ATOM      5  C   UNL     1       2.228   1.194   8.664  1.00  0.00     0.161 A 
ATOM      6  C   UNL     1       1.612   2.165   9.476  1.00  0.00     0.157 A 
ENDROOT
BRANCH   1   7
ATOM      7  C   UNL     1      -0.271  -1.659   8.938  1.00  0.00     0.072 C 
ATOM      8  O   UNL     1      -0.037  -2.607   9.734  1.00  0.00    -0.545 OA
ATOM      9  O   UNL     1      -1.148  -1.870   7.880  1.00  0.00    -0.545 OA
ENDBRANCH   1   7
BRANCH   5  10
ATOM     10  O   UNL     1       3.451   1.505   8.048  1.00  0.00    -0.493 OA
ATOM     11  C   UNL     1       4.731   1.225   8.604  1.00  0.00     0.278 C 
ENDBRANCH   5  10
BRANCH   6  12
ATOM     12  O   UNL     1       2.196   3.417   9.671  1.00  0.00    -0.504 OA
ATOM     13  H   UNL     1       2.705   3.896   8.938  1.00  0.00     0.293 HD
ENDBRANCH   6  12
TORSDOF 3
ENDMDL
MODEL 9
REMARK VINA RESULT:    -4.666     14.916     16.204
REMARK INTER + INTRA:          -5.446
REMARK INTER:                  -5.376
REMARK INTRA:                  -0.070
REMARK UNBOUND:                -0.098
REMARK SMILES COc1cc(C(=O)[O-])ccc1O
REMARK SMILES IDX 5 1 9 2 4 3 10 4 3 5 11 6 6 7 7 8 8 9 2 10 1 11 12 12
REMARK H PARENT 12 13
REMARK Flexibility Score: inf
ROOT
ATOM      1  C   UNL     1       3.794   1.263   9.078  1.00  0.00     0.001 A 
ATOM      2  C   UNL     1       3.298   2.398   9.739  1.00  0.00     0.014 A 
ATOM      3  C   UNL     1       2.887   0.315   8.571  1.00  0.00     0.060 A 
ATOM      4  C   UNL     1       1.922   2.583   9.891  1.00  0.00     0.051 A 
ATOM      5  C   UNL     1       1.497   0.497   8.720  1.00  0.00     0.161 A 
ATOM      6  C   UNL     1       1.021   1.642   9.386  1.00  0.00     0.157 A 
ENDROOT
BRANCH   1   7
ATOM      7  C   UNL     1       5.252   1.063   8.917  1.00  0.00     0.072 C 
ATOM      8  O   UNL     1       5.802   0.004   9.321  1.00  0.00    -0.545 OA
ATOM      9  O   UNL     1       6.037   2.043   8.320  1.00  0.00    -0.545 OA
ENDBRANCH   1   7
BRANCH   5  10
ATOM     10  O   UNL     1       0.568  -0.432   8.224  1.00  0.00    -0.493 OA
ATOM     11  C   UNL     1       0.009  -1.500   8.981  1.00  0.00     0.278 C 
ENDBRANCH   5  10
BRANCH   6  12
ATOM     12  O   UNL     1      -0.346   1.860   9.556  1.00  0.00    -0.504 OA
ATOM     13  H   UNL     1      -0.959   1.161   9.958  1.00  0.00     0.293 HD
ENDBRANCH   6  12
TORSDOF 3
ENDMDL
