MODEL 1
REMARK VINA RESULT:    -1.193      0.000      0.000
REMARK INTER + INTRA:          -3.541
REMARK INTER:                  -1.821
REMARK INTRA:                  -1.720
REMARK UNBOUND:                -1.720
REMARK SMILES COc1cc(C=CCOC(=O)C=Cc2ccc(O)c(OC)c2)ccc1O
REMARK SMILES IDX 9 1 8 2 7 3 6 4 5 5 3 6 25 7 4 8 24 9 23 10 2 11 1 12 26 13
REMARK SMILES IDX 10 15 11 16 12 17 13 18 14 19 22 20 15 21 19 22 16 23 17 24
REMARK SMILES IDX 20 25 21 26 18 27
REMARK H PARENT 26 14 18 28
REMARK Flexibility Score: inf
ROOT
ATOM      1  O   UNL     1      21.389  -5.848  31.178  1.00  0.00    -0.458 OA
ENDROOT
BRANCH   1   2
ATOM      2  C   UNL     1      22.091  -6.256  32.348  1.00  0.00     0.261 C 
BRANCH   2   3
ATOM      3  C   UNL     1      22.125  -5.130  33.332  1.00  0.00     0.015 C 
ATOM      4  C   UNL     1      21.049  -4.828  34.069  1.00  0.00     0.007 C 
BRANCH   4   5
ATOM      5  C   UNL     1      21.013  -3.736  35.075  1.00  0.00    -0.022 A 
ATOM      6  C   UNL     1      19.756  -2.539  36.802  1.00  0.00     0.161 A 
ATOM      7  C   UNL     1      20.847  -1.673  36.986  1.00  0.00     0.157 A 
ATOM      8  C   UNL     1      19.847  -3.565  35.840  1.00  0.00     0.058 A 
ATOM      9  C   UNL     1      22.002  -1.830  36.216  1.00  0.00     0.051 A 
ATOM     10  C   UNL     1      22.088  -2.848  35.265  1.00  0.00     0.012 A 
BRANCH   6  11
ATOM     11  O   UNL     1      18.605  -2.354  37.585  1.00  0.00    -0.493 OA
ATOM     12  C   UNL     1      17.461  -1.608  37.180  1.00  0.00     0.278 C 
ENDBRANCH   6  11
BRANCH   7  13
ATOM     13  O   UNL     1      20.801  -0.645  37.928  1.00  0.00    -0.504 OA
ATOM     14  H   UNL     1      21.435   0.145  37.896  1.00  0.00     0.293 HD
ENDBRANCH   7  13
ENDBRANCH   4   5
ENDBRANCH   2   3
ENDBRANCH   1   2
BRANCH   1  15
ATOM     15  C   UNL     1      19.997  -5.909  31.075  1.00  0.00     0.331 C 
ATOM     16  O   UNL     1      19.304  -4.862  31.204  1.00  0.00    -0.247 OA
BRANCH  15  17
ATOM     17  C   UNL     1      19.360  -7.225  30.875  1.00  0.00     0.094 C 
ATOM     18  C   UNL     1      18.849  -8.001  31.842  1.00  0.00     0.016 C 
BRANCH  18  19
ATOM     19  C   UNL     1      18.665  -7.602  33.254  1.00  0.00    -0.021 A 
ATOM     20  C   UNL     1      19.538  -8.056  34.259  1.00  0.00     0.058 A 
ATOM     21  C   UNL     1      17.664  -6.678  33.579  1.00  0.00     0.012 A 
ATOM     22  C   UNL     1      19.373  -7.635  35.593  1.00  0.00     0.161 A 
ATOM     23  C   UNL     1      17.499  -6.253  34.899  1.00  0.00     0.051 A 
ATOM     24  C   UNL     1      18.347  -6.732  35.907  1.00  0.00     0.157 A 
BRANCH  22  25
ATOM     25  O   UNL     1      20.208  -8.086  36.628  1.00  0.00    -0.493 OA
ATOM     26  C   UNL     1      21.428  -7.459  37.009  1.00  0.00     0.278 C 
ENDBRANCH  22  25
BRANCH  24  27
ATOM     27  O   UNL     1      18.177  -6.313  37.225  1.00  0.00    -0.504 OA
ATOM     28  H   UNL     1      17.536  -6.783  37.853  1.00  0.00     0.293 HD
ENDBRANCH  24  27
ENDBRANCH  18  19
ENDBRANCH  15  17
ENDBRANCH   1  15
TORSDOF 10
ENDMDL
MODEL 2
REMARK VINA RESULT:    -0.473      1.911      6.279
REMARK INTER + INTRA:          -2.442
REMARK INTER:                  -2.211
REMARK INTRA:                  -0.231
REMARK UNBOUND:                -1.720
REMARK SMILES COc1cc(C=CCOC(=O)C=Cc2ccc(O)c(OC)c2)ccc1O
REMARK SMILES IDX 9 1 8 2 7 3 6 4 5 5 3 6 25 7 4 8 24 9 23 10 2 11 1 12 26 13
REMARK SMILES IDX 10 15 11 16 12 17 13 18 14 19 22 20 15 21 19 22 16 23 17 24
REMARK SMILES IDX 20 25 21 26 18 27
REMARK H PARENT 26 14 18 28
REMARK Flexibility Score: inf
ROOT
ATOM      1  O   UNL     1      19.807  -1.420  36.721  1.00  0.00    -0.458 OA
ENDROOT
BRANCH   1   2
ATOM      2  C   UNL     1      18.895  -2.316  37.348  1.00  0.00     0.261 C 
BRANCH   2   3
ATOM      3  C   UNL     1      18.325  -3.250  36.328  1.00  0.00     0.015 C 
ATOM      4  C   UNL     1      18.907  -4.428  36.072  1.00  0.00     0.007 C 
BRANCH   4   5
ATOM      5  C   UNL     1      18.391  -5.410  35.085  1.00  0.00    -0.022 A 
ATOM      6  C   UNL     1      18.252  -6.138  32.752  1.00  0.00     0.161 A 
ATOM      7  C   UNL     1      17.432  -7.211  33.142  1.00  0.00     0.157 A 
ATOM      8  C   UNL     1      18.722  -5.240  33.731  1.00  0.00     0.058 A 
ATOM      9  C   UNL     1      17.087  -7.374  34.486  1.00  0.00     0.051 A 
ATOM     10  C   UNL     1      17.556  -6.482  35.453  1.00  0.00     0.012 A 
BRANCH   6  11
ATOM     11  O   UNL     1      18.578  -5.995  31.393  1.00  0.00    -0.493 OA
ATOM     12  C   UNL     1      19.894  -5.773  30.896  1.00  0.00     0.278 C 
ENDBRANCH   6  11
BRANCH   7  13
ATOM     13  O   UNL     1      16.945  -8.125  32.207  1.00  0.00    -0.504 OA
ATOM     14  H   UNL     1      17.484  -8.929  31.908  1.00  0.00     0.293 HD
ENDBRANCH   7  13
ENDBRANCH   4   5
ENDBRANCH   2   3
ENDBRANCH   1   2
BRANCH   1  15
ATOM     15  C   UNL     1      21.172  -1.695  36.601  1.00  0.00     0.331 C 
ATOM     16  O   UNL     1      21.815  -1.296  35.591  1.00  0.00    -0.247 OA
BRANCH  15  17
ATOM     17  C   UNL     1      21.823  -2.510  37.645  1.00  0.00     0.094 C 
ATOM     18  C   UNL     1      22.125  -3.814  37.545  1.00  0.00     0.016 C 
BRANCH  18  19
ATOM     19  C   UNL     1      22.031  -4.623  36.311  1.00  0.00    -0.021 A 
ATOM     20  C   UNL     1      22.118  -4.026  35.041  1.00  0.00     0.058 A 
ATOM     21  C   UNL     1      21.953  -6.017  36.411  1.00  0.00     0.012 A 
ATOM     22  C   UNL     1      22.067  -4.815  33.875  1.00  0.00     0.161 A 
ATOM     23  C   UNL     1      21.906  -6.805  35.259  1.00  0.00     0.051 A 
ATOM     24  C   UNL     1      21.958  -6.208  33.993  1.00  0.00     0.157 A 
BRANCH  22  25
ATOM     25  O   UNL     1      22.125  -4.254  32.589  1.00  0.00    -0.493 OA
ATOM     26  C   UNL     1      21.846  -2.889  32.293  1.00  0.00     0.278 C 
ENDBRANCH  22  25
BRANCH  24  27
ATOM     27  O   UNL     1      21.905  -6.994  32.843  1.00  0.00    -0.504 OA
ATOM     28  H   UNL     1      22.472  -7.829  32.745  1.00  0.00     0.293 HD
ENDBRANCH  24  27
ENDBRANCH  18  19
ENDBRANCH  15  17
ENDBRANCH   1  15
TORSDOF 10
ENDMDL
MODEL 3
REMARK VINA RESULT:    -0.119      1.943      5.808
REMARK INTER + INTRA:          -1.901
REMARK INTER:                  -1.826
REMARK INTRA:                  -0.075
REMARK UNBOUND:                -1.720
REMARK SMILES COc1cc(C=CCOC(=O)C=Cc2ccc(O)c(OC)c2)ccc1O
REMARK SMILES IDX 9 1 8 2 7 3 6 4 5 5 3 6 25 7 4 8 24 9 23 10 2 11 1 12 26 13
REMARK SMILES IDX 10 15 11 16 12 17 13 18 14 19 22 20 15 21 19 22 16 23 17 24
REMARK SMILES IDX 20 25 21 26 18 27
REMARK H PARENT 26 14 18 28
REMARK Flexibility Score: inf
ROOT
ATOM      1  O   UNL     1      19.813  -1.672  36.600  1.00  0.00    -0.458 OA
ENDROOT
BRANCH   1   2
ATOM      2  C   UNL     1      19.330  -2.807  37.312  1.00  0.00     0.261 C 
BRANCH   2   3
ATOM      3  C   UNL     1      19.120  -3.944  36.363  1.00  0.00     0.015 C 
ATOM      4  C   UNL     1      18.661  -3.731  35.124  1.00  0.00     0.007 C 
BRANCH   4   5
ATOM      5  C   UNL     1      18.442  -4.807  34.124  1.00  0.00    -0.022 A 
ATOM      6  C   UNL     1      17.466  -6.990  33.598  1.00  0.00     0.161 A 
ATOM      7  C   UNL     1      18.001  -6.909  32.301  1.00  0.00     0.157 A 
ATOM      8  C   UNL     1      17.697  -5.936  34.504  1.00  0.00     0.058 A 
ATOM      9  C   UNL     1      18.757  -5.796  31.925  1.00  0.00     0.051 A 
ATOM     10  C   UNL     1      18.982  -4.753  32.826  1.00  0.00     0.012 A 
BRANCH   6  11
ATOM     11  O   UNL     1      16.715  -8.123  33.951  1.00  0.00    -0.493 OA
ATOM     12  C   UNL     1      15.636  -8.122  34.880  1.00  0.00     0.278 C 
ENDBRANCH   6  11
BRANCH   7  13
ATOM     13  O   UNL     1      17.797  -7.929  31.371  1.00  0.00    -0.504 OA
ATOM     14  H   UNL     1      18.336  -7.994  30.516  1.00  0.00     0.293 HD
ENDBRANCH   7  13
ENDBRANCH   4   5
ENDBRANCH   2   3
ENDBRANCH   1   2
BRANCH   1  15
ATOM     15  C   UNL     1      21.171  -1.461  36.350  1.00  0.00     0.331 C 
ATOM     16  O   UNL     1      22.000  -1.460  37.301  1.00  0.00    -0.247 OA
BRANCH  15  17
ATOM     17  C   UNL     1      21.600  -1.179  34.966  1.00  0.00     0.094 C 
ATOM     18  C   UNL     1      22.079  -2.082  34.097  1.00  0.00     0.016 C 
BRANCH  18  19
ATOM     19  C   UNL     1      22.092  -3.546  34.302  1.00  0.00    -0.021 A 
ATOM     20  C   UNL     1      22.105  -4.101  35.594  1.00  0.00     0.058 A 
ATOM     21  C   UNL     1      21.990  -4.394  33.192  1.00  0.00     0.012 A 
ATOM     22  C   UNL     1      22.077  -5.497  35.773  1.00  0.00     0.161 A 
ATOM     23  C   UNL     1      21.958  -5.779  33.363  1.00  0.00     0.051 A 
ATOM     24  C   UNL     1      22.005  -6.333  34.649  1.00  0.00     0.157 A 
BRANCH  22  25
ATOM     25  O   UNL     1      22.114  -6.089  37.046  1.00  0.00    -0.493 OA
ATOM     26  C   UNL     1      20.974  -6.594  37.733  1.00  0.00     0.278 C 
ENDBRANCH  22  25
BRANCH  24  27
ATOM     27  O   UNL     1      21.979  -7.716  34.819  1.00  0.00    -0.504 OA
ATOM     28  H   UNL     1      21.788  -8.342  34.045  1.00  0.00     0.293 HD
ENDBRANCH  24  27
ENDBRANCH  18  19
ENDBRANCH  15  17
ENDBRANCH   1  15
TORSDOF 10
ENDMDL
MODEL 4
REMARK VINA RESULT:    -0.074      1.650      5.966
REMARK INTER + INTRA:          -1.834
REMARK INTER:                  -0.966
REMARK INTRA:                  -0.868
REMARK UNBOUND:                -1.720
REMARK SMILES COc1cc(C=CCOC(=O)C=Cc2ccc(O)c(OC)c2)ccc1O
REMARK SMILES IDX 9 1 8 2 7 3 6 4 5 5 3 6 25 7 4 8 24 9 23 10 2 11 1 12 26 13
REMARK SMILES IDX 10 15 11 16 12 17 13 18 14 19 22 20 15 21 19 22 16 23 17 24
REMARK SMILES IDX 20 25 21 26 18 27
REMARK H PARENT 26 14 18 28
REMARK Flexibility Score: inf
ROOT
ATOM      1  O   UNL     1      18.984  -1.443  37.177  1.00  0.00    -0.458 OA
ENDROOT
BRANCH   1   2
ATOM      2  C   UNL     1      18.036  -2.505  37.139  1.00  0.00     0.261 C 
BRANCH   2   3
ATOM      3  C   UNL     1      18.179  -3.261  35.856  1.00  0.00     0.015 C 
ATOM      4  C   UNL     1      18.366  -4.587  35.855  1.00  0.00     0.007 C 
BRANCH   4   5
ATOM      5  C   UNL     1      18.501  -5.404  34.623  1.00  0.00    -0.022 A 
ATOM      6  C   UNL     1      19.180  -5.530  32.274  1.00  0.00     0.161 A 
ATOM      7  C   UNL     1      18.768  -6.873  32.234  1.00  0.00     0.157 A 
ATOM      8  C   UNL     1      19.037  -4.803  33.473  1.00  0.00     0.058 A 
ATOM      9  C   UNL     1      18.219  -7.470  33.371  1.00  0.00     0.051 A 
ATOM     10  C   UNL     1      18.080  -6.746  34.557  1.00  0.00     0.012 A 
BRANCH   6  11
ATOM     11  O   UNL     1      19.723  -4.954  31.114  1.00  0.00    -0.493 OA
ATOM     12  C   UNL     1      20.870  -4.110  31.091  1.00  0.00     0.278 C 
ENDBRANCH   6  11
BRANCH   7  13
ATOM     13  O   UNL     1      18.891  -7.631  31.069  1.00  0.00    -0.504 OA
ATOM     14  H   UNL     1      19.317  -8.550  31.066  1.00  0.00     0.293 HD
ENDBRANCH   7  13
ENDBRANCH   4   5
ENDBRANCH   2   3
ENDBRANCH   1   2
BRANCH   1  15
ATOM     15  C   UNL     1      20.261  -1.553  36.621  1.00  0.00     0.331 C 
ATOM     16  O   UNL     1      20.411  -1.561  35.368  1.00  0.00    -0.247 OA
BRANCH  15  17
ATOM     17  C   UNL     1      21.415  -1.719  37.527  1.00  0.00     0.094 C 
ATOM     18  C   UNL     1      22.125  -2.846  37.689  1.00  0.00     0.016 C 
BRANCH  18  19
ATOM     19  C   UNL     1      22.001  -4.064  36.860  1.00  0.00    -0.021 A 
ATOM     20  C   UNL     1      21.673  -5.305  37.434  1.00  0.00     0.058 A 
ATOM     21  C   UNL     1      22.116  -3.960  35.469  1.00  0.00     0.012 A 
ATOM     22  C   UNL     1      21.520  -6.448  36.626  1.00  0.00     0.161 A 
ATOM     23  C   UNL     1      21.960  -5.088  34.662  1.00  0.00     0.051 A 
ATOM     24  C   UNL     1      21.668  -6.332  35.237  1.00  0.00     0.157 A 
BRANCH  22  25
ATOM     25  O   UNL     1      21.218  -7.710  37.164  1.00  0.00    -0.493 OA
ATOM     26  C   UNL     1      21.363  -8.055  38.538  1.00  0.00     0.278 C 
ENDBRANCH  22  25
BRANCH  24  27
ATOM     27  O   UNL     1      21.519  -7.460  34.431  1.00  0.00    -0.504 OA
ATOM     28  H   UNL     1      20.667  -8.008  34.438  1.00  0.00     0.293 HD
ENDBRANCH  24  27
ENDBRANCH  18  19
ENDBRANCH  15  17
ENDBRANCH   1  15
TORSDOF 10
ENDMDL
MODEL 5
REMARK VINA RESULT:     0.013      1.746      6.020
REMARK INTER + INTRA:          -1.700
REMARK INTER:                  -1.445
REMARK INTRA:                  -0.255
REMARK UNBOUND:                -1.720
REMARK SMILES COc1cc(C=CCOC(=O)C=Cc2ccc(O)c(OC)c2)ccc1O
REMARK SMILES IDX 9 1 8 2 7 3 6 4 5 5 3 6 25 7 4 8 24 9 23 10 2 11 1 12 26 13
REMARK SMILES IDX 10 15 11 16 12 17 13 18 14 19 22 20 15 21 19 22 16 23 17 24
REMARK SMILES IDX 20 25 21 26 18 27
REMARK H PARENT 26 14 18 28
REMARK Flexibility Score: inf
ROOT
ATOM      1  O   UNL     1      19.316  -1.435  37.057  1.00  0.00    -0.458 OA
ENDROOT
BRANCH   1   2
ATOM      2  C   UNL     1      18.408  -2.518  37.239  1.00  0.00     0.261 C 
BRANCH   2   3
ATOM      3  C   UNL     1      18.246  -3.261  35.951  1.00  0.00     0.015 C 
ATOM      4  C   UNL     1      18.639  -4.536  35.837  1.00  0.00     0.007 C 
BRANCH   4   5
ATOM      5  C   UNL     1      18.496  -5.339  34.597  1.00  0.00    -0.022 A 
ATOM      6  C   UNL     1      18.934  -5.558  32.198  1.00  0.00     0.161 A 
ATOM      7  C   UNL     1      18.250  -6.785  32.191  1.00  0.00     0.157 A 
ATOM      8  C   UNL     1      19.047  -4.840  33.405  1.00  0.00     0.058 A 
ATOM      9  C   UNL     1      17.687  -7.277  33.371  1.00  0.00     0.051 A 
ATOM     10  C   UNL     1      17.802  -6.563  34.566  1.00  0.00     0.012 A 
BRANCH   6  11
ATOM     11  O   UNL     1      19.485  -5.083  30.996  1.00  0.00    -0.493 OA
ATOM     12  C   UNL     1      20.763  -4.467  30.880  1.00  0.00     0.278 C 
ENDBRANCH   6  11
BRANCH   7  13
ATOM     13  O   UNL     1      18.114  -7.530  31.019  1.00  0.00    -0.504 OA
ATOM     14  H   UNL     1      17.310  -7.436  30.411  1.00  0.00     0.293 HD
ENDBRANCH   7  13
ENDBRANCH   4   5
ENDBRANCH   2   3
ENDBRANCH   1   2
BRANCH   1  15
ATOM     15  C   UNL     1      20.618  -1.615  36.586  1.00  0.00     0.331 C 
ATOM     16  O   UNL     1      20.854  -1.599  35.346  1.00  0.00    -0.247 OA
BRANCH  15  17
ATOM     17  C   UNL     1      21.693  -1.884  37.561  1.00  0.00     0.094 C 
ATOM     18  C   UNL     1      22.125  -3.098  37.934  1.00  0.00     0.016 C 
BRANCH  18  19
ATOM     19  C   UNL     1      21.736  -4.377  37.302  1.00  0.00    -0.021 A 
ATOM     20  C   UNL     1      22.119  -4.685  35.985  1.00  0.00     0.058 A 
ATOM     21  C   UNL     1      21.058  -5.338  38.063  1.00  0.00     0.012 A 
ATOM     22  C   UNL     1      21.775  -5.924  35.411  1.00  0.00     0.161 A 
ATOM     23  C   UNL     1      20.718  -6.570  37.501  1.00  0.00     0.051 A 
ATOM     24  C   UNL     1      21.070  -6.864  36.177  1.00  0.00     0.157 A 
BRANCH  22  25
ATOM     25  O   UNL     1      22.118  -6.258  34.091  1.00  0.00    -0.493 OA
ATOM     26  C   UNL     1      21.970  -7.556  33.524  1.00  0.00     0.278 C 
ENDBRANCH  22  25
BRANCH  24  27
ATOM     27  O   UNL     1      20.724  -8.091  35.615  1.00  0.00    -0.504 OA
ATOM     28  H   UNL     1      21.392  -8.640  35.085  1.00  0.00     0.293 HD
ENDBRANCH  24  27
ENDBRANCH  18  19
ENDBRANCH  15  17
ENDBRANCH   1  15
TORSDOF 10
ENDMDL
MODEL 6
REMARK VINA RESULT:     0.789      1.892      5.971
REMARK INTER + INTRA:          -0.516
REMARK INTER:                  -3.154
REMARK INTRA:                   2.638
REMARK UNBOUND:                -1.720
REMARK SMILES COc1cc(C=CCOC(=O)C=Cc2ccc(O)c(OC)c2)ccc1O
REMARK SMILES IDX 9 1 8 2 7 3 6 4 5 5 3 6 25 7 4 8 24 9 23 10 2 11 1 12 26 13
REMARK SMILES IDX 10 15 11 16 12 17 13 18 14 19 22 20 15 21 19 22 16 23 17 24
REMARK SMILES IDX 20 25 21 26 18 27
REMARK H PARENT 26 14 18 28
REMARK Flexibility Score: inf
ROOT
ATOM      1  O   UNL     1      20.053  -1.274  37.129  1.00  0.00    -0.458 OA
ENDROOT
BRANCH   1   2
ATOM      2  C   UNL     1      18.891  -1.934  37.625  1.00  0.00     0.261 C 
BRANCH   2   3
ATOM      3  C   UNL     1      18.433  -2.957  36.634  1.00  0.00     0.015 C 
ATOM      4  C   UNL     1      19.095  -4.110  36.479  1.00  0.00     0.007 C 
BRANCH   4   5
ATOM      5  C   UNL     1      18.691  -5.176  35.528  1.00  0.00    -0.022 A 
ATOM      6  C   UNL     1      18.200  -5.828  33.220  1.00  0.00     0.161 A 
ATOM      7  C   UNL     1      17.905  -7.131  33.657  1.00  0.00     0.157 A 
ATOM      8  C   UNL     1      18.587  -4.856  34.164  1.00  0.00     0.058 A 
ATOM      9  C   UNL     1      17.992  -7.448  35.015  1.00  0.00     0.051 A 
ATOM     10  C   UNL     1      18.377  -6.482  35.947  1.00  0.00     0.012 A 
BRANCH   6  11
ATOM     11  O   UNL     1      18.098  -5.535  31.850  1.00  0.00    -0.493 OA
ATOM     12  C   UNL     1      18.872  -4.548  31.174  1.00  0.00     0.278 C 
ENDBRANCH   6  11
BRANCH   7  13
ATOM     13  O   UNL     1      17.519  -8.124  32.757  1.00  0.00    -0.504 OA
ATOM     14  H   UNL     1      18.161  -8.837  32.432  1.00  0.00     0.293 HD
ENDBRANCH   7  13
ENDBRANCH   4   5
ENDBRANCH   2   3
ENDBRANCH   1   2
BRANCH   1  15
ATOM     15  C   UNL     1      21.116  -1.962  36.540  1.00  0.00     0.331 C 
ATOM     16  O   UNL     1      21.508  -1.654  35.381  1.00  0.00    -0.247 OA
BRANCH  15  17
ATOM     17  C   UNL     1      21.723  -3.089  37.275  1.00  0.00     0.094 C 
ATOM     18  C   UNL     1      22.090  -4.264  36.741  1.00  0.00     0.016 C 
BRANCH  18  19
ATOM     19  C   UNL     1      22.124  -4.575  35.296  1.00  0.00    -0.021 A 
ATOM     20  C   UNL     1      22.104  -5.904  34.837  1.00  0.00     0.058 A 
ATOM     21  C   UNL     1      22.077  -3.527  34.369  1.00  0.00     0.012 A 
ATOM     22  C   UNL     1      22.097  -6.183  33.456  1.00  0.00     0.161 A 
ATOM     23  C   UNL     1      22.065  -3.797  32.999  1.00  0.00     0.051 A 
ATOM     24  C   UNL     1      22.080  -5.122  32.541  1.00  0.00     0.157 A 
BRANCH  22  25
ATOM     25  O   UNL     1      22.103  -7.497  32.959  1.00  0.00    -0.493 OA
ATOM     26  C   UNL     1      20.990  -8.124  32.330  1.00  0.00     0.278 C 
ENDBRANCH  22  25
BRANCH  24  27
ATOM     27  O   UNL     1      22.075  -5.391  31.173  1.00  0.00    -0.504 OA
ATOM     28  H   UNL     1      21.490  -4.868  30.532  1.00  0.00     0.293 HD
ENDBRANCH  24  27
ENDBRANCH  18  19
ENDBRANCH  15  17
ENDBRANCH   1  15
TORSDOF 10
ENDMDL
