MODEL 1
REMARK VINA RESULT:    -4.916      0.000      0.000
REMARK INTER + INTRA:          -6.065
REMARK INTER:                  -5.778
REMARK INTRA:                  -0.287
REMARK UNBOUND:                -0.287
REMARK SMILES O=c1cc(-c2ccc(O)c(O)c2)oc2cc(O)cc(O)c12
REMARK SMILES IDX 4 1 3 2 2 3 1 4 21 5 19 6 18 7 16 8 15 9 14 10 13 11 5 12
REMARK SMILES IDX 6 13 7 14 8 15 12 16 10 17 9 18 11 20 20 22 17 24
REMARK H PARENT 9 19 11 21 20 23 17 25
REMARK Flexibility Score: inf
ROOT
ATOM      1  C   UNL     1      -8.236  15.602  32.506  1.00  0.00     0.138 A 
ATOM      2  C   UNL     1      -9.352  15.010  31.898  1.00  0.00     0.100 A 
ATOM      3  C   UNL     1      -9.438  14.965  30.507  1.00  0.00     0.197 A 
ATOM      4  O   UNL     1     -10.421  14.372  29.992  1.00  0.00    -0.289 OA
ATOM      5  C   UNL     1      -8.417  15.547  29.720  1.00  0.00     0.107 A 
ATOM      6  C   UNL     1      -8.419  15.597  28.293  1.00  0.00     0.134 A 
ATOM      7  C   UNL     1      -7.296  16.094  27.619  1.00  0.00     0.093 A 
ATOM      8  C   UNL     1      -6.200  16.597  28.317  1.00  0.00     0.123 A 
ATOM      9  C   UNL     1      -6.210  16.603  29.713  1.00  0.00     0.094 A 
ATOM     10  C   UNL     1      -7.299  16.082  30.415  1.00  0.00     0.146 A 
ATOM     11  O   UNL     1      -7.264  16.092  31.743  1.00  0.00    -0.456 OA
ENDROOT
BRANCH   1  12
ATOM     12  C   UNL     1      -8.093  15.676  33.982  1.00  0.00     0.021 A 
ATOM     13  C   UNL     1      -7.321  16.678  34.599  1.00  0.00     0.016 A 
ATOM     14  C   UNL     1      -7.196  16.718  35.991  1.00  0.00     0.051 A 
ATOM     15  C   UNL     1      -7.828  15.760  36.787  1.00  0.00     0.157 A 
ATOM     16  C   UNL     1      -8.715  14.707  34.787  1.00  0.00     0.062 A 
ATOM     17  C   UNL     1      -8.590  14.747  36.184  1.00  0.00     0.158 A 
BRANCH  15  18
ATOM     18  O   UNL     1      -7.684  15.828  38.172  1.00  0.00    -0.504 OA
ATOM     19  H   UNL     1      -6.802  16.067  38.611  1.00  0.00     0.293 HD
ENDBRANCH  15  18
BRANCH  17  20
ATOM     20  O   UNL     1      -9.220  13.785  36.972  1.00  0.00    -0.504 OA
ATOM     21  H   UNL     1      -8.869  13.539  37.891  1.00  0.00     0.293 HD
ENDBRANCH  17  20
ENDBRANCH   1  12
BRANCH   6  22
ATOM     22  O   UNL     1      -9.498  15.199  27.499  1.00  0.00    -0.507 OA
ATOM     23  H   UNL     1     -10.046  15.816  26.919  1.00  0.00     0.293 HD
ENDBRANCH   6  22
BRANCH   8  24
ATOM     24  O   UNL     1      -5.107  17.099  27.613  1.00  0.00    -0.508 OA
ATOM     25  H   UNL     1      -4.392  16.486  27.238  1.00  0.00     0.293 HD
ENDBRANCH   8  24
TORSDOF 5
ENDMDL
MODEL 2
REMARK VINA RESULT:    -4.536      1.548      7.423
REMARK INTER + INTRA:          -5.618
REMARK INTER:                  -5.343
REMARK INTRA:                  -0.276
REMARK UNBOUND:                -0.287
REMARK SMILES O=c1cc(-c2ccc(O)c(O)c2)oc2cc(O)cc(O)c12
REMARK SMILES IDX 4 1 3 2 2 3 1 4 21 5 19 6 18 7 16 8 15 9 14 10 13 11 5 12
REMARK SMILES IDX 6 13 7 14 8 15 12 16 10 17 9 18 11 20 20 22 17 24
REMARK H PARENT 9 19 11 21 20 23 17 25
REMARK Flexibility Score: inf
ROOT
ATOM      1  C   UNL     1      -7.761  16.167  32.383  1.00  0.00     0.138 A 
ATOM      2  C   UNL     1      -6.589  16.689  32.949  1.00  0.00     0.100 A 
ATOM      3  C   UNL     1      -6.442  16.708  34.336  1.00  0.00     0.197 A 
ATOM      4  O   UNL     1      -5.355  17.124  34.812  1.00  0.00    -0.289 OA
ATOM      5  C   UNL     1      -7.489  16.234  35.162  1.00  0.00     0.107 A 
ATOM      6  C   UNL     1      -7.467  16.243  36.589  1.00  0.00     0.134 A 
ATOM      7  C   UNL     1      -8.512  15.638  37.298  1.00  0.00     0.093 A 
ATOM      8  C   UNL     1      -9.605  15.081  36.637  1.00  0.00     0.123 A 
ATOM      9  C   UNL     1      -9.663  15.114  35.243  1.00  0.00     0.094 A 
ATOM     10  C   UNL     1      -8.620  15.678  34.505  1.00  0.00     0.146 A 
ATOM     11  O   UNL     1      -8.706  15.677  33.179  1.00  0.00    -0.456 OA
ENDROOT
BRANCH   1  12
ATOM     12  C   UNL     1      -7.969  16.122  30.914  1.00  0.00     0.021 A 
ATOM     13  C   UNL     1      -9.201  16.474  30.331  1.00  0.00     0.016 A 
ATOM     14  C   UNL     1      -9.373  16.412  28.945  1.00  0.00     0.051 A 
ATOM     15  C   UNL     1      -8.327  15.992  28.120  1.00  0.00     0.157 A 
ATOM     16  C   UNL     1      -6.925  15.687  30.079  1.00  0.00     0.062 A 
ATOM     17  C   UNL     1      -7.096  15.625  28.688  1.00  0.00     0.158 A 
BRANCH  15  18
ATOM     18  O   UNL     1      -8.529  15.942  26.742  1.00  0.00    -0.504 OA
ATOM     19  H   UNL     1      -7.814  16.227  26.082  1.00  0.00     0.293 HD
ENDBRANCH  15  18
BRANCH  17  20
ATOM     20  O   UNL     1      -6.049  15.201  27.871  1.00  0.00    -0.504 OA
ATOM     21  H   UNL     1      -6.078  15.326  26.865  1.00  0.00     0.293 HD
ENDBRANCH  17  20
ENDBRANCH   1  12
BRANCH   6  22
ATOM     22  O   UNL     1      -6.464  16.849  37.351  1.00  0.00    -0.507 OA
ATOM     23  H   UNL     1      -5.516  17.002  37.039  1.00  0.00     0.293 HD
ENDBRANCH   6  22
BRANCH   8  24
ATOM     24  O   UNL     1     -10.634  14.502  37.377  1.00  0.00    -0.508 OA
ATOM     25  H   UNL     1     -11.529  14.279  36.956  1.00  0.00     0.293 HD
ENDBRANCH   8  24
TORSDOF 5
ENDMDL
MODEL 3
REMARK VINA RESULT:    -4.529      2.081      7.114
REMARK INTER + INTRA:          -5.610
REMARK INTER:                  -5.295
REMARK INTRA:                  -0.316
REMARK UNBOUND:                -0.287
REMARK SMILES O=c1cc(-c2ccc(O)c(O)c2)oc2cc(O)cc(O)c12
REMARK SMILES IDX 4 1 3 2 2 3 1 4 21 5 19 6 18 7 16 8 15 9 14 10 13 11 5 12
REMARK SMILES IDX 6 13 7 14 8 15 12 16 10 17 9 18 11 20 20 22 17 24
REMARK H PARENT 9 19 11 21 20 23 17 25
REMARK Flexibility Score: inf
ROOT
ATOM      1  C   UNL     1      -9.450  15.058  30.145  1.00  0.00     0.138 A 
ATOM      2  C   UNL     1     -10.163  14.091  30.867  1.00  0.00     0.100 A 
ATOM      3  C   UNL     1      -9.865  13.875  32.212  1.00  0.00     0.197 A 
ATOM      4  O   UNL     1     -10.564  13.045  32.849  1.00  0.00    -0.289 OA
ATOM      5  C   UNL     1      -8.825  14.609  32.830  1.00  0.00     0.107 A 
ATOM      6  C   UNL     1      -8.407  14.444  34.184  1.00  0.00     0.134 A 
ATOM      7  C   UNL     1      -7.443  15.310  34.719  1.00  0.00     0.093 A 
ATOM      8  C   UNL     1      -6.842  16.291  33.934  1.00  0.00     0.123 A 
ATOM      9  C   UNL     1      -7.204  16.426  32.593  1.00  0.00     0.094 A 
ATOM     10  C   UNL     1      -8.186  15.603  32.039  1.00  0.00     0.146 A 
ATOM     11  O   UNL     1      -8.514  15.773  30.763  1.00  0.00    -0.456 OA
ENDROOT
BRANCH   1  12
ATOM     12  C   UNL     1      -9.725  15.329  28.711  1.00  0.00     0.021 A 
ATOM     13  C   UNL     1     -10.866  14.813  28.068  1.00  0.00     0.016 A 
ATOM     14  C   UNL     1     -11.095  15.076  26.714  1.00  0.00     0.051 A 
ATOM     15  C   UNL     1     -10.190  15.846  25.979  1.00  0.00     0.157 A 
ATOM     16  C   UNL     1      -8.811  16.091  27.963  1.00  0.00     0.062 A 
ATOM     17  C   UNL     1      -9.040  16.355  26.604  1.00  0.00     0.158 A 
BRANCH  15  18
ATOM     18  O   UNL     1     -10.447  16.090  24.631  1.00  0.00    -0.504 OA
ATOM     19  H   UNL     1      -9.705  16.140  23.942  1.00  0.00     0.293 HD
ENDBRANCH  15  18
BRANCH  17  20
ATOM     20  O   UNL     1      -8.132  17.121  25.876  1.00  0.00    -0.504 OA
ATOM     21  H   UNL     1      -7.469  17.736  26.333  1.00  0.00     0.293 HD
ENDBRANCH  17  20
ENDBRANCH   1  12
BRANCH   6  22
ATOM     22  O   UNL     1      -8.882  13.440  35.032  1.00  0.00    -0.507 OA
ATOM     23  H   UNL     1      -8.893  12.455  34.810  1.00  0.00     0.293 HD
ENDBRANCH   6  22
BRANCH   8  24
ATOM     24  O   UNL     1      -5.876  17.125  34.496  1.00  0.00    -0.508 OA
ATOM     25  H   UNL     1      -4.978  17.272  34.049  1.00  0.00     0.293 HD
ENDBRANCH   8  24
TORSDOF 5
ENDMDL
MODEL 4
REMARK VINA RESULT:    -4.444      1.512      6.926
REMARK INTER + INTRA:          -5.510
REMARK INTER:                  -5.198
REMARK INTRA:                  -0.312
REMARK UNBOUND:                -0.287
REMARK SMILES O=c1cc(-c2ccc(O)c(O)c2)oc2cc(O)cc(O)c12
REMARK SMILES IDX 4 1 3 2 2 3 1 4 21 5 19 6 18 7 16 8 15 9 14 10 13 11 5 12
REMARK SMILES IDX 6 13 7 14 8 15 12 16 10 17 9 18 11 20 20 22 17 24
REMARK H PARENT 9 19 11 21 20 23 17 25
REMARK Flexibility Score: inf
ROOT
ATOM      1  C   UNL     1      -8.362  16.021  31.311  1.00  0.00     0.138 A 
ATOM      2  C   UNL     1      -9.486  15.344  31.805  1.00  0.00     0.100 A 
ATOM      3  C   UNL     1      -9.593  15.091  33.173  1.00  0.00     0.197 A 
ATOM      4  O   UNL     1     -10.641  14.538  33.594  1.00  0.00    -0.289 OA
ATOM      5  C   UNL     1      -8.553  15.487  34.046  1.00  0.00     0.107 A 
ATOM      6  C   UNL     1      -8.534  15.245  35.452  1.00  0.00     0.134 A 
ATOM      7  C   UNL     1      -7.505  15.788  36.232  1.00  0.00     0.093 A 
ATOM      8  C   UNL     1      -6.465  16.511  35.651  1.00  0.00     0.123 A 
ATOM      9  C   UNL     1      -6.444  16.708  34.270  1.00  0.00     0.094 A 
ATOM     10  C   UNL     1      -7.473  16.210  33.468  1.00  0.00     0.146 A 
ATOM     11  O   UNL     1      -7.425  16.432  32.159  1.00  0.00    -0.456 OA
ENDROOT
BRANCH   1  12
ATOM     12  C   UNL     1      -8.198  16.317  29.865  1.00  0.00     0.021 A 
ATOM     13  C   UNL     1      -9.292  16.310  28.981  1.00  0.00     0.016 A 
ATOM     14  C   UNL     1      -9.107  16.583  27.622  1.00  0.00     0.051 A 
ATOM     15  C   UNL     1      -7.831  16.857  27.123  1.00  0.00     0.157 A 
ATOM     16  C   UNL     1      -6.915  16.580  29.354  1.00  0.00     0.062 A 
ATOM     17  C   UNL     1      -6.727  16.854  27.992  1.00  0.00     0.158 A 
BRANCH  15  18
ATOM     18  O   UNL     1      -7.678  17.125  25.763  1.00  0.00    -0.504 OA
ATOM     19  H   UNL     1      -6.868  17.611  25.398  1.00  0.00     0.293 HD
ENDBRANCH  15  18
BRANCH  17  20
ATOM     20  O   UNL     1      -5.452  17.122  27.499  1.00  0.00    -0.504 OA
ATOM     21  H   UNL     1      -5.161  18.065  27.263  1.00  0.00     0.293 HD
ENDBRANCH  17  20
ENDBRANCH   1  12
BRANCH   6  22
ATOM     22  O   UNL     1      -9.480  14.464  36.122  1.00  0.00    -0.507 OA
ATOM     23  H   UNL     1      -9.260  13.711  36.758  1.00  0.00     0.293 HD
ENDBRANCH   6  22
BRANCH   8  24
ATOM     24  O   UNL     1      -5.450  17.023  36.457  1.00  0.00    -0.508 OA
ATOM     25  H   UNL     1      -5.179  17.999  36.412  1.00  0.00     0.293 HD
ENDBRANCH   8  24
TORSDOF 5
ENDMDL
MODEL 5
REMARK VINA RESULT:    -4.434      1.447      3.045
REMARK INTER + INTRA:          -5.498
REMARK INTER:                  -5.206
REMARK INTRA:                  -0.292
REMARK UNBOUND:                -0.287
REMARK SMILES O=c1cc(-c2ccc(O)c(O)c2)oc2cc(O)cc(O)c12
REMARK SMILES IDX 4 1 3 2 2 3 1 4 21 5 19 6 18 7 16 8 15 9 14 10 13 11 5 12
REMARK SMILES IDX 6 13 7 14 8 15 12 16 10 17 9 18 11 20 20 22 17 24
REMARK H PARENT 9 19 11 21 20 23 17 25
REMARK Flexibility Score: inf
ROOT
ATOM      1  C   UNL     1      -8.303  15.998  31.856  1.00  0.00     0.138 A 
ATOM      2  C   UNL     1      -6.962  16.404  31.834  1.00  0.00     0.100 A 
ATOM      3  C   UNL     1      -6.351  16.703  30.616  1.00  0.00     0.197 A 
ATOM      4  O   UNL     1      -5.166  17.125  30.634  1.00  0.00    -0.289 OA
ATOM      5  C   UNL     1      -7.078  16.561  29.411  1.00  0.00     0.107 A 
ATOM      6  C   UNL     1      -6.546  16.798  28.108  1.00  0.00     0.134 A 
ATOM      7  C   UNL     1      -7.395  16.738  26.995  1.00  0.00     0.093 A 
ATOM      8  C   UNL     1      -8.738  16.392  27.130  1.00  0.00     0.123 A 
ATOM      9  C   UNL     1      -9.256  16.106  28.394  1.00  0.00     0.094 A 
ATOM     10  C   UNL     1      -8.445  16.191  29.527  1.00  0.00     0.146 A 
ATOM     11  O   UNL     1      -8.980  15.926  30.714  1.00  0.00    -0.456 OA
ENDROOT
BRANCH   1  12
ATOM     12  C   UNL     1      -9.003  15.668  33.124  1.00  0.00     0.021 A 
ATOM     13  C   UNL     1     -10.407  15.630  33.204  1.00  0.00     0.016 A 
ATOM     14  C   UNL     1     -11.039  15.326  34.413  1.00  0.00     0.051 A 
ATOM     15  C   UNL     1     -10.286  15.064  35.560  1.00  0.00     0.157 A 
ATOM     16  C   UNL     1      -8.250  15.417  34.284  1.00  0.00     0.062 A 
ATOM     17  C   UNL     1      -8.883  15.112  35.498  1.00  0.00     0.158 A 
BRANCH  15  18
ATOM     18  O   UNL     1     -10.946  14.764  36.751  1.00  0.00    -0.504 OA
ATOM     19  H   UNL     1     -11.686  15.350  37.120  1.00  0.00     0.293 HD
ENDBRANCH  15  18
BRANCH  17  20
ATOM     20  O   UNL     1      -8.126  14.855  36.640  1.00  0.00    -0.504 OA
ATOM     21  H   UNL     1      -7.500  15.552  37.029  1.00  0.00     0.293 HD
ENDBRANCH  17  20
ENDBRANCH   1  12
BRANCH   6  22
ATOM     22  O   UNL     1      -5.199  17.067  27.851  1.00  0.00    -0.507 OA
ATOM     23  H   UNL     1      -4.570  16.449  27.361  1.00  0.00     0.293 HD
ENDBRANCH   6  22
BRANCH   8  24
ATOM     24  O   UNL     1      -9.549  16.328  25.998  1.00  0.00    -0.508 OA
ATOM     25  H   UNL     1      -9.751  17.152  25.444  1.00  0.00     0.293 HD
ENDBRANCH   8  24
TORSDOF 5
ENDMDL
MODEL 6
REMARK VINA RESULT:    -4.262     10.989     14.904
REMARK INTER + INTRA:          -5.297
REMARK INTER:                  -4.998
REMARK INTRA:                  -0.299
REMARK UNBOUND:                -0.287
REMARK SMILES O=c1cc(-c2ccc(O)c(O)c2)oc2cc(O)cc(O)c12
REMARK SMILES IDX 4 1 3 2 2 3 1 4 21 5 19 6 18 7 16 8 15 9 14 10 13 11 5 12
REMARK SMILES IDX 6 13 7 14 8 15 12 16 10 17 9 18 11 20 20 22 17 24
REMARK H PARENT 9 19 11 21 20 23 17 25
REMARK Flexibility Score: inf
ROOT
ATOM      1  C   UNL     1       3.413  16.620  25.594  1.00  0.00     0.138 A 
ATOM      2  C   UNL     1       2.097  16.764  26.053  1.00  0.00     0.100 A 
ATOM      3  C   UNL     1       1.856  16.926  27.418  1.00  0.00     0.197 A 
ATOM      4  O   UNL     1       0.670  17.116  27.793  1.00  0.00    -0.289 OA
ATOM      5  C   UNL     1       2.936  16.909  28.330  1.00  0.00     0.107 A 
ATOM      6  C   UNL     1       2.806  17.024  29.747  1.00  0.00     0.134 A 
ATOM      7  C   UNL     1       3.957  17.112  30.541  1.00  0.00     0.093 A 
ATOM      8  C   UNL     1       5.229  17.029  29.977  1.00  0.00     0.123 A 
ATOM      9  C   UNL     1       5.368  16.862  28.599  1.00  0.00     0.094 A 
ATOM     10  C   UNL     1       4.241  16.806  27.776  1.00  0.00     0.146 A 
ATOM     11  O   UNL     1       4.415  16.662  26.467  1.00  0.00    -0.456 OA
ENDROOT
BRANCH   1  12
ATOM     12  C   UNL     1       3.727  16.444  24.153  1.00  0.00     0.021 A 
ATOM     13  C   UNL     1       3.008  17.125  23.153  1.00  0.00     0.016 A 
ATOM     14  C   UNL     1       3.318  16.933  21.804  1.00  0.00     0.051 A 
ATOM     15  C   UNL     1       4.340  16.057  21.429  1.00  0.00     0.157 A 
ATOM     16  C   UNL     1       4.745  15.554  23.770  1.00  0.00     0.062 A 
ATOM     17  C   UNL     1       5.057  15.361  22.416  1.00  0.00     0.158 A 
BRANCH  15  18
ATOM     18  O   UNL     1       4.626  15.888  20.075  1.00  0.00    -0.504 OA
ATOM     19  H   UNL     1       5.382  15.294  19.754  1.00  0.00     0.293 HD
ENDBRANCH  15  18
BRANCH  17  20
ATOM     20  O   UNL     1       6.075  14.482  22.049  1.00  0.00    -0.504 OA
ATOM     21  H   UNL     1       6.957  14.453  22.549  1.00  0.00     0.293 HD
ENDBRANCH  17  20
ENDBRANCH   1  12
BRANCH   6  22
ATOM     22  O   UNL     1       1.582  17.030  30.421  1.00  0.00    -0.507 OA
ATOM     23  H   UNL     1       0.828  16.381  30.252  1.00  0.00     0.293 HD
ENDBRANCH   6  22
BRANCH   8  24
ATOM     24  O   UNL     1       6.352  17.105  30.800  1.00  0.00    -0.508 OA
ATOM     25  H   UNL     1       7.269  16.821  30.473  1.00  0.00     0.293 HD
ENDBRANCH   8  24
TORSDOF 5
ENDMDL
MODEL 7
REMARK VINA RESULT:    -3.902      1.661      2.139
REMARK INTER + INTRA:          -4.873
REMARK INTER:                  -4.592
REMARK INTRA:                  -0.280
REMARK UNBOUND:                -0.287
REMARK SMILES O=c1cc(-c2ccc(O)c(O)c2)oc2cc(O)cc(O)c12
REMARK SMILES IDX 4 1 3 2 2 3 1 4 21 5 19 6 18 7 16 8 15 9 14 10 13 11 5 12
REMARK SMILES IDX 6 13 7 14 8 15 12 16 10 17 9 18 11 20 20 22 17 24
REMARK H PARENT 9 19 11 21 20 23 17 25
REMARK Flexibility Score: inf
ROOT
ATOM      1  C   UNL     1      -8.379  16.345  31.644  1.00  0.00     0.138 A 
ATOM      2  C   UNL     1      -9.195  16.376  30.504  1.00  0.00     0.100 A 
ATOM      3  C   UNL     1      -8.614  16.518  29.243  1.00  0.00     0.197 A 
ATOM      4  O   UNL     1      -9.366  16.480  28.236  1.00  0.00    -0.289 OA
ATOM      5  C   UNL     1      -7.212  16.662  29.127  1.00  0.00     0.107 A 
ATOM      6  C   UNL     1      -6.513  16.854  27.897  1.00  0.00     0.134 A 
ATOM      7  C   UNL     1      -5.113  16.867  27.894  1.00  0.00     0.093 A 
ATOM      8  C   UNL     1      -4.388  16.756  29.079  1.00  0.00     0.123 A 
ATOM      9  C   UNL     1      -5.062  16.623  30.293  1.00  0.00     0.094 A 
ATOM     10  C   UNL     1      -6.457  16.571  30.327  1.00  0.00     0.146 A 
ATOM     11  O   UNL     1      -7.060  16.428  31.502  1.00  0.00    -0.456 OA
ENDROOT
BRANCH   1  12
ATOM     12  C   UNL     1      -8.944  16.197  33.009  1.00  0.00     0.021 A 
ATOM     13  C   UNL     1      -9.863  17.125  33.533  1.00  0.00     0.016 A 
ATOM     14  C   UNL     1     -10.371  16.966  34.825  1.00  0.00     0.051 A 
ATOM     15  C   UNL     1      -9.967  15.889  35.617  1.00  0.00     0.157 A 
ATOM     16  C   UNL     1      -8.531  15.123  33.816  1.00  0.00     0.062 A 
ATOM     17  C   UNL     1      -9.041  14.962  35.113  1.00  0.00     0.158 A 
BRANCH  15  18
ATOM     18  O   UNL     1     -10.493  15.757  36.902  1.00  0.00    -0.504 OA
ATOM     19  H   UNL     1      -9.959  15.999  37.730  1.00  0.00     0.293 HD
ENDBRANCH  15  18
BRANCH  17  20
ATOM     20  O   UNL     1      -8.630  13.887  35.900  1.00  0.00    -0.504 OA
ATOM     21  H   UNL     1      -7.851  13.968  36.544  1.00  0.00     0.293 HD
ENDBRANCH  17  20
ENDBRANCH   1  12
BRANCH   6  22
ATOM     22  O   UNL     1      -7.142  17.060  26.666  1.00  0.00    -0.507 OA
ATOM     23  H   UNL     1      -7.413  17.961  26.300  1.00  0.00     0.293 HD
ENDBRANCH   6  22
BRANCH   8  24
ATOM     24  O   UNL     1      -2.995  16.789  29.039  1.00  0.00    -0.508 OA
ATOM     25  H   UNL     1      -2.437  16.607  29.865  1.00  0.00     0.293 HD
ENDBRANCH   8  24
TORSDOF 5
ENDMDL
MODEL 8
REMARK VINA RESULT:    -3.709      2.765      3.662
REMARK INTER + INTRA:          -4.647
REMARK INTER:                  -4.366
REMARK INTRA:                  -0.281
REMARK UNBOUND:                -0.287
REMARK SMILES O=c1cc(-c2ccc(O)c(O)c2)oc2cc(O)cc(O)c12
REMARK SMILES IDX 4 1 3 2 2 3 1 4 21 5 19 6 18 7 16 8 15 9 14 10 13 11 5 12
REMARK SMILES IDX 6 13 7 14 8 15 12 16 10 17 9 18 11 20 20 22 17 24
REMARK H PARENT 9 19 11 21 20 23 17 25
REMARK Flexibility Score: inf
ROOT
ATOM      1  C   UNL     1      -9.348  15.335  33.821  1.00  0.00     0.138 A 
ATOM      2  C   UNL     1      -9.562  16.386  32.918  1.00  0.00     0.100 A 
ATOM      3  C   UNL     1     -10.034  16.108  31.635  1.00  0.00     0.197 A 
ATOM      4  O   UNL     1     -10.276  17.077  30.869  1.00  0.00    -0.289 OA
ATOM      5  C   UNL     1     -10.262  14.768  31.244  1.00  0.00     0.107 A 
ATOM      6  C   UNL     1     -10.704  14.363  29.949  1.00  0.00     0.134 A 
ATOM      7  C   UNL     1     -11.007  13.016  29.713  1.00  0.00     0.093 A 
ATOM      8  C   UNL     1     -10.827  12.053  30.704  1.00  0.00     0.123 A 
ATOM      9  C   UNL     1     -10.344  12.429  31.958  1.00  0.00     0.094 A 
ATOM     10  C   UNL     1     -10.066  13.769  32.235  1.00  0.00     0.146 A 
ATOM     11  O   UNL     1      -9.622  14.089  33.446  1.00  0.00    -0.456 OA
ENDROOT
BRANCH   1  12
ATOM     12  C   UNL     1      -8.846  15.574  35.198  1.00  0.00     0.021 A 
ATOM     13  C   UNL     1      -7.615  16.214  35.435  1.00  0.00     0.016 A 
ATOM     14  C   UNL     1      -7.163  16.416  36.742  1.00  0.00     0.051 A 
ATOM     15  C   UNL     1      -7.922  15.979  37.830  1.00  0.00     0.157 A 
ATOM     16  C   UNL     1      -9.599  15.123  36.296  1.00  0.00     0.062 A 
ATOM     17  C   UNL     1      -9.146  15.326  37.608  1.00  0.00     0.158 A 
BRANCH  15  18
ATOM     18  O   UNL     1      -7.444  16.196  39.122  1.00  0.00    -0.504 OA
ATOM     19  H   UNL     1      -7.708  17.010  39.664  1.00  0.00     0.293 HD
ENDBRANCH  15  18
BRANCH  17  20
ATOM     20  O   UNL     1      -9.906  14.884  38.689  1.00  0.00    -0.504 OA
ATOM     21  H   UNL     1      -9.646  14.058  39.219  1.00  0.00     0.293 HD
ENDBRANCH  17  20
ENDBRANCH   1  12
BRANCH   6  22
ATOM     22  O   UNL     1     -10.836  15.232  28.861  1.00  0.00    -0.507 OA
ATOM     23  H   UNL     1     -10.449  15.070  27.944  1.00  0.00     0.293 HD
ENDBRANCH   6  22
BRANCH   8  24
ATOM     24  O   UNL     1     -11.125  10.719  30.429  1.00  0.00    -0.508 OA
ATOM     25  H   UNL     1     -12.011  10.447  30.018  1.00  0.00     0.293 HD
ENDBRANCH   8  24
TORSDOF 5
ENDMDL
