MODEL 1
REMARK VINA RESULT:    -2.864      0.000      0.000
REMARK INTER + INTRA:          -3.403
REMARK INTER:                  -3.366
REMARK INTRA:                  -0.037
REMARK UNBOUND:                -0.037
REMARK SMILES CCCCC(=O)[O-]
REMARK SMILES IDX 4 1 5 2 6 3 7 4 3 5 2 6 1 7
REMARK H PARENT
REMARK Flexibility Score: inf
ROOT
ATOM      1  C   UNL     1      10.000  14.377  30.467  1.00  0.00     0.053 C 
ENDROOT
BRANCH   1   2
ATOM      2  C   UNL     1       9.256  13.247  31.104  1.00  0.00     0.041 C 
ATOM      3  O   UNL     1       9.703  12.701  32.146  1.00  0.00    -0.550 OA
ATOM      4  O   UNL     1       8.041  12.828  30.575  1.00  0.00    -0.550 OA
ENDBRANCH   1   2
BRANCH   1   5
ATOM      5  C   UNL     1      10.746  15.194  31.529  1.00  0.00     0.006 C 
BRANCH   5   6
ATOM      6  C   UNL     1      11.865  16.058  30.931  1.00  0.00    -0.003 C 
ATOM      7  C   UNL     1      11.759  16.194  29.412  1.00  0.00     0.004 C 
ENDBRANCH   5   6
ENDBRANCH   1   5
TORSDOF 3
ENDMDL
MODEL 2
REMARK VINA RESULT:    -2.861      1.470      2.141
REMARK INTER + INTRA:          -3.400
REMARK INTER:                  -3.296
REMARK INTRA:                  -0.104
REMARK UNBOUND:                -0.037
REMARK SMILES CCCCC(=O)[O-]
REMARK SMILES IDX 4 1 5 2 6 3 7 4 3 5 2 6 1 7
REMARK H PARENT
REMARK Flexibility Score: inf
ROOT
ATOM      1  C   UNL     1      10.685  15.312  30.258  1.00  0.00     0.053 C 
ENDROOT
BRANCH   1   2
ATOM      2  C   UNL     1       9.987  14.137  30.867  1.00  0.00     0.041 C 
ATOM      3  O   UNL     1       9.634  13.167  30.146  1.00  0.00    -0.550 OA
ATOM      4  O   UNL     1       9.770  14.090  32.238  1.00  0.00    -0.550 OA
ENDBRANCH   1   2
BRANCH   1   5
ATOM      5  C   UNL     1      11.812  15.800  31.177  1.00  0.00     0.006 C 
BRANCH   5   6
ATOM      6  C   UNL     1      11.638  17.268  31.595  1.00  0.00    -0.003 C 
ATOM      7  C   UNL     1      10.731  17.432  32.815  1.00  0.00     0.004 C 
ENDBRANCH   5   6
ENDBRANCH   1   5
TORSDOF 3
ENDMDL
MODEL 3
REMARK VINA RESULT:    -2.835     12.281     12.722
REMARK INTER + INTRA:          -3.369
REMARK INTER:                  -3.324
REMARK INTRA:                  -0.045
REMARK UNBOUND:                -0.037
REMARK SMILES CCCCC(=O)[O-]
REMARK SMILES IDX 4 1 5 2 6 3 7 4 3 5 2 6 1 7
REMARK H PARENT
REMARK Flexibility Score: inf
ROOT
ATOM      1  C   UNL     1      17.433  20.612  23.349  1.00  0.00     0.053 C 
ENDROOT
BRANCH   1   2
ATOM      2  C   UNL     1      17.054  20.026  22.026  1.00  0.00     0.041 C 
ATOM      3  O   UNL     1      16.232  20.622  21.282  1.00  0.00    -0.550 OA
ATOM      4  O   UNL     1      17.645  18.847  21.592  1.00  0.00    -0.550 OA
ENDBRANCH   1   2
BRANCH   1   5
ATOM      5  C   UNL     1      16.404  21.663  23.784  1.00  0.00     0.006 C 
BRANCH   5   6
ATOM      6  C   UNL     1      17.043  23.031  24.069  1.00  0.00    -0.003 C 
ATOM      7  C   UNL     1      16.021  24.168  24.084  1.00  0.00     0.004 C 
ENDBRANCH   5   6
ENDBRANCH   1   5
TORSDOF 3
ENDMDL
MODEL 4
REMARK VINA RESULT:    -2.811      1.537      1.898
REMARK INTER + INTRA:          -3.342
REMARK INTER:                  -3.256
REMARK INTRA:                  -0.086
REMARK UNBOUND:                -0.037
REMARK SMILES CCCCC(=O)[O-]
REMARK SMILES IDX 4 1 5 2 6 3 7 4 3 5 2 6 1 7
REMARK H PARENT
REMARK Flexibility Score: inf
ROOT
ATOM      1  C   UNL     1      10.903  15.869  32.328  1.00  0.00     0.053 C 
ENDROOT
BRANCH   1   2
ATOM      2  C   UNL     1       9.913  14.761  32.158  1.00  0.00     0.041 C 
ATOM      3  O   UNL     1       8.880  14.718  32.877  1.00  0.00    -0.550 OA
ATOM      4  O   UNL     1      10.105  13.801  31.172  1.00  0.00    -0.550 OA
ENDBRANCH   1   2
BRANCH   1   5
ATOM      5  C   UNL     1      11.915  15.865  31.175  1.00  0.00     0.006 C 
BRANCH   5   6
ATOM      6  C   UNL     1      11.493  16.780  30.017  1.00  0.00    -0.003 C 
ATOM      7  C   UNL     1      11.672  16.123  28.648  1.00  0.00     0.004 C 
ENDBRANCH   5   6
ENDBRANCH   1   5
TORSDOF 3
ENDMDL
MODEL 5
REMARK VINA RESULT:    -2.782      2.953      3.767
REMARK INTER + INTRA:          -3.307
REMARK INTER:                  -3.209
REMARK INTRA:                  -0.098
REMARK UNBOUND:                -0.037
REMARK SMILES CCCCC(=O)[O-]
REMARK SMILES IDX 4 1 5 2 6 3 7 4 3 5 2 6 1 7
REMARK H PARENT
REMARK Flexibility Score: inf
ROOT
ATOM      1  C   UNL     1      11.869  15.671  30.566  1.00  0.00     0.053 C 
ENDROOT
BRANCH   1   2
ATOM      2  C   UNL     1      11.469  16.209  29.229  1.00  0.00     0.041 C 
ATOM      3  O   UNL     1      12.318  16.303  28.304  1.00  0.00    -0.550 OA
ATOM      4  O   UNL     1      10.147  16.562  28.987  1.00  0.00    -0.550 OA
ENDBRANCH   1   2
BRANCH   1   5
ATOM      5  C   UNL     1      11.704  16.746  31.647  1.00  0.00     0.006 C 
BRANCH   5   6
ATOM      6  C   UNL     1      10.630  16.381  32.683  1.00  0.00    -0.003 C 
ATOM      7  C   UNL     1       9.961  15.037  32.393  1.00  0.00     0.004 C 
ENDBRANCH   5   6
ENDBRANCH   1   5
TORSDOF 3
ENDMDL
MODEL 6
REMARK VINA RESULT:    -2.778     12.274     12.949
REMARK INTER + INTRA:          -3.302
REMARK INTER:                  -3.262
REMARK INTRA:                  -0.040
REMARK UNBOUND:                -0.037
REMARK SMILES CCCCC(=O)[O-]
REMARK SMILES IDX 4 1 5 2 6 3 7 4 3 5 2 6 1 7
REMARK H PARENT
REMARK Flexibility Score: inf
ROOT
ATOM      1  C   UNL     1      17.247  22.380  23.818  1.00  0.00     0.053 C 
ENDROOT
BRANCH   1   2
ATOM      2  C   UNL     1      16.039  23.256  23.723  1.00  0.00     0.041 C 
ATOM      3  O   UNL     1      16.107  24.468  24.054  1.00  0.00    -0.550 OA
ATOM      4  O   UNL     1      14.848  22.747  23.220  1.00  0.00    -0.550 OA
ENDBRANCH   1   2
BRANCH   1   5
ATOM      5  C   UNL     1      16.910  20.951  23.373  1.00  0.00     0.006 C 
BRANCH   5   6
ATOM      6  C   UNL     1      17.803  20.465  22.222  1.00  0.00    -0.003 C 
ATOM      7  C   UNL     1      17.329  19.141  21.624  1.00  0.00     0.004 C 
ENDBRANCH   5   6
ENDBRANCH   1   5
TORSDOF 3
ENDMDL
MODEL 7
REMARK VINA RESULT:    -2.777      2.767      4.917
REMARK INTER + INTRA:          -3.301
REMARK INTER:                  -3.236
REMARK INTRA:                  -0.065
REMARK UNBOUND:                -0.037
REMARK SMILES CCCCC(=O)[O-]
REMARK SMILES IDX 4 1 5 2 6 3 7 4 3 5 2 6 1 7
REMARK H PARENT
REMARK Flexibility Score: inf
ROOT
ATOM      1  C   UNL     1       7.616  12.567  30.878  1.00  0.00     0.053 C 
ENDROOT
BRANCH   1   2
ATOM      2  C   UNL     1       8.867  13.292  31.261  1.00  0.00     0.041 C 
ATOM      3  O   UNL     1       9.881  13.242  30.517  1.00  0.00    -0.550 OA
ATOM      4  O   UNL     1       8.898  14.063  32.416  1.00  0.00    -0.550 OA
ENDBRANCH   1   2
BRANCH   1   5
ATOM      5  C   UNL     1       6.541  12.747  31.957  1.00  0.00     0.006 C 
BRANCH   5   6
ATOM      6  C   UNL     1       5.875  11.421  32.354  1.00  0.00    -0.003 C 
ATOM      7  C   UNL     1       6.840  10.236  32.301  1.00  0.00     0.004 C 
ENDBRANCH   5   6
ENDBRANCH   1   5
TORSDOF 3
ENDMDL
MODEL 8
REMARK VINA RESULT:    -2.759     11.050     12.153
REMARK INTER + INTRA:          -3.280
REMARK INTER:                  -3.191
REMARK INTRA:                  -0.089
REMARK UNBOUND:                -0.037
REMARK SMILES CCCCC(=O)[O-]
REMARK SMILES IDX 4 1 5 2 6 3 7 4 3 5 2 6 1 7
REMARK H PARENT
REMARK Flexibility Score: inf
ROOT
ATOM      1  C   UNL     1      16.507  19.842  21.824  1.00  0.00     0.053 C 
ENDROOT
BRANCH   1   2
ATOM      2  C   UNL     1      16.721  20.216  23.256  1.00  0.00     0.041 C 
ATOM      3  O   UNL     1      16.030  19.679  24.161  1.00  0.00    -0.550 OA
ATOM      4  O   UNL     1      17.717  21.122  23.598  1.00  0.00    -0.550 OA
ENDBRANCH   1   2
BRANCH   1   5
ATOM      5  C   UNL     1      17.397  18.652  21.443  1.00  0.00     0.006 C 
BRANCH   5   6
ATOM      6  C   UNL     1      16.596  17.478  20.860  1.00  0.00    -0.003 C 
ATOM      7  C   UNL     1      15.332  17.169  21.663  1.00  0.00     0.004 C 
ENDBRANCH   5   6
ENDBRANCH   1   5
TORSDOF 3
ENDMDL
MODEL 9
REMARK VINA RESULT:    -2.755     12.567     13.418
REMARK INTER + INTRA:          -3.276
REMARK INTER:                  -3.255
REMARK INTRA:                  -0.021
REMARK UNBOUND:                -0.037
REMARK SMILES CCCCC(=O)[O-]
REMARK SMILES IDX 4 1 5 2 6 3 7 4 3 5 2 6 1 7
REMARK H PARENT
REMARK Flexibility Score: inf
ROOT
ATOM      1  C   UNL     1      15.641  21.272  22.581  1.00  0.00     0.053 C 
ENDROOT
BRANCH   1   2
ATOM      2  C   UNL     1      17.129  21.173  22.692  1.00  0.00     0.041 C 
ATOM      3  O   UNL     1      17.764  21.971  23.430  1.00  0.00    -0.550 OA
ATOM      4  O   UNL     1      17.812  20.167  22.019  1.00  0.00    -0.550 OA
ENDBRANCH   1   2
BRANCH   1   5
ATOM      5  C   UNL     1      15.216  21.333  21.109  1.00  0.00     0.006 C 
BRANCH   5   6
ATOM      6  C   UNL     1      14.411  22.599  20.779  1.00  0.00    -0.003 C 
ATOM      7  C   UNL     1      14.444  22.950  19.291  1.00  0.00     0.004 C 
ENDBRANCH   5   6
ENDBRANCH   1   5
TORSDOF 3
ENDMDL
