MODEL 1
REMARK VINA RESULT:    -3.945      0.000      0.000
REMARK INTER + INTRA:          -9.969
REMARK INTER:                  -7.634
REMARK INTRA:                  -2.335
REMARK UNBOUND:                -2.335
REMARK SMILES CCCCCCCCCCCCCCCCCC(=O)[O-]
REMARK SMILES IDX 10 1 11 2 12 3 13 4 14 5 15 6 16 7 17 8 18 9 19 10 20 11
REMARK SMILES IDX 9 12 8 13 7 14 6 15 5 16 4 17 3 18 2 19 1 20
REMARK H PARENT
REMARK Flexibility Score: inf
ROOT
ATOM      1  C   UNL     1      22.618  27.975  23.943  1.00  0.00     0.000 C 
ENDROOT
BRANCH   1   2
ATOM      2  C   UNL     1      22.163  27.587  22.528  1.00  0.00     0.000 C 
BRANCH   2   3
ATOM      3  C   UNL     1      23.337  27.645  21.540  1.00  0.00     0.000 C 
BRANCH   3   4
ATOM      4  C   UNL     1      23.543  26.322  20.785  1.00  0.00     0.000 C 
BRANCH   4   5
ATOM      5  C   UNL     1      24.835  26.311  19.952  1.00  0.00     0.000 C 
BRANCH   5   6
ATOM      6  C   UNL     1      25.255  24.875  19.611  1.00  0.00     0.000 C 
BRANCH   6   7
ATOM      7  C   UNL     1      26.752  24.609  19.856  1.00  0.00     0.006 C 
BRANCH   7   8
ATOM      8  C   UNL     1      27.608  24.632  18.578  1.00  0.00     0.053 C 
BRANCH   8   9
ATOM      9  C   UNL     1      27.849  26.022  18.072  1.00  0.00     0.041 C 
ATOM     10  O   UNL     1      28.567  26.820  18.729  1.00  0.00    -0.550 OA
ATOM     11  O   UNL     1      27.253  26.449  16.891  1.00  0.00    -0.550 OA
ENDBRANCH   8   9
ENDBRANCH   7   8
ENDBRANCH   6   7
ENDBRANCH   5   6
ENDBRANCH   4   5
ENDBRANCH   3   4
ENDBRANCH   2   3
ENDBRANCH   1   2
BRANCH   1  12
ATOM     12  C   UNL     1      22.997  26.757  24.808  1.00  0.00     0.000 C 
BRANCH  12  13
ATOM     13  C   UNL     1      24.507  26.469  24.897  1.00  0.00    -0.000 C 
BRANCH  13  14
ATOM     14  C   UNL     1      24.928  25.230  24.094  1.00  0.00    -0.000 C 
BRANCH  14  15
ATOM     15  C   UNL     1      26.196  25.509  23.275  1.00  0.00    -0.000 C 
BRANCH  15  16
ATOM     16  C   UNL     1      26.543  27.012  23.225  1.00  0.00    -0.000 C 
BRANCH  16  17
ATOM     17  C   UNL     1      27.689  27.356  22.253  1.00  0.00    -0.000 C 
BRANCH  17  18
ATOM     18  C   UNL     1      29.039  27.660  22.925  1.00  0.00    -0.000 C 
BRANCH  18  19
ATOM     19  C   UNL     1      28.984  28.896  23.835  1.00  0.00    -0.003 C 
ATOM     20  C   UNL     1      30.020  28.800  24.951  1.00  0.00     0.004 C 
ENDBRANCH  18  19
ENDBRANCH  17  18
ENDBRANCH  16  17
ENDBRANCH  15  16
ENDBRANCH  14  15
ENDBRANCH  13  14
ENDBRANCH  12  13
ENDBRANCH   1  12
TORSDOF 16
ENDMDL
MODEL 2
REMARK VINA RESULT:    -3.814     15.630     17.239
REMARK INTER + INTRA:          -9.716
REMARK INTER:                  -8.091
REMARK INTRA:                  -1.625
REMARK UNBOUND:                -2.335
REMARK SMILES CCCCCCCCCCCCCCCCCC(=O)[O-]
REMARK SMILES IDX 10 1 11 2 12 3 13 4 14 5 15 6 16 7 17 8 18 9 19 10 20 11
REMARK SMILES IDX 9 12 8 13 7 14 6 15 5 16 4 17 3 18 2 19 1 20
REMARK H PARENT
REMARK Flexibility Score: inf
ROOT
ATOM      1  C   UNL     1      23.808  11.352  20.494  1.00  0.00     0.000 C 
ENDROOT
BRANCH   1   2
ATOM      2  C   UNL     1      23.142  10.423  21.520  1.00  0.00     0.000 C 
BRANCH   2   3
ATOM      3  C   UNL     1      22.111  11.189  22.363  1.00  0.00     0.000 C 
BRANCH   3   4
ATOM      4  C   UNL     1      22.467  11.213  23.858  1.00  0.00     0.000 C 
BRANCH   4   5
ATOM      5  C   UNL     1      22.523   9.808  24.476  1.00  0.00     0.000 C 
BRANCH   5   6
ATOM      6  C   UNL     1      23.541   9.754  25.624  1.00  0.00     0.000 C 
BRANCH   6   7
ATOM      7  C   UNL     1      24.896  10.388  25.260  1.00  0.00     0.006 C 
BRANCH   7   8
ATOM      8  C   UNL     1      25.860  10.528  26.450  1.00  0.00     0.053 C 
BRANCH   8   9
ATOM      9  C   UNL     1      27.255  10.095  26.115  1.00  0.00     0.041 C 
ATOM     10  O   UNL     1      27.453   9.239  25.213  1.00  0.00    -0.550 OA
ATOM     11  O   UNL     1      28.336  10.610  26.821  1.00  0.00    -0.550 OA
ENDBRANCH   8   9
ENDBRANCH   7   8
ENDBRANCH   6   7
ENDBRANCH   5   6
ENDBRANCH   4   5
ENDBRANCH   3   4
ENDBRANCH   2   3
ENDBRANCH   1   2
BRANCH   1  12
ATOM     12  C   UNL     1      25.325  11.501  20.715  1.00  0.00     0.000 C 
BRANCH  12  13
ATOM     13  C   UNL     1      25.839  10.987  22.072  1.00  0.00    -0.000 C 
BRANCH  13  14
ATOM     14  C   UNL     1      27.073  11.751  22.574  1.00  0.00    -0.000 C 
BRANCH  14  15
ATOM     15  C   UNL     1      28.362  10.975  22.271  1.00  0.00    -0.000 C 
BRANCH  15  16
ATOM     16  C   UNL     1      28.081   9.593  21.643  1.00  0.00    -0.000 C 
BRANCH  16  17
ATOM     17  C   UNL     1      29.218   9.076  20.740  1.00  0.00    -0.000 C 
BRANCH  17  18
ATOM     18  C   UNL     1      28.855   8.952  19.250  1.00  0.00    -0.000 C 
BRANCH  18  19
ATOM     19  C   UNL     1      30.091   8.876  18.341  1.00  0.00    -0.003 C 
ATOM     20  C   UNL     1      31.284   9.580  18.981  1.00  0.00     0.004 C 
ENDBRANCH  18  19
ENDBRANCH  17  18
ENDBRANCH  16  17
ENDBRANCH  15  16
ENDBRANCH  14  15
ENDBRANCH  13  14
ENDBRANCH  12  13
ENDBRANCH   1  12
TORSDOF 16
ENDMDL
MODEL 3
REMARK VINA RESULT:    -3.777     14.229     16.081
REMARK INTER + INTRA:          -9.644
REMARK INTER:                  -6.479
REMARK INTRA:                  -3.165
REMARK UNBOUND:                -2.335
REMARK SMILES CCCCCCCCCCCCCCCCCC(=O)[O-]
REMARK SMILES IDX 10 1 11 2 12 3 13 4 14 5 15 6 16 7 17 8 18 9 19 10 20 11
REMARK SMILES IDX 9 12 8 13 7 14 6 15 5 16 4 17 3 18 2 19 1 20
REMARK H PARENT
REMARK Flexibility Score: inf
ROOT
ATOM      1  C   UNL     1      23.194  10.766  20.590  1.00  0.00     0.000 C 
ENDROOT
BRANCH   1   2
ATOM      2  C   UNL     1      22.590  10.373  21.946  1.00  0.00     0.000 C 
BRANCH   2   3
ATOM      3  C   UNL     1      22.676  11.538  22.943  1.00  0.00     0.000 C 
BRANCH   3   4
ATOM      4  C   UNL     1      22.656  11.070  24.407  1.00  0.00     0.000 C 
BRANCH   4   5
ATOM      5  C   UNL     1      23.961  10.375  24.824  1.00  0.00     0.000 C 
BRANCH   5   6
ATOM      6  C   UNL     1      24.101  10.342  26.353  1.00  0.00     0.000 C 
BRANCH   6   7
ATOM      7  C   UNL     1      25.457   9.786  26.824  1.00  0.00     0.006 C 
BRANCH   7   8
ATOM      8  C   UNL     1      26.473   9.574  25.688  1.00  0.00     0.053 C 
BRANCH   8   9
ATOM      9  C   UNL     1      27.836  10.093  26.031  1.00  0.00     0.041 C 
ATOM     10  O   UNL     1      28.851   9.663  25.423  1.00  0.00    -0.550 OA
ATOM     11  O   UNL     1      27.992  11.028  27.049  1.00  0.00    -0.550 OA
ENDBRANCH   8   9
ENDBRANCH   7   8
ENDBRANCH   6   7
ENDBRANCH   5   6
ENDBRANCH   4   5
ENDBRANCH   3   4
ENDBRANCH   2   3
ENDBRANCH   1   2
BRANCH   1  12
ATOM     12  C   UNL     1      23.718  12.215  20.563  1.00  0.00     0.000 C 
BRANCH  12  13
ATOM     13  C   UNL     1      25.244  12.351  20.412  1.00  0.00    -0.000 C 
BRANCH  13  14
ATOM     14  C   UNL     1      26.006  11.101  20.876  1.00  0.00    -0.000 C 
BRANCH  14  15
ATOM     15  C   UNL     1      26.473  11.249  22.332  1.00  0.00    -0.000 C 
BRANCH  15  16
ATOM     16  C   UNL     1      26.687  12.724  22.732  1.00  0.00    -0.000 C 
BRANCH  16  17
ATOM     17  C   UNL     1      26.295  13.037  24.189  1.00  0.00    -0.000 C 
BRANCH  17  18
ATOM     18  C   UNL     1      25.176  14.080  24.348  1.00  0.00    -0.000 C 
BRANCH  18  19
ATOM     19  C   UNL     1      24.533  14.055  25.743  1.00  0.00    -0.003 C 
ATOM     20  C   UNL     1      25.568  13.726  26.816  1.00  0.00     0.004 C 
ENDBRANCH  18  19
ENDBRANCH  17  18
ENDBRANCH  16  17
ENDBRANCH  15  16
ENDBRANCH  14  15
ENDBRANCH  13  14
ENDBRANCH  12  13
ENDBRANCH   1  12
TORSDOF 16
ENDMDL
MODEL 4
REMARK VINA RESULT:    -3.719     14.259     15.858
REMARK INTER + INTRA:          -9.532
REMARK INTER:                  -6.685
REMARK INTRA:                  -2.847
REMARK UNBOUND:                -2.335
REMARK SMILES CCCCCCCCCCCCCCCCCC(=O)[O-]
REMARK SMILES IDX 10 1 11 2 12 3 13 4 14 5 15 6 16 7 17 8 18 9 19 10 20 11
REMARK SMILES IDX 9 12 8 13 7 14 6 15 5 16 4 17 3 18 2 19 1 20
REMARK H PARENT
REMARK Flexibility Score: inf
ROOT
ATOM      1  C   UNL     1      22.188  10.311  22.665  1.00  0.00     0.000 C 
ENDROOT
BRANCH   1   2
ATOM      2  C   UNL     1      22.014  11.788  22.283  1.00  0.00     0.000 C 
BRANCH   2   3
ATOM      3  C   UNL     1      22.469  12.037  20.837  1.00  0.00     0.000 C 
BRANCH   3   4
ATOM      4  C   UNL     1      23.597  11.090  20.399  1.00  0.00     0.000 C 
BRANCH   4   5
ATOM      5  C   UNL     1      24.983  11.751  20.462  1.00  0.00     0.000 C 
BRANCH   5   6
ATOM      6  C   UNL     1      25.789  11.222  21.657  1.00  0.00     0.000 C 
BRANCH   6   7
ATOM      7  C   UNL     1      26.437  12.341  22.492  1.00  0.00     0.006 C 
BRANCH   7   8
ATOM      8  C   UNL     1      25.692  13.686  22.419  1.00  0.00     0.053 C 
BRANCH   8   9
ATOM      9  C   UNL     1      25.092  14.083  23.734  1.00  0.00     0.041 C 
ATOM     10  O   UNL     1      25.775  14.013  24.789  1.00  0.00    -0.550 OA
ATOM     11  O   UNL     1      23.767  14.497  23.801  1.00  0.00    -0.550 OA
ENDBRANCH   8   9
ENDBRANCH   7   8
ENDBRANCH   6   7
ENDBRANCH   5   6
ENDBRANCH   4   5
ENDBRANCH   3   4
ENDBRANCH   2   3
ENDBRANCH   1   2
BRANCH   1  12
ATOM     12  C   UNL     1      22.454  10.106  24.168  1.00  0.00     0.000 C 
BRANCH  12  13
ATOM     13  C   UNL     1      23.640  10.909  24.734  1.00  0.00    -0.000 C 
BRANCH  13  14
ATOM     14  C   UNL     1      24.852  10.028  25.072  1.00  0.00    -0.000 C 
BRANCH  14  15
ATOM     15  C   UNL     1      25.816  10.757  26.020  1.00  0.00    -0.000 C 
BRANCH  15  16
ATOM     16  C   UNL     1      27.295  10.521  25.647  1.00  0.00    -0.000 C 
BRANCH  16  17
ATOM     17  C   UNL     1      27.501   9.439  24.568  1.00  0.00    -0.000 C 
BRANCH  17  18
ATOM     18  C   UNL     1      28.953   9.271  24.089  1.00  0.00    -0.000 C 
BRANCH  18  19
ATOM     19  C   UNL     1      29.185   9.844  22.684  1.00  0.00    -0.003 C 
ATOM     20  C   UNL     1      28.671   8.889  21.611  1.00  0.00     0.004 C 
ENDBRANCH  18  19
ENDBRANCH  17  18
ENDBRANCH  16  17
ENDBRANCH  15  16
ENDBRANCH  14  15
ENDBRANCH  13  14
ENDBRANCH  12  13
ENDBRANCH   1  12
TORSDOF 16
ENDMDL
MODEL 5
REMARK VINA RESULT:    -3.712     13.223     15.003
REMARK INTER + INTRA:          -9.518
REMARK INTER:                  -6.499
REMARK INTRA:                  -3.020
REMARK UNBOUND:                -2.335
REMARK SMILES CCCCCCCCCCCCCCCCCC(=O)[O-]
REMARK SMILES IDX 10 1 11 2 12 3 13 4 14 5 15 6 16 7 17 8 18 9 19 10 20 11
REMARK SMILES IDX 9 12 8 13 7 14 6 15 5 16 4 17 3 18 2 19 1 20
REMARK H PARENT
REMARK Flexibility Score: inf
ROOT
ATOM      1  C   UNL     1      22.619  10.285  21.851  1.00  0.00     0.000 C 
ENDROOT
BRANCH   1   2
ATOM      2  C   UNL     1      23.343  10.552  20.524  1.00  0.00     0.000 C 
BRANCH   2   3
ATOM      3  C   UNL     1      23.528  12.059  20.295  1.00  0.00     0.000 C 
BRANCH   3   4
ATOM      4  C   UNL     1      25.006  12.474  20.232  1.00  0.00     0.000 C 
BRANCH   4   5
ATOM      5  C   UNL     1      25.936  11.457  20.912  1.00  0.00     0.000 C 
BRANCH   5   6
ATOM      6  C   UNL     1      26.605  12.068  22.152  1.00  0.00     0.000 C 
BRANCH   6   7
ATOM      7  C   UNL     1      26.986  11.018  23.212  1.00  0.00     0.006 C 
BRANCH   7   8
ATOM      8  C   UNL     1      27.567   9.720  22.625  1.00  0.00     0.053 C 
BRANCH   8   9
ATOM      9  C   UNL     1      29.061   9.759  22.512  1.00  0.00     0.041 C 
ATOM     10  O   UNL     1      29.777   9.642  23.541  1.00  0.00    -0.550 OA
ATOM     11  O   UNL     1      29.664   9.959  21.276  1.00  0.00    -0.550 OA
ENDBRANCH   8   9
ENDBRANCH   7   8
ENDBRANCH   6   7
ENDBRANCH   5   6
ENDBRANCH   4   5
ENDBRANCH   3   4
ENDBRANCH   2   3
ENDBRANCH   1   2
BRANCH   1  12
ATOM     12  C   UNL     1      22.459  11.551  22.715  1.00  0.00     0.000 C 
BRANCH  12  13
ATOM     13  C   UNL     1      23.199  11.515  24.065  1.00  0.00    -0.000 C 
BRANCH  13  14
ATOM     14  C   UNL     1      23.907  12.837  24.395  1.00  0.00    -0.000 C 
BRANCH  14  15
ATOM     15  C   UNL     1      23.360  13.985  23.534  1.00  0.00    -0.000 C 
BRANCH  15  16
ATOM     16  C   UNL     1      24.475  14.934  23.046  1.00  0.00    -0.000 C 
BRANCH  16  17
ATOM     17  C   UNL     1      24.084  15.773  21.814  1.00  0.00    -0.000 C 
BRANCH  17  18
ATOM     18  C   UNL     1      22.698  15.453  21.227  1.00  0.00    -0.000 C 
BRANCH  18  19
ATOM     19  C   UNL     1      22.490  16.058  19.831  1.00  0.00    -0.003 C 
ATOM     20  C   UNL     1      23.658  15.720  18.909  1.00  0.00     0.004 C 
ENDBRANCH  18  19
ENDBRANCH  17  18
ENDBRANCH  16  17
ENDBRANCH  15  16
ENDBRANCH  14  15
ENDBRANCH  13  14
ENDBRANCH  12  13
ENDBRANCH   1  12
TORSDOF 16
ENDMDL
MODEL 6
REMARK VINA RESULT:    -3.688     14.190     16.179
REMARK INTER + INTRA:          -9.471
REMARK INTER:                  -6.627
REMARK INTRA:                  -2.845
REMARK UNBOUND:                -2.335
REMARK SMILES CCCCCCCCCCCCCCCCCC(=O)[O-]
REMARK SMILES IDX 10 1 11 2 12 3 13 4 14 5 15 6 16 7 17 8 18 9 19 10 20 11
REMARK SMILES IDX 9 12 8 13 7 14 6 15 5 16 4 17 3 18 2 19 1 20
REMARK H PARENT
REMARK Flexibility Score: inf
ROOT
ATOM      1  C   UNL     1      22.140  11.126  23.101  1.00  0.00     0.000 C 
ENDROOT
BRANCH   1   2
ATOM      2  C   UNL     1      23.209  11.182  24.202  1.00  0.00     0.000 C 
BRANCH   2   3
ATOM      3  C   UNL     1      23.303  12.592  24.802  1.00  0.00     0.000 C 
BRANCH   3   4
ATOM      4  C   UNL     1      24.070  13.572  23.899  1.00  0.00     0.000 C 
BRANCH   4   5
ATOM      5  C   UNL     1      25.445  13.953  24.472  1.00  0.00     0.000 C 
BRANCH   5   6
ATOM      6  C   UNL     1      25.463  13.806  26.000  1.00  0.00     0.000 C 
BRANCH   6   7
ATOM      7  C   UNL     1      26.689  13.031  26.517  1.00  0.00     0.006 C 
BRANCH   7   8
ATOM      8  C   UNL     1      26.695  11.541  26.132  1.00  0.00     0.053 C 
BRANCH   8   9
ATOM      9  C   UNL     1      26.132  10.667  27.211  1.00  0.00     0.041 C 
ATOM     10  O   UNL     1      24.903  10.395  27.231  1.00  0.00    -0.550 OA
ATOM     11  O   UNL     1      26.958  10.179  28.217  1.00  0.00    -0.550 OA
ENDBRANCH   8   9
ENDBRANCH   7   8
ENDBRANCH   6   7
ENDBRANCH   5   6
ENDBRANCH   4   5
ENDBRANCH   3   4
ENDBRANCH   2   3
ENDBRANCH   1   2
BRANCH   1  12
ATOM     12  C   UNL     1      22.405  10.021  22.061  1.00  0.00     0.000 C 
BRANCH  12  13
ATOM     13  C   UNL     1      23.054  10.505  20.750  1.00  0.00    -0.000 C 
BRANCH  13  14
ATOM     14  C   UNL     1      22.926  12.021  20.543  1.00  0.00    -0.000 C 
BRANCH  14  15
ATOM     15  C   UNL     1      24.303  12.665  20.326  1.00  0.00    -0.000 C 
BRANCH  15  16
ATOM     16  C   UNL     1      25.452  11.636  20.407  1.00  0.00    -0.000 C 
BRANCH  16  17
ATOM     17  C   UNL     1      26.382  11.835  21.620  1.00  0.00    -0.000 C 
BRANCH  17  18
ATOM     18  C   UNL     1      26.406  10.663  22.616  1.00  0.00    -0.000 C 
BRANCH  18  19
ATOM     19  C   UNL     1      27.817  10.100  22.837  1.00  0.00    -0.003 C 
ATOM     20  C   UNL     1      28.435   9.639  21.520  1.00  0.00     0.004 C 
ENDBRANCH  18  19
ENDBRANCH  17  18
ENDBRANCH  16  17
ENDBRANCH  15  16
ENDBRANCH  14  15
ENDBRANCH  13  14
ENDBRANCH  12  13
ENDBRANCH   1  12
TORSDOF 16
ENDMDL
MODEL 7
REMARK VINA RESULT:    -3.621     14.434     16.213
REMARK INTER + INTRA:          -9.342
REMARK INTER:                  -6.683
REMARK INTRA:                  -2.659
REMARK UNBOUND:                -2.335
REMARK SMILES CCCCCCCCCCCCCCCCCC(=O)[O-]
REMARK SMILES IDX 10 1 11 2 12 3 13 4 14 5 15 6 16 7 17 8 18 9 19 10 20 11
REMARK SMILES IDX 9 12 8 13 7 14 6 15 5 16 4 17 3 18 2 19 1 20
REMARK H PARENT
REMARK Flexibility Score: inf
ROOT
ATOM      1  C   UNL     1      25.632  12.981  22.117  1.00  0.00     0.000 C 
ENDROOT
BRANCH   1   2
ATOM      2  C   UNL     1      25.229  12.647  20.674  1.00  0.00     0.000 C 
BRANCH   2   3
ATOM      3  C   UNL     1      23.852  13.237  20.339  1.00  0.00     0.000 C 
BRANCH   3   4
ATOM      4  C   UNL     1      22.719  12.205  20.457  1.00  0.00     0.000 C 
BRANCH   4   5
ATOM      5  C   UNL     1      23.231  10.756  20.424  1.00  0.00     0.000 C 
BRANCH   5   6
ATOM      6  C   UNL     1      22.715   9.964  21.633  1.00  0.00     0.000 C 
BRANCH   6   7
ATOM      7  C   UNL     1      22.252  10.865  22.792  1.00  0.00     0.006 C 
BRANCH   7   8
ATOM      8  C   UNL     1      23.142  10.780  24.044  1.00  0.00     0.053 C 
BRANCH   8   9
ATOM      9  C   UNL     1      23.042  12.002  24.906  1.00  0.00     0.041 C 
ATOM     10  O   UNL     1      22.972  13.144  24.380  1.00  0.00    -0.550 OA
ATOM     11  O   UNL     1      23.061  11.885  26.291  1.00  0.00    -0.550 OA
ENDBRANCH   8   9
ENDBRANCH   7   8
ENDBRANCH   6   7
ENDBRANCH   5   6
ENDBRANCH   4   5
ENDBRANCH   3   4
ENDBRANCH   2   3
ENDBRANCH   1   2
BRANCH   1  12
ATOM     12  C   UNL     1      26.764  12.082  22.649  1.00  0.00     0.000 C 
BRANCH  12  13
ATOM     13  C   UNL     1      26.870  10.702  21.974  1.00  0.00    -0.000 C 
BRANCH  13  14
ATOM     14  C   UNL     1      28.239  10.038  22.179  1.00  0.00    -0.000 C 
BRANCH  14  15
ATOM     15  C   UNL     1      28.144   8.875  23.177  1.00  0.00    -0.000 C 
BRANCH  15  16
ATOM     16  C   UNL     1      28.268   9.347  24.642  1.00  0.00    -0.000 C 
BRANCH  16  17
ATOM     17  C   UNL     1      27.046   8.999  25.514  1.00  0.00    -0.000 C 
BRANCH  17  18
ATOM     18  C   UNL     1      26.201  10.206  25.957  1.00  0.00    -0.000 C 
BRANCH  18  19
ATOM     19  C   UNL     1      27.049  11.335  26.561  1.00  0.00    -0.003 C 
ATOM     20  C   UNL     1      26.476  12.703  26.201  1.00  0.00     0.004 C 
ENDBRANCH  18  19
ENDBRANCH  17  18
ENDBRANCH  16  17
ENDBRANCH  15  16
ENDBRANCH  14  15
ENDBRANCH  13  14
ENDBRANCH  12  13
ENDBRANCH   1  12
TORSDOF 16
ENDMDL
MODEL 8
REMARK VINA RESULT:    -3.603     14.415     16.232
REMARK INTER + INTRA:          -9.307
REMARK INTER:                  -6.790
REMARK INTRA:                  -2.517
REMARK UNBOUND:                -2.335
REMARK SMILES CCCCCCCCCCCCCCCCCC(=O)[O-]
REMARK SMILES IDX 10 1 11 2 12 3 13 4 14 5 15 6 16 7 17 8 18 9 19 10 20 11
REMARK SMILES IDX 9 12 8 13 7 14 6 15 5 16 4 17 3 18 2 19 1 20
REMARK H PARENT
REMARK Flexibility Score: inf
ROOT
ATOM      1  C   UNL     1      23.899  12.554  20.037  1.00  0.00     0.000 C 
ENDROOT
BRANCH   1   2
ATOM      2  C   UNL     1      22.665  11.719  20.407  1.00  0.00     0.000 C 
BRANCH   2   3
ATOM      3  C   UNL     1      23.078  10.377  21.029  1.00  0.00     0.000 C 
BRANCH   3   4
ATOM      4  C   UNL     1      22.282  10.041  22.300  1.00  0.00     0.000 C 
BRANCH   4   5
ATOM      5  C   UNL     1      22.661  10.936  23.491  1.00  0.00     0.000 C 
BRANCH   5   6
ATOM      6  C   UNL     1      22.896  10.098  24.755  1.00  0.00     0.000 C 
BRANCH   6   7
ATOM      7  C   UNL     1      24.359  10.124  25.234  1.00  0.00     0.006 C 
BRANCH   7   8
ATOM      8  C   UNL     1      24.654   9.160  26.396  1.00  0.00     0.053 C 
BRANCH   8   9
ATOM      9  C   UNL     1      26.028   9.348  26.965  1.00  0.00     0.041 C 
ATOM     10  O   UNL     1      26.176   9.633  28.182  1.00  0.00    -0.550 OA
ATOM     11  O   UNL     1      27.145   9.244  26.144  1.00  0.00    -0.550 OA
ENDBRANCH   8   9
ENDBRANCH   7   8
ENDBRANCH   6   7
ENDBRANCH   5   6
ENDBRANCH   4   5
ENDBRANCH   3   4
ENDBRANCH   2   3
ENDBRANCH   1   2
BRANCH   1  12
ATOM     12  C   UNL     1      23.776  14.030  20.461  1.00  0.00     0.000 C 
BRANCH  12  13
ATOM     13  C   UNL     1      23.506  14.254  21.961  1.00  0.00    -0.000 C 
BRANCH  13  14
ATOM     14  C   UNL     1      24.774  14.611  22.750  1.00  0.00    -0.000 C 
BRANCH  14  15
ATOM     15  C   UNL     1      24.962  13.668  23.947  1.00  0.00    -0.000 C 
BRANCH  15  16
ATOM     16  C   UNL     1      26.379  13.058  23.996  1.00  0.00    -0.000 C 
BRANCH  16  17
ATOM     17  C   UNL     1      26.868  12.509  22.642  1.00  0.00    -0.000 C 
BRANCH  17  18
ATOM     18  C   UNL     1      26.419  11.072  22.326  1.00  0.00    -0.000 C 
BRANCH  18  19
ATOM     19  C   UNL     1      27.465  10.021  22.728  1.00  0.00    -0.003 C 
ATOM     20  C   UNL     1      28.866  10.455  22.310  1.00  0.00     0.004 C 
ENDBRANCH  18  19
ENDBRANCH  17  18
ENDBRANCH  16  17
ENDBRANCH  15  16
ENDBRANCH  14  15
ENDBRANCH  13  14
ENDBRANCH  12  13
ENDBRANCH   1  12
TORSDOF 16
ENDMDL
MODEL 9
REMARK VINA RESULT:    -3.578     13.050     15.072
REMARK INTER + INTRA:          -9.260
REMARK INTER:                  -6.598
REMARK INTRA:                  -2.662
REMARK UNBOUND:                -2.335
REMARK SMILES CCCCCCCCCCCCCCCCCC(=O)[O-]
REMARK SMILES IDX 10 1 11 2 12 3 13 4 14 5 15 6 16 7 17 8 18 9 19 10 20 11
REMARK SMILES IDX 9 12 8 13 7 14 6 15 5 16 4 17 3 18 2 19 1 20
REMARK H PARENT
REMARK Flexibility Score: inf
ROOT
ATOM      1  C   UNL     1      22.873  11.359  23.511  1.00  0.00     0.000 C 
ENDROOT
BRANCH   1   2
ATOM      2  C   UNL     1      23.960  10.785  24.431  1.00  0.00     0.000 C 
BRANCH   2   3
ATOM      3  C   UNL     1      24.271  11.753  25.582  1.00  0.00     0.000 C 
BRANCH   3   4
ATOM      4  C   UNL     1      25.673  12.374  25.473  1.00  0.00     0.000 C 
BRANCH   4   5
ATOM      5  C   UNL     1      25.666  13.728  24.746  1.00  0.00     0.000 C 
BRANCH   5   6
ATOM      6  C   UNL     1      24.502  14.604  25.229  1.00  0.00     0.000 C 
BRANCH   6   7
ATOM      7  C   UNL     1      23.678  15.203  24.074  1.00  0.00     0.006 C 
BRANCH   7   8
ATOM      8  C   UNL     1      24.311  15.002  22.686  1.00  0.00     0.053 C 
BRANCH   8   9
ATOM      9  C   UNL     1      23.469  15.570  21.583  1.00  0.00     0.041 C 
ATOM     10  O   UNL     1      23.970  16.371  20.752  1.00  0.00    -0.550 OA
ATOM     11  O   UNL     1      22.121  15.243  21.493  1.00  0.00    -0.550 OA
ENDBRANCH   8   9
ENDBRANCH   7   8
ENDBRANCH   6   7
ENDBRANCH   5   6
ENDBRANCH   4   5
ENDBRANCH   3   4
ENDBRANCH   2   3
ENDBRANCH   1   2
BRANCH   1  12
ATOM     12  C   UNL     1      22.366  10.342  22.471  1.00  0.00     0.000 C 
BRANCH  12  13
ATOM     13  C   UNL     1      23.003  10.468  21.075  1.00  0.00    -0.000 C 
BRANCH  13  14
ATOM     14  C   UNL     1      23.184  11.926  20.628  1.00  0.00    -0.000 C 
BRANCH  14  15
ATOM     15  C   UNL     1      24.648  12.214  20.264  1.00  0.00    -0.000 C 
BRANCH  15  16
ATOM     16  C   UNL     1      25.607  11.123  20.787  1.00  0.00    -0.000 C 
BRANCH  16  17
ATOM     17  C   UNL     1      26.513  11.593  21.942  1.00  0.00    -0.000 C 
BRANCH  17  18
ATOM     18  C   UNL     1      27.202  10.461  22.725  1.00  0.00    -0.000 C 
BRANCH  18  19
ATOM     19  C   UNL     1      28.683  10.298  22.352  1.00  0.00    -0.003 C 
ATOM     20  C   UNL     1      28.861   9.241  21.266  1.00  0.00     0.004 C 
ENDBRANCH  18  19
ENDBRANCH  17  18
ENDBRANCH  16  17
ENDBRANCH  15  16
ENDBRANCH  14  15
ENDBRANCH  13  14
ENDBRANCH  12  13
ENDBRANCH   1  12
TORSDOF 16
ENDMDL
