MODEL 1
REMARK VINA RESULT:    -3.760      0.000      0.000
REMARK INTER + INTRA:          -7.856
REMARK INTER:                  -7.058
REMARK INTRA:                  -0.798
REMARK UNBOUND:                -0.798
REMARK SMILES O=C([O-])CCCCCCCCCCCCCCC(=O)[O-]
REMARK SMILES IDX 10 1 9 2 8 3 7 4 6 5 5 6 4 7 2 8 1 9 3 10 11 11 12 12 13 13
REMARK SMILES IDX 14 14 15 15 16 16 17 17 18 18 19 19 20 20
REMARK H PARENT
REMARK Flexibility Score: inf
ROOT
ATOM      1  C   UNL     1      12.618  -7.927   5.757  1.00  0.00     0.000 C 
ENDROOT
BRANCH   1   2
ATOM      2  C   UNL     1      13.635  -8.325   6.848  1.00  0.00     0.000 C 
BRANCH   2   3
ATOM      3  C   UNL     1      15.093  -8.453   6.373  1.00  0.00     0.000 C 
BRANCH   3   4
ATOM      4  C   UNL     1      15.749  -7.092   6.083  1.00  0.00     0.000 C 
BRANCH   4   5
ATOM      5  C   UNL     1      17.170  -7.232   5.515  1.00  0.00     0.000 C 
BRANCH   5   6
ATOM      6  C   UNL     1      17.874  -8.517   5.985  1.00  0.00     0.006 C 
BRANCH   6   7
ATOM      7  C   UNL     1      19.281  -8.239   6.530  1.00  0.00     0.053 C 
BRANCH   7   8
ATOM      8  C   UNL     1      19.281  -8.089   8.021  1.00  0.00     0.041 C 
ATOM      9  O   UNL     1      19.734  -9.011   8.750  1.00  0.00    -0.550 OA
ATOM     10  O   UNL     1      18.752  -6.945   8.604  1.00  0.00    -0.550 OA
ENDBRANCH   7   8
ENDBRANCH   6   7
ENDBRANCH   5   6
ENDBRANCH   4   5
ENDBRANCH   3   4
ENDBRANCH   2   3
ENDBRANCH   1   2
BRANCH   1  11
ATOM     11  C   UNL     1      11.140  -8.030   6.171  1.00  0.00     0.000 C 
BRANCH  11  12
ATOM     12  C   UNL     1      10.235  -8.525   5.029  1.00  0.00     0.000 C 
BRANCH  12  13
ATOM     13  C   UNL     1       9.020  -9.312   5.548  1.00  0.00     0.000 C 
BRANCH  13  14
ATOM     14  C   UNL     1       8.842  -9.186   7.071  1.00  0.00     0.000 C 
BRANCH  14  15
ATOM     15  C   UNL     1       7.464  -8.604   7.448  1.00  0.00     0.000 C 
BRANCH  15  16
ATOM     16  C   UNL     1       6.533  -8.398   6.240  1.00  0.00     0.006 C 
BRANCH  16  17
ATOM     17  C   UNL     1       6.160  -6.928   6.018  1.00  0.00     0.053 C 
BRANCH  17  18
ATOM     18  C   UNL     1       4.938  -6.822   5.160  1.00  0.00     0.041 C 
ATOM     19  O   UNL     1       4.592  -5.708   4.685  1.00  0.00    -0.550 OA
ATOM     20  O   UNL     1       4.211  -7.962   4.841  1.00  0.00    -0.550 OA
ENDBRANCH  17  18
ENDBRANCH  16  17
ENDBRANCH  15  16
ENDBRANCH  14  15
ENDBRANCH  13  14
ENDBRANCH  12  13
ENDBRANCH  11  12
ENDBRANCH   1  11
TORSDOF 15
ENDMDL
MODEL 2
REMARK VINA RESULT:    -3.688      1.037     10.627
REMARK INTER + INTRA:          -7.720
REMARK INTER:                  -6.746
REMARK INTRA:                  -0.974
REMARK UNBOUND:                -0.798
REMARK SMILES O=C([O-])CCCCCCCCCCCCCCC(=O)[O-]
REMARK SMILES IDX 10 1 9 2 8 3 7 4 6 5 5 6 4 7 2 8 1 9 3 10 11 11 12 12 13 13
REMARK SMILES IDX 14 14 15 15 16 16 17 17 18 18 19 19 20 20
REMARK H PARENT
REMARK Flexibility Score: inf
ROOT
ATOM      1  C   UNL     1      13.244  -8.314   6.777  1.00  0.00     0.000 C 
ENDROOT
BRANCH   1   2
ATOM      2  C   UNL     1      12.190  -8.195   5.656  1.00  0.00     0.000 C 
BRANCH   2   3
ATOM      3  C   UNL     1      10.807  -7.692   6.105  1.00  0.00     0.000 C 
BRANCH   3   4
ATOM      4  C   UNL     1       9.671  -8.666   5.747  1.00  0.00     0.000 C 
BRANCH   4   5
ATOM      5  C   UNL     1       8.895  -9.146   6.983  1.00  0.00     0.000 C 
BRANCH   5   6
ATOM      6  C   UNL     1       7.436  -8.656   6.997  1.00  0.00     0.006 C 
BRANCH   6   7
ATOM      7  C   UNL     1       6.993  -8.124   5.627  1.00  0.00     0.053 C 
BRANCH   7   8
ATOM      8  C   UNL     1       5.761  -7.278   5.731  1.00  0.00     0.041 C 
ATOM      9  O   UNL     1       5.806  -6.162   6.314  1.00  0.00    -0.550 OA
ATOM     10  O   UNL     1       4.557  -7.736   5.212  1.00  0.00    -0.550 OA
ENDBRANCH   7   8
ENDBRANCH   6   7
ENDBRANCH   5   6
ENDBRANCH   4   5
ENDBRANCH   3   4
ENDBRANCH   2   3
ENDBRANCH   1   2
BRANCH   1  11
ATOM     11  C   UNL     1      14.703  -8.408   6.296  1.00  0.00     0.000 C 
BRANCH  11  12
ATOM     12  C   UNL     1      14.819  -8.536   4.767  1.00  0.00     0.000 C 
BRANCH  12  13
ATOM     13  C   UNL     1      15.347  -7.249   4.112  1.00  0.00     0.000 C 
BRANCH  13  14
ATOM     14  C   UNL     1      16.422  -6.552   4.965  1.00  0.00     0.000 C 
BRANCH  14  15
ATOM     15  C   UNL     1      17.835  -6.718   4.367  1.00  0.00     0.000 C 
BRANCH  15  16
ATOM     16  C   UNL     1      18.903  -7.096   5.409  1.00  0.00     0.006 C 
BRANCH  16  17
ATOM     17  C   UNL     1      18.398  -8.111   6.441  1.00  0.00     0.053 C 
BRANCH  17  18
ATOM     18  C   UNL     1      18.955  -7.802   7.795  1.00  0.00     0.041 C 
ATOM     19  O   UNL     1      18.713  -6.693   8.341  1.00  0.00    -0.550 OA
ATOM     20  O   UNL     1      19.699  -8.757   8.476  1.00  0.00    -0.550 OA
ENDBRANCH  17  18
ENDBRANCH  16  17
ENDBRANCH  15  16
ENDBRANCH  14  15
ENDBRANCH  13  14
ENDBRANCH  12  13
ENDBRANCH  11  12
ENDBRANCH   1  11
TORSDOF 15
ENDMDL
MODEL 3
REMARK VINA RESULT:    -3.632      1.577     10.265
REMARK INTER + INTRA:          -7.615
REMARK INTER:                  -6.339
REMARK INTRA:                  -1.276
REMARK UNBOUND:                -0.798
REMARK SMILES O=C([O-])CCCCCCCCCCCCCCC(=O)[O-]
REMARK SMILES IDX 10 1 9 2 8 3 7 4 6 5 5 6 4 7 2 8 1 9 3 10 11 11 12 12 13 13
REMARK SMILES IDX 14 14 15 15 16 16 17 17 18 18 19 19 20 20
REMARK H PARENT
REMARK Flexibility Score: inf
ROOT
ATOM      1  C   UNL     1      13.973  -8.433   6.798  1.00  0.00     0.000 C 
ENDROOT
BRANCH   1   2
ATOM      2  C   UNL     1      12.897  -7.875   5.844  1.00  0.00     0.000 C 
BRANCH   2   3
ATOM      3  C   UNL     1      12.829  -8.548   4.462  1.00  0.00     0.000 C 
BRANCH   3   4
ATOM      4  C   UNL     1      11.448  -9.155   4.160  1.00  0.00     0.000 C 
BRANCH   4   5
ATOM      5  C   UNL     1      10.446  -8.938   5.305  1.00  0.00     0.000 C 
BRANCH   5   6
ATOM      6  C   UNL     1       9.019  -9.385   4.939  1.00  0.00     0.006 C 
BRANCH   6   7
ATOM      7  C   UNL     1       8.221  -9.832   6.170  1.00  0.00     0.053 C 
BRANCH   7   8
ATOM      8  C   UNL     1       7.552  -8.675   6.850  1.00  0.00     0.041 C 
ATOM      9  O   UNL     1       7.631  -8.543   8.100  1.00  0.00    -0.550 OA
ATOM     10  O   UNL     1       6.817  -7.762   6.105  1.00  0.00    -0.550 OA
ENDBRANCH   7   8
ENDBRANCH   6   7
ENDBRANCH   5   6
ENDBRANCH   4   5
ENDBRANCH   3   4
ENDBRANCH   2   3
ENDBRANCH   1   2
BRANCH   1  11
ATOM     11  C   UNL     1      15.426  -8.248   6.327  1.00  0.00     0.000 C 
BRANCH  11  12
ATOM     12  C   UNL     1      15.795  -6.772   6.096  1.00  0.00     0.000 C 
BRANCH  12  13
ATOM     13  C   UNL     1      16.283  -6.510   4.662  1.00  0.00     0.000 C 
BRANCH  13  14
ATOM     14  C   UNL     1      17.514  -7.356   4.294  1.00  0.00     0.000 C 
BRANCH  14  15
ATOM     15  C   UNL     1      18.827  -6.554   4.419  1.00  0.00     0.000 C 
BRANCH  15  16
ATOM     16  C   UNL     1      19.762  -7.074   5.525  1.00  0.00     0.006 C 
BRANCH  16  17
ATOM     17  C   UNL     1      19.210  -8.312   6.241  1.00  0.00     0.053 C 
BRANCH  17  18
ATOM     18  C   UNL     1      19.182  -8.091   7.721  1.00  0.00     0.041 C 
ATOM     19  O   UNL     1      19.720  -8.925   8.496  1.00  0.00    -0.550 OA
ATOM     20  O   UNL     1      18.607  -6.938   8.242  1.00  0.00    -0.550 OA
ENDBRANCH  17  18
ENDBRANCH  16  17
ENDBRANCH  15  16
ENDBRANCH  14  15
ENDBRANCH  13  14
ENDBRANCH  12  13
ENDBRANCH  11  12
ENDBRANCH   1  11
TORSDOF 15
ENDMDL
MODEL 4
REMARK VINA RESULT:    -3.611      1.300     10.614
REMARK INTER + INTRA:          -7.576
REMARK INTER:                  -6.594
REMARK INTRA:                  -0.982
REMARK UNBOUND:                -0.798
REMARK SMILES O=C([O-])CCCCCCCCCCCCCCC(=O)[O-]
REMARK SMILES IDX 10 1 9 2 8 3 7 4 6 5 5 6 4 7 2 8 1 9 3 10 11 11 12 12 13 13
REMARK SMILES IDX 14 14 15 15 16 16 17 17 18 18 19 19 20 20
REMARK H PARENT
REMARK Flexibility Score: inf
ROOT
ATOM      1  C   UNL     1       9.580  -7.698   5.126  1.00  0.00     0.000 C 
ENDROOT
BRANCH   1   2
ATOM      2  C   UNL     1       9.283  -9.071   5.764  1.00  0.00     0.000 C 
BRANCH   2   3
ATOM      3  C   UNL     1       8.672  -9.022   7.175  1.00  0.00     0.000 C 
BRANCH   3   4
ATOM      4  C   UNL     1       7.232  -9.562   7.221  1.00  0.00     0.000 C 
BRANCH   4   5
ATOM      5  C   UNL     1       6.710  -9.968   5.834  1.00  0.00     0.000 C 
BRANCH   5   6
ATOM      6  C   UNL     1       5.484  -9.149   5.396  1.00  0.00     0.006 C 
BRANCH   6   7
ATOM      7  C   UNL     1       5.879  -7.894   4.606  1.00  0.00     0.053 C 
BRANCH   7   8
ATOM      8  C   UNL     1       5.485  -6.638   5.322  1.00  0.00     0.041 C 
ATOM      9  O   UNL     1       5.960  -6.382   6.460  1.00  0.00    -0.550 OA
ATOM     10  O   UNL     1       4.568  -5.768   4.746  1.00  0.00    -0.550 OA
ENDBRANCH   7   8
ENDBRANCH   6   7
ENDBRANCH   5   6
ENDBRANCH   4   5
ENDBRANCH   3   4
ENDBRANCH   2   3
ENDBRANCH   1   2
BRANCH   1  11
ATOM     11  C   UNL     1      11.070  -7.318   5.051  1.00  0.00     0.000 C 
BRANCH  11  12
ATOM     12  C   UNL     1      11.899  -7.932   6.192  1.00  0.00     0.000 C 
BRANCH  12  13
ATOM     13  C   UNL     1      13.321  -8.307   5.743  1.00  0.00     0.000 C 
BRANCH  13  14
ATOM     14  C   UNL     1      14.335  -8.261   6.900  1.00  0.00     0.000 C 
BRANCH  14  15
ATOM     15  C   UNL     1      15.595  -7.449   6.533  1.00  0.00     0.000 C 
BRANCH  15  16
ATOM     16  C   UNL     1      16.756  -8.317   6.014  1.00  0.00     0.006 C 
BRANCH  16  17
ATOM     17  C   UNL     1      17.831  -7.503   5.285  1.00  0.00     0.053 C 
BRANCH  17  18
ATOM     18  C   UNL     1      18.978  -7.212   6.201  1.00  0.00     0.041 C 
ATOM     19  O   UNL     1      19.891  -6.423   5.842  1.00  0.00    -0.550 OA
ATOM     20  O   UNL     1      19.013  -7.773   7.472  1.00  0.00    -0.550 OA
ENDBRANCH  17  18
ENDBRANCH  16  17
ENDBRANCH  15  16
ENDBRANCH  14  15
ENDBRANCH  13  14
ENDBRANCH  12  13
ENDBRANCH  11  12
ENDBRANCH   1  11
TORSDOF 15
ENDMDL
MODEL 5
REMARK VINA RESULT:    -3.595      1.687      2.806
REMARK INTER + INTRA:          -7.546
REMARK INTER:                  -6.413
REMARK INTRA:                  -1.133
REMARK UNBOUND:                -0.798
REMARK SMILES O=C([O-])CCCCCCCCCCCCCCC(=O)[O-]
REMARK SMILES IDX 10 1 9 2 8 3 7 4 6 5 5 6 4 7 2 8 1 9 3 10 11 11 12 12 13 13
REMARK SMILES IDX 14 14 15 15 16 16 17 17 18 18 19 19 20 20
REMARK H PARENT
REMARK Flexibility Score: inf
ROOT
ATOM      1  C   UNL     1      15.403  -7.783   6.394  1.00  0.00     0.000 C 
ENDROOT
BRANCH   1   2
ATOM      2  C   UNL     1      15.701  -8.049   4.903  1.00  0.00     0.000 C 
BRANCH   2   3
ATOM      3  C   UNL     1      16.014  -6.799   4.062  1.00  0.00     0.000 C 
BRANCH   3   4
ATOM      4  C   UNL     1      17.517  -6.473   4.013  1.00  0.00     0.000 C 
BRANCH   4   5
ATOM      5  C   UNL     1      18.389  -7.731   3.875  1.00  0.00     0.000 C 
BRANCH   5   6
ATOM      6  C   UNL     1      19.452  -7.840   4.981  1.00  0.00     0.006 C 
BRANCH   6   7
ATOM      7  C   UNL     1      19.217  -6.828   6.111  1.00  0.00     0.053 C 
BRANCH   7   8
ATOM      8  C   UNL     1      19.001  -7.506   7.429  1.00  0.00     0.041 C 
ATOM      9  O   UNL     1      19.350  -8.706   7.590  1.00  0.00    -0.550 OA
ATOM     10  O   UNL     1      18.384  -6.823   8.470  1.00  0.00    -0.550 OA
ENDBRANCH   7   8
ENDBRANCH   6   7
ENDBRANCH   5   6
ENDBRANCH   4   5
ENDBRANCH   3   4
ENDBRANCH   2   3
ENDBRANCH   1   2
BRANCH   1  11
ATOM     11  C   UNL     1      14.012  -8.234   6.874  1.00  0.00     0.000 C 
BRANCH  11  12
ATOM     12  C   UNL     1      12.992  -8.344   5.727  1.00  0.00     0.000 C 
BRANCH  12  13
ATOM     13  C   UNL     1      11.604  -7.820   6.130  1.00  0.00     0.000 C 
BRANCH  13  14
ATOM     14  C   UNL     1      10.796  -7.305   4.926  1.00  0.00     0.000 C 
BRANCH  14  15
ATOM     15  C   UNL     1       9.316  -7.739   4.992  1.00  0.00     0.000 C 
BRANCH  15  16
ATOM     16  C   UNL     1       9.122  -9.190   5.467  1.00  0.00     0.006 C 
BRANCH  16  17
ATOM     17  C   UNL     1       7.675  -9.499   5.867  1.00  0.00     0.053 C 
BRANCH  17  18
ATOM     18  C   UNL     1       7.183  -8.499   6.866  1.00  0.00     0.041 C 
ATOM     19  O   UNL     1       7.639  -8.500   8.040  1.00  0.00    -0.550 OA
ATOM     20  O   UNL     1       6.259  -7.533   6.487  1.00  0.00    -0.550 OA
ENDBRANCH  17  18
ENDBRANCH  16  17
ENDBRANCH  15  16
ENDBRANCH  14  15
ENDBRANCH  13  14
ENDBRANCH  12  13
ENDBRANCH  11  12
ENDBRANCH   1  11
TORSDOF 15
ENDMDL
MODEL 6
REMARK VINA RESULT:    -3.545      2.309     11.031
REMARK INTER + INTRA:          -7.452
REMARK INTER:                  -6.580
REMARK INTRA:                  -0.872
REMARK UNBOUND:                -0.798
REMARK SMILES O=C([O-])CCCCCCCCCCCCCCC(=O)[O-]
REMARK SMILES IDX 10 1 9 2 8 3 7 4 6 5 5 6 4 7 2 8 1 9 3 10 11 11 12 12 13 13
REMARK SMILES IDX 14 14 15 15 16 16 17 17 18 18 19 19 20 20
REMARK H PARENT
REMARK Flexibility Score: inf
ROOT
ATOM      1  C   UNL     1      13.455  -8.261   6.518  1.00  0.00     0.000 C 
ENDROOT
BRANCH   1   2
ATOM      2  C   UNL     1      12.092  -7.869   5.909  1.00  0.00     0.000 C 
BRANCH   2   3
ATOM      3  C   UNL     1      11.552  -8.827   4.832  1.00  0.00     0.000 C 
BRANCH   3   4
ATOM      4  C   UNL     1      10.063  -9.162   5.024  1.00  0.00     0.000 C 
BRANCH   4   5
ATOM      5  C   UNL     1       9.490  -8.579   6.326  1.00  0.00     0.000 C 
BRANCH   5   6
ATOM      6  C   UNL     1       8.658  -9.601   7.119  1.00  0.00     0.006 C 
BRANCH   6   7
ATOM      7  C   UNL     1       7.357  -8.992   7.659  1.00  0.00     0.053 C 
BRANCH   7   8
ATOM      8  C   UNL     1       6.472  -8.500   6.555  1.00  0.00     0.041 C 
ATOM      9  O   UNL     1       5.944  -9.316   5.754  1.00  0.00    -0.550 OA
ATOM     10  O   UNL     1       6.258  -7.137   6.391  1.00  0.00    -0.550 OA
ENDBRANCH   7   8
ENDBRANCH   6   7
ENDBRANCH   5   6
ENDBRANCH   4   5
ENDBRANCH   3   4
ENDBRANCH   2   3
ENDBRANCH   1   2
BRANCH   1  11
ATOM     11  C   UNL     1      14.595  -8.455   5.503  1.00  0.00     0.000 C 
BRANCH  11  12
ATOM     12  C   UNL     1      14.924  -7.170   4.723  1.00  0.00     0.000 C 
BRANCH  12  13
ATOM     13  C   UNL     1      16.387  -6.736   4.905  1.00  0.00     0.000 C 
BRANCH  13  14
ATOM     14  C   UNL     1      16.943  -7.104   6.293  1.00  0.00     0.000 C 
BRANCH  14  15
ATOM     15  C   UNL     1      18.455  -7.411   6.248  1.00  0.00     0.000 C 
BRANCH  15  16
ATOM     16  C   UNL     1      19.168  -6.812   5.023  1.00  0.00     0.006 C 
BRANCH  16  17
ATOM     17  C   UNL     1      20.664  -7.140   4.983  1.00  0.00     0.053 C 
BRANCH  17  18
ATOM     18  C   UNL     1      21.463  -5.907   4.699  1.00  0.00     0.041 C 
ATOM     19  O   UNL     1      22.680  -5.999   4.385  1.00  0.00    -0.550 OA
ATOM     20  O   UNL     1      20.852  -4.660   4.729  1.00  0.00    -0.550 OA
ENDBRANCH  17  18
ENDBRANCH  16  17
ENDBRANCH  15  16
ENDBRANCH  14  15
ENDBRANCH  13  14
ENDBRANCH  12  13
ENDBRANCH  11  12
ENDBRANCH   1  11
TORSDOF 15
ENDMDL
MODEL 7
REMARK VINA RESULT:    -3.537      2.672      3.747
REMARK INTER + INTRA:          -7.436
REMARK INTER:                  -6.250
REMARK INTRA:                  -1.186
REMARK UNBOUND:                -0.798
REMARK SMILES O=C([O-])CCCCCCCCCCCCCCC(=O)[O-]
REMARK SMILES IDX 10 1 9 2 8 3 7 4 6 5 5 6 4 7 2 8 1 9 3 10 11 11 12 12 13 13
REMARK SMILES IDX 14 14 15 15 16 16 17 17 18 18 19 19 20 20
REMARK H PARENT
REMARK Flexibility Score: inf
ROOT
ATOM      1  C   UNL     1      14.623  -8.032   6.898  1.00  0.00     0.000 C 
ENDROOT
BRANCH   1   2
ATOM      2  C   UNL     1      15.962  -7.278   6.767  1.00  0.00     0.000 C 
BRANCH   2   3
ATOM      3  C   UNL     1      16.273  -6.727   5.364  1.00  0.00     0.000 C 
BRANCH   3   4
ATOM      4  C   UNL     1      17.489  -7.409   4.711  1.00  0.00     0.000 C 
BRANCH   4   5
ATOM      5  C   UNL     1      18.497  -7.933   5.745  1.00  0.00     0.000 C 
BRANCH   5   6
ATOM      6  C   UNL     1      19.946  -7.526   5.422  1.00  0.00     0.006 C 
BRANCH   6   7
ATOM      7  C   UNL     1      20.134  -6.003   5.434  1.00  0.00     0.053 C 
BRANCH   7   8
ATOM      8  C   UNL     1      21.245  -5.572   4.526  1.00  0.00     0.041 C 
ATOM      9  O   UNL     1      22.163  -6.379   4.220  1.00  0.00    -0.550 OA
ATOM     10  O   UNL     1      21.284  -4.271   4.043  1.00  0.00    -0.550 OA
ENDBRANCH   7   8
ENDBRANCH   6   7
ENDBRANCH   5   6
ENDBRANCH   4   5
ENDBRANCH   3   4
ENDBRANCH   2   3
ENDBRANCH   1   2
BRANCH   1  11
ATOM     11  C   UNL     1      14.438  -9.213   5.929  1.00  0.00     0.000 C 
BRANCH  11  12
ATOM     12  C   UNL     1      13.267  -9.007   4.953  1.00  0.00     0.000 C 
BRANCH  12  13
ATOM     13  C   UNL     1      12.612  -7.625   5.113  1.00  0.00     0.000 C 
BRANCH  13  14
ATOM     14  C   UNL     1      11.097  -7.656   4.841  1.00  0.00     0.000 C 
BRANCH  14  15
ATOM     15  C   UNL     1      10.617  -9.054   4.398  1.00  0.00     0.000 C 
BRANCH  15  16
ATOM     16  C   UNL     1       9.360  -9.536   5.144  1.00  0.00     0.006 C 
BRANCH  16  17
ATOM     17  C   UNL     1       9.168  -8.846   6.499  1.00  0.00     0.053 C 
BRANCH  17  18
ATOM     18  C   UNL     1       7.809  -9.146   7.051  1.00  0.00     0.041 C 
ATOM     19  O   UNL     1       7.558  -8.932   8.266  1.00  0.00    -0.550 OA
ATOM     20  O   UNL     1       6.805  -9.613   6.212  1.00  0.00    -0.550 OA
ENDBRANCH  17  18
ENDBRANCH  16  17
ENDBRANCH  15  16
ENDBRANCH  14  15
ENDBRANCH  13  14
ENDBRANCH  12  13
ENDBRANCH  11  12
ENDBRANCH   1  11
TORSDOF 15
ENDMDL
MODEL 8
REMARK VINA RESULT:    -3.219      2.215      2.729
REMARK INTER + INTRA:          -6.840
REMARK INTER:                  -5.986
REMARK INTRA:                  -0.854
REMARK UNBOUND:                -0.798
REMARK SMILES O=C([O-])CCCCCCCCCCCCCCC(=O)[O-]
REMARK SMILES IDX 10 1 9 2 8 3 7 4 6 5 5 6 4 7 2 8 1 9 3 10 11 11 12 12 13 13
REMARK SMILES IDX 14 14 15 15 16 16 17 17 18 18 19 19 20 20
REMARK H PARENT
REMARK Flexibility Score: inf
ROOT
ATOM      1  C   UNL     1      13.211  -8.523   4.658  1.00  0.00     0.000 C 
ENDROOT
BRANCH   1   2
ATOM      2  C   UNL     1      13.896  -8.238   6.011  1.00  0.00     0.000 C 
BRANCH   2   3
ATOM      3  C   UNL     1      15.418  -8.466   6.040  1.00  0.00     0.000 C 
BRANCH   3   4
ATOM      4  C   UNL     1      16.063  -8.364   4.647  1.00  0.00     0.000 C 
BRANCH   4   5
ATOM      5  C   UNL     1      17.209  -7.341   4.602  1.00  0.00     0.000 C 
BRANCH   5   6
ATOM      6  C   UNL     1      18.521  -7.892   5.186  1.00  0.00     0.006 C 
BRANCH   6   7
ATOM      7  C   UNL     1      19.113  -6.963   6.255  1.00  0.00     0.053 C 
BRANCH   7   8
ATOM      8  C   UNL     1      19.097  -7.596   7.613  1.00  0.00     0.041 C 
ATOM      9  O   UNL     1      18.807  -6.910   8.629  1.00  0.00    -0.550 OA
ATOM     10  O   UNL     1      19.434  -8.936   7.760  1.00  0.00    -0.550 OA
ENDBRANCH   7   8
ENDBRANCH   6   7
ENDBRANCH   5   6
ENDBRANCH   4   5
ENDBRANCH   3   4
ENDBRANCH   2   3
ENDBRANCH   1   2
BRANCH   1  11
ATOM     11  C   UNL     1      11.939  -7.703   4.381  1.00  0.00     0.000 C 
BRANCH  11  12
ATOM     12  C   UNL     1      10.757  -8.117   5.275  1.00  0.00     0.000 C 
BRANCH  12  13
ATOM     13  C   UNL     1       9.458  -8.302   4.473  1.00  0.00     0.000 C 
BRANCH  13  14
ATOM     14  C   UNL     1       8.457  -7.156   4.700  1.00  0.00     0.000 C 
BRANCH  14  15
ATOM     15  C   UNL     1       7.017  -7.675   4.897  1.00  0.00     0.000 C 
BRANCH  15  16
ATOM     16  C   UNL     1       6.666  -7.973   6.366  1.00  0.00     0.006 C 
BRANCH  16  17
ATOM     17  C   UNL     1       6.633  -9.472   6.680  1.00  0.00     0.053 C 
BRANCH  17  18
ATOM     18  C   UNL     1       7.544  -9.787   7.825  1.00  0.00     0.041 C 
ATOM     19  O   UNL     1       8.793  -9.736   7.673  1.00  0.00    -0.550 OA
ATOM     20  O   UNL     1       7.014 -10.086   9.074  1.00  0.00    -0.550 OA
ENDBRANCH  17  18
ENDBRANCH  16  17
ENDBRANCH  15  16
ENDBRANCH  14  15
ENDBRANCH  13  14
ENDBRANCH  12  13
ENDBRANCH  11  12
ENDBRANCH   1  11
TORSDOF 15
ENDMDL
MODEL 9
REMARK VINA RESULT:    -3.070      2.044     11.553
REMARK INTER + INTRA:          -6.559
REMARK INTER:                  -6.011
REMARK INTRA:                  -0.549
REMARK UNBOUND:                -0.798
REMARK SMILES O=C([O-])CCCCCCCCCCCCCCC(=O)[O-]
REMARK SMILES IDX 10 1 9 2 8 3 7 4 6 5 5 6 4 7 2 8 1 9 3 10 11 11 12 12 13 13
REMARK SMILES IDX 14 14 15 15 16 16 17 17 18 18 19 19 20 20
REMARK H PARENT
REMARK Flexibility Score: inf
ROOT
ATOM      1  C   UNL     1      11.525  -7.501   5.265  1.00  0.00     0.000 C 
ENDROOT
BRANCH   1   2
ATOM      2  C   UNL     1      10.525  -8.677   5.253  1.00  0.00     0.000 C 
BRANCH   2   3
ATOM      3  C   UNL     1       9.064  -8.301   5.556  1.00  0.00     0.000 C 
BRANCH   3   4
ATOM      4  C   UNL     1       8.513  -9.008   6.807  1.00  0.00     0.000 C 
BRANCH   4   5
ATOM      5  C   UNL     1       6.980  -8.935   6.897  1.00  0.00     0.000 C 
BRANCH   5   6
ATOM      6  C   UNL     1       6.299  -9.017   5.519  1.00  0.00     0.006 C 
BRANCH   6   7
ATOM      7  C   UNL     1       5.193  -7.965   5.358  1.00  0.00     0.053 C 
BRANCH   7   8
ATOM      8  C   UNL     1       3.879  -8.591   5.001  1.00  0.00     0.041 C 
ATOM      9  O   UNL     1       2.923  -7.873   4.605  1.00  0.00    -0.550 OA
ATOM     10  O   UNL     1       3.702  -9.962   5.137  1.00  0.00    -0.550 OA
ENDBRANCH   7   8
ENDBRANCH   6   7
ENDBRANCH   5   6
ENDBRANCH   4   5
ENDBRANCH   3   4
ENDBRANCH   2   3
ENDBRANCH   1   2
BRANCH   1  11
ATOM     11  C   UNL     1      12.525  -7.480   4.096  1.00  0.00     0.000 C 
BRANCH  11  12
ATOM     12  C   UNL     1      13.835  -8.220   4.418  1.00  0.00     0.000 C 
BRANCH  12  13
ATOM     13  C   UNL     1      14.489  -7.712   5.713  1.00  0.00     0.000 C 
BRANCH  13  14
ATOM     14  C   UNL     1      15.789  -6.932   5.451  1.00  0.00     0.000 C 
BRANCH  14  15
ATOM     15  C   UNL     1      17.043  -7.773   5.769  1.00  0.00     0.000 C 
BRANCH  15  16
ATOM     16  C   UNL     1      18.282  -7.362   4.954  1.00  0.00     0.006 C 
BRANCH  16  17
ATOM     17  C   UNL     1      19.391  -6.752   5.819  1.00  0.00     0.053 C 
BRANCH  17  18
ATOM     18  C   UNL     1      20.509  -6.250   4.959  1.00  0.00     0.041 C 
ATOM     19  O   UNL     1      21.090  -7.029   4.158  1.00  0.00    -0.550 OA
ATOM     20  O   UNL     1      20.875  -4.911   5.006  1.00  0.00    -0.550 OA
ENDBRANCH  17  18
ENDBRANCH  16  17
ENDBRANCH  15  16
ENDBRANCH  14  15
ENDBRANCH  13  14
ENDBRANCH  12  13
ENDBRANCH  11  12
ENDBRANCH   1  11
TORSDOF 15
ENDMDL
