MODEL 1
REMARK VINA RESULT:    -4.828      0.000      0.000
REMARK INTER + INTRA:          -6.207
REMARK INTER:                  -5.816
REMARK INTRA:                  -0.390
REMARK UNBOUND:                -0.390
REMARK SMILES O=c1c(O)c(-c2ccc(O)cc2O)oc2cc(O)cc(O)c12
REMARK SMILES IDX 5 1 3 2 2 3 1 4 22 5 20 6 19 7 17 8 16 9 15 10 14 11 6 12
REMARK SMILES IDX 8 13 7 14 9 15 11 16 12 17 10 18 13 20 4 22 21 24 18 26
REMARK H PARENT 10 19 13 21 4 23 21 25 18 27
REMARK Flexibility Score: inf
ROOT
ATOM      1  C   UNL     1      19.124  25.448  53.156  1.00  0.00     0.184 A 
ATOM      2  C   UNL     1      17.728  25.505  53.286  1.00  0.00     0.208 A 
ATOM      3  C   UNL     1      17.138  26.676  53.786  1.00  0.00     0.238 A 
ATOM      4  O   UNL     1      15.882  26.748  53.831  1.00  0.00    -0.285 OA
ATOM      5  C   UNL     1      17.957  27.756  54.200  1.00  0.00     0.111 A 
ATOM      6  C   UNL     1      17.470  28.974  54.764  1.00  0.00     0.134 A 
ATOM      7  C   UNL     1      18.367  30.014  55.039  1.00  0.00     0.093 A 
ATOM      8  C   UNL     1      19.740  29.857  54.831  1.00  0.00     0.123 A 
ATOM      9  C   UNL     1      20.230  28.651  54.334  1.00  0.00     0.094 A 
ATOM     10  C   UNL     1      19.357  27.609  54.014  1.00  0.00     0.146 A 
ATOM     11  O   UNL     1      19.865  26.485  53.522  1.00  0.00    -0.451 OA
ENDROOT
BRANCH   1  12
ATOM     12  C   UNL     1      19.807  24.248  52.629  1.00  0.00     0.063 A 
ATOM     13  C   UNL     1      20.749  23.063  50.727  1.00  0.00     0.047 A 
ATOM     14  C   UNL     1      20.109  24.184  51.259  1.00  0.00     0.020 A 
ATOM     15  C   UNL     1      21.082  21.986  51.551  1.00  0.00     0.119 A 
ATOM     16  C   UNL     1      20.764  22.030  52.915  1.00  0.00     0.093 A 
ATOM     17  C   UNL     1      20.117  23.150  53.458  1.00  0.00     0.130 A 
BRANCH  15  18
ATOM     18  O   UNL     1      21.723  20.875  51.007  1.00  0.00    -0.508 OA
ATOM     19  H   UNL     1      21.789  20.740  50.005  1.00  0.00     0.293 HD
ENDBRANCH  15  18
BRANCH  17  20
ATOM     20  O   UNL     1      19.762  23.161  54.806  1.00  0.00    -0.507 OA
ATOM     21  H   UNL     1      20.420  22.902  55.532  1.00  0.00     0.293 HD
ENDBRANCH  17  20
ENDBRANCH   1  12
BRANCH   2  22
ATOM     22  O   UNL     1      16.947  24.399  52.937  1.00  0.00    -0.502 OA
ATOM     23  H   UNL     1      16.487  24.321  52.038  1.00  0.00     0.293 HD
ENDBRANCH   2  22
BRANCH   6  24
ATOM     24  O   UNL     1      16.132  29.205  55.093  1.00  0.00    -0.507 OA
ATOM     25  H   UNL     1      15.813  29.663  55.934  1.00  0.00     0.293 HD
ENDBRANCH   6  24
BRANCH   8  26
ATOM     26  O   UNL     1      20.626  30.890  55.125  1.00  0.00    -0.508 OA
ATOM     27  H   UNL     1      20.873  31.121  56.080  1.00  0.00     0.293 HD
ENDBRANCH   8  26
TORSDOF 6
ENDMDL
MODEL 2
REMARK VINA RESULT:    -4.182      1.649      6.866
REMARK INTER + INTRA:          -5.428
REMARK INTER:                  -5.093
REMARK INTRA:                  -0.335
REMARK UNBOUND:                -0.390
REMARK SMILES O=c1c(O)c(-c2ccc(O)cc2O)oc2cc(O)cc(O)c12
REMARK SMILES IDX 5 1 3 2 2 3 1 4 22 5 20 6 19 7 17 8 16 9 15 10 14 11 6 12
REMARK SMILES IDX 8 13 7 14 9 15 11 16 12 17 10 18 13 20 4 22 21 24 18 26
REMARK H PARENT 10 19 13 21 4 23 21 25 18 27
REMARK Flexibility Score: inf
ROOT
ATOM      1  C   UNL     1      18.768  26.641  53.528  1.00  0.00     0.184 A 
ATOM      2  C   UNL     1      19.666  26.664  52.450  1.00  0.00     0.208 A 
ATOM      3  C   UNL     1      20.314  25.475  52.080  1.00  0.00     0.238 A 
ATOM      4  O   UNL     1      21.061  25.485  51.068  1.00  0.00    -0.285 OA
ATOM      5  C   UNL     1      20.096  24.291  52.828  1.00  0.00     0.111 A 
ATOM      6  C   UNL     1      20.733  23.039  52.571  1.00  0.00     0.134 A 
ATOM      7  C   UNL     1      20.360  21.910  53.311  1.00  0.00     0.093 A 
ATOM      8  C   UNL     1      19.421  22.001  54.341  1.00  0.00     0.123 A 
ATOM      9  C   UNL     1      18.835  23.229  54.636  1.00  0.00     0.094 A 
ATOM     10  C   UNL     1      19.157  24.366  53.891  1.00  0.00     0.146 A 
ATOM     11  O   UNL     1      18.558  25.512  54.192  1.00  0.00    -0.451 OA
ENDROOT
BRANCH   1  12
ATOM     12  C   UNL     1      18.047  27.856  53.964  1.00  0.00     0.063 A 
ATOM     13  C   UNL     1      15.973  29.121  54.047  1.00  0.00     0.047 A 
ATOM     14  C   UNL     1      16.684  27.984  53.655  1.00  0.00     0.020 A 
ATOM     15  C   UNL     1      16.618  30.150  54.738  1.00  0.00     0.119 A 
ATOM     16  C   UNL     1      17.984  30.042  55.030  1.00  0.00     0.093 A 
ATOM     17  C   UNL     1      18.706  28.906  54.636  1.00  0.00     0.130 A 
BRANCH  15  18
ATOM     18  O   UNL     1      15.896  31.277  55.125  1.00  0.00    -0.508 OA
ATOM     19  H   UNL     1      15.145  31.647  54.553  1.00  0.00     0.293 HD
ENDBRANCH  15  18
BRANCH  17  20
ATOM     20  O   UNL     1      20.076  28.832  54.889  1.00  0.00    -0.507 OA
ATOM     21  H   UNL     1      20.753  28.779  54.138  1.00  0.00     0.293 HD
ENDBRANCH  17  20
ENDBRANCH   1  12
BRANCH   2  22
ATOM     22  O   UNL     1      19.918  27.861  51.774  1.00  0.00    -0.502 OA
ATOM     23  H   UNL     1      20.363  28.653  52.220  1.00  0.00     0.293 HD
ENDBRANCH   2  22
BRANCH   6  24
ATOM     24  O   UNL     1      21.747  22.856  51.626  1.00  0.00    -0.507 OA
ATOM     25  H   UNL     1      22.717  23.098  51.764  1.00  0.00     0.293 HD
ENDBRANCH   6  24
BRANCH   8  26
ATOM     26  O   UNL     1      19.069  20.876  55.084  1.00  0.00    -0.508 OA
ATOM     27  H   UNL     1      18.854  19.992  54.637  1.00  0.00     0.293 HD
ENDBRANCH   8  26
TORSDOF 6
ENDMDL
MODEL 3
REMARK VINA RESULT:    -4.174      1.686      6.503
REMARK INTER + INTRA:          -5.418
REMARK INTER:                  -5.989
REMARK INTRA:                   0.570
REMARK UNBOUND:                -0.390
REMARK SMILES O=c1c(O)c(-c2ccc(O)cc2O)oc2cc(O)cc(O)c12
REMARK SMILES IDX 5 1 3 2 2 3 1 4 22 5 20 6 19 7 17 8 16 9 15 10 14 11 6 12
REMARK SMILES IDX 8 13 7 14 9 15 11 16 12 17 10 18 13 20 4 22 21 24 18 26
REMARK H PARENT 10 19 13 21 4 23 21 25 18 27
REMARK Flexibility Score: inf
ROOT
ATOM      1  C   UNL     1      19.327  25.577  53.351  1.00  0.00     0.184 A 
ATOM      2  C   UNL     1      18.261  24.853  53.907  1.00  0.00     0.208 A 
ATOM      3  C   UNL     1      18.007  23.552  53.443  1.00  0.00     0.238 A 
ATOM      4  O   UNL     1      17.098  22.881  53.997  1.00  0.00    -0.285 OA
ATOM      5  C   UNL     1      18.790  23.014  52.391  1.00  0.00     0.111 A 
ATOM      6  C   UNL     1      18.594  21.724  51.811  1.00  0.00     0.134 A 
ATOM      7  C   UNL     1      19.496  21.257  50.848  1.00  0.00     0.093 A 
ATOM      8  C   UNL     1      20.548  22.056  50.396  1.00  0.00     0.123 A 
ATOM      9  C   UNL     1      20.715  23.338  50.916  1.00  0.00     0.094 A 
ATOM     10  C   UNL     1      19.855  23.819  51.906  1.00  0.00     0.146 A 
ATOM     11  O   UNL     1      20.063  25.038  52.389  1.00  0.00    -0.451 OA
ENDROOT
BRANCH   1  12
ATOM     12  C   UNL     1      19.652  26.948  53.800  1.00  0.00     0.063 A 
ATOM     13  C   UNL     1      19.027  28.914  55.085  1.00  0.00     0.047 A 
ATOM     14  C   UNL     1      18.753  27.616  54.646  1.00  0.00     0.020 A 
ATOM     15  C   UNL     1      20.192  29.565  54.673  1.00  0.00     0.119 A 
ATOM     16  C   UNL     1      21.084  28.914  53.810  1.00  0.00     0.093 A 
ATOM     17  C   UNL     1      20.815  27.613  53.360  1.00  0.00     0.130 A 
BRANCH  15  18
ATOM     18  O   UNL     1      20.453  30.858  55.121  1.00  0.00    -0.508 OA
ATOM     19  H   UNL     1      20.604  31.058  56.103  1.00  0.00     0.293 HD
ENDBRANCH  15  18
BRANCH  17  20
ATOM     20  O   UNL     1      21.685  26.995  52.463  1.00  0.00    -0.507 OA
ATOM     21  H   UNL     1      21.565  27.081  51.461  1.00  0.00     0.293 HD
ENDBRANCH  17  20
ENDBRANCH   1  12
BRANCH   2  22
ATOM     22  O   UNL     1      17.460  25.433  54.894  1.00  0.00    -0.502 OA
ATOM     23  H   UNL     1      17.840  26.022  55.625  1.00  0.00     0.293 HD
ENDBRANCH   2  22
BRANCH   6  24
ATOM     24  O   UNL     1      17.525  20.879  52.125  1.00  0.00    -0.507 OA
ATOM     25  H   UNL     1      17.580  20.081  52.739  1.00  0.00     0.293 HD
ENDBRANCH   6  24
BRANCH   8  26
ATOM     26  O   UNL     1      21.430  21.589  49.424  1.00  0.00    -0.508 OA
ATOM     27  H   UNL     1      22.435  21.649  49.548  1.00  0.00     0.293 HD
ENDBRANCH   8  26
TORSDOF 6
ENDMDL
MODEL 4
REMARK VINA RESULT:    -4.066      1.713      6.578
REMARK INTER + INTRA:          -5.288
REMARK INTER:                  -4.973
REMARK INTRA:                  -0.315
REMARK UNBOUND:                -0.390
REMARK SMILES O=c1c(O)c(-c2ccc(O)cc2O)oc2cc(O)cc(O)c12
REMARK SMILES IDX 5 1 3 2 2 3 1 4 22 5 20 6 19 7 17 8 16 9 15 10 14 11 6 12
REMARK SMILES IDX 8 13 7 14 9 15 11 16 12 17 10 18 13 20 4 22 21 24 18 26
REMARK H PARENT 10 19 13 21 4 23 21 25 18 27
REMARK Flexibility Score: inf
ROOT
ATOM      1  C   UNL     1      17.740  25.925  53.643  1.00  0.00     0.184 A 
ATOM      2  C   UNL     1      17.019  24.846  54.176  1.00  0.00     0.208 A 
ATOM      3  C   UNL     1      17.336  23.544  53.758  1.00  0.00     0.238 A 
ATOM      4  O   UNL     1      16.737  22.576  54.295  1.00  0.00    -0.285 OA
ATOM      5  C   UNL     1      18.332  23.343  52.771  1.00  0.00     0.111 A 
ATOM      6  C   UNL     1      18.705  22.071  52.240  1.00  0.00     0.134 A 
ATOM      7  C   UNL     1      19.778  21.985  51.344  1.00  0.00     0.093 A 
ATOM      8  C   UNL     1      20.450  23.130  50.911  1.00  0.00     0.123 A 
ATOM      9  C   UNL     1      20.058  24.381  51.381  1.00  0.00     0.094 A 
ATOM     10  C   UNL     1      19.017  24.497  52.305  1.00  0.00     0.146 A 
ATOM     11  O   UNL     1      18.690  25.707  52.743  1.00  0.00    -0.451 OA
ENDROOT
BRANCH   1  12
ATOM     12  C   UNL     1      17.462  27.320  54.046  1.00  0.00     0.063 A 
ATOM     13  C   UNL     1      15.885  29.164  54.192  1.00  0.00     0.047 A 
ATOM     14  C   UNL     1      16.180  27.848  53.828  1.00  0.00     0.020 A 
ATOM     15  C   UNL     1      16.869  29.973  54.764  1.00  0.00     0.119 A 
ATOM     16  C   UNL     1      18.159  29.463  54.964  1.00  0.00     0.093 A 
ATOM     17  C   UNL     1      18.466  28.144  54.597  1.00  0.00     0.130 A 
BRANCH  15  18
ATOM     18  O   UNL     1      16.559  31.282  55.125  1.00  0.00    -0.508 OA
ATOM     19  H   UNL     1      15.759  31.765  54.733  1.00  0.00     0.293 HD
ENDBRANCH  15  18
BRANCH  17  20
ATOM     20  O   UNL     1      19.765  27.664  54.756  1.00  0.00    -0.507 OA
ATOM     21  H   UNL     1      19.952  26.773  55.201  1.00  0.00     0.293 HD
ENDBRANCH  17  20
ENDBRANCH   1  12
BRANCH   2  22
ATOM     22  O   UNL     1      15.992  25.077  55.096  1.00  0.00    -0.502 OA
ATOM     23  H   UNL     1      15.028  24.829  54.906  1.00  0.00     0.293 HD
ENDBRANCH   2  22
BRANCH   6  24
ATOM     24  O   UNL     1      18.045  20.875  52.537  1.00  0.00    -0.507 OA
ATOM     25  H   UNL     1      17.048  20.777  52.652  1.00  0.00     0.293 HD
ENDBRANCH   6  24
BRANCH   8  26
ATOM     26  O   UNL     1      21.505  23.036  50.006  1.00  0.00    -0.508 OA
ATOM     27  H   UNL     1      22.107  22.221  49.976  1.00  0.00     0.293 HD
ENDBRANCH   8  26
TORSDOF 6
ENDMDL
MODEL 5
REMARK VINA RESULT:    -3.985      1.987      6.792
REMARK INTER + INTRA:          -5.191
REMARK INTER:                  -5.688
REMARK INTRA:                   0.497
REMARK UNBOUND:                -0.390
REMARK SMILES O=c1c(O)c(-c2ccc(O)cc2O)oc2cc(O)cc(O)c12
REMARK SMILES IDX 5 1 3 2 2 3 1 4 22 5 20 6 19 7 17 8 16 9 15 10 14 11 6 12
REMARK SMILES IDX 8 13 7 14 9 15 11 16 12 17 10 18 13 20 4 22 21 24 18 26
REMARK H PARENT 10 19 13 21 4 23 21 25 18 27
REMARK Flexibility Score: inf
ROOT
ATOM      1  C   UNL     1      19.659  25.540  52.894  1.00  0.00     0.184 A 
ATOM      2  C   UNL     1      20.547  25.059  51.920  1.00  0.00     0.208 A 
ATOM      3  C   UNL     1      20.351  23.771  51.397  1.00  0.00     0.238 A 
ATOM      4  O   UNL     1      21.106  23.374  50.472  1.00  0.00    -0.285 OA
ATOM      5  C   UNL     1      19.301  22.961  51.895  1.00  0.00     0.111 A 
ATOM      6  C   UNL     1      19.035  21.624  51.470  1.00  0.00     0.134 A 
ATOM      7  C   UNL     1      17.904  20.957  51.957  1.00  0.00     0.093 A 
ATOM      8  C   UNL     1      17.065  21.554  52.901  1.00  0.00     0.123 A 
ATOM      9  C   UNL     1      17.347  22.837  53.363  1.00  0.00     0.094 A 
ATOM     10  C   UNL     1      18.446  23.543  52.869  1.00  0.00     0.146 A 
ATOM     11  O   UNL     1      18.665  24.772  53.321  1.00  0.00    -0.451 OA
ENDROOT
BRANCH   1  12
ATOM     12  C   UNL     1      19.805  26.890  53.480  1.00  0.00     0.063 A 
ATOM     13  C   UNL     1      21.199  28.841  53.874  1.00  0.00     0.047 A 
ATOM     14  C   UNL     1      21.025  27.567  53.329  1.00  0.00     0.020 A 
ATOM     15  C   UNL     1      20.164  29.448  54.589  1.00  0.00     0.119 A 
ATOM     16  C   UNL     1      18.950  28.769  54.766  1.00  0.00     0.093 A 
ATOM     17  C   UNL     1      18.768  27.488  54.227  1.00  0.00     0.130 A 
BRANCH  15  18
ATOM     18  O   UNL     1      20.351  30.720  55.125  1.00  0.00    -0.508 OA
ATOM     19  H   UNL     1      21.263  31.037  55.431  1.00  0.00     0.293 HD
ENDBRANCH  15  18
BRANCH  17  20
ATOM     20  O   UNL     1      17.575  26.803  54.451  1.00  0.00    -0.507 OA
ATOM     21  H   UNL     1      17.146  26.768  55.368  1.00  0.00     0.293 HD
ENDBRANCH  17  20
ENDBRANCH   1  12
BRANCH   2  22
ATOM     22  O   UNL     1      21.619  25.852  51.497  1.00  0.00    -0.502 OA
ATOM     23  H   UNL     1      22.148  25.647  50.658  1.00  0.00     0.293 HD
ENDBRANCH   2  22
BRANCH   6  24
ATOM     24  O   UNL     1      19.856  20.902  50.599  1.00  0.00    -0.507 OA
ATOM     25  H   UNL     1      19.863  21.001  49.595  1.00  0.00     0.293 HD
ENDBRANCH   6  24
BRANCH   8  26
ATOM     26  O   UNL     1      15.952  20.875  53.393  1.00  0.00    -0.508 OA
ATOM     27  H   UNL     1      15.094  21.363  53.625  1.00  0.00     0.293 HD
ENDBRANCH   8  26
TORSDOF 6
ENDMDL
MODEL 6
REMARK VINA RESULT:    -3.869      2.076      6.695
REMARK INTER + INTRA:          -5.051
REMARK INTER:                  -4.708
REMARK INTRA:                  -0.343
REMARK UNBOUND:                -0.390
REMARK SMILES O=c1c(O)c(-c2ccc(O)cc2O)oc2cc(O)cc(O)c12
REMARK SMILES IDX 5 1 3 2 2 3 1 4 22 5 20 6 19 7 17 8 16 9 15 10 14 11 6 12
REMARK SMILES IDX 8 13 7 14 9 15 11 16 12 17 10 18 13 20 4 22 21 24 18 26
REMARK H PARENT 10 19 13 21 4 23 21 25 18 27
REMARK Flexibility Score: inf
ROOT
ATOM      1  C   UNL     1      17.585  25.635  53.330  1.00  0.00     0.184 A 
ATOM      2  C   UNL     1      16.917  25.097  52.219  1.00  0.00     0.208 A 
ATOM      3  C   UNL     1      17.145  23.756  51.872  1.00  0.00     0.238 A 
ATOM      4  O   UNL     1      16.488  23.259  50.921  1.00  0.00    -0.285 OA
ATOM      5  C   UNL     1      18.080  22.987  52.608  1.00  0.00     0.111 A 
ATOM      6  C   UNL     1      18.424  21.632  52.319  1.00  0.00     0.134 A 
ATOM      7  C   UNL     1      19.284  20.939  53.180  1.00  0.00     0.093 A 
ATOM      8  C   UNL     1      19.862  21.569  54.284  1.00  0.00     0.123 A 
ATOM      9  C   UNL     1      19.576  22.908  54.543  1.00  0.00     0.094 A 
ATOM     10  C   UNL     1      18.693  23.616  53.725  1.00  0.00     0.146 A 
ATOM     11  O   UNL     1      18.432  24.883  54.021  1.00  0.00    -0.451 OA
ENDROOT
BRANCH   1  12
ATOM     12  C   UNL     1      17.383  27.037  53.754  1.00  0.00     0.063 A 
ATOM     13  C   UNL     1      15.875  28.766  54.554  1.00  0.00     0.047 A 
ATOM     14  C   UNL     1      16.102  27.448  54.153  1.00  0.00     0.020 A 
ATOM     15  C   UNL     1      16.920  29.694  54.548  1.00  0.00     0.119 A 
ATOM     16  C   UNL     1      18.197  29.299  54.128  1.00  0.00     0.093 A 
ATOM     17  C   UNL     1      18.433  27.978  53.719  1.00  0.00     0.130 A 
BRANCH  15  18
ATOM     18  O   UNL     1      16.679  31.004  54.953  1.00  0.00    -0.508 OA
ATOM     19  H   UNL     1      16.278  31.689  54.322  1.00  0.00     0.293 HD
ENDBRANCH  15  18
BRANCH  17  20
ATOM     20  O   UNL     1      19.696  27.609  53.257  1.00  0.00    -0.507 OA
ATOM     21  H   UNL     1      19.948  26.638  53.115  1.00  0.00     0.293 HD
ENDBRANCH  17  20
ENDBRANCH   1  12
BRANCH   2  22
ATOM     22  O   UNL     1      16.054  25.898  51.466  1.00  0.00    -0.502 OA
ATOM     23  H   UNL     1      15.628  25.577  50.605  1.00  0.00     0.293 HD
ENDBRANCH   2  22
BRANCH   6  24
ATOM     24  O   UNL     1      17.974  20.932  51.195  1.00  0.00    -0.507 OA
ATOM     25  H   UNL     1      17.026  20.619  51.050  1.00  0.00     0.293 HD
ENDBRANCH   6  24
BRANCH   8  26
ATOM     26  O   UNL     1      20.730  20.877  55.125  1.00  0.00    -0.508 OA
ATOM     27  H   UNL     1      20.389  20.199  55.797  1.00  0.00     0.293 HD
ENDBRANCH   8  26
TORSDOF 6
ENDMDL
MODEL 7
REMARK VINA RESULT:    -3.238     18.710     21.949
REMARK INTER + INTRA:          -4.291
REMARK INTER:                  -4.902
REMARK INTRA:                   0.611
REMARK UNBOUND:                -0.390
REMARK SMILES O=c1c(O)c(-c2ccc(O)cc2O)oc2cc(O)cc(O)c12
REMARK SMILES IDX 5 1 3 2 2 3 1 4 22 5 20 6 19 7 17 8 16 9 15 10 14 11 6 12
REMARK SMILES IDX 8 13 7 14 9 15 11 16 12 17 10 18 13 20 4 22 21 24 18 26
REMARK H PARENT 10 19 13 21 4 23 21 25 18 27
REMARK Flexibility Score: inf
ROOT
ATOM      1  C   UNL     1      33.483  25.069  37.557  1.00  0.00     0.184 A 
ATOM      2  C   UNL     1      34.710  24.455  37.263  1.00  0.00     0.208 A 
ATOM      3  C   UNL     1      35.058  23.273  37.936  1.00  0.00     0.238 A 
ATOM      4  O   UNL     1      36.124  22.687  37.615  1.00  0.00    -0.285 OA
ATOM      5  C   UNL     1      34.197  22.751  38.934  1.00  0.00     0.111 A 
ATOM      6  C   UNL     1      34.468  21.584  39.711  1.00  0.00     0.134 A 
ATOM      7  C   UNL     1      33.495  21.103  40.595  1.00  0.00     0.093 A 
ATOM      8  C   UNL     1      32.287  21.780  40.778  1.00  0.00     0.123 A 
ATOM      9  C   UNL     1      32.036  22.950  40.065  1.00  0.00     0.094 A 
ATOM     10  C   UNL     1      32.971  23.435  39.147  1.00  0.00     0.146 A 
ATOM     11  O   UNL     1      32.681  24.542  38.473  1.00  0.00    -0.451 OA
ENDROOT
BRANCH   1  12
ATOM     12  C   UNL     1      33.054  26.310  36.879  1.00  0.00     0.063 A 
ATOM     13  C   UNL     1      33.508  28.039  35.231  1.00  0.00     0.047 A 
ATOM     14  C   UNL     1      33.880  26.864  35.889  1.00  0.00     0.020 A 
ATOM     15  C   UNL     1      32.314  28.683  35.565  1.00  0.00     0.119 A 
ATOM     16  C   UNL     1      31.494  28.152  36.569  1.00  0.00     0.093 A 
ATOM     17  C   UNL     1      31.862  26.975  37.238  1.00  0.00     0.130 A 
BRANCH  15  18
ATOM     18  O   UNL     1      31.954  29.853  34.899  1.00  0.00    -0.508 OA
ATOM     19  H   UNL     1      31.401  30.571  35.351  1.00  0.00     0.293 HD
ENDBRANCH  15  18
BRANCH  17  20
ATOM     20  O   UNL     1      31.062  26.482  38.268  1.00  0.00    -0.507 OA
ATOM     21  H   UNL     1      31.356  25.701  38.842  1.00  0.00     0.293 HD
ENDBRANCH  17  20
ENDBRANCH   1  12
BRANCH   2  22
ATOM     22  O   UNL     1      35.573  25.029  36.326  1.00  0.00    -0.502 OA
ATOM     23  H   UNL     1      35.498  24.845  35.333  1.00  0.00     0.293 HD
ENDBRANCH   2  22
BRANCH   6  24
ATOM     24  O   UNL     1      35.675  20.881  39.672  1.00  0.00    -0.507 OA
ATOM     25  H   UNL     1      36.193  20.666  38.834  1.00  0.00     0.293 HD
ENDBRANCH   6  24
BRANCH   8  26
ATOM     26  O   UNL     1      31.332  21.303  41.673  1.00  0.00    -0.508 OA
ATOM     27  H   UNL     1      30.503  21.840  41.899  1.00  0.00     0.293 HD
ENDBRANCH   8  26
TORSDOF 6
ENDMDL
MODEL 8
REMARK VINA RESULT:    -3.189     19.739     22.240
REMARK INTER + INTRA:          -4.232
REMARK INTER:                  -4.262
REMARK INTRA:                   0.030
REMARK UNBOUND:                -0.390
REMARK SMILES O=c1c(O)c(-c2ccc(O)cc2O)oc2cc(O)cc(O)c12
REMARK SMILES IDX 5 1 3 2 2 3 1 4 22 5 20 6 19 7 17 8 16 9 15 10 14 11 6 12
REMARK SMILES IDX 8 13 7 14 9 15 11 16 12 17 10 18 13 20 4 22 21 24 18 26
REMARK H PARENT 10 19 13 21 4 23 21 25 18 27
REMARK Flexibility Score: inf
ROOT
ATOM      1  C   UNL     1      33.730  25.812  37.423  1.00  0.00     0.184 A 
ATOM      2  C   UNL     1      32.336  25.652  37.436  1.00  0.00     0.208 A 
ATOM      3  C   UNL     1      31.787  24.514  38.049  1.00  0.00     0.238 A 
ATOM      4  O   UNL     1      30.535  24.413  38.122  1.00  0.00    -0.285 OA
ATOM      5  C   UNL     1      32.644  23.525  38.593  1.00  0.00     0.111 A 
ATOM      6  C   UNL     1      32.200  22.311  39.199  1.00  0.00     0.134 A 
ATOM      7  C   UNL     1      33.134  21.457  39.798  1.00  0.00     0.093 A 
ATOM      8  C   UNL     1      34.501  21.740  39.758  1.00  0.00     0.123 A 
ATOM      9  C   UNL     1      34.949  22.895  39.120  1.00  0.00     0.094 A 
ATOM     10  C   UNL     1      34.039  23.786  38.547  1.00  0.00     0.146 A 
ATOM     11  O   UNL     1      34.508  24.886  37.968  1.00  0.00    -0.451 OA
ENDROOT
BRANCH   1  12
ATOM     12  C   UNL     1      34.371  26.990  36.801  1.00  0.00     0.063 A 
ATOM     13  C   UNL     1      34.419  28.614  34.994  1.00  0.00     0.047 A 
ATOM     14  C   UNL     1      33.835  27.505  35.611  1.00  0.00     0.020 A 
ATOM     15  C   UNL     1      35.553  29.212  35.548  1.00  0.00     0.119 A 
ATOM     16  C   UNL     1      36.110  28.690  36.723  1.00  0.00     0.093 A 
ATOM     17  C   UNL     1      35.533  27.574  37.347  1.00  0.00     0.130 A 
BRANCH  15  18
ATOM     18  O   UNL     1      36.123  30.319  34.923  1.00  0.00    -0.508 OA
ATOM     19  H   UNL     1      35.554  31.084  34.579  1.00  0.00     0.293 HD
ENDBRANCH  15  18
BRANCH  17  20
ATOM     20  O   UNL     1      36.125  27.034  38.489  1.00  0.00    -0.507 OA
ATOM     21  H   UNL     1      36.532  27.622  39.206  1.00  0.00     0.293 HD
ENDBRANCH  17  20
ENDBRANCH   1  12
BRANCH   2  22
ATOM     22  O   UNL     1      31.517  26.607  36.828  1.00  0.00    -0.502 OA
ATOM     23  H   UNL     1      30.609  26.859  37.199  1.00  0.00     0.293 HD
ENDBRANCH   2  22
BRANCH   6  24
ATOM     24  O   UNL     1      30.868  21.887  39.219  1.00  0.00    -0.507 OA
ATOM     25  H   UNL     1      30.236  22.000  39.998  1.00  0.00     0.293 HD
ENDBRANCH   6  24
BRANCH   8  26
ATOM     26  O   UNL     1      35.425  20.875  40.341  1.00  0.00    -0.508 OA
ATOM     27  H   UNL     1      35.340  19.869  40.248  1.00  0.00     0.293 HD
ENDBRANCH   8  26
TORSDOF 6
ENDMDL
