MODEL 1
REMARK VINA RESULT:    -3.470      0.000      0.000
REMARK INTER + INTRA:          -3.820
REMARK INTER:                  -3.774
REMARK INTRA:                  -0.046
REMARK UNBOUND:                -0.046
REMARK SMILES COc1ccccc1O
REMARK SMILES IDX 3 1 4 2 5 3 6 4 7 5 8 6 2 7 1 8 9 9
REMARK H PARENT 9 10
REMARK Flexibility Score: inf
ROOT
ATOM      1  C   UNL     1     -12.705   2.876 -12.769  1.00  0.00     0.160 A 
ATOM      2  C   UNL     1     -12.357   4.063 -12.093  1.00  0.00     0.050 A 
ATOM      3  C   UNL     1     -12.525   5.303 -12.715  1.00  0.00     0.004 A 
ATOM      4  C   UNL     1     -13.039   5.375 -14.010  1.00  0.00     0.004 A 
ATOM      5  C   UNL     1     -13.387   4.205 -14.689  1.00  0.00     0.050 A 
ATOM      6  C   UNL     1     -13.223   2.957 -14.077  1.00  0.00     0.157 A 
ENDROOT
BRANCH   1   7
ATOM      7  O   UNL     1     -12.551   1.611 -12.178  1.00  0.00    -0.493 OA
ATOM      8  C   UNL     1     -13.441   1.058 -11.213  1.00  0.00     0.278 C 
ENDBRANCH   1   7
BRANCH   6   9
ATOM      9  O   UNL     1     -13.581   1.809 -14.783  1.00  0.00    -0.504 OA
ATOM     10  H   UNL     1     -14.189   1.841 -15.592  1.00  0.00     0.293 HD
ENDBRANCH   6   9
TORSDOF 2
ENDMDL
MODEL 2
REMARK VINA RESULT:    -3.405     16.244     16.619
REMARK INTER + INTRA:          -3.750
REMARK INTER:                  -3.742
REMARK INTRA:                  -0.008
REMARK UNBOUND:                -0.046
REMARK SMILES COc1ccccc1O
REMARK SMILES IDX 3 1 4 2 5 3 6 4 7 5 8 6 2 7 1 8 9 9
REMARK H PARENT 9 10
REMARK Flexibility Score: inf
ROOT
ATOM      1  C   UNL     1       3.278   4.890 -14.050  1.00  0.00     0.160 A 
ATOM      2  C   UNL     1       3.368   6.089 -14.786  1.00  0.00     0.050 A 
ATOM      3  C   UNL     1       3.288   7.323 -14.137  1.00  0.00     0.004 A 
ATOM      4  C   UNL     1       3.116   7.378 -12.753  1.00  0.00     0.004 A 
ATOM      5  C   UNL     1       3.025   6.197 -12.014  1.00  0.00     0.050 A 
ATOM      6  C   UNL     1       3.104   4.953 -12.654  1.00  0.00     0.157 A 
ENDROOT
BRANCH   1   7
ATOM      7  O   UNL     1       3.354   3.631 -14.667  1.00  0.00    -0.493 OA
ATOM      8  C   UNL     1       4.544   2.857 -14.776  1.00  0.00     0.278 C 
ENDBRANCH   1   7
BRANCH   6   9
ATOM      9  O   UNL     1       3.010   3.794 -11.885  1.00  0.00    -0.504 OA
ATOM     10  H   UNL     1       2.336   3.065 -12.089  1.00  0.00     0.293 HD
ENDBRANCH   6   9
TORSDOF 2
ENDMDL
MODEL 3
REMARK VINA RESULT:    -3.379     21.767     22.596
REMARK INTER + INTRA:          -3.721
REMARK INTER:                  -3.696
REMARK INTRA:                  -0.025
REMARK UNBOUND:                -0.046
REMARK SMILES COc1ccccc1O
REMARK SMILES IDX 3 1 4 2 5 3 6 4 7 5 8 6 2 7 1 8 9 9
REMARK H PARENT 9 10
REMARK Flexibility Score: inf
ROOT
ATOM      1  C   UNL     1       4.153   8.809 -26.719  1.00  0.00     0.160 A 
ATOM      2  C   UNL     1       4.782   7.548 -26.770  1.00  0.00     0.050 A 
ATOM      3  C   UNL     1       5.309   6.976 -25.609  1.00  0.00     0.004 A 
ATOM      4  C   UNL     1       5.219   7.650 -24.391  1.00  0.00     0.004 A 
ATOM      5  C   UNL     1       4.598   8.899 -24.329  1.00  0.00     0.050 A 
ATOM      6  C   UNL     1       4.066   9.483 -25.485  1.00  0.00     0.157 A 
ENDROOT
BRANCH   1   7
ATOM      7  O   UNL     1       3.611   9.416 -27.863  1.00  0.00    -0.493 OA
ATOM      8  C   UNL     1       3.463   8.772 -29.125  1.00  0.00     0.278 C 
ENDBRANCH   1   7
BRANCH   6   9
ATOM      9  O   UNL     1       3.453  10.731 -25.387  1.00  0.00    -0.504 OA
ATOM     10  H   UNL     1       3.980  11.579 -25.210  1.00  0.00     0.293 HD
ENDBRANCH   6   9
TORSDOF 2
ENDMDL
MODEL 4
REMARK VINA RESULT:    -3.356     21.566     22.104
REMARK INTER + INTRA:          -3.697
REMARK INTER:                  -3.665
REMARK INTRA:                  -0.031
REMARK UNBOUND:                -0.046
REMARK SMILES COc1ccccc1O
REMARK SMILES IDX 3 1 4 2 5 3 6 4 7 5 8 6 2 7 1 8 9 9
REMARK H PARENT 9 10
REMARK Flexibility Score: inf
ROOT
ATOM      1  C   UNL     1       4.587   8.564 -24.613  1.00  0.00     0.160 A 
ATOM      2  C   UNL     1       5.143   7.286 -24.822  1.00  0.00     0.050 A 
ATOM      3  C   UNL     1       5.161   6.725 -26.101  1.00  0.00     0.004 A 
ATOM      4  C   UNL     1       4.627   7.426 -27.183  1.00  0.00     0.004 A 
ATOM      5  C   UNL     1       4.073   8.693 -26.987  1.00  0.00     0.050 A 
ATOM      6  C   UNL     1       4.049   9.266 -25.710  1.00  0.00     0.157 A 
ENDROOT
BRANCH   1   7
ATOM      7  O   UNL     1       4.551   9.161 -23.343  1.00  0.00    -0.493 OA
ATOM      8  C   UNL     1       5.643   9.180 -22.429  1.00  0.00     0.278 C 
ENDBRANCH   1   7
BRANCH   6   9
ATOM      9  O   UNL     1       3.489  10.533 -25.551  1.00  0.00    -0.504 OA
ATOM     10  H   UNL     1       2.544  10.747 -25.849  1.00  0.00     0.293 HD
ENDBRANCH   6   9
TORSDOF 2
ENDMDL
MODEL 5
REMARK VINA RESULT:    -3.319     16.149     16.595
REMARK INTER + INTRA:          -3.656
REMARK INTER:                  -3.615
REMARK INTRA:                  -0.041
REMARK UNBOUND:                -0.046
REMARK SMILES COc1ccccc1O
REMARK SMILES IDX 3 1 4 2 5 3 6 4 7 5 8 6 2 7 1 8 9 9
REMARK H PARENT 9 10
REMARK Flexibility Score: inf
ROOT
ATOM      1  C   UNL     1       3.122   5.293 -13.599  1.00  0.00     0.160 A 
ATOM      2  C   UNL     1       2.892   5.041 -12.231  1.00  0.00     0.050 A 
ATOM      3  C   UNL     1       2.835   6.098 -11.319  1.00  0.00     0.004 A 
ATOM      4  C   UNL     1       3.007   7.412 -11.757  1.00  0.00     0.004 A 
ATOM      5  C   UNL     1       3.236   7.673 -13.109  1.00  0.00     0.050 A 
ATOM      6  C   UNL     1       3.295   6.622 -14.033  1.00  0.00     0.157 A 
ENDROOT
BRANCH   1   7
ATOM      7  O   UNL     1       3.186   4.257 -14.545  1.00  0.00    -0.493 OA
ATOM      8  C   UNL     1       4.180   3.238 -14.559  1.00  0.00     0.278 C 
ENDBRANCH   1   7
BRANCH   6   9
ATOM      9  O   UNL     1       3.525   6.918 -15.375  1.00  0.00    -0.504 OA
ATOM     10  H   UNL     1       2.952   6.535 -16.119  1.00  0.00     0.293 HD
ENDBRANCH   6   9
TORSDOF 2
ENDMDL
MODEL 6
REMARK VINA RESULT:    -3.314     16.232     16.805
REMARK INTER + INTRA:          -3.651
REMARK INTER:                  -3.621
REMARK INTRA:                  -0.030
REMARK UNBOUND:                -0.046
REMARK SMILES COc1ccccc1O
REMARK SMILES IDX 3 1 4 2 5 3 6 4 7 5 8 6 2 7 1 8 9 9
REMARK H PARENT 9 10
REMARK Flexibility Score: inf
ROOT
ATOM      1  C   UNL     1       3.130   7.644 -13.759  1.00  0.00     0.160 A 
ATOM      2  C   UNL     1       3.933   7.401 -12.626  1.00  0.00     0.050 A 
ATOM      3  C   UNL     1       3.959   8.316 -11.571  1.00  0.00     0.004 A 
ATOM      4  C   UNL     1       3.190   9.479 -11.632  1.00  0.00     0.004 A 
ATOM      5  C   UNL     1       2.391   9.730 -12.748  1.00  0.00     0.050 A 
ATOM      6  C   UNL     1       2.356   8.820 -13.812  1.00  0.00     0.157 A 
ENDROOT
BRANCH   1   7
ATOM      7  O   UNL     1       3.077   6.748 -14.839  1.00  0.00    -0.493 OA
ATOM      8  C   UNL     1       3.046   5.330 -14.710  1.00  0.00     0.278 C 
ENDBRANCH   1   7
BRANCH   6   9
ATOM      9  O   UNL     1       1.547   9.102 -14.912  1.00  0.00    -0.504 OA
ATOM     10  H   UNL     1       1.228  10.040 -15.122  1.00  0.00     0.293 HD
ENDBRANCH   6   9
TORSDOF 2
ENDMDL
MODEL 7
REMARK VINA RESULT:    -3.266     16.121     16.868
REMARK INTER + INTRA:          -3.599
REMARK INTER:                  -3.559
REMARK INTRA:                  -0.039
REMARK UNBOUND:                -0.046
REMARK SMILES COc1ccccc1O
REMARK SMILES IDX 3 1 4 2 5 3 6 4 7 5 8 6 2 7 1 8 9 9
REMARK H PARENT 9 10
REMARK Flexibility Score: inf
ROOT
ATOM      1  C   UNL     1       3.293   6.814 -13.991  1.00  0.00     0.160 A 
ATOM      2  C   UNL     1       3.264   7.741 -12.929  1.00  0.00     0.050 A 
ATOM      3  C   UNL     1       3.032   7.308 -11.621  1.00  0.00     0.004 A 
ATOM      4  C   UNL     1       2.825   5.954 -11.357  1.00  0.00     0.004 A 
ATOM      5  C   UNL     1       2.851   5.027 -12.401  1.00  0.00     0.050 A 
ATOM      6  C   UNL     1       3.083   5.449 -13.716  1.00  0.00     0.157 A 
ENDROOT
BRANCH   1   7
ATOM      7  O   UNL     1       3.523   7.211 -15.318  1.00  0.00    -0.493 OA
ATOM      8  C   UNL     1       4.715   7.842 -15.776  1.00  0.00     0.278 C 
ENDBRANCH   1   7
BRANCH   6   9
ATOM      9  O   UNL     1       3.101   4.497 -14.734  1.00  0.00    -0.504 OA
ATOM     10  H   UNL     1       3.932   3.960 -14.956  1.00  0.00     0.293 HD
ENDBRANCH   6   9
TORSDOF 2
ENDMDL
MODEL 8
REMARK VINA RESULT:    -3.226     16.558     17.352
REMARK INTER + INTRA:          -3.555
REMARK INTER:                  -3.509
REMARK INTRA:                  -0.046
REMARK UNBOUND:                -0.046
REMARK SMILES COc1ccccc1O
REMARK SMILES IDX 3 1 4 2 5 3 6 4 7 5 8 6 2 7 1 8 9 9
REMARK H PARENT 9 10
REMARK Flexibility Score: inf
ROOT
ATOM      1  C   UNL     1       3.491   7.153 -14.458  1.00  0.00     0.160 A 
ATOM      2  C   UNL     1       3.282   5.767 -14.606  1.00  0.00     0.050 A 
ATOM      3  C   UNL     1       2.995   4.973 -13.493  1.00  0.00     0.004 A 
ATOM      4  C   UNL     1       2.915   5.548 -12.224  1.00  0.00     0.004 A 
ATOM      5  C   UNL     1       3.120   6.919 -12.065  1.00  0.00     0.050 A 
ATOM      6  C   UNL     1       3.408   7.725 -13.173  1.00  0.00     0.157 A 
ENDROOT
BRANCH   1   7
ATOM      7  O   UNL     1       3.782   7.983 -15.552  1.00  0.00    -0.493 OA
ATOM      8  C   UNL     1       5.055   8.067 -16.185  1.00  0.00     0.278 C 
ENDBRANCH   1   7
BRANCH   6   9
ATOM      9  O   UNL     1       3.608   9.091 -12.978  1.00  0.00    -0.504 OA
ATOM     10  H   UNL     1       2.837   9.739 -12.869  1.00  0.00     0.293 HD
ENDBRANCH   6   9
TORSDOF 2
ENDMDL
MODEL 9
REMARK VINA RESULT:    -3.224     15.934     16.370
REMARK INTER + INTRA:          -3.552
REMARK INTER:                  -3.514
REMARK INTRA:                  -0.038
REMARK UNBOUND:                -0.046
REMARK SMILES COc1ccccc1O
REMARK SMILES IDX 3 1 4 2 5 3 6 4 7 5 8 6 2 7 1 8 9 9
REMARK H PARENT 9 10
REMARK Flexibility Score: inf
ROOT
ATOM      1  C   UNL     1       3.130   6.172 -12.007  1.00  0.00     0.160 A 
ATOM      2  C   UNL     1       3.154   7.395 -12.707  1.00  0.00     0.050 A 
ATOM      3  C   UNL     1       3.179   7.408 -14.104  1.00  0.00     0.004 A 
ATOM      4  C   UNL     1       3.181   6.207 -14.817  1.00  0.00     0.004 A 
ATOM      5  C   UNL     1       3.157   4.990 -14.134  1.00  0.00     0.050 A 
ATOM      6  C   UNL     1       3.132   4.964 -12.734  1.00  0.00     0.157 A 
ENDROOT
BRANCH   1   7
ATOM      7  O   UNL     1       3.105   6.118 -10.604  1.00  0.00    -0.493 OA
ATOM      8  C   UNL     1       2.084   6.692  -9.793  1.00  0.00     0.278 C 
ENDBRANCH   1   7
BRANCH   6   9
ATOM      9  O   UNL     1       3.108   3.732 -12.084  1.00  0.00    -0.504 OA
ATOM     10  H   UNL     1       3.369   3.629 -11.110  1.00  0.00     0.293 HD
ENDBRANCH   6   9
TORSDOF 2
ENDMDL
