MODEL 1
REMARK VINA RESULT:    -4.166      0.000      0.000
REMARK INTER + INTRA:          -4.287
REMARK INTER:                  -4.287
REMARK INTRA:                   0.000
REMARK UNBOUND:                 0.000
REMARK SMILES Oc1ccc2[nH]ccc2c1
REMARK SMILES IDX 3 1 4 2 5 3 9 4 8 5 7 6 6 7 10 8 2 9 1 11
REMARK H PARENT 6 10 1 12
REMARK Flexibility Score: inf
ROOT
ATOM      1  C   UNL     1      30.705  50.844  13.754  1.00  0.00     0.048 A 
ATOM      2  C   UNL     1      31.754  49.909  13.680  1.00  0.00     0.030 A 
ATOM      3  C   UNL     1      32.741  49.960  14.662  1.00  0.00     0.046 A 
ATOM      4  C   UNL     1      32.706  50.885  15.671  1.00  0.00     0.003 A 
ATOM      5  C   UNL     1      33.811  50.672  16.465  1.00  0.00     0.028 A 
ATOM      6  C   UNL     1      34.478  49.599  15.878  1.00  0.00     0.083 A 
ATOM      7  N   UNL     1      33.820  49.168  14.778  1.00  0.00    -0.361 N 
ATOM      8  C   UNL     1      31.682  51.825  15.773  1.00  0.00     0.056 A 
ATOM      9  C   UNL     1      30.667  51.802  14.798  1.00  0.00     0.116 A 
ATOM     10  H   UNL     1      34.097  48.382  14.149  1.00  0.00     0.166 HD
ENDROOT
BRANCH   9  11
ATOM     11  O   UNL     1      29.629  52.728  14.869  1.00  0.00    -0.508 OA
ATOM     12  H   UNL     1      29.681  53.619  14.391  1.00  0.00     0.293 HD
ENDBRANCH   9  11
TORSDOF 1
ENDMDL
MODEL 2
REMARK VINA RESULT:    -4.098      2.720      4.143
REMARK INTER + INTRA:          -4.218
REMARK INTER:                  -4.218
REMARK INTRA:                   0.000
REMARK UNBOUND:                 0.000
REMARK SMILES Oc1ccc2[nH]ccc2c1
REMARK SMILES IDX 3 1 4 2 5 3 9 4 8 5 7 6 6 7 10 8 2 9 1 11
REMARK H PARENT 6 10 1 12
REMARK Flexibility Score: inf
ROOT
ATOM      1  C   UNL     1      34.274  49.996  16.872  1.00  0.00     0.048 A 
ATOM      2  C   UNL     1      33.257  50.872  17.295  1.00  0.00     0.030 A 
ATOM      3  C   UNL     1      32.254  51.193  16.383  1.00  0.00     0.046 A 
ATOM      4  C   UNL     1      32.245  50.681  15.113  1.00  0.00     0.003 A 
ATOM      5  C   UNL     1      31.134  51.186  14.473  1.00  0.00     0.028 A 
ATOM      6  C   UNL     1      30.512  52.002  15.415  1.00  0.00     0.083 A 
ATOM      7  N   UNL     1      31.199  52.001  16.580  1.00  0.00    -0.361 N 
ATOM      8  C   UNL     1      33.236  49.811  14.662  1.00  0.00     0.056 A 
ATOM      9  C   UNL     1      34.266  49.465  15.558  1.00  0.00     0.116 A 
ATOM     10  H   UNL     1      30.958  52.525  17.450  1.00  0.00     0.166 HD
ENDROOT
BRANCH   9  11
ATOM     11  O   UNL     1      35.273  48.599  15.140  1.00  0.00    -0.508 OA
ATOM     12  H   UNL     1      35.133  47.596  15.119  1.00  0.00     0.293 HD
ENDBRANCH   9  11
TORSDOF 1
ENDMDL
MODEL 3
REMARK VINA RESULT:    -3.957      2.569      4.138
REMARK INTER + INTRA:          -4.073
REMARK INTER:                  -4.073
REMARK INTRA:                   0.000
REMARK UNBOUND:                 0.000
REMARK SMILES Oc1ccc2[nH]ccc2c1
REMARK SMILES IDX 3 1 4 2 5 3 9 4 8 5 7 6 6 7 10 8 2 9 1 11
REMARK H PARENT 6 10 1 12
REMARK Flexibility Score: inf
ROOT
ATOM      1  C   UNL     1      33.019  50.718  16.007  1.00  0.00     0.048 A 
ATOM      2  C   UNL     1      31.978  51.665  16.050  1.00  0.00     0.030 A 
ATOM      3  C   UNL     1      31.007  51.609  15.053  1.00  0.00     0.046 A 
ATOM      4  C   UNL     1      31.051  50.671  14.057  1.00  0.00     0.003 A 
ATOM      5  C   UNL     1      29.961  50.883  13.241  1.00  0.00     0.028 A 
ATOM      6  C   UNL     1      29.295  51.971  13.801  1.00  0.00     0.083 A 
ATOM      7  N   UNL     1      29.938  52.410  14.907  1.00  0.00    -0.361 N 
ATOM      8  C   UNL     1      32.067  49.719  13.985  1.00  0.00     0.056 A 
ATOM      9  C   UNL     1      33.066  49.746  14.977  1.00  0.00     0.116 A 
ATOM     10  H   UNL     1      29.659  53.209  15.519  1.00  0.00     0.166 HD
ENDROOT
BRANCH   9  11
ATOM     11  O   UNL     1      34.096  48.810  14.936  1.00  0.00    -0.508 OA
ATOM     12  H   UNL     1      34.499  48.429  15.784  1.00  0.00     0.293 HD
ENDBRANCH   9  11
TORSDOF 1
ENDMDL
MODEL 4
REMARK VINA RESULT:    -3.919      2.337      3.548
REMARK INTER + INTRA:          -4.034
REMARK INTER:                  -4.034
REMARK INTRA:                   0.000
REMARK UNBOUND:                 0.000
REMARK SMILES Oc1ccc2[nH]ccc2c1
REMARK SMILES IDX 3 1 4 2 5 3 9 4 8 5 7 6 6 7 10 8 2 9 1 11
REMARK H PARENT 6 10 1 12
REMARK Flexibility Score: inf
ROOT
ATOM      1  C   UNL     1      33.297  49.823  14.589  1.00  0.00     0.048 A 
ATOM      2  C   UNL     1      32.062  49.525  13.984  1.00  0.00     0.030 A 
ATOM      3  C   UNL     1      30.975  50.343  14.286  1.00  0.00     0.046 A 
ATOM      4  C   UNL     1      31.089  51.404  15.143  1.00  0.00     0.003 A 
ATOM      5  C   UNL     1      29.851  52.001  15.228  1.00  0.00     0.028 A 
ATOM      6  C   UNL     1      29.027  51.248  14.395  1.00  0.00     0.083 A 
ATOM      7  N   UNL     1      29.719  50.237  13.822  1.00  0.00    -0.361 N 
ATOM      8  C   UNL     1      32.297  51.726  15.760  1.00  0.00     0.056 A 
ATOM      9  C   UNL     1      33.417  50.921  15.477  1.00  0.00     0.116 A 
ATOM     10  H   UNL     1      29.349  49.522  13.157  1.00  0.00     0.166 HD
ENDROOT
BRANCH   9  11
ATOM     11  O   UNL     1      34.639  51.214  16.076  1.00  0.00    -0.508 OA
ATOM     12  H   UNL     1      35.355  51.738  15.588  1.00  0.00     0.293 HD
ENDBRANCH   9  11
TORSDOF 1
ENDMDL
MODEL 5
REMARK VINA RESULT:    -3.885      2.100      3.800
REMARK INTER + INTRA:          -3.998
REMARK INTER:                  -3.998
REMARK INTRA:                   0.000
REMARK UNBOUND:                 0.000
REMARK SMILES Oc1ccc2[nH]ccc2c1
REMARK SMILES IDX 3 1 4 2 5 3 9 4 8 5 7 6 6 7 10 8 2 9 1 11
REMARK H PARENT 6 10 1 12
REMARK Flexibility Score: inf
ROOT
ATOM      1  C   UNL     1      32.104  50.531  14.815  1.00  0.00     0.048 A 
ATOM      2  C   UNL     1      31.901  49.692  13.704  1.00  0.00     0.030 A 
ATOM      3  C   UNL     1      30.790  49.935  12.899  1.00  0.00     0.046 A 
ATOM      4  C   UNL     1      29.914  50.953  13.170  1.00  0.00     0.003 A 
ATOM      5  C   UNL     1      28.937  50.925  12.199  1.00  0.00     0.028 A 
ATOM      6  C   UNL     1      29.281  49.862  11.368  1.00  0.00     0.083 A 
ATOM      7  N   UNL     1      30.414  49.262  11.800  1.00  0.00    -0.361 N 
ATOM      8  C   UNL     1      30.086  51.802  14.262  1.00  0.00     0.056 A 
ATOM      9  C   UNL     1      31.199  51.585  15.097  1.00  0.00     0.116 A 
ATOM     10  H   UNL     1      30.893  48.441  11.367  1.00  0.00     0.166 HD
ENDROOT
BRANCH   9  11
ATOM     11  O   UNL     1      31.400  52.414  16.198  1.00  0.00    -0.508 OA
ATOM     12  H   UNL     1      31.977  53.244  16.136  1.00  0.00     0.293 HD
ENDBRANCH   9  11
TORSDOF 1
ENDMDL
MODEL 6
REMARK VINA RESULT:    -3.848      2.104      2.784
REMARK INTER + INTRA:          -3.960
REMARK INTER:                  -3.960
REMARK INTRA:                   0.000
REMARK UNBOUND:                 0.000
REMARK SMILES Oc1ccc2[nH]ccc2c1
REMARK SMILES IDX 3 1 4 2 5 3 9 4 8 5 7 6 6 7 10 8 2 9 1 11
REMARK H PARENT 6 10 1 12
REMARK Flexibility Score: inf
ROOT
ATOM      1  C   UNL     1      29.560  51.283  13.208  1.00  0.00     0.048 A 
ATOM      2  C   UNL     1      29.978  51.945  14.378  1.00  0.00     0.030 A 
ATOM      3  C   UNL     1      31.144  51.499  14.996  1.00  0.00     0.046 A 
ATOM      4  C   UNL     1      31.870  50.452  14.494  1.00  0.00     0.003 A 
ATOM      5  C   UNL     1      32.952  50.263  15.326  1.00  0.00     0.028 A 
ATOM      6  C   UNL     1      32.821  51.232  16.317  1.00  0.00     0.083 A 
ATOM      7  N   UNL     1      31.716  51.984  16.110  1.00  0.00    -0.361 N 
ATOM      8  C   UNL     1      31.484  49.775  13.338  1.00  0.00     0.056 A 
ATOM      9  C   UNL     1      30.309  50.199  12.687  1.00  0.00     0.116 A 
ATOM     10  H   UNL     1      31.378  52.778  16.699  1.00  0.00     0.166 HD
ENDROOT
BRANCH   9  11
ATOM     11  O   UNL     1      29.894  49.545  11.530  1.00  0.00    -0.508 OA
ATOM     12  H   UNL     1      28.913  49.388  11.334  1.00  0.00     0.293 HD
ENDBRANCH   9  11
TORSDOF 1
ENDMDL
MODEL 7
REMARK VINA RESULT:    -3.771      2.383      3.645
REMARK INTER + INTRA:          -3.881
REMARK INTER:                  -3.881
REMARK INTRA:                   0.000
REMARK UNBOUND:                 0.000
REMARK SMILES Oc1ccc2[nH]ccc2c1
REMARK SMILES IDX 3 1 4 2 5 3 9 4 8 5 7 6 6 7 10 8 2 9 1 11
REMARK H PARENT 6 10 1 12
REMARK Flexibility Score: inf
ROOT
ATOM      1  C   UNL     1      31.882  51.645  16.039  1.00  0.00     0.048 A 
ATOM      2  C   UNL     1      30.584  51.157  15.804  1.00  0.00     0.030 A 
ATOM      3  C   UNL     1      30.435  50.123  14.882  1.00  0.00     0.046 A 
ATOM      4  C   UNL     1      31.507  49.591  14.218  1.00  0.00     0.003 A 
ATOM      5  C   UNL     1      31.029  48.599  13.389  1.00  0.00     0.028 A 
ATOM      6  C   UNL     1      29.653  48.583  13.599  1.00  0.00     0.083 A 
ATOM      7  N   UNL     1      29.296  49.515  14.512  1.00  0.00    -0.361 N 
ATOM      8  C   UNL     1      32.806  50.051  14.427  1.00  0.00     0.056 A 
ATOM      9  C   UNL     1      32.994  51.096  15.353  1.00  0.00     0.116 A 
ATOM     10  H   UNL     1      28.330  49.719  14.855  1.00  0.00     0.166 HD
ENDROOT
BRANCH   9  11
ATOM     11  O   UNL     1      34.278  51.581  15.586  1.00  0.00    -0.508 OA
ATOM     12  H   UNL     1      35.092  50.983  15.506  1.00  0.00     0.293 HD
ENDBRANCH   9  11
TORSDOF 1
ENDMDL
MODEL 8
REMARK VINA RESULT:    -3.667      4.889      6.642
REMARK INTER + INTRA:          -3.774
REMARK INTER:                  -3.774
REMARK INTRA:                   0.000
REMARK UNBOUND:                 0.000
REMARK SMILES Oc1ccc2[nH]ccc2c1
REMARK SMILES IDX 3 1 4 2 5 3 9 4 8 5 7 6 6 7 10 8 2 9 1 11
REMARK H PARENT 6 10 1 12
REMARK Flexibility Score: inf
ROOT
ATOM      1  C   UNL     1      39.155  50.571  18.498  1.00  0.00     0.048 A 
ATOM      2  C   UNL     1      38.545  49.549  17.747  1.00  0.00     0.030 A 
ATOM      3  C   UNL     1      37.211  49.717  17.382  1.00  0.00     0.046 A 
ATOM      4  C   UNL     1      36.503  50.834  17.736  1.00  0.00     0.003 A 
ATOM      5  C   UNL     1      35.231  50.695  17.228  1.00  0.00     0.028 A 
ATOM      6  C   UNL     1      35.234  49.466  16.574  1.00  0.00     0.083 A 
ATOM      7  N   UNL     1      36.446  48.873  16.671  1.00  0.00    -0.361 N 
ATOM      8  C   UNL     1      37.077  51.865  18.480  1.00  0.00     0.056 A 
ATOM      9  C   UNL     1      38.424  51.728  18.866  1.00  0.00     0.116 A 
ATOM     10  H   UNL     1      36.725  47.948  16.274  1.00  0.00     0.166 HD
ENDROOT
BRANCH   9  11
ATOM     11  O   UNL     1      39.028  52.738  19.611  1.00  0.00    -0.508 OA
ATOM     12  H   UNL     1      39.956  53.077  19.388  1.00  0.00     0.293 HD
ENDBRANCH   9  11
TORSDOF 1
ENDMDL
MODEL 9
REMARK VINA RESULT:    -3.611      2.746      4.036
REMARK INTER + INTRA:          -3.716
REMARK INTER:                  -3.716
REMARK INTRA:                   0.000
REMARK UNBOUND:                 0.000
REMARK SMILES Oc1ccc2[nH]ccc2c1
REMARK SMILES IDX 3 1 4 2 5 3 9 4 8 5 7 6 6 7 10 8 2 9 1 11
REMARK H PARENT 6 10 1 12
REMARK Flexibility Score: inf
ROOT
ATOM      1  C   UNL     1      29.769  52.428  15.045  1.00  0.00     0.048 A 
ATOM      2  C   UNL     1      28.952  52.120  13.942  1.00  0.00     0.030 A 
ATOM      3  C   UNL     1      29.408  51.158  13.043  1.00  0.00     0.046 A 
ATOM      4  C   UNL     1      30.610  50.526  13.214  1.00  0.00     0.003 A 
ATOM      5  C   UNL     1      30.765  49.644  12.167  1.00  0.00     0.028 A 
ATOM      6  C   UNL     1      29.617  49.793  11.394  1.00  0.00     0.083 A 
ATOM      7  N   UNL     1      28.791  50.718  11.934  1.00  0.00    -0.361 N 
ATOM      8  C   UNL     1      31.443  50.807  14.295  1.00  0.00     0.056 A 
ATOM      9  C   UNL     1      31.014  51.775  15.224  1.00  0.00     0.116 A 
ATOM     10  H   UNL     1      27.865  51.026  11.561  1.00  0.00     0.166 HD
ENDROOT
BRANCH   9  11
ATOM     11  O   UNL     1      31.822  52.081  16.316  1.00  0.00    -0.508 OA
ATOM     12  H   UNL     1      32.829  52.138  16.229  1.00  0.00     0.293 HD
ENDBRANCH   9  11
TORSDOF 1
ENDMDL
