MODEL 1
REMARK VINA RESULT:    -5.152      0.000      0.000
REMARK INTER + INTRA:          -7.233
REMARK INTER:                  -6.959
REMARK INTRA:                  -0.274
REMARK UNBOUND:                -0.274
REMARK SMILES CCCCCCCC(=O)[O-]
REMARK SMILES IDX 5 1 6 2 7 3 8 4 9 5 10 6 4 7 3 8 2 9 1 10
REMARK H PARENT
REMARK Flexibility Score: inf
ROOT
ATOM      1  C   UNL     1      94.429 122.277 120.539  1.00  0.00     0.000 C 
ENDROOT
BRANCH   1   2
ATOM      2  C   UNL     1      93.110 122.645 121.235  1.00  0.00     0.006 C 
BRANCH   2   3
ATOM      3  C   UNL     1      92.995 122.017 122.631  1.00  0.00     0.053 C 
BRANCH   3   4
ATOM      4  C   UNL     1      93.029 123.054 123.711  1.00  0.00     0.041 C 
ATOM      5  O   UNL     1      93.024 124.278 123.415  1.00  0.00    -0.550 OA
ATOM      6  O   UNL     1      93.035 122.670 125.046  1.00  0.00    -0.550 OA
ENDBRANCH   3   4
ENDBRANCH   2   3
ENDBRANCH   1   2
BRANCH   1   7
ATOM      7  C   UNL     1      94.229 122.142 119.021  1.00  0.00     0.000 C 
BRANCH   7   8
ATOM      8  C   UNL     1      92.936 122.816 118.534  1.00  0.00    -0.000 C 
BRANCH   8   9
ATOM      9  C   UNL     1      92.007 121.845 117.791  1.00  0.00    -0.003 C 
ATOM     10  C   UNL     1      92.723 121.189 116.614  1.00  0.00     0.004 C 
ENDBRANCH   8   9
ENDBRANCH   7   8
ENDBRANCH   1   7
TORSDOF 6
ENDMDL
MODEL 2
REMARK VINA RESULT:    -5.003      3.277      5.658
REMARK INTER + INTRA:          -7.032
REMARK INTER:                  -6.808
REMARK INTRA:                  -0.224
REMARK UNBOUND:                -0.274
REMARK SMILES CCCCCCCC(=O)[O-]
REMARK SMILES IDX 5 1 6 2 7 3 8 4 9 5 10 6 4 7 3 8 2 9 1 10
REMARK H PARENT
REMARK Flexibility Score: inf
ROOT
ATOM      1  C   UNL     1      94.480 122.251 120.427  1.00  0.00     0.000 C 
ENDROOT
BRANCH   1   2
ATOM      2  C   UNL     1      94.478 122.416 118.899  1.00  0.00     0.006 C 
BRANCH   2   3
ATOM      3  C   UNL     1      94.087 121.120 118.175  1.00  0.00     0.053 C 
BRANCH   3   4
ATOM      4  C   UNL     1      92.875 121.307 117.316  1.00  0.00     0.041 C 
ATOM      5  O   UNL     1      92.921 121.030 116.088  1.00  0.00    -0.550 OA
ATOM      6  O   UNL     1      91.686 121.756 117.876  1.00  0.00    -0.550 OA
ENDBRANCH   3   4
ENDBRANCH   2   3
ENDBRANCH   1   2
BRANCH   1   7
ATOM      7  C   UNL     1      93.078 122.489 121.006  1.00  0.00     0.000 C 
BRANCH   7   8
ATOM      8  C   UNL     1      92.979 122.106 122.491  1.00  0.00    -0.000 C 
BRANCH   8   9
ATOM      9  C   UNL     1      93.315 123.275 123.428  1.00  0.00    -0.003 C 
ATOM     10  C   UNL     1      93.352 122.821 124.884  1.00  0.00     0.004 C 
ENDBRANCH   8   9
ENDBRANCH   7   8
ENDBRANCH   1   7
TORSDOF 6
ENDMDL
MODEL 3
REMARK VINA RESULT:    -4.960      1.359      2.091
REMARK INTER + INTRA:          -6.974
REMARK INTER:                  -6.726
REMARK INTRA:                  -0.248
REMARK UNBOUND:                -0.274
REMARK SMILES CCCCCCCC(=O)[O-]
REMARK SMILES IDX 5 1 6 2 7 3 8 4 9 5 10 6 4 7 3 8 2 9 1 10
REMARK H PARENT
REMARK Flexibility Score: inf
ROOT
ATOM      1  C   UNL     1      94.566 121.512 118.534  1.00  0.00     0.000 C 
ENDROOT
BRANCH   1   2
ATOM      2  C   UNL     1      94.617 121.129 120.021  1.00  0.00     0.006 C 
BRANCH   2   3
ATOM      3  C   UNL     1      94.684 122.359 120.937  1.00  0.00     0.053 C 
BRANCH   3   4
ATOM      4  C   UNL     1      93.485 122.455 121.829  1.00  0.00     0.041 C 
ATOM      5  O   UNL     1      93.474 123.271 122.789  1.00  0.00    -0.550 OA
ATOM      6  O   UNL     1      92.368 121.667 121.582  1.00  0.00    -0.550 OA
ENDBRANCH   3   4
ENDBRANCH   2   3
ENDBRANCH   1   2
BRANCH   1   7
ATOM      7  C   UNL     1      93.427 122.507 118.263  1.00  0.00     0.000 C 
BRANCH   7   8
ATOM      8  C   UNL     1      92.193 121.836 117.641  1.00  0.00    -0.000 C 
BRANCH   8   9
ATOM      9  C   UNL     1      92.169 121.944 116.109  1.00  0.00    -0.003 C 
ATOM     10  C   UNL     1      92.887 120.762 115.464  1.00  0.00     0.004 C 
ENDBRANCH   8   9
ENDBRANCH   7   8
ENDBRANCH   1   7
TORSDOF 6
ENDMDL
MODEL 4
REMARK VINA RESULT:    -4.833      3.236      5.821
REMARK INTER + INTRA:          -6.802
REMARK INTER:                  -6.605
REMARK INTRA:                  -0.197
REMARK UNBOUND:                -0.274
REMARK SMILES CCCCCCCC(=O)[O-]
REMARK SMILES IDX 5 1 6 2 7 3 8 4 9 5 10 6 4 7 3 8 2 9 1 10
REMARK H PARENT
REMARK Flexibility Score: inf
ROOT
ATOM      1  C   UNL     1      93.730 122.608 121.777  1.00  0.00     0.000 C 
ENDROOT
BRANCH   1   2
ATOM      2  C   UNL     1      92.795 121.898 120.786  1.00  0.00     0.006 C 
BRANCH   2   3
ATOM      3  C   UNL     1      92.820 122.549 119.396  1.00  0.00     0.053 C 
BRANCH   3   4
ATOM      4  C   UNL     1      93.412 121.639 118.365  1.00  0.00     0.041 C 
ATOM      5  O   UNL     1      94.600 121.237 118.483  1.00  0.00    -0.550 OA
ATOM      6  O   UNL     1      92.644 121.207 117.291  1.00  0.00    -0.550 OA
ENDBRANCH   3   4
ENDBRANCH   2   3
ENDBRANCH   1   2
BRANCH   1   7
ATOM      7  C   UNL     1      93.125 122.620 123.189  1.00  0.00     0.000 C 
BRANCH   7   8
ATOM      8  C   UNL     1      93.751 123.695 124.091  1.00  0.00    -0.000 C 
BRANCH   8   9
ATOM      9  C   UNL     1      94.828 123.128 125.028  1.00  0.00    -0.003 C 
ATOM     10  C   UNL     1      96.213 123.646 124.649  1.00  0.00     0.004 C 
ENDBRANCH   8   9
ENDBRANCH   7   8
ENDBRANCH   1   7
TORSDOF 6
ENDMDL
MODEL 5
REMARK VINA RESULT:    -4.791      3.009      5.583
REMARK INTER + INTRA:          -6.745
REMARK INTER:                  -6.544
REMARK INTRA:                  -0.201
REMARK UNBOUND:                -0.274
REMARK SMILES CCCCCCCC(=O)[O-]
REMARK SMILES IDX 5 1 6 2 7 3 8 4 9 5 10 6 4 7 3 8 2 9 1 10
REMARK H PARENT
REMARK Flexibility Score: inf
ROOT
ATOM      1  C   UNL     1      93.131 122.583 121.189  1.00  0.00     0.000 C 
ENDROOT
BRANCH   1   2
ATOM      2  C   UNL     1      93.837 121.519 120.334  1.00  0.00     0.006 C 
BRANCH   2   3
ATOM      3  C   UNL     1      94.134 122.019 118.913  1.00  0.00     0.053 C 
BRANCH   3   4
ATOM      4  C   UNL     1      92.902 122.540 118.238  1.00  0.00     0.041 C 
ATOM      5  O   UNL     1      92.859 123.731 117.831  1.00  0.00    -0.550 OA
ATOM      6  O   UNL     1      91.814 121.701 118.029  1.00  0.00    -0.550 OA
ENDBRANCH   3   4
ENDBRANCH   2   3
ENDBRANCH   1   2
BRANCH   1   7
ATOM      7  C   UNL     1      93.120 122.176 122.670  1.00  0.00     0.000 C 
BRANCH   7   8
ATOM      8  C   UNL     1      93.255 123.380 123.615  1.00  0.00    -0.000 C 
BRANCH   8   9
ATOM      9  C   UNL     1      94.078 123.058 124.871  1.00  0.00    -0.003 C 
ATOM     10  C   UNL     1      95.425 123.775 124.845  1.00  0.00     0.004 C 
ENDBRANCH   8   9
ENDBRANCH   7   8
ENDBRANCH   1   7
TORSDOF 6
ENDMDL
MODEL 6
REMARK VINA RESULT:    -4.691      1.964      2.584
REMARK INTER + INTRA:          -6.610
REMARK INTER:                  -6.401
REMARK INTRA:                  -0.209
REMARK UNBOUND:                -0.274
REMARK SMILES CCCCCCCC(=O)[O-]
REMARK SMILES IDX 5 1 6 2 7 3 8 4 9 5 10 6 4 7 3 8 2 9 1 10
REMARK H PARENT
REMARK Flexibility Score: inf
ROOT
ATOM      1  C   UNL     1      93.079 122.164 122.656  1.00  0.00     0.000 C 
ENDROOT
BRANCH   1   2
ATOM      2  C   UNL     1      93.542 123.423 123.405  1.00  0.00     0.006 C 
BRANCH   2   3
ATOM      3  C   UNL     1      94.120 123.096 124.789  1.00  0.00     0.053 C 
BRANCH   3   4
ATOM      4  C   UNL     1      95.571 123.458 124.886  1.00  0.00     0.041 C 
ATOM      5  O   UNL     1      96.324 123.328 123.884  1.00  0.00    -0.550 OA
ATOM      6  O   UNL     1      96.084 123.968 126.071  1.00  0.00    -0.550 OA
ENDBRANCH   3   4
ENDBRANCH   2   3
ENDBRANCH   1   2
BRANCH   1   7
ATOM      7  C   UNL     1      93.690 122.109 121.247  1.00  0.00     0.000 C 
BRANCH   7   8
ATOM      8  C   UNL     1      92.749 122.676 120.173  1.00  0.00    -0.000 C 
BRANCH   8   9
ATOM      9  C   UNL     1      92.796 121.876 118.863  1.00  0.00    -0.003 C 
ATOM     10  C   UNL     1      94.214 121.404 118.557  1.00  0.00     0.004 C 
ENDBRANCH   8   9
ENDBRANCH   7   8
ENDBRANCH   1   7
TORSDOF 6
ENDMDL
MODEL 7
REMARK VINA RESULT:    -4.437      3.604      5.275
REMARK INTER + INTRA:          -6.267
REMARK INTER:                  -5.997
REMARK INTRA:                  -0.270
REMARK UNBOUND:                -0.274
REMARK SMILES CCCCCCCC(=O)[O-]
REMARK SMILES IDX 5 1 6 2 7 3 8 4 9 5 10 6 4 7 3 8 2 9 1 10
REMARK H PARENT
REMARK Flexibility Score: inf
ROOT
ATOM      1  C   UNL     1      94.861 122.821 125.457  1.00  0.00     0.000 C 
ENDROOT
BRANCH   1   2
ATOM      2  C   UNL     1      96.268 123.285 125.862  1.00  0.00     0.006 C 
BRANCH   2   3
ATOM      3  C   UNL     1      96.856 124.295 124.867  1.00  0.00     0.053 C 
BRANCH   3   4
ATOM      4  C   UNL     1      97.335 125.537 125.553  1.00  0.00     0.041 C 
ATOM      5  O   UNL     1      97.641 126.556 124.878  1.00  0.00    -0.550 OA
ATOM      6  O   UNL     1      97.413 125.582 126.939  1.00  0.00    -0.550 OA
ENDBRANCH   3   4
ENDBRANCH   2   3
ENDBRANCH   1   2
BRANCH   1   7
ATOM      7  C   UNL     1      94.371 123.577 124.212  1.00  0.00     0.000 C 
BRANCH   7   8
ATOM      8  C   UNL     1      92.935 123.199 123.818  1.00  0.00    -0.000 C 
BRANCH   8   9
ATOM      9  C   UNL     1      92.885 122.114 122.732  1.00  0.00    -0.003 C 
ATOM     10  C   UNL     1      93.636 122.555 121.479  1.00  0.00     0.004 C 
ENDBRANCH   8   9
ENDBRANCH   7   8
ENDBRANCH   1   7
TORSDOF 6
ENDMDL
MODEL 8
REMARK VINA RESULT:    -3.726     11.298     12.301
REMARK INTER + INTRA:          -5.307
REMARK INTER:                  -4.825
REMARK INTRA:                  -0.482
REMARK UNBOUND:                -0.274
REMARK SMILES CCCCCCCC(=O)[O-]
REMARK SMILES IDX 5 1 6 2 7 3 8 4 9 5 10 6 4 7 3 8 2 9 1 10
REMARK H PARENT
REMARK Flexibility Score: inf
ROOT
ATOM      1  C   UNL     1      85.874 125.234 131.775  1.00  0.00     0.000 C 
ENDROOT
BRANCH   1   2
ATOM      2  C   UNL     1      87.146 124.493 131.336  1.00  0.00     0.006 C 
BRANCH   2   3
ATOM      3  C   UNL     1      86.862 123.441 130.255  1.00  0.00     0.053 C 
BRANCH   3   4
ATOM      4  C   UNL     1      87.184 122.056 130.728  1.00  0.00     0.041 C 
ATOM      5  O   UNL     1      88.257 121.499 130.373  1.00  0.00    -0.550 OA
ATOM      6  O   UNL     1      86.315 121.394 131.586  1.00  0.00    -0.550 OA
ENDBRANCH   3   4
ENDBRANCH   2   3
ENDBRANCH   1   2
BRANCH   1   7
ATOM      7  C   UNL     1      84.956 125.505 130.574  1.00  0.00     0.000 C 
BRANCH   7   8
ATOM      8  C   UNL     1      85.276 126.835 129.873  1.00  0.00    -0.000 C 
BRANCH   8   9
ATOM      9  C   UNL     1      85.679 126.648 128.404  1.00  0.00    -0.003 C 
ATOM     10  C   UNL     1      84.946 125.465 127.778  1.00  0.00     0.004 C 
ENDBRANCH   8   9
ENDBRANCH   7   8
ENDBRANCH   1   7
TORSDOF 6
ENDMDL
MODEL 9
REMARK VINA RESULT:    -3.637     11.464     12.563
REMARK INTER + INTRA:          -5.187
REMARK INTER:                  -4.703
REMARK INTRA:                  -0.484
REMARK UNBOUND:                -0.274
REMARK SMILES CCCCCCCC(=O)[O-]
REMARK SMILES IDX 5 1 6 2 7 3 8 4 9 5 10 6 4 7 3 8 2 9 1 10
REMARK H PARENT
REMARK Flexibility Score: inf
ROOT
ATOM      1  C   UNL     1      85.616 126.309 128.177  1.00  0.00     0.000 C 
ENDROOT
BRANCH   1   2
ATOM      2  C   UNL     1      85.334 127.146 129.434  1.00  0.00     0.006 C 
BRANCH   2   3
ATOM      3  C   UNL     1      84.400 126.425 130.416  1.00  0.00     0.053 C 
BRANCH   3   4
ATOM      4  C   UNL     1      82.962 126.754 130.159  1.00  0.00     0.041 C 
ATOM      5  O   UNL     1      82.191 125.886 129.671  1.00  0.00    -0.550 OA
ATOM      6  O   UNL     1      82.465 128.008 130.490  1.00  0.00    -0.550 OA
ENDBRANCH   3   4
ENDBRANCH   2   3
ENDBRANCH   1   2
BRANCH   1   7
ATOM      7  C   UNL     1      85.802 124.827 128.536  1.00  0.00     0.000 C 
BRANCH   7   8
ATOM      8  C   UNL     1      85.043 123.888 127.584  1.00  0.00    -0.000 C 
BRANCH   8   9
ATOM      9  C   UNL     1      83.847 124.573 126.907  1.00  0.00    -0.003 C 
ATOM     10  C   UNL     1      83.745 124.174 125.437  1.00  0.00     0.004 C 
ENDBRANCH   8   9
ENDBRANCH   7   8
ENDBRANCH   1   7
TORSDOF 6
ENDMDL
