MODEL 1
REMARK VINA RESULT:    -3.257      0.000      0.000
REMARK INTER + INTRA:          -3.888
REMARK INTER:                  -3.828
REMARK INTRA:                  -0.060
REMARK UNBOUND:                -0.060
REMARK SMILES CCCCC(=O)[O-]
REMARK SMILES IDX 4 1 5 2 6 3 7 4 3 5 2 6 1 7
REMARK H PARENT
REMARK Flexibility Score: inf
ROOT
ATOM      1  C   UNL     1     -17.122   5.647 -40.400  1.00  0.00     0.053 C 
ENDROOT
BRANCH   1   2
ATOM      2  C   UNL     1     -17.864   6.944 -40.515  1.00  0.00     0.041 C 
ATOM      3  O   UNL     1     -17.975   7.701 -39.515  1.00  0.00    -0.550 OA
ATOM      4  O   UNL     1     -18.460   7.299 -41.718  1.00  0.00    -0.550 OA
ENDBRANCH   1   2
BRANCH   1   5
ATOM      5  C   UNL     1     -17.227   4.817 -41.687  1.00  0.00     0.006 C 
BRANCH   5   6
ATOM      6  C   UNL     1     -18.217   3.651 -41.546  1.00  0.00    -0.003 C 
ATOM      7  C   UNL     1     -17.775   2.684 -40.451  1.00  0.00     0.004 C 
ENDBRANCH   5   6
ENDBRANCH   1   5
TORSDOF 3
ENDMDL
MODEL 2
REMARK VINA RESULT:    -3.250      9.397     10.332
REMARK INTER + INTRA:          -3.880
REMARK INTER:                  -3.824
REMARK INTRA:                  -0.056
REMARK UNBOUND:                -0.060
REMARK SMILES CCCCC(=O)[O-]
REMARK SMILES IDX 4 1 5 2 6 3 7 4 3 5 2 6 1 7
REMARK H PARENT
REMARK Flexibility Score: inf
ROOT
ATOM      1  C   UNL     1     -11.211  -1.126 -40.681  1.00  0.00     0.053 C 
ENDROOT
BRANCH   1   2
ATOM      2  C   UNL     1     -10.033  -2.004 -40.977  1.00  0.00     0.041 C 
ATOM      3  O   UNL     1      -9.459  -1.937 -42.095  1.00  0.00    -0.550 OA
ATOM      4  O   UNL     1      -9.590  -2.916 -40.029  1.00  0.00    -0.550 OA
ENDBRANCH   1   2
BRANCH   1   5
ATOM      5  C   UNL     1     -11.844  -1.465 -39.325  1.00  0.00     0.006 C 
BRANCH   5   6
ATOM      6  C   UNL     1     -13.178  -2.211 -39.477  1.00  0.00    -0.003 C 
ATOM      7  C   UNL     1     -14.222  -1.335 -40.164  1.00  0.00     0.004 C 
ENDBRANCH   5   6
ENDBRANCH   1   5
TORSDOF 3
ENDMDL
MODEL 3
REMARK VINA RESULT:    -3.249      8.586      9.482
REMARK INTER + INTRA:          -3.879
REMARK INTER:                  -3.827
REMARK INTRA:                  -0.052
REMARK UNBOUND:                -0.060
REMARK SMILES CCCCC(=O)[O-]
REMARK SMILES IDX 4 1 5 2 6 3 7 4 3 5 2 6 1 7
REMARK H PARENT
REMARK Flexibility Score: inf
ROOT
ATOM      1  C   UNL     1     -11.809  -0.670 -40.476  1.00  0.00     0.053 C 
ENDROOT
BRANCH   1   2
ATOM      2  C   UNL     1     -10.478  -0.743 -41.161  1.00  0.00     0.041 C 
ATOM      3  O   UNL     1     -10.068  -1.835 -41.634  1.00  0.00    -0.550 OA
ATOM      4  O   UNL     1      -9.680   0.390 -41.249  1.00  0.00    -0.550 OA
ENDBRANCH   1   2
BRANCH   1   5
ATOM      5  C   UNL     1     -12.062  -1.901 -39.597  1.00  0.00     0.006 C 
BRANCH   5   6
ATOM      6  C   UNL     1     -13.551  -2.278 -39.540  1.00  0.00    -0.003 C 
ATOM      7  C   UNL     1     -14.401  -1.280 -40.322  1.00  0.00     0.004 C 
ENDBRANCH   5   6
ENDBRANCH   1   5
TORSDOF 3
ENDMDL
MODEL 4
REMARK VINA RESULT:    -3.222      8.648      9.550
REMARK INTER + INTRA:          -3.848
REMARK INTER:                  -3.830
REMARK INTRA:                  -0.018
REMARK UNBOUND:                -0.060
REMARK SMILES CCCCC(=O)[O-]
REMARK SMILES IDX 4 1 5 2 6 3 7 4 3 5 2 6 1 7
REMARK H PARENT
REMARK Flexibility Score: inf
ROOT
ATOM      1  C   UNL     1     -12.534  -0.738 -40.388  1.00  0.00     0.053 C 
ENDROOT
BRANCH   1   2
ATOM      2  C   UNL     1     -13.662  -1.645 -40.000  1.00  0.00     0.041 C 
ATOM      3  O   UNL     1     -14.831  -1.410 -40.402  1.00  0.00    -0.550 OA
ATOM      4  O   UNL     1     -13.424  -2.732 -39.169  1.00  0.00    -0.550 OA
ENDBRANCH   1   2
BRANCH   1   5
ATOM      5  C   UNL     1     -11.194  -1.482 -40.426  1.00  0.00     0.006 C 
BRANCH   5   6
ATOM      6  C   UNL     1     -10.244  -0.916 -41.493  1.00  0.00    -0.003 C 
ATOM      7  C   UNL     1      -9.246  -1.973 -41.958  1.00  0.00     0.004 C 
ENDBRANCH   5   6
ENDBRANCH   1   5
TORSDOF 3
ENDMDL
MODEL 5
REMARK VINA RESULT:    -3.200      9.357     10.242
REMARK INTER + INTRA:          -3.822
REMARK INTER:                  -3.764
REMARK INTRA:                  -0.058
REMARK UNBOUND:                -0.060
REMARK SMILES CCCCC(=O)[O-]
REMARK SMILES IDX 4 1 5 2 6 3 7 4 3 5 2 6 1 7
REMARK H PARENT
REMARK Flexibility Score: inf
ROOT
ATOM      1  C   UNL     1     -23.187   4.145 -48.560  1.00  0.00     0.053 C 
ENDROOT
BRANCH   1   2
ATOM      2  C   UNL     1     -22.533   2.804 -48.422  1.00  0.00     0.041 C 
ATOM      3  O   UNL     1     -23.236   1.768 -48.288  1.00  0.00    -0.550 OA
ATOM      4  O   UNL     1     -21.149   2.704 -48.411  1.00  0.00    -0.550 OA
ENDBRANCH   1   2
BRANCH   1   5
ATOM      5  C   UNL     1     -24.667   4.018 -48.943  1.00  0.00     0.006 C 
BRANCH   5   6
ATOM      6  C   UNL     1     -25.531   5.112 -48.296  1.00  0.00    -0.003 C 
ATOM      7  C   UNL     1     -24.757   5.852 -47.207  1.00  0.00     0.004 C 
ENDBRANCH   5   6
ENDBRANCH   1   5
TORSDOF 3
ENDMDL
MODEL 6
REMARK VINA RESULT:    -3.175      8.993      9.856
REMARK INTER + INTRA:          -3.792
REMARK INTER:                  -3.754
REMARK INTRA:                  -0.038
REMARK UNBOUND:                -0.060
REMARK SMILES CCCCC(=O)[O-]
REMARK SMILES IDX 4 1 5 2 6 3 7 4 3 5 2 6 1 7
REMARK H PARENT
REMARK Flexibility Score: inf
ROOT
ATOM      1  C   UNL     1     -11.140  -1.557 -40.196  1.00  0.00     0.053 C 
ENDROOT
BRANCH   1   2
ATOM      2  C   UNL     1     -10.040  -1.302 -41.181  1.00  0.00     0.041 C 
ATOM      3  O   UNL     1      -9.648  -2.224 -41.944  1.00  0.00    -0.550 OA
ATOM      4  O   UNL     1      -9.430  -0.057 -41.234  1.00  0.00    -0.550 OA
ENDBRANCH   1   2
BRANCH   1   5
ATOM      5  C   UNL     1     -12.377  -0.699 -40.491  1.00  0.00     0.006 C 
BRANCH   5   6
ATOM      6  C   UNL     1     -13.682  -1.405 -40.094  1.00  0.00    -0.003 C 
ATOM      7  C   UNL     1     -13.399  -2.697 -39.332  1.00  0.00     0.004 C 
ENDBRANCH   5   6
ENDBRANCH   1   5
TORSDOF 3
ENDMDL
MODEL 7
REMARK VINA RESULT:    -3.130      2.656      3.774
REMARK INTER + INTRA:          -3.739
REMARK INTER:                  -3.644
REMARK INTRA:                  -0.094
REMARK UNBOUND:                -0.060
REMARK SMILES CCCCC(=O)[O-]
REMARK SMILES IDX 4 1 5 2 6 3 7 4 3 5 2 6 1 7
REMARK H PARENT
REMARK Flexibility Score: inf
ROOT
ATOM      1  C   UNL     1     -16.614   4.446 -40.573  1.00  0.00     0.053 C 
ENDROOT
BRANCH   1   2
ATOM      2  C   UNL     1     -17.609   3.341 -40.762  1.00  0.00     0.041 C 
ATOM      3  O   UNL     1     -18.596   3.502 -41.525  1.00  0.00    -0.550 OA
ATOM      4  O   UNL     1     -17.460   2.148 -40.068  1.00  0.00    -0.550 OA
ENDBRANCH   1   2
BRANCH   1   5
ATOM      5  C   UNL     1     -16.714   5.496 -41.687  1.00  0.00     0.006 C 
BRANCH   5   6
ATOM      6  C   UNL     1     -16.826   6.924 -41.132  1.00  0.00    -0.003 C 
ATOM      7  C   UNL     1     -17.938   7.024 -40.091  1.00  0.00     0.004 C 
ENDBRANCH   5   6
ENDBRANCH   1   5
TORSDOF 3
ENDMDL
MODEL 8
REMARK VINA RESULT:    -3.066      2.726      3.674
REMARK INTER + INTRA:          -3.664
REMARK INTER:                  -3.577
REMARK INTRA:                  -0.087
REMARK UNBOUND:                -0.060
REMARK SMILES CCCCC(=O)[O-]
REMARK SMILES IDX 4 1 5 2 6 3 7 4 3 5 2 6 1 7
REMARK H PARENT
REMARK Flexibility Score: inf
ROOT
ATOM      1  C   UNL     1     -16.499   4.297 -40.612  1.00  0.00     0.053 C 
ENDROOT
BRANCH   1   2
ATOM      2  C   UNL     1     -17.605   3.292 -40.728  1.00  0.00     0.041 C 
ATOM      3  O   UNL     1     -17.542   2.206 -40.094  1.00  0.00    -0.550 OA
ATOM      4  O   UNL     1     -18.688   3.543 -41.560  1.00  0.00    -0.550 OA
ENDBRANCH   1   2
BRANCH   1   5
ATOM      5  C   UNL     1     -17.038   5.700 -40.302  1.00  0.00     0.006 C 
BRANCH   5   6
ATOM      6  C   UNL     1     -16.569   6.742 -41.330  1.00  0.00    -0.003 C 
ATOM      7  C   UNL     1     -16.194   6.080 -42.653  1.00  0.00     0.004 C 
ENDBRANCH   5   6
ENDBRANCH   1   5
TORSDOF 3
ENDMDL
MODEL 9
REMARK VINA RESULT:    -3.049      8.449      9.381
REMARK INTER + INTRA:          -3.643
REMARK INTER:                  -3.538
REMARK INTRA:                  -0.106
REMARK UNBOUND:                -0.060
REMARK SMILES CCCCC(=O)[O-]
REMARK SMILES IDX 4 1 5 2 6 3 7 4 3 5 2 6 1 7
REMARK H PARENT
REMARK Flexibility Score: inf
ROOT
ATOM      1  C   UNL     1     -12.468  -0.880 -40.365  1.00  0.00     0.053 C 
ENDROOT
BRANCH   1   2
ATOM      2  C   UNL     1     -13.641  -1.711 -39.943  1.00  0.00     0.041 C 
ATOM      3  O   UNL     1     -13.475  -2.704 -39.188  1.00  0.00    -0.550 OA
ATOM      4  O   UNL     1     -14.912  -1.405 -40.410  1.00  0.00    -0.550 OA
ENDBRANCH   1   2
BRANCH   1   5
ATOM      5  C   UNL     1     -11.143  -1.631 -40.178  1.00  0.00     0.006 C 
BRANCH   5   6
ATOM      6  C   UNL     1     -10.144  -0.842 -39.319  1.00  0.00    -0.003 C 
ATOM      7  C   UNL     1     -10.643  -0.701 -37.884  1.00  0.00     0.004 C 
ENDBRANCH   5   6
ENDBRANCH   1   5
TORSDOF 3
ENDMDL
