MODEL 1
REMARK VINA RESULT:    -4.597      0.000      0.000
REMARK INTER + INTRA:          -5.560
REMARK INTER:                  -5.268
REMARK INTRA:                  -0.292
REMARK UNBOUND:                -0.292
REMARK SMILES O=C1C[C@H](c2ccc(O)cc2)Oc2cc(O)cc(O)c21
REMARK SMILES IDX 3 1 4 2 12 3 13 4 14 5 15 6 17 7 18 8 20 9 2 10 1 11 5 12
REMARK SMILES IDX 6 13 11 14 7 15 10 16 8 17 9 18 19 20 16 22
REMARK H PARENT 9 19 19 21 16 23
REMARK Flexibility Score: inf
ROOT
ATOM      1  C   UNL     1      37.497  -4.544   7.091  1.00  0.00     0.131 C 
ATOM      2  C   UNL     1      36.290  -4.011   6.304  1.00  0.00     0.211 C 
ATOM      3  O   UNL     1      35.479  -3.175   7.133  1.00  0.00    -0.484 OA
ATOM      4  C   UNL     1      35.169  -3.517   8.454  1.00  0.00     0.138 A 
ATOM      5  C   UNL     1      34.130  -2.852   9.111  1.00  0.00     0.093 A 
ATOM      6  C   UNL     1      33.792  -3.194  10.423  1.00  0.00     0.123 A 
ATOM      7  C   UNL     1      34.501  -4.206  11.083  1.00  0.00     0.093 A 
ATOM      8  C   UNL     1      35.559  -4.868  10.442  1.00  0.00     0.133 A 
ATOM      9  C   UNL     1      35.903  -4.519   9.119  1.00  0.00     0.102 A 
ATOM     10  C   UNL     1      37.042  -5.136   8.396  1.00  0.00     0.174 C 
ATOM     11  O   UNL     1      37.671  -6.114   8.884  1.00  0.00    -0.294 OA
ENDROOT
BRANCH   2  12
ATOM     12  C   UNL     1      36.746  -3.251   5.083  1.00  0.00    -0.007 A 
ATOM     13  C   UNL     1      36.587  -3.798   3.797  1.00  0.00     0.011 A 
ATOM     14  C   UNL     1      37.280  -1.958   5.215  1.00  0.00     0.011 A 
ATOM     15  C   UNL     1      36.975  -3.073   2.667  1.00  0.00     0.046 A 
ATOM     16  C   UNL     1      37.671  -1.235   4.083  1.00  0.00     0.046 A 
ATOM     17  C   UNL     1      37.521  -1.790   2.808  1.00  0.00     0.115 A 
BRANCH  17  18
ATOM     18  O   UNL     1      37.913  -1.059   1.689  1.00  0.00    -0.508 OA
ATOM     19  H   UNL     1      37.536  -1.258   0.769  1.00  0.00     0.293 HD
ENDBRANCH  17  18
ENDBRANCH   2  12
BRANCH   8  20
ATOM     20  O   UNL     1      36.266  -5.858  11.125  1.00  0.00    -0.507 OA
ATOM     21  H   UNL     1      37.168  -6.188  10.799  1.00  0.00     0.293 HD
ENDBRANCH   8  20
BRANCH   6  22
ATOM     22  O   UNL     1      32.752  -2.523  11.062  1.00  0.00    -0.508 OA
ATOM     23  H   UNL     1      32.178  -2.980  11.760  1.00  0.00     0.293 HD
ENDBRANCH   6  22
TORSDOF 4
ENDMDL
MODEL 2
REMARK VINA RESULT:    -4.355     11.232     12.434
REMARK INTER + INTRA:          -5.284
REMARK INTER:                  -4.965
REMARK INTRA:                  -0.319
REMARK UNBOUND:                -0.292
REMARK SMILES O=C1C[C@H](c2ccc(O)cc2)Oc2cc(O)cc(O)c21
REMARK SMILES IDX 3 1 4 2 12 3 13 4 14 5 15 6 17 7 18 8 20 9 2 10 1 11 5 12
REMARK SMILES IDX 6 13 11 14 7 15 10 16 8 17 9 18 19 20 16 22
REMARK H PARENT 9 19 19 21 16 23
REMARK Flexibility Score: inf
ROOT
ATOM      1  C   UNL     1      28.123   5.929   4.628  1.00  0.00     0.131 C 
ATOM      2  C   UNL     1      29.448   6.649   4.334  1.00  0.00     0.211 C 
ATOM      3  O   UNL     1      30.274   6.678   5.501  1.00  0.00    -0.484 OA
ATOM      4  C   UNL     1      29.757   6.970   6.769  1.00  0.00     0.138 A 
ATOM      5  C   UNL     1      30.630   7.302   7.808  1.00  0.00     0.093 A 
ATOM      6  C   UNL     1      30.131   7.616   9.074  1.00  0.00     0.123 A 
ATOM      7  C   UNL     1      28.750   7.593   9.303  1.00  0.00     0.093 A 
ATOM      8  C   UNL     1      27.863   7.241   8.274  1.00  0.00     0.133 A 
ATOM      9  C   UNL     1      28.367   6.920   6.997  1.00  0.00     0.102 A 
ATOM     10  C   UNL     1      27.498   6.488   5.876  1.00  0.00     0.174 C 
ATOM     11  O   UNL     1      26.241   6.527   5.972  1.00  0.00    -0.294 OA
ENDROOT
BRANCH   2  12
ATOM     12  C   UNL     1      30.177   5.978   3.196  1.00  0.00    -0.007 A 
ATOM     13  C   UNL     1      31.567   5.778   3.254  1.00  0.00     0.011 A 
ATOM     14  C   UNL     1      29.461   5.490   2.089  1.00  0.00     0.011 A 
ATOM     15  C   UNL     1      32.232   5.121   2.215  1.00  0.00     0.046 A 
ATOM     16  C   UNL     1      30.128   4.835   1.048  1.00  0.00     0.046 A 
ATOM     17  C   UNL     1      31.514   4.650   1.108  1.00  0.00     0.115 A 
BRANCH  17  18
ATOM     18  O   UNL     1      32.165   3.995   0.066  1.00  0.00    -0.508 OA
ATOM     19  H   UNL     1      33.119   3.666   0.162  1.00  0.00     0.293 HD
ENDBRANCH  17  18
ENDBRANCH   2  12
BRANCH   8  20
ATOM     20  O   UNL     1      26.492   7.205   8.530  1.00  0.00    -0.507 OA
ATOM     21  H   UNL     1      26.084   6.504   9.139  1.00  0.00     0.293 HD
ENDBRANCH   8  20
BRANCH   6  22
ATOM     22  O   UNL     1      31.016   7.949  10.098  1.00  0.00    -0.508 OA
ATOM     23  H   UNL     1      31.107   7.373  10.926  1.00  0.00     0.293 HD
ENDBRANCH   6  22
TORSDOF 4
ENDMDL
MODEL 3
REMARK VINA RESULT:    -4.333      2.461      4.234
REMARK INTER + INTRA:          -5.259
REMARK INTER:                  -4.945
REMARK INTRA:                  -0.313
REMARK UNBOUND:                -0.292
REMARK SMILES O=C1C[C@H](c2ccc(O)cc2)Oc2cc(O)cc(O)c21
REMARK SMILES IDX 3 1 4 2 12 3 13 4 14 5 15 6 17 7 18 8 20 9 2 10 1 11 5 12
REMARK SMILES IDX 6 13 11 14 7 15 10 16 8 17 9 18 19 20 16 22
REMARK H PARENT 9 19 19 21 16 23
REMARK Flexibility Score: inf
ROOT
ATOM      1  C   UNL     1      37.276  -3.580   2.814  1.00  0.00     0.131 C 
ATOM      2  C   UNL     1      37.187  -2.182   3.444  1.00  0.00     0.211 C 
ATOM      3  O   UNL     1      37.236  -2.269   4.871  1.00  0.00    -0.484 OA
ATOM      4  C   UNL     1      36.518  -3.241   5.579  1.00  0.00     0.138 A 
ATOM      5  C   UNL     1      36.336  -3.092   6.957  1.00  0.00     0.093 A 
ATOM      6  C   UNL     1      35.606  -4.041   7.677  1.00  0.00     0.123 A 
ATOM      7  C   UNL     1      35.057  -5.146   7.014  1.00  0.00     0.093 A 
ATOM      8  C   UNL     1      35.249  -5.317   5.635  1.00  0.00     0.133 A 
ATOM      9  C   UNL     1      35.991  -4.362   4.909  1.00  0.00     0.102 A 
ATOM     10  C   UNL     1      36.281  -4.502   3.462  1.00  0.00     0.174 C 
ATOM     11  O   UNL     1      35.750  -5.417   2.775  1.00  0.00    -0.294 OA
ENDROOT
BRANCH   2  12
ATOM     12  C   UNL     1      38.302  -1.299   2.938  1.00  0.00    -0.007 A 
ATOM     13  C   UNL     1      39.241  -0.750   3.829  1.00  0.00     0.011 A 
ATOM     14  C   UNL     1      38.447  -1.065   1.560  1.00  0.00     0.011 A 
ATOM     15  C   UNL     1      40.293   0.036   3.350  1.00  0.00     0.046 A 
ATOM     16  C   UNL     1      39.499  -0.276   1.083  1.00  0.00     0.046 A 
ATOM     17  C   UNL     1      40.424   0.276   1.976  1.00  0.00     0.115 A 
BRANCH  17  18
ATOM     18  O   UNL     1      41.468   1.058   1.488  1.00  0.00    -0.508 OA
ATOM     19  H   UNL     1      41.454   1.429   0.544  1.00  0.00     0.293 HD
ENDBRANCH  17  18
ENDBRANCH   2  12
BRANCH   8  20
ATOM     20  O   UNL     1      34.711  -6.437   4.999  1.00  0.00    -0.507 OA
ATOM     21  H   UNL     1      35.247  -6.973   4.325  1.00  0.00     0.293 HD
ENDBRANCH   8  20
BRANCH   6  22
ATOM     22  O   UNL     1      35.431  -3.876   9.049  1.00  0.00    -0.508 OA
ATOM     23  H   UNL     1      34.547  -3.571   9.437  1.00  0.00     0.293 HD
ENDBRANCH   6  22
TORSDOF 4
ENDMDL
MODEL 4
REMARK VINA RESULT:    -4.308     11.004     13.746
REMARK INTER + INTRA:          -5.229
REMARK INTER:                  -4.942
REMARK INTRA:                  -0.287
REMARK UNBOUND:                -0.292
REMARK SMILES O=C1C[C@H](c2ccc(O)cc2)Oc2cc(O)cc(O)c21
REMARK SMILES IDX 3 1 4 2 12 3 13 4 14 5 15 6 17 7 18 8 20 9 2 10 1 11 5 12
REMARK SMILES IDX 6 13 11 14 7 15 10 16 8 17 9 18 19 20 16 22
REMARK H PARENT 9 19 19 21 16 23
REMARK Flexibility Score: inf
ROOT
ATOM      1  C   UNL     1      29.160   7.542   3.957  1.00  0.00     0.131 C 
ATOM      2  C   UNL     1      29.906   6.549   4.861  1.00  0.00     0.211 C 
ATOM      3  O   UNL     1      31.105   6.096   4.227  1.00  0.00    -0.484 OA
ATOM      4  C   UNL     1      31.141   5.744   2.873  1.00  0.00     0.138 A 
ATOM      5  C   UNL     1      32.226   5.012   2.381  1.00  0.00     0.093 A 
ATOM      6  C   UNL     1      32.269   4.635   1.037  1.00  0.00     0.123 A 
ATOM      7  C   UNL     1      31.222   4.994   0.179  1.00  0.00     0.093 A 
ATOM      8  C   UNL     1      30.138   5.746   0.655  1.00  0.00     0.133 A 
ATOM      9  C   UNL     1      30.096   6.131   2.011  1.00  0.00     0.102 A 
ATOM     10  C   UNL     1      29.011   6.970   2.574  1.00  0.00     0.174 C 
ATOM     11  O   UNL     1      27.989   7.260   1.894  1.00  0.00    -0.294 OA
ENDROOT
BRANCH   2  12
ATOM     12  C   UNL     1      30.227   7.181   6.193  1.00  0.00    -0.007 A 
ATOM     13  C   UNL     1      29.707   6.644   7.384  1.00  0.00     0.011 A 
ATOM     14  C   UNL     1      31.101   8.279   6.262  1.00  0.00     0.011 A 
ATOM     15  C   UNL     1      30.039   7.210   8.619  1.00  0.00     0.046 A 
ATOM     16  C   UNL     1      31.429   8.846   7.498  1.00  0.00     0.046 A 
ATOM     17  C   UNL     1      30.899   8.314   8.678  1.00  0.00     0.115 A 
BRANCH  17  18
ATOM     18  O   UNL     1      31.236   8.887   9.902  1.00  0.00    -0.508 OA
ATOM     19  H   UNL     1      32.052   8.582  10.422  1.00  0.00     0.293 HD
ENDBRANCH  17  18
ENDBRANCH   2  12
BRANCH   8  20
ATOM     20  O   UNL     1      29.115   6.112  -0.222  1.00  0.00    -0.507 OA
ATOM     21  H   UNL     1      28.196   5.685  -0.173  1.00  0.00     0.293 HD
ENDBRANCH   8  20
BRANCH   6  22
ATOM     22  O   UNL     1      33.356   3.903   0.563  1.00  0.00    -0.508 OA
ATOM     23  H   UNL     1      34.042   3.506   1.194  1.00  0.00     0.293 HD
ENDBRANCH   6  22
TORSDOF 4
ENDMDL
MODEL 5
REMARK VINA RESULT:    -4.249     11.943     13.838
REMARK INTER + INTRA:          -5.162
REMARK INTER:                  -4.843
REMARK INTRA:                  -0.319
REMARK UNBOUND:                -0.292
REMARK SMILES O=C1C[C@H](c2ccc(O)cc2)Oc2cc(O)cc(O)c21
REMARK SMILES IDX 3 1 4 2 12 3 13 4 14 5 15 6 17 7 18 8 20 9 2 10 1 11 5 12
REMARK SMILES IDX 6 13 11 14 7 15 10 16 8 17 9 18 19 20 16 22
REMARK H PARENT 9 19 19 21 16 23
REMARK Flexibility Score: inf
ROOT
ATOM      1  C   UNL     1      26.917  -1.478  -3.131  1.00  0.00     0.131 C 
ATOM      2  C   UNL     1      27.423  -0.258  -3.917  1.00  0.00     0.211 C 
ATOM      3  O   UNL     1      28.372   0.480  -3.144  1.00  0.00    -0.484 OA
ATOM      4  C   UNL     1      28.176   0.743  -1.782  1.00  0.00     0.138 A 
ATOM      5  C   UNL     1      28.948   1.723  -1.153  1.00  0.00     0.093 A 
ATOM      6  C   UNL     1      28.752   2.013   0.199  1.00  0.00     0.123 A 
ATOM      7  C   UNL     1      27.780   1.316   0.927  1.00  0.00     0.093 A 
ATOM      8  C   UNL     1      27.012   0.315   0.312  1.00  0.00     0.133 A 
ATOM      9  C   UNL     1      27.213   0.019  -1.052  1.00  0.00     0.102 A 
ATOM     10  C   UNL     1      26.478  -1.059  -1.756  1.00  0.00     0.174 C 
ATOM     11  O   UNL     1      25.526  -1.672  -1.200  1.00  0.00    -0.294 OA
ENDROOT
BRANCH   2  12
ATOM     12  C   UNL     1      28.039  -0.688  -5.227  1.00  0.00    -0.007 A 
ATOM     13  C   UNL     1      29.303  -0.209  -5.615  1.00  0.00     0.011 A 
ATOM     14  C   UNL     1      27.379  -1.620  -6.045  1.00  0.00     0.011 A 
ATOM     15  C   UNL     1      29.885  -0.639  -6.810  1.00  0.00     0.046 A 
ATOM     16  C   UNL     1      27.963  -2.048  -7.242  1.00  0.00     0.046 A 
ATOM     17  C   UNL     1      29.215  -1.559  -7.628  1.00  0.00     0.115 A 
BRANCH  17  18
ATOM     18  O   UNL     1      29.785  -1.995  -8.822  1.00  0.00    -0.508 OA
ATOM     19  H   UNL     1      30.717  -2.394  -8.848  1.00  0.00     0.293 HD
ENDBRANCH  17  18
ENDBRANCH   2  12
BRANCH   8  20
ATOM     20  O   UNL     1      26.063  -0.381   1.061  1.00  0.00    -0.507 OA
ATOM     21  H   UNL     1      25.465  -1.084   0.639  1.00  0.00     0.293 HD
ENDBRANCH   8  20
BRANCH   6  22
ATOM     22  O   UNL     1      29.528   2.996   0.810  1.00  0.00    -0.508 OA
ATOM     23  H   UNL     1      30.523   2.870   0.955  1.00  0.00     0.293 HD
ENDBRANCH   6  22
TORSDOF 4
ENDMDL
MODEL 6
REMARK VINA RESULT:    -4.237      3.565      5.966
REMARK INTER + INTRA:          -5.149
REMARK INTER:                  -4.837
REMARK INTRA:                  -0.312
REMARK UNBOUND:                -0.292
REMARK SMILES O=C1C[C@H](c2ccc(O)cc2)Oc2cc(O)cc(O)c21
REMARK SMILES IDX 3 1 4 2 12 3 13 4 14 5 15 6 17 7 18 8 20 9 2 10 1 11 5 12
REMARK SMILES IDX 6 13 11 14 7 15 10 16 8 17 9 18 19 20 16 22
REMARK H PARENT 9 19 19 21 16 23
REMARK Flexibility Score: inf
ROOT
ATOM      1  C   UNL     1      38.969  -0.659   4.105  1.00  0.00     0.131 C 
ATOM      2  C   UNL     1      39.244  -1.277   2.726  1.00  0.00     0.211 C 
ATOM      3  O   UNL     1      38.099  -1.995   2.259  1.00  0.00    -0.484 OA
ATOM      4  C   UNL     1      37.354  -2.830   3.100  1.00  0.00     0.138 A 
ATOM      5  C   UNL     1      36.459  -3.747   2.541  1.00  0.00     0.093 A 
ATOM      6  C   UNL     1      35.722  -4.603   3.363  1.00  0.00     0.123 A 
ATOM      7  C   UNL     1      35.879  -4.538   4.753  1.00  0.00     0.093 A 
ATOM      8  C   UNL     1      36.758  -3.608   5.328  1.00  0.00     0.133 A 
ATOM      9  C   UNL     1      37.499  -2.741   4.498  1.00  0.00     0.102 A 
ATOM     10  C   UNL     1      38.407  -1.698   5.034  1.00  0.00     0.174 C 
ATOM     11  O   UNL     1      38.672  -1.633   6.265  1.00  0.00    -0.294 OA
ENDROOT
BRANCH   2  12
ATOM     12  C   UNL     1      39.631  -0.209   1.732  1.00  0.00    -0.007 A 
ATOM     13  C   UNL     1      40.403   0.896   2.132  1.00  0.00     0.011 A 
ATOM     14  C   UNL     1      39.273  -0.340   0.379  1.00  0.00     0.011 A 
ATOM     15  C   UNL     1      40.791   1.862   1.199  1.00  0.00     0.046 A 
ATOM     16  C   UNL     1      39.659   0.629  -0.552  1.00  0.00     0.046 A 
ATOM     17  C   UNL     1      40.418   1.732  -0.145  1.00  0.00     0.115 A 
BRANCH  17  18
ATOM     18  O   UNL     1      40.797   2.689  -1.083  1.00  0.00    -0.508 OA
ATOM     19  H   UNL     1      41.089   3.619  -0.801  1.00  0.00     0.293 HD
ENDBRANCH  17  18
ENDBRANCH   2  12
BRANCH   8  20
ATOM     20  O   UNL     1      36.883  -3.547   6.717  1.00  0.00    -0.507 OA
ATOM     21  H   UNL     1      36.130  -3.203   7.303  1.00  0.00     0.293 HD
ENDBRANCH   8  20
BRANCH   6  22
ATOM     22  O   UNL     1      34.837  -5.513   2.789  1.00  0.00    -0.508 OA
ATOM     23  H   UNL     1      33.919  -5.229   2.470  1.00  0.00     0.293 HD
ENDBRANCH   6  22
TORSDOF 4
ENDMDL
MODEL 7
REMARK VINA RESULT:    -4.197      4.521     10.457
REMARK INTER + INTRA:          -5.102
REMARK INTER:                  -4.808
REMARK INTRA:                  -0.294
REMARK UNBOUND:                -0.292
REMARK SMILES O=C1C[C@H](c2ccc(O)cc2)Oc2cc(O)cc(O)c21
REMARK SMILES IDX 3 1 4 2 12 3 13 4 14 5 15 6 17 7 18 8 20 9 2 10 1 11 5 12
REMARK SMILES IDX 6 13 11 14 7 15 10 16 8 17 9 18 19 20 16 22
REMARK H PARENT 9 19 19 21 16 23
REMARK Flexibility Score: inf
ROOT
ATOM      1  C   UNL     1      40.838  -1.653   1.048  1.00  0.00     0.131 C 
ATOM      2  C   UNL     1      39.960  -0.477   1.505  1.00  0.00     0.211 C 
ATOM      3  O   UNL     1      39.120  -0.032   0.437  1.00  0.00    -0.484 OA
ATOM      4  C   UNL     1      39.598   0.112  -0.871  1.00  0.00     0.138 A 
ATOM      5  C   UNL     1      38.851   0.844  -1.799  1.00  0.00     0.093 A 
ATOM      6  C   UNL     1      39.321   1.015  -3.103  1.00  0.00     0.123 A 
ATOM      7  C   UNL     1      40.544   0.446  -3.483  1.00  0.00     0.093 A 
ATOM      8  C   UNL     1      41.293  -0.308  -2.567  1.00  0.00     0.133 A 
ATOM      9  C   UNL     1      40.816  -0.484  -1.251  1.00  0.00     0.102 A 
ATOM     10  C   UNL     1      41.525  -1.312  -0.245  1.00  0.00     0.174 C 
ATOM     11  O   UNL     1      42.671  -1.782  -0.477  1.00  0.00    -0.294 OA
ENDROOT
BRANCH   2  12
ATOM     12  C   UNL     1      39.123  -0.871   2.697  1.00  0.00    -0.007 A 
ATOM     13  C   UNL     1      39.473  -0.446   3.991  1.00  0.00     0.011 A 
ATOM     14  C   UNL     1      37.946  -1.619   2.518  1.00  0.00     0.011 A 
ATOM     15  C   UNL     1      38.673  -0.782   5.086  1.00  0.00     0.046 A 
ATOM     16  C   UNL     1      37.149  -1.956   3.616  1.00  0.00     0.046 A 
ATOM     17  C   UNL     1      37.509  -1.540   4.902  1.00  0.00     0.115 A 
BRANCH  17  18
ATOM     18  O   UNL     1      36.704  -1.881   5.986  1.00  0.00    -0.508 OA
ATOM     19  H   UNL     1      35.694  -1.803   5.940  1.00  0.00     0.293 HD
ENDBRANCH  17  18
ENDBRANCH   2  12
BRANCH   8  20
ATOM     20  O   UNL     1      42.498  -0.883  -2.972  1.00  0.00    -0.507 OA
ATOM     21  H   UNL     1      42.714  -1.855  -2.779  1.00  0.00     0.293 HD
ENDBRANCH   8  20
BRANCH   6  22
ATOM     22  O   UNL     1      38.567   1.751  -4.014  1.00  0.00    -0.508 OA
ATOM     23  H   UNL     1      37.579   1.919  -3.869  1.00  0.00     0.293 HD
ENDBRANCH   6  22
TORSDOF 4
ENDMDL
MODEL 8
REMARK VINA RESULT:    -4.158     11.441     12.676
REMARK INTER + INTRA:          -5.057
REMARK INTER:                  -4.772
REMARK INTRA:                  -0.286
REMARK UNBOUND:                -0.292
REMARK SMILES O=C1C[C@H](c2ccc(O)cc2)Oc2cc(O)cc(O)c21
REMARK SMILES IDX 3 1 4 2 12 3 13 4 14 5 15 6 17 7 18 8 20 9 2 10 1 11 5 12
REMARK SMILES IDX 6 13 11 14 7 15 10 16 8 17 9 18 19 20 16 22
REMARK H PARENT 9 19 19 21 16 23
REMARK Flexibility Score: inf
ROOT
ATOM      1  C   UNL     1      29.090   4.120   0.945  1.00  0.00     0.131 C 
ATOM      2  C   UNL     1      29.742   3.983  -0.439  1.00  0.00     0.211 C 
ATOM      3  O   UNL     1      31.160   3.844  -0.314  1.00  0.00    -0.484 OA
ATOM      4  C   UNL     1      31.907   4.627   0.574  1.00  0.00     0.138 A 
ATOM      5  C   UNL     1      33.297   4.688   0.434  1.00  0.00     0.093 A 
ATOM      6  C   UNL     1      34.057   5.480   1.298  1.00  0.00     0.123 A 
ATOM      7  C   UNL     1      33.423   6.212   2.310  1.00  0.00     0.093 A 
ATOM      8  C   UNL     1      32.031   6.144   2.474  1.00  0.00     0.133 A 
ATOM      9  C   UNL     1      31.264   5.340   1.604  1.00  0.00     0.102 A 
ATOM     10  C   UNL     1      29.797   5.176   1.748  1.00  0.00     0.174 C 
ATOM     11  O   UNL     1      29.140   5.868   2.573  1.00  0.00    -0.294 OA
ENDROOT
BRANCH   2  12
ATOM     12  C   UNL     1      29.166   2.805  -1.185  1.00  0.00    -0.007 A 
ATOM     13  C   UNL     1      29.067   2.823  -2.587  1.00  0.00     0.011 A 
ATOM     14  C   UNL     1      28.777   1.649  -0.486  1.00  0.00     0.011 A 
ATOM     15  C   UNL     1      28.568   1.714  -3.275  1.00  0.00     0.046 A 
ATOM     16  C   UNL     1      28.275   0.541  -1.177  1.00  0.00     0.046 A 
ATOM     17  C   UNL     1      28.169   0.570  -2.571  1.00  0.00     0.115 A 
BRANCH  17  18
ATOM     18  O   UNL     1      27.669  -0.541  -3.246  1.00  0.00    -0.508 OA
ATOM     19  H   UNL     1      27.176  -1.279  -2.756  1.00  0.00     0.293 HD
ENDBRANCH  17  18
ENDBRANCH   2  12
BRANCH   8  20
ATOM     20  O   UNL     1      31.422   6.865   3.501  1.00  0.00    -0.507 OA
ATOM     21  H   UNL     1      31.816   7.734   3.846  1.00  0.00     0.293 HD
ENDBRANCH   8  20
BRANCH   6  22
ATOM     22  O   UNL     1      35.440   5.533   1.144  1.00  0.00    -0.508 OA
ATOM     23  H   UNL     1      36.042   5.879   1.881  1.00  0.00     0.293 HD
ENDBRANCH   6  22
TORSDOF 4
ENDMDL
MODEL 9
REMARK VINA RESULT:    -2.738      2.133      6.722
REMARK INTER + INTRA:          -3.430
REMARK INTER:                  -3.116
REMARK INTRA:                  -0.314
REMARK UNBOUND:                -0.292
REMARK SMILES O=C1C[C@H](c2ccc(O)cc2)Oc2cc(O)cc(O)c21
REMARK SMILES IDX 3 1 4 2 12 3 13 4 14 5 15 6 17 7 18 8 20 9 2 10 1 11 5 12
REMARK SMILES IDX 6 13 11 14 7 15 10 16 8 17 9 18 19 20 16 22
REMARK H PARENT 9 19 19 21 16 23
REMARK Flexibility Score: inf
ROOT
ATOM      1  C   UNL     1      34.849  -4.797   6.050  1.00  0.00     0.131 C 
ATOM      2  C   UNL     1      35.408  -4.127   7.315  1.00  0.00     0.211 C 
ATOM      3  O   UNL     1      36.002  -2.867   6.995  1.00  0.00    -0.484 OA
ATOM      4  C   UNL     1      36.821  -2.697   5.872  1.00  0.00     0.138 A 
ATOM      5  C   UNL     1      37.628  -1.560   5.776  1.00  0.00     0.093 A 
ATOM      6  C   UNL     1      38.467  -1.383   4.672  1.00  0.00     0.123 A 
ATOM      7  C   UNL     1      38.495  -2.349   3.657  1.00  0.00     0.093 A 
ATOM      8  C   UNL     1      37.674  -3.484   3.732  1.00  0.00     0.133 A 
ATOM      9  C   UNL     1      36.824  -3.660   4.844  1.00  0.00     0.102 A 
ATOM     10  C   UNL     1      35.891  -4.806   4.967  1.00  0.00     0.174 C 
ATOM     11  O   UNL     1      35.918  -5.762   4.145  1.00  0.00    -0.294 OA
ENDROOT
BRANCH   2  12
ATOM     12  C   UNL     1      34.320  -3.944   8.345  1.00  0.00    -0.007 A 
ATOM     13  C   UNL     1      34.400  -2.911   9.296  1.00  0.00     0.011 A 
ATOM     14  C   UNL     1      33.182  -4.769   8.325  1.00  0.00     0.011 A 
ATOM     15  C   UNL     1      33.372  -2.722  10.223  1.00  0.00     0.046 A 
ATOM     16  C   UNL     1      32.155  -4.580   9.255  1.00  0.00     0.046 A 
ATOM     17  C   UNL     1      32.247  -3.558  10.206  1.00  0.00     0.115 A 
BRANCH  17  18
ATOM     18  O   UNL     1      31.216  -3.379  11.125  1.00  0.00    -0.508 OA
ATOM     19  H   UNL     1      31.397  -3.344  12.122  1.00  0.00     0.293 HD
ENDBRANCH  17  18
ENDBRANCH   2  12
BRANCH   8  20
ATOM     20  O   UNL     1      37.702  -4.422   2.700  1.00  0.00    -0.507 OA
ATOM     21  H   UNL     1      38.036  -4.182   1.773  1.00  0.00     0.293 HD
ENDBRANCH   8  20
BRANCH   6  22
ATOM     22  O   UNL     1      39.268  -0.246   4.594  1.00  0.00    -0.508 OA
ATOM     23  H   UNL     1      39.226   0.376   3.796  1.00  0.00     0.293 HD
ENDBRANCH   6  22
TORSDOF 4
ENDMDL
