MODEL 1
REMARK VINA RESULT:    -6.624      0.000      0.000
REMARK INTER + INTRA:          -8.074
REMARK INTER:                  -7.786
REMARK INTRA:                  -0.288
REMARK UNBOUND:                -0.288
REMARK SMILES O=c1cc(-c2ccc(O)c(O)c2)oc2cc(O)cc(O)c12
REMARK SMILES IDX 4 1 3 2 2 3 1 4 21 5 19 6 18 7 16 8 15 9 14 10 13 11 5 12
REMARK SMILES IDX 6 13 7 14 8 15 12 16 10 17 9 18 11 20 20 22 17 24
REMARK H PARENT 9 19 11 21 20 23 17 25
REMARK Flexibility Score: inf
ROOT
ATOM      1  C   UNL     1       3.284  -9.510   6.142  1.00  0.00     0.138 A 
ATOM      2  C   UNL     1       4.356  -9.977   6.913  1.00  0.00     0.100 A 
ATOM      3  C   UNL     1       4.839 -11.272   6.712  1.00  0.00     0.197 A 
ATOM      4  O   UNL     1       5.842 -11.640   7.375  1.00  0.00    -0.289 OA
ATOM      5  C   UNL     1       4.223 -12.110   5.752  1.00  0.00     0.107 A 
ATOM      6  C   UNL     1       4.604 -13.460   5.489  1.00  0.00     0.134 A 
ATOM      7  C   UNL     1       3.998 -14.155   4.436  1.00  0.00     0.093 A 
ATOM      8  C   UNL     1       2.984 -13.572   3.676  1.00  0.00     0.123 A 
ATOM      9  C   UNL     1       2.566 -12.271   3.960  1.00  0.00     0.094 A 
ATOM     10  C   UNL     1       3.174 -11.539   4.982  1.00  0.00     0.146 A 
ATOM     11  O   UNL     1       2.758 -10.299   5.211  1.00  0.00    -0.456 OA
ENDROOT
BRANCH   1  12
ATOM     12  C   UNL     1       2.730  -8.143   6.317  1.00  0.00     0.021 A 
ATOM     13  C   UNL     1       1.421  -7.818   5.911  1.00  0.00     0.016 A 
ATOM     14  C   UNL     1       0.929  -6.521   6.079  1.00  0.00     0.051 A 
ATOM     15  C   UNL     1       1.732  -5.526   6.644  1.00  0.00     0.157 A 
ATOM     16  C   UNL     1       3.537  -7.134   6.872  1.00  0.00     0.062 A 
ATOM     17  C   UNL     1       3.044  -5.833   7.041  1.00  0.00     0.158 A 
BRANCH  15  18
ATOM     18  O   UNL     1       1.212  -4.242   6.799  1.00  0.00    -0.504 OA
ATOM     19  H   UNL     1       1.582  -3.590   7.480  1.00  0.00     0.293 HD
ENDBRANCH  15  18
BRANCH  17  20
ATOM     20  O   UNL     1       3.851  -4.844   7.602  1.00  0.00    -0.504 OA
ATOM     21  H   UNL     1       4.636  -4.450   7.097  1.00  0.00     0.293 HD
ENDBRANCH  17  20
ENDBRANCH   1  12
BRANCH   6  22
ATOM     22  O   UNL     1       5.547 -14.166   6.242  1.00  0.00    -0.507 OA
ATOM     23  H   UNL     1       6.547 -14.082   6.140  1.00  0.00     0.293 HD
ENDBRANCH   6  22
BRANCH   8  24
ATOM     24  O   UNL     1       2.392 -14.300   2.645  1.00  0.00    -0.508 OA
ATOM     25  H   UNL     1       2.587 -15.285   2.515  1.00  0.00     0.293 HD
ENDBRANCH   8  24
TORSDOF 5
ENDMDL
MODEL 2
REMARK VINA RESULT:    -6.469      2.175      7.360
REMARK INTER + INTRA:          -7.892
REMARK INTER:                  -7.628
REMARK INTRA:                  -0.264
REMARK UNBOUND:                -0.288
REMARK SMILES O=c1cc(-c2ccc(O)c(O)c2)oc2cc(O)cc(O)c12
REMARK SMILES IDX 4 1 3 2 2 3 1 4 21 5 19 6 18 7 16 8 15 9 14 10 13 11 5 12
REMARK SMILES IDX 6 13 7 14 8 15 12 16 10 17 9 18 11 20 20 22 17 24
REMARK H PARENT 9 19 11 21 20 23 17 25
REMARK Flexibility Score: inf
ROOT
ATOM      1  C   UNL     1       3.253 -13.488   4.623  1.00  0.00     0.138 A 
ATOM      2  C   UNL     1       4.366 -13.751   5.434  1.00  0.00     0.100 A 
ATOM      3  C   UNL     1       4.960 -12.710   6.150  1.00  0.00     0.197 A 
ATOM      4  O   UNL     1       5.917 -12.989   6.917  1.00  0.00    -0.289 OA
ATOM      5  C   UNL     1       4.453 -11.395   6.028  1.00  0.00     0.107 A 
ATOM      6  C   UNL     1       5.002 -10.249   6.679  1.00  0.00     0.134 A 
ATOM      7  C   UNL     1       4.346  -9.017   6.576  1.00  0.00     0.093 A 
ATOM      8  C   UNL     1       3.198  -8.874   5.797  1.00  0.00     0.123 A 
ATOM      9  C   UNL     1       2.683  -9.976   5.113  1.00  0.00     0.094 A 
ATOM     10  C   UNL     1       3.294 -11.226   5.223  1.00  0.00     0.146 A 
ATOM     11  O   UNL     1       2.765 -12.253   4.569  1.00  0.00    -0.456 OA
ENDROOT
BRANCH   1  12
ATOM     12  C   UNL     1       2.585 -14.557   3.839  1.00  0.00     0.021 A 
ATOM     13  C   UNL     1       2.625 -14.577   2.431  1.00  0.00     0.016 A 
ATOM     14  C   UNL     1       1.978 -15.590   1.718  1.00  0.00     0.051 A 
ATOM     15  C   UNL     1       1.276 -16.593   2.392  1.00  0.00     0.157 A 
ATOM     16  C   UNL     1       1.864 -15.562   4.510  1.00  0.00     0.062 A 
ATOM     17  C   UNL     1       1.216 -16.578   3.795  1.00  0.00     0.158 A 
BRANCH  15  18
ATOM     18  O   UNL     1       0.642 -17.591   1.652  1.00  0.00    -0.504 OA
ATOM     19  H   UNL     1       0.369 -17.453   0.687  1.00  0.00     0.293 HD
ENDBRANCH  15  18
BRANCH  17  20
ATOM     20  O   UNL     1       0.513 -17.574   4.473  1.00  0.00    -0.504 OA
ATOM     21  H   UNL     1      -0.005 -17.374   5.321  1.00  0.00     0.293 HD
ENDBRANCH  17  20
ENDBRANCH   1  12
BRANCH   6  22
ATOM     22  O   UNL     1       6.192 -10.263   7.412  1.00  0.00    -0.507 OA
ATOM     23  H   UNL     1       6.480 -11.007   8.030  1.00  0.00     0.293 HD
ENDBRANCH   6  22
BRANCH   8  24
ATOM     24  O   UNL     1       2.581  -7.628   5.705  1.00  0.00    -0.508 OA
ATOM     25  H   UNL     1       2.127  -7.324   4.852  1.00  0.00     0.293 HD
ENDBRANCH   8  24
TORSDOF 5
ENDMDL
MODEL 3
REMARK VINA RESULT:    -6.441      2.793      7.763
REMARK INTER + INTRA:          -7.859
REMARK INTER:                  -7.561
REMARK INTRA:                  -0.297
REMARK UNBOUND:                -0.288
REMARK SMILES O=c1cc(-c2ccc(O)c(O)c2)oc2cc(O)cc(O)c12
REMARK SMILES IDX 4 1 3 2 2 3 1 4 21 5 19 6 18 7 16 8 15 9 14 10 13 11 5 12
REMARK SMILES IDX 6 13 7 14 8 15 12 16 10 17 9 18 11 20 20 22 17 24
REMARK H PARENT 9 19 11 21 20 23 17 25
REMARK Flexibility Score: inf
ROOT
ATOM      1  C   UNL     1       2.553 -13.246   3.815  1.00  0.00     0.138 A 
ATOM      2  C   UNL     1       2.277 -12.062   3.118  1.00  0.00     0.100 A 
ATOM      3  C   UNL     1       2.781 -10.849   3.591  1.00  0.00     0.197 A 
ATOM      4  O   UNL     1       2.569  -9.813   2.910  1.00  0.00    -0.289 OA
ATOM      5  C   UNL     1       3.540 -10.821   4.785  1.00  0.00     0.107 A 
ATOM      6  C   UNL     1       4.069  -9.639   5.383  1.00  0.00     0.134 A 
ATOM      7  C   UNL     1       4.903  -9.745   6.503  1.00  0.00     0.093 A 
ATOM      8  C   UNL     1       5.176 -10.984   7.083  1.00  0.00     0.123 A 
ATOM      9  C   UNL     1       4.619 -12.142   6.538  1.00  0.00     0.094 A 
ATOM     10  C   UNL     1       3.812 -12.072   5.401  1.00  0.00     0.146 A 
ATOM     11  O   UNL     1       3.313 -13.198   4.904  1.00  0.00    -0.456 OA
ENDROOT
BRANCH   1  12
ATOM     12  C   UNL     1       2.041 -14.563   3.357  1.00  0.00     0.021 A 
ATOM     13  C   UNL     1       1.989 -14.902   1.992  1.00  0.00     0.016 A 
ATOM     14  C   UNL     1       1.492 -16.145   1.589  1.00  0.00     0.051 A 
ATOM     15  C   UNL     1       1.034 -17.065   2.536  1.00  0.00     0.157 A 
ATOM     16  C   UNL     1       1.565 -15.488   4.304  1.00  0.00     0.062 A 
ATOM     17  C   UNL     1       1.068 -16.735   3.900  1.00  0.00     0.158 A 
BRANCH  15  18
ATOM     18  O   UNL     1       0.546 -18.297   2.102  1.00  0.00    -0.504 OA
ATOM     19  H   UNL     1       0.476 -18.533   1.120  1.00  0.00     0.293 HD
ENDBRANCH  15  18
BRANCH  17  20
ATOM     20  O   UNL     1       0.608 -17.647   4.849  1.00  0.00    -0.504 OA
ATOM     21  H   UNL     1       0.192 -18.531   4.578  1.00  0.00     0.293 HD
ENDBRANCH  17  20
ENDBRANCH   1  12
BRANCH   6  22
ATOM     22  O   UNL     1       3.790  -8.344   4.935  1.00  0.00    -0.507 OA
ATOM     23  H   UNL     1       4.177  -7.926   4.103  1.00  0.00     0.293 HD
ENDBRANCH   6  22
BRANCH   8  24
ATOM     24  O   UNL     1       5.998 -11.051   8.206  1.00  0.00    -0.508 OA
ATOM     25  H   UNL     1       5.631 -10.903   9.139  1.00  0.00     0.293 HD
ENDBRANCH   8  24
TORSDOF 5
ENDMDL
MODEL 4
REMARK VINA RESULT:    -6.429      1.532      1.588
REMARK INTER + INTRA:          -7.845
REMARK INTER:                  -7.576
REMARK INTRA:                  -0.269
REMARK UNBOUND:                -0.288
REMARK SMILES O=c1cc(-c2ccc(O)c(O)c2)oc2cc(O)cc(O)c12
REMARK SMILES IDX 4 1 3 2 2 3 1 4 21 5 19 6 18 7 16 8 15 9 14 10 13 11 5 12
REMARK SMILES IDX 6 13 7 14 8 15 12 16 10 17 9 18 11 20 20 22 17 24
REMARK H PARENT 9 19 11 21 20 23 17 25
REMARK Flexibility Score: inf
ROOT
ATOM      1  C   UNL     1       3.304  -9.949   6.206  1.00  0.00     0.138 A 
ATOM      2  C   UNL     1       3.933 -10.975   6.924  1.00  0.00     0.100 A 
ATOM      3  C   UNL     1       4.396 -12.107   6.250  1.00  0.00     0.197 A 
ATOM      4  O   UNL     1       5.012 -12.981   6.912  1.00  0.00    -0.289 OA
ATOM      5  C   UNL     1       4.199 -12.222   4.853  1.00  0.00     0.107 A 
ATOM      6  C   UNL     1       4.592 -13.347   4.067  1.00  0.00     0.134 A 
ATOM      7  C   UNL     1       4.451 -13.300   2.675  1.00  0.00     0.093 A 
ATOM      8  C   UNL     1       3.875 -12.196   2.046  1.00  0.00     0.123 A 
ATOM      9  C   UNL     1       3.437 -11.113   2.810  1.00  0.00     0.094 A 
ATOM     10  C   UNL     1       3.596 -11.115   4.197  1.00  0.00     0.146 A 
ATOM     11  O   UNL     1       3.180 -10.059   4.887  1.00  0.00    -0.456 OA
ENDROOT
BRANCH   1  12
ATOM     12  C   UNL     1       2.792  -8.726   6.873  1.00  0.00     0.021 A 
ATOM     13  C   UNL     1       1.537  -8.702   7.511  1.00  0.00     0.016 A 
ATOM     14  C   UNL     1       1.075  -7.533   8.123  1.00  0.00     0.051 A 
ATOM     15  C   UNL     1       1.849  -6.370   8.102  1.00  0.00     0.157 A 
ATOM     16  C   UNL     1       3.560  -7.547   6.844  1.00  0.00     0.062 A 
ATOM     17  C   UNL     1       3.097  -6.375   7.458  1.00  0.00     0.158 A 
BRANCH  15  18
ATOM     18  O   UNL     1       1.361  -5.220   8.722  1.00  0.00    -0.504 OA
ATOM     19  H   UNL     1       1.542  -4.293   8.356  1.00  0.00     0.293 HD
ENDBRANCH  15  18
BRANCH  17  20
ATOM     20  O   UNL     1       3.872  -5.217   7.430  1.00  0.00    -0.504 OA
ATOM     21  H   UNL     1       3.485  -4.325   7.142  1.00  0.00     0.293 HD
ENDBRANCH  17  20
ENDBRANCH   1  12
BRANCH   6  22
ATOM     22  O   UNL     1       5.100 -14.534   4.603  1.00  0.00    -0.507 OA
ATOM     23  H   UNL     1       4.695 -15.448   4.467  1.00  0.00     0.293 HD
ENDBRANCH   6  22
BRANCH   8  24
ATOM     24  O   UNL     1       3.736 -12.191   0.660  1.00  0.00    -0.508 OA
ATOM     25  H   UNL     1       4.119 -12.933   0.087  1.00  0.00     0.293 HD
ENDBRANCH   8  24
TORSDOF 5
ENDMDL
MODEL 5
REMARK VINA RESULT:    -6.387      3.328      5.730
REMARK INTER + INTRA:          -7.795
REMARK INTER:                  -7.524
REMARK INTRA:                  -0.272
REMARK UNBOUND:                -0.288
REMARK SMILES O=c1cc(-c2ccc(O)c(O)c2)oc2cc(O)cc(O)c12
REMARK SMILES IDX 4 1 3 2 2 3 1 4 21 5 19 6 18 7 16 8 15 9 14 10 13 11 5 12
REMARK SMILES IDX 6 13 7 14 8 15 12 16 10 17 9 18 11 20 20 22 17 24
REMARK H PARENT 9 19 11 21 20 23 17 25
REMARK Flexibility Score: inf
ROOT
ATOM      1  C   UNL     1       3.395 -13.347   4.335  1.00  0.00     0.138 A 
ATOM      2  C   UNL     1       3.176 -12.781   3.072  1.00  0.00     0.100 A 
ATOM      3  C   UNL     1       2.368 -13.447   2.148  1.00  0.00     0.197 A 
ATOM      4  O   UNL     1       2.140 -12.884   1.046  1.00  0.00    -0.289 OA
ATOM      5  C   UNL     1       1.801 -14.699   2.484  1.00  0.00     0.107 A 
ATOM      6  C   UNL     1       0.995 -15.487   1.608  1.00  0.00     0.134 A 
ATOM      7  C   UNL     1       0.393 -16.656   2.089  1.00  0.00     0.093 A 
ATOM      8  C   UNL     1       0.617 -17.098   3.392  1.00  0.00     0.123 A 
ATOM      9  C   UNL     1       1.448 -16.364   4.240  1.00  0.00     0.094 A 
ATOM     10  C   UNL     1       2.035 -15.176   3.801  1.00  0.00     0.146 A 
ATOM     11  O   UNL     1       2.807 -14.498   4.643  1.00  0.00    -0.456 OA
ENDROOT
BRANCH   1  12
ATOM     12  C   UNL     1       4.246 -12.683   5.354  1.00  0.00     0.021 A 
ATOM     13  C   UNL     1       5.256 -13.382   6.043  1.00  0.00     0.016 A 
ATOM     14  C   UNL     1       6.037 -12.734   7.004  1.00  0.00     0.051 A 
ATOM     15  C   UNL     1       5.820 -11.386   7.302  1.00  0.00     0.157 A 
ATOM     16  C   UNL     1       4.024 -11.330   5.669  1.00  0.00     0.062 A 
ATOM     17  C   UNL     1       4.807 -10.680   6.633  1.00  0.00     0.158 A 
BRANCH  15  18
ATOM     18  O   UNL     1       6.616 -10.768   8.266  1.00  0.00    -0.504 OA
ATOM     19  H   UNL     1       7.576 -10.504   8.082  1.00  0.00     0.293 HD
ENDBRANCH  15  18
BRANCH  17  20
ATOM     20  O   UNL     1       4.583  -9.336   6.927  1.00  0.00    -0.504 OA
ATOM     21  H   UNL     1       5.007  -8.595   6.381  1.00  0.00     0.293 HD
ENDBRANCH  17  20
ENDBRANCH   1  12
BRANCH   6  22
ATOM     22  O   UNL     1       0.776 -15.181   0.261  1.00  0.00    -0.507 OA
ATOM     23  H   UNL     1      -0.120 -15.224  -0.201  1.00  0.00     0.293 HD
ENDBRANCH   6  22
BRANCH   8  24
ATOM     24  O   UNL     1       0.013 -18.275   3.832  1.00  0.00    -0.508 OA
ATOM     25  H   UNL     1       0.563 -19.066   4.145  1.00  0.00     0.293 HD
ENDBRANCH   8  24
TORSDOF 5
ENDMDL
MODEL 6
REMARK VINA RESULT:    -6.323      1.596      3.283
REMARK INTER + INTRA:          -7.720
REMARK INTER:                  -7.433
REMARK INTRA:                  -0.287
REMARK UNBOUND:                -0.288
REMARK SMILES O=c1cc(-c2ccc(O)c(O)c2)oc2cc(O)cc(O)c12
REMARK SMILES IDX 4 1 3 2 2 3 1 4 21 5 19 6 18 7 16 8 15 9 14 10 13 11 5 12
REMARK SMILES IDX 6 13 7 14 8 15 12 16 10 17 9 18 11 20 20 22 17 24
REMARK H PARENT 9 19 11 21 20 23 17 25
REMARK Flexibility Score: inf
ROOT
ATOM      1  C   UNL     1       2.757  -8.712   5.931  1.00  0.00     0.138 A 
ATOM      2  C   UNL     1       2.115  -9.625   5.082  1.00  0.00     0.100 A 
ATOM      3  C   UNL     1       2.631 -10.914   4.938  1.00  0.00     0.197 A 
ATOM      4  O   UNL     1       1.997 -11.729   4.219  1.00  0.00    -0.289 OA
ATOM      5  C   UNL     1       3.813 -11.279   5.625  1.00  0.00     0.107 A 
ATOM      6  C   UNL     1       4.452 -12.551   5.523  1.00  0.00     0.134 A 
ATOM      7  C   UNL     1       5.553 -12.838   6.339  1.00  0.00     0.093 A 
ATOM      8  C   UNL     1       6.075 -11.880   7.208  1.00  0.00     0.123 A 
ATOM      9  C   UNL     1       5.491 -10.614   7.276  1.00  0.00     0.094 A 
ATOM     10  C   UNL     1       4.371 -10.309   6.501  1.00  0.00     0.146 A 
ATOM     11  O   UNL     1       3.835  -9.098   6.605  1.00  0.00    -0.456 OA
ENDROOT
BRANCH   1  12
ATOM     12  C   UNL     1       2.252  -7.329   6.119  1.00  0.00     0.021 A 
ATOM     13  C   UNL     1       3.103  -6.279   6.514  1.00  0.00     0.016 A 
ATOM     14  C   UNL     1       2.599  -4.988   6.693  1.00  0.00     0.051 A 
ATOM     15  C   UNL     1       1.242  -4.723   6.492  1.00  0.00     0.157 A 
ATOM     16  C   UNL     1       0.884  -7.058   5.932  1.00  0.00     0.062 A 
ATOM     17  C   UNL     1       0.379  -5.763   6.112  1.00  0.00     0.158 A 
BRANCH  15  18
ATOM     18  O   UNL     1       0.769  -3.424   6.678  1.00  0.00    -0.504 OA
ATOM     19  H   UNL     1       0.171  -3.176   7.457  1.00  0.00     0.293 HD
ENDBRANCH  15  18
BRANCH  17  20
ATOM     20  O   UNL     1      -0.977  -5.507   5.913  1.00  0.00    -0.504 OA
ATOM     21  H   UNL     1      -1.420  -5.657   5.014  1.00  0.00     0.293 HD
ENDBRANCH  17  20
ENDBRANCH   1  12
BRANCH   6  22
ATOM     22  O   UNL     1       4.063 -13.551   4.626  1.00  0.00    -0.507 OA
ATOM     23  H   UNL     1       4.021 -13.442   3.624  1.00  0.00     0.293 HD
ENDBRANCH   6  22
BRANCH   8  24
ATOM     24  O   UNL     1       7.182 -12.196   7.994  1.00  0.00    -0.508 OA
ATOM     25  H   UNL     1       7.981 -11.577   8.054  1.00  0.00     0.293 HD
ENDBRANCH   8  24
TORSDOF 5
ENDMDL
MODEL 7
REMARK VINA RESULT:    -6.152      5.589      9.892
REMARK INTER + INTRA:          -7.520
REMARK INTER:                  -7.260
REMARK INTRA:                  -0.259
REMARK UNBOUND:                -0.288
REMARK SMILES O=c1cc(-c2ccc(O)c(O)c2)oc2cc(O)cc(O)c12
REMARK SMILES IDX 4 1 3 2 2 3 1 4 21 5 19 6 18 7 16 8 15 9 14 10 13 11 5 12
REMARK SMILES IDX 6 13 7 14 8 15 12 16 10 17 9 18 11 20 20 22 17 24
REMARK H PARENT 9 19 11 21 20 23 17 25
REMARK Flexibility Score: inf
ROOT
ATOM      1  C   UNL     1       1.250  -5.649  10.856  1.00  0.00     0.138 A 
ATOM      2  C   UNL     1       0.110  -4.900  11.175  1.00  0.00     0.100 A 
ATOM      3  C   UNL     1       0.070  -4.176  12.368  1.00  0.00     0.197 A 
ATOM      4  O   UNL     1      -0.941  -3.464  12.597  1.00  0.00    -0.289 OA
ATOM      5  C   UNL     1       1.169  -4.230  13.258  1.00  0.00     0.107 A 
ATOM      6  C   UNL     1       1.224  -3.566  14.521  1.00  0.00     0.134 A 
ATOM      7  C   UNL     1       2.410  -3.597  15.265  1.00  0.00     0.093 A 
ATOM      8  C   UNL     1       3.520  -4.316  14.824  1.00  0.00     0.123 A 
ATOM      9  C   UNL     1       3.459  -5.013  13.616  1.00  0.00     0.094 A 
ATOM     10  C   UNL     1       2.303  -4.974  12.834  1.00  0.00     0.146 A 
ATOM     11  O   UNL     1       2.289  -5.639  11.685  1.00  0.00    -0.456 OA
ENDROOT
BRANCH   1  12
ATOM     12  C   UNL     1       1.344  -6.438   9.601  1.00  0.00     0.021 A 
ATOM     13  C   UNL     1       2.072  -5.975   8.489  1.00  0.00     0.016 A 
ATOM     14  C   UNL     1       2.135  -6.734   7.317  1.00  0.00     0.051 A 
ATOM     15  C   UNL     1       1.469  -7.960   7.231  1.00  0.00     0.157 A 
ATOM     16  C   UNL     1       0.664  -7.666   9.503  1.00  0.00     0.062 A 
ATOM     17  C   UNL     1       0.728  -8.428   8.328  1.00  0.00     0.158 A 
BRANCH  15  18
ATOM     18  O   UNL     1       1.552  -8.694   6.048  1.00  0.00    -0.504 OA
ATOM     19  H   UNL     1       1.660  -8.249   5.145  1.00  0.00     0.293 HD
ENDBRANCH  15  18
BRANCH  17  20
ATOM     20  O   UNL     1       0.059  -9.648   8.246  1.00  0.00    -0.504 OA
ATOM     21  H   UNL     1      -0.516  -9.886   7.446  1.00  0.00     0.293 HD
ENDBRANCH  17  20
ENDBRANCH   1  12
BRANCH   6  22
ATOM     22  O   UNL     1       0.144  -2.889  15.096  1.00  0.00    -0.507 OA
ATOM     23  H   UNL     1       0.190  -2.344  15.942  1.00  0.00     0.293 HD
ENDBRANCH   6  22
BRANCH   8  24
ATOM     24  O   UNL     1       4.678  -4.337  15.599  1.00  0.00    -0.508 OA
ATOM     25  H   UNL     1       4.650  -4.567  16.585  1.00  0.00     0.293 HD
ENDBRANCH   8  24
TORSDOF 5
ENDMDL
MODEL 8
REMARK VINA RESULT:    -6.113      3.299      5.758
REMARK INTER + INTRA:          -7.474
REMARK INTER:                  -7.171
REMARK INTRA:                  -0.302
REMARK UNBOUND:                -0.288
REMARK SMILES O=c1cc(-c2ccc(O)c(O)c2)oc2cc(O)cc(O)c12
REMARK SMILES IDX 4 1 3 2 2 3 1 4 21 5 19 6 18 7 16 8 15 9 14 10 13 11 5 12
REMARK SMILES IDX 6 13 7 14 8 15 12 16 10 17 9 18 11 20 20 22 17 24
REMARK H PARENT 9 19 11 21 20 23 17 25
REMARK Flexibility Score: inf
ROOT
ATOM      1  C   UNL     1       3.414 -12.894   3.898  1.00  0.00     0.138 A 
ATOM      2  C   UNL     1       2.960 -14.216   3.794  1.00  0.00     0.100 A 
ATOM      3  C   UNL     1       2.231 -14.610   2.670  1.00  0.00     0.197 A 
ATOM      4  O   UNL     1       1.892 -15.817   2.576  1.00  0.00    -0.289 OA
ATOM      5  C   UNL     1       1.931 -13.663   1.661  1.00  0.00     0.107 A 
ATOM      6  C   UNL     1       1.160 -13.940   0.492  1.00  0.00     0.134 A 
ATOM      7  C   UNL     1       1.025 -12.956  -0.495  1.00  0.00     0.093 A 
ATOM      8  C   UNL     1       1.579 -11.687  -0.327  1.00  0.00     0.123 A 
ATOM      9  C   UNL     1       2.288 -11.388   0.838  1.00  0.00     0.094 A 
ATOM     10  C   UNL     1       2.470 -12.359   1.824  1.00  0.00     0.146 A 
ATOM     11  O   UNL     1       3.164 -12.041   2.911  1.00  0.00    -0.456 OA
ENDROOT
BRANCH   1  12
ATOM     12  C   UNL     1       4.192 -12.423   5.072  1.00  0.00     0.021 A 
ATOM     13  C   UNL     1       5.077 -13.273   5.762  1.00  0.00     0.016 A 
ATOM     14  C   UNL     1       5.789 -12.804   6.870  1.00  0.00     0.051 A 
ATOM     15  C   UNL     1       5.625 -11.489   7.313  1.00  0.00     0.157 A 
ATOM     16  C   UNL     1       4.021 -11.104   5.532  1.00  0.00     0.062 A 
ATOM     17  C   UNL     1       4.736 -10.635   6.643  1.00  0.00     0.158 A 
BRANCH  15  18
ATOM     18  O   UNL     1       6.351 -11.052   8.421  1.00  0.00    -0.504 OA
ATOM     19  H   UNL     1       7.334 -11.263   8.537  1.00  0.00     0.293 HD
ENDBRANCH  15  18
BRANCH  17  20
ATOM     20  O   UNL     1       4.565  -9.323   7.082  1.00  0.00    -0.504 OA
ATOM     21  H   UNL     1       4.087  -9.111   7.950  1.00  0.00     0.293 HD
ENDBRANCH  17  20
ENDBRANCH   1  12
BRANCH   6  22
ATOM     22  O   UNL     1       0.493 -15.148   0.264  1.00  0.00    -0.507 OA
ATOM     23  H   UNL     1       0.910 -15.967  -0.150  1.00  0.00     0.293 HD
ENDBRANCH   6  22
BRANCH   8  24
ATOM     24  O   UNL     1       1.411 -10.727  -1.323  1.00  0.00    -0.508 OA
ATOM     25  H   UNL     1       1.116  -9.783  -1.103  1.00  0.00     0.293 HD
ENDBRANCH   8  24
TORSDOF 5
ENDMDL
MODEL 9
REMARK VINA RESULT:    -6.018      4.611      8.853
REMARK INTER + INTRA:          -7.362
REMARK INTER:                  -7.071
REMARK INTRA:                  -0.290
REMARK UNBOUND:                -0.288
REMARK SMILES O=c1cc(-c2ccc(O)c(O)c2)oc2cc(O)cc(O)c12
REMARK SMILES IDX 4 1 3 2 2 3 1 4 21 5 19 6 18 7 16 8 15 9 14 10 13 11 5 12
REMARK SMILES IDX 6 13 7 14 8 15 12 16 10 17 9 18 11 20 20 22 17 24
REMARK H PARENT 9 19 11 21 20 23 17 25
REMARK Flexibility Score: inf
ROOT
ATOM      1  C   UNL     1       5.560 -13.235   1.057  1.00  0.00     0.138 A 
ATOM      2  C   UNL     1       4.666 -12.308   0.505  1.00  0.00     0.100 A 
ATOM      3  C   UNL     1       3.790 -11.612   1.341  1.00  0.00     0.197 A 
ATOM      4  O   UNL     1       3.044 -10.741   0.824  1.00  0.00    -0.289 OA
ATOM      5  C   UNL     1       3.791 -11.871   2.732  1.00  0.00     0.107 A 
ATOM      6  C   UNL     1       2.916 -11.252   3.674  1.00  0.00     0.134 A 
ATOM      7  C   UNL     1       3.086 -11.500   5.041  1.00  0.00     0.093 A 
ATOM      8  C   UNL     1       4.057 -12.391   5.496  1.00  0.00     0.123 A 
ATOM      9  C   UNL     1       4.883 -13.044   4.580  1.00  0.00     0.094 A 
ATOM     10  C   UNL     1       4.762 -12.791   3.212  1.00  0.00     0.146 A 
ATOM     11  O   UNL     1       5.576 -13.420   2.373  1.00  0.00    -0.456 OA
ENDROOT
BRANCH   1  12
ATOM     12  C   UNL     1       6.511 -14.004   0.215  1.00  0.00     0.021 A 
ATOM     13  C   UNL     1       6.090 -14.685  -0.943  1.00  0.00     0.016 A 
ATOM     14  C   UNL     1       7.006 -15.409  -1.712  1.00  0.00     0.051 A 
ATOM     15  C   UNL     1       8.350 -15.474  -1.337  1.00  0.00     0.157 A 
ATOM     16  C   UNL     1       7.863 -14.085   0.595  1.00  0.00     0.062 A 
ATOM     17  C   UNL     1       8.782 -14.811  -0.176  1.00  0.00     0.158 A 
BRANCH  15  18
ATOM     18  O   UNL     1       9.239 -16.204  -2.125  1.00  0.00    -0.504 OA
ATOM     19  H   UNL     1      10.239 -16.041  -2.100  1.00  0.00     0.293 HD
ENDBRANCH  15  18
BRANCH  17  20
ATOM     20  O   UNL     1      10.121 -14.875   0.205  1.00  0.00    -0.504 OA
ATOM     21  H   UNL     1      10.844 -15.169  -0.442  1.00  0.00     0.293 HD
ENDBRANCH  17  20
ENDBRANCH   1  12
BRANCH   6  22
ATOM     22  O   UNL     1       1.856 -10.410   3.320  1.00  0.00    -0.507 OA
ATOM     23  H   UNL     1       1.715 -10.017   2.402  1.00  0.00     0.293 HD
ENDBRANCH   6  22
BRANCH   8  24
ATOM     24  O   UNL     1       4.188 -12.626   6.864  1.00  0.00    -0.508 OA
ATOM     25  H   UNL     1       3.791 -11.994   7.549  1.00  0.00     0.293 HD
ENDBRANCH   8  24
TORSDOF 5
ENDMDL
