MODEL 1
REMARK VINA RESULT:    -2.766      0.000      0.000
REMARK INTER + INTRA:          -3.716
REMARK INTER:                  -3.413
REMARK INTRA:                  -0.303
REMARK UNBOUND:                -0.303
REMARK SMILES CCCCCC(C)=O
REMARK SMILES IDX 4 1 3 2 2 3 1 4 5 5 6 6 8 7 7 8
REMARK H PARENT
REMARK Flexibility Score: inf
ROOT
ATOM      1  C   UNL     1     141.255 138.360 128.955  1.00  0.00     0.008 C 
ENDROOT
BRANCH   1   2
ATOM      2  C   UNL     1     140.635 139.744 128.673  1.00  0.00     0.000 C 
BRANCH   2   3
ATOM      3  C   UNL     1     139.929 140.400 129.873  1.00  0.00    -0.003 C 
ATOM      4  C   UNL     1     138.407 140.260 129.825  1.00  0.00     0.004 C 
ENDBRANCH   2   3
ENDBRANCH   1   2
BRANCH   1   5
ATOM      5  C   UNL     1     140.287 137.181 128.740  1.00  0.00     0.075 C 
BRANCH   5   6
ATOM      6  C   UNL     1     140.222 136.247 129.918  1.00  0.00     0.129 C 
ATOM      7  O   UNL     1     140.700 135.126 129.827  1.00  0.00    -0.300 OA
ATOM      8  C   UNL     1     139.596 136.671 131.214  1.00  0.00     0.087 C 
ENDBRANCH   5   6
ENDBRANCH   1   5
TORSDOF 4
ENDMDL
MODEL 2
REMARK VINA RESULT:    -2.753      3.259      4.625
REMARK INTER + INTRA:          -3.700
REMARK INTER:                  -3.403
REMARK INTRA:                  -0.297
REMARK UNBOUND:                -0.303
REMARK SMILES CCCCCC(C)=O
REMARK SMILES IDX 4 1 3 2 2 3 1 4 5 5 6 6 8 7 7 8
REMARK H PARENT
REMARK Flexibility Score: inf
ROOT
ATOM      1  C   UNL     1     136.832 141.245 128.970  1.00  0.00     0.008 C 
ENDROOT
BRANCH   1   2
ATOM      2  C   UNL     1     135.457 140.638 128.620  1.00  0.00     0.000 C 
BRANCH   2   3
ATOM      3  C   UNL     1     134.732 139.946 129.787  1.00  0.00    -0.003 C 
ATOM      4  C   UNL     1     134.933 138.430 129.806  1.00  0.00     0.004 C 
ENDBRANCH   2   3
ENDBRANCH   1   2
BRANCH   1   5
ATOM      5  C   UNL     1     138.016 140.282 128.764  1.00  0.00     0.075 C 
BRANCH   5   6
ATOM      6  C   UNL     1     138.928 140.201 129.959  1.00  0.00     0.129 C 
ATOM      7  O   UNL     1     140.046 140.691 129.899  1.00  0.00    -0.300 OA
ATOM      8  C   UNL     1     138.484 139.547 131.234  1.00  0.00     0.087 C 
ENDBRANCH   5   6
ENDBRANCH   1   5
TORSDOF 4
ENDMDL
MODEL 3
REMARK VINA RESULT:    -2.748      3.421      4.438
REMARK INTER + INTRA:          -3.694
REMARK INTER:                  -3.451
REMARK INTRA:                  -0.242
REMARK UNBOUND:                -0.303
REMARK SMILES CCCCCC(C)=O
REMARK SMILES IDX 4 1 3 2 2 3 1 4 5 5 6 6 8 7 7 8
REMARK H PARENT
REMARK Flexibility Score: inf
ROOT
ATOM      1  C   UNL     1     138.352 133.951 128.813  1.00  0.00     0.008 C 
ENDROOT
BRANCH   1   2
ATOM      2  C   UNL     1     137.253 135.031 128.725  1.00  0.00     0.000 C 
BRANCH   2   3
ATOM      3  C   UNL     1     136.440 135.243 130.014  1.00  0.00    -0.003 C 
ATOM      4  C   UNL     1     135.067 134.571 129.975  1.00  0.00     0.004 C 
ENDBRANCH   2   3
ENDBRANCH   1   2
BRANCH   1   5
ATOM      5  C   UNL     1     139.783 134.494 128.649  1.00  0.00     0.075 C 
BRANCH   5   6
ATOM      6  C   UNL     1     140.210 135.390 129.780  1.00  0.00     0.129 C 
ATOM      7  O   UNL     1     140.579 136.530 129.541  1.00  0.00    -0.300 OA
ATOM      8  C   UNL     1     140.173 134.918 131.203  1.00  0.00     0.087 C 
ENDBRANCH   5   6
ENDBRANCH   1   5
TORSDOF 4
ENDMDL
MODEL 4
REMARK VINA RESULT:    -2.746      5.501      6.602
REMARK INTER + INTRA:          -3.690
REMARK INTER:                  -3.377
REMARK INTRA:                  -0.314
REMARK UNBOUND:                -0.303
REMARK SMILES CCCCCC(C)=O
REMARK SMILES IDX 4 1 3 2 2 3 1 4 5 5 6 6 8 7 7 8
REMARK H PARENT
REMARK Flexibility Score: inf
ROOT
ATOM      1  C   UNL     1     133.987 136.861 128.958  1.00  0.00     0.008 C 
ENDROOT
BRANCH   1   2
ATOM      2  C   UNL     1     134.570 135.455 128.708  1.00  0.00     0.000 C 
BRANCH   2   3
ATOM      3  C   UNL     1     135.504 134.928 129.810  1.00  0.00    -0.003 C 
ATOM      4  C   UNL     1     134.878 134.982 131.205  1.00  0.00     0.004 C 
ENDBRANCH   2   3
ENDBRANCH   1   2
BRANCH   1   5
ATOM      5  C   UNL     1     135.004 138.004 128.785  1.00  0.00     0.075 C 
BRANCH   5   6
ATOM      6  C   UNL     1     134.991 138.986 129.926  1.00  0.00     0.129 C 
ATOM      7  O   UNL     1     134.450 140.072 129.781  1.00  0.00    -0.300 OA
ATOM      8  C   UNL     1     135.615 138.651 131.248  1.00  0.00     0.087 C 
ENDBRANCH   5   6
ENDBRANCH   1   5
TORSDOF 4
ENDMDL
MODEL 5
REMARK VINA RESULT:    -2.743      2.178      3.946
REMARK INTER + INTRA:          -3.688
REMARK INTER:                  -3.456
REMARK INTRA:                  -0.232
REMARK UNBOUND:                -0.303
REMARK SMILES CCCCCC(C)=O
REMARK SMILES IDX 4 1 3 2 2 3 1 4 5 5 6 6 8 7 7 8
REMARK H PARENT
REMARK Flexibility Score: inf
ROOT
ATOM      1  C   UNL     1     141.267 138.412 128.860  1.00  0.00     0.008 C 
ENDROOT
BRANCH   1   2
ATOM      2  C   UNL     1     140.292 137.225 128.719  1.00  0.00     0.000 C 
BRANCH   2   3
ATOM      3  C   UNL     1     139.992 136.465 130.022  1.00  0.00    -0.003 C 
ATOM      4  C   UNL     1     140.576 135.052 130.042  1.00  0.00     0.004 C 
ENDBRANCH   2   3
ENDBRANCH   1   2
BRANCH   1   5
ATOM      5  C   UNL     1     140.623 139.789 128.616  1.00  0.00     0.075 C 
BRANCH   5   6
ATOM      6  C   UNL     1     139.740 140.238 129.749  1.00  0.00     0.129 C 
ATOM      7  O   UNL     1     138.591 140.585 129.518  1.00  0.00    -0.300 OA
ATOM      8  C   UNL     1     140.236 140.253 131.164  1.00  0.00     0.087 C 
ENDBRANCH   5   6
ENDBRANCH   1   5
TORSDOF 4
ENDMDL
MODEL 6
REMARK VINA RESULT:    -2.724      3.844      4.833
REMARK INTER + INTRA:          -3.663
REMARK INTER:                  -3.344
REMARK INTRA:                  -0.319
REMARK UNBOUND:                -0.303
REMARK SMILES CCCCCC(C)=O
REMARK SMILES IDX 4 1 3 2 2 3 1 4 5 5 6 6 8 7 7 8
REMARK H PARENT
REMARK Flexibility Score: inf
ROOT
ATOM      1  C   UNL     1     138.417 134.009 128.953  1.00  0.00     0.008 C 
ENDROOT
BRANCH   1   2
ATOM      2  C   UNL     1     139.793 134.693 128.817  1.00  0.00     0.000 C 
BRANCH   2   3
ATOM      3  C   UNL     1     140.215 135.557 130.018  1.00  0.00    -0.003 C 
ATOM      4  C   UNL     1     140.184 134.797 131.345  1.00  0.00     0.004 C 
ENDBRANCH   2   3
ENDBRANCH   1   2
BRANCH   1   5
ATOM      5  C   UNL     1     137.223 134.928 128.635  1.00  0.00     0.075 C 
BRANCH   5   6
ATOM      6  C   UNL     1     136.201 134.974 129.739  1.00  0.00     0.129 C 
ATOM      7  O   UNL     1     135.104 134.463 129.568  1.00  0.00    -0.300 OA
ATOM      8  C   UNL     1     136.508 135.620 131.058  1.00  0.00     0.087 C 
ENDBRANCH   5   6
ENDBRANCH   1   5
TORSDOF 4
ENDMDL
MODEL 7
REMARK VINA RESULT:    -2.714      5.406      6.811
REMARK INTER + INTRA:          -3.651
REMARK INTER:                  -3.536
REMARK INTRA:                  -0.115
REMARK UNBOUND:                -0.303
REMARK SMILES CCCCCC(C)=O
REMARK SMILES IDX 4 1 3 2 2 3 1 4 5 5 6 6 8 7 7 8
REMARK H PARENT
REMARK Flexibility Score: inf
ROOT
ATOM      1  C   UNL     1     134.875 137.701 129.669  1.00  0.00     0.008 C 
ENDROOT
BRANCH   1   2
ATOM      2  C   UNL     1     133.935 136.675 129.002  1.00  0.00     0.000 C 
BRANCH   2   3
ATOM      3  C   UNL     1     134.576 135.315 128.678  1.00  0.00    -0.003 C 
ATOM      4  C   UNL     1     135.144 134.610 129.911  1.00  0.00     0.004 C 
ENDBRANCH   2   3
ENDBRANCH   1   2
BRANCH   1   5
ATOM      5  C   UNL     1     135.536 138.682 128.683  1.00  0.00     0.075 C 
BRANCH   5   6
ATOM      6  C   UNL     1     135.221 140.123 128.981  1.00  0.00     0.129 C 
ATOM      7  O   UNL     1     134.425 140.396 129.868  1.00  0.00    -0.300 OA
ATOM      8  C   UNL     1     135.880 141.237 128.223  1.00  0.00     0.087 C 
ENDBRANCH   5   6
ENDBRANCH   1   5
TORSDOF 4
ENDMDL
MODEL 8
REMARK VINA RESULT:    -2.698      3.549      4.989
REMARK INTER + INTRA:          -3.631
REMARK INTER:                  -3.294
REMARK INTRA:                  -0.337
REMARK UNBOUND:                -0.303
REMARK SMILES CCCCCC(C)=O
REMARK SMILES IDX 4 1 3 2 2 3 1 4 5 5 6 6 8 7 7 8
REMARK H PARENT
REMARK Flexibility Score: inf
ROOT
ATOM      1  C   UNL     1     136.805 141.259 128.916  1.00  0.00     0.008 C 
ENDROOT
BRANCH   1   2
ATOM      2  C   UNL     1     137.962 140.254 128.738  1.00  0.00     0.000 C 
BRANCH   2   3
ATOM      3  C   UNL     1     139.048 140.308 129.827  1.00  0.00    -0.003 C 
ATOM      4  C   UNL     1     138.668 139.540 131.094  1.00  0.00     0.004 C 
ENDBRANCH   2   3
ENDBRANCH   1   2
BRANCH   1   5
ATOM      5  C   UNL     1     135.405 140.650 128.715  1.00  0.00     0.075 C 
BRANCH   5   6
ATOM      6  C   UNL     1     134.960 139.795 129.871  1.00  0.00     0.129 C 
ATOM      7  O   UNL     1     134.592 138.648 129.667  1.00  0.00    -0.300 OA
ATOM      8  C   UNL     1     134.976 140.318 131.276  1.00  0.00     0.087 C 
ENDBRANCH   5   6
ENDBRANCH   1   5
TORSDOF 4
ENDMDL
MODEL 9
REMARK VINA RESULT:    -2.695      4.932      5.383
REMARK INTER + INTRA:          -3.628
REMARK INTER:                  -3.287
REMARK INTRA:                  -0.341
REMARK UNBOUND:                -0.303
REMARK SMILES CCCCCC(C)=O
REMARK SMILES IDX 4 1 3 2 2 3 1 4 5 5 6 6 8 7 7 8
REMARK H PARENT
REMARK Flexibility Score: inf
ROOT
ATOM      1  C   UNL     1     133.976 136.817 128.862  1.00  0.00     0.008 C 
ENDROOT
BRANCH   1   2
ATOM      2  C   UNL     1     134.996 137.968 128.736  1.00  0.00     0.000 C 
BRANCH   2   3
ATOM      3  C   UNL     1     134.916 139.036 129.840  1.00  0.00    -0.003 C 
ATOM      4  C   UNL     1     135.615 138.617 131.134  1.00  0.00     0.004 C 
ENDBRANCH   2   3
ENDBRANCH   1   2
BRANCH   1   5
ATOM      5  C   UNL     1     134.582 135.415 128.667  1.00  0.00     0.075 C 
BRANCH   5   6
ATOM      6  C   UNL     1     135.439 134.974 129.823  1.00  0.00     0.129 C 
ATOM      7  O   UNL     1     136.598 134.643 129.623  1.00  0.00    -0.300 OA
ATOM      8  C   UNL     1     134.905 134.952 131.224  1.00  0.00     0.087 C 
ENDBRANCH   5   6
ENDBRANCH   1   5
TORSDOF 4
ENDMDL
