MODEL 1
REMARK VINA RESULT:    -3.666      0.000      0.000
REMARK INTER + INTRA:          -7.214
REMARK INTER:                  -5.809
REMARK INTRA:                  -1.405
REMARK UNBOUND:                -1.405
REMARK SMILES CCCCCCCCCCCC(=O)[O-]
REMARK SMILES IDX 7 1 8 2 9 3 10 4 11 5 12 6 13 7 14 8 6 9 5 10 4 11 3 12 2 13
REMARK SMILES IDX 1 14
REMARK H PARENT
REMARK Flexibility Score: inf
ROOT
ATOM      1  C   UNL     1      95.575 100.332  91.642  1.00  0.00     0.000 C 
ENDROOT
BRANCH   1   2
ATOM      2  C   UNL     1      94.140  99.956  92.029  1.00  0.00     0.000 C 
BRANCH   2   3
ATOM      3  C   UNL     1      93.474  99.118  90.931  1.00  0.00     0.000 C 
BRANCH   3   4
ATOM      4  C   UNL     1      91.967  98.973  91.187  1.00  0.00     0.006 C 
BRANCH   4   5
ATOM      5  C   UNL     1      91.610  99.145  92.669  1.00  0.00     0.053 C 
BRANCH   5   6
ATOM      6  C   UNL     1      90.549 100.184  92.867  1.00  0.00     0.041 C 
ATOM      7  O   UNL     1      90.689 101.335  92.377  1.00  0.00    -0.550 OA
ATOM      8  O   UNL     1      89.419  99.889  93.620  1.00  0.00    -0.550 OA
ENDBRANCH   5   6
ENDBRANCH   4   5
ENDBRANCH   3   4
ENDBRANCH   2   3
ENDBRANCH   1   2
BRANCH   1   9
ATOM      9  C   UNL     1      95.750 101.854  91.585  1.00  0.00     0.000 C 
BRANCH   9  10
ATOM     10  C   UNL     1      94.450 102.572  91.976  1.00  0.00    -0.000 C 
BRANCH  10  11
ATOM     11  C   UNL     1      93.914 103.493  90.864  1.00  0.00    -0.000 C 
BRANCH  11  12
ATOM     12  C   UNL     1      92.810 102.877  89.985  1.00  0.00    -0.000 C 
BRANCH  12  13
ATOM     13  C   UNL     1      93.363 102.164  88.743  1.00  0.00    -0.003 C 
ATOM     14  C   UNL     1      92.344 101.181  88.173  1.00  0.00     0.004 C 
ENDBRANCH  12  13
ENDBRANCH  11  12
ENDBRANCH  10  11
ENDBRANCH   9  10
ENDBRANCH   1   9
TORSDOF 10
ENDMDL
MODEL 2
REMARK VINA RESULT:    -3.661     10.394     12.470
REMARK INTER + INTRA:          -7.206
REMARK INTER:                  -6.173
REMARK INTRA:                  -1.033
REMARK UNBOUND:                -1.405
REMARK SMILES CCCCCCCCCCCC(=O)[O-]
REMARK SMILES IDX 7 1 8 2 9 3 10 4 11 5 12 6 13 7 14 8 6 9 5 10 4 11 3 12 2 13
REMARK SMILES IDX 1 14
REMARK H PARENT
REMARK Flexibility Score: inf
ROOT
ATOM      1  C   UNL     1     102.233  92.860  89.522  1.00  0.00     0.000 C 
ENDROOT
BRANCH   1   2
ATOM      2  C   UNL     1     103.568  93.555  89.818  1.00  0.00     0.000 C 
BRANCH   2   3
ATOM      3  C   UNL     1     103.554  95.008  89.329  1.00  0.00     0.000 C 
BRANCH   3   4
ATOM      4  C   UNL     1     104.969  95.604  89.333  1.00  0.00     0.006 C 
BRANCH   4   5
ATOM      5  C   UNL     1     105.707  95.339  90.652  1.00  0.00     0.053 C 
BRANCH   5   6
ATOM      6  C   UNL     1     105.901  96.599  91.441  1.00  0.00     0.041 C 
ATOM      7  O   UNL     1     105.084  97.549  91.329  1.00  0.00    -0.550 OA
ATOM      8  O   UNL     1     107.003  96.733  92.275  1.00  0.00    -0.550 OA
ENDBRANCH   5   6
ENDBRANCH   4   5
ENDBRANCH   3   4
ENDBRANCH   2   3
ENDBRANCH   1   2
BRANCH   1   9
ATOM      9  C   UNL     1     101.218  93.846  88.933  1.00  0.00     0.000 C 
BRANCH   9  10
ATOM     10  C   UNL     1      99.780  93.364  89.171  1.00  0.00    -0.000 C 
BRANCH  10  11
ATOM     11  C   UNL     1      98.887  94.434  89.825  1.00  0.00    -0.000 C 
BRANCH  11  12
ATOM     12  C   UNL     1      99.533  95.826  89.957  1.00  0.00    -0.000 C 
BRANCH  12  13
ATOM     13  C   UNL     1      99.734  96.256  91.417  1.00  0.00    -0.003 C 
ATOM     14  C   UNL     1     101.214  96.450  91.735  1.00  0.00     0.004 C 
ENDBRANCH  12  13
ENDBRANCH  11  12
ENDBRANCH  10  11
ENDBRANCH   9  10
ENDBRANCH   1   9
TORSDOF 10
ENDMDL
MODEL 3
REMARK VINA RESULT:    -3.651     12.577     14.053
REMARK INTER + INTRA:          -7.191
REMARK INTER:                  -5.648
REMARK INTRA:                  -1.543
REMARK UNBOUND:                -1.405
REMARK SMILES CCCCCCCCCCCC(=O)[O-]
REMARK SMILES IDX 7 1 8 2 9 3 10 4 11 5 12 6 13 7 14 8 6 9 5 10 4 11 3 12 2 13
REMARK SMILES IDX 1 14
REMARK H PARENT
REMARK Flexibility Score: inf
ROOT
ATOM      1  C   UNL     1     106.414  99.895  89.697  1.00  0.00     0.000 C 
ENDROOT
BRANCH   1   2
ATOM      2  C   UNL     1     105.426  98.802  89.273  1.00  0.00     0.000 C 
BRANCH   2   3
ATOM      3  C   UNL     1     106.161  97.518  88.872  1.00  0.00     0.000 C 
BRANCH   3   4
ATOM      4  C   UNL     1     105.252  96.291  89.028  1.00  0.00     0.006 C 
BRANCH   4   5
ATOM      5  C   UNL     1     105.694  95.383  90.183  1.00  0.00     0.053 C 
BRANCH   5   6
ATOM      6  C   UNL     1     104.571  94.518  90.670  1.00  0.00     0.041 C 
ATOM      7  O   UNL     1     104.037  93.678  89.900  1.00  0.00    -0.550 OA
ATOM      8  O   UNL     1     104.094  94.665  91.967  1.00  0.00    -0.550 OA
ENDBRANCH   5   6
ENDBRANCH   4   5
ENDBRANCH   3   4
ENDBRANCH   2   3
ENDBRANCH   1   2
BRANCH   1   9
ATOM      9  C   UNL     1     107.804  99.306  89.967  1.00  0.00     0.000 C 
BRANCH   9  10
ATOM     10  C   UNL     1     108.222  99.528  91.428  1.00  0.00    -0.000 C 
BRANCH  10  11
ATOM     11  C   UNL     1     108.417  98.213  92.204  1.00  0.00    -0.000 C 
BRANCH  11  12
ATOM     12  C   UNL     1     107.120  97.570  92.730  1.00  0.00    -0.000 C 
BRANCH  12  13
ATOM     13  C   UNL     1     106.081  98.605  93.184  1.00  0.00    -0.003 C 
ATOM     14  C   UNL     1     104.670  98.178  92.789  1.00  0.00     0.004 C 
ENDBRANCH  12  13
ENDBRANCH  11  12
ENDBRANCH  10  11
ENDBRANCH   9  10
ENDBRANCH   1   9
TORSDOF 10
ENDMDL
MODEL 4
REMARK VINA RESULT:    -3.627     11.830     14.044
REMARK INTER + INTRA:          -7.152
REMARK INTER:                  -5.682
REMARK INTRA:                  -1.471
REMARK UNBOUND:                -1.405
REMARK SMILES CCCCCCCCCCCC(=O)[O-]
REMARK SMILES IDX 7 1 8 2 9 3 10 4 11 5 12 6 13 7 14 8 6 9 5 10 4 11 3 12 2 13
REMARK SMILES IDX 1 14
REMARK H PARENT
REMARK Flexibility Score: inf
ROOT
ATOM      1  C   UNL     1     105.764  97.297  89.475  1.00  0.00     0.000 C 
ENDROOT
BRANCH   1   2
ATOM      2  C   UNL     1     104.697  98.304  89.921  1.00  0.00     0.000 C 
BRANCH   2   3
ATOM      3  C   UNL     1     105.031  98.888  91.299  1.00  0.00     0.000 C 
BRANCH   3   4
ATOM      4  C   UNL     1     105.601  97.809  92.230  1.00  0.00     0.006 C 
BRANCH   4   5
ATOM      5  C   UNL     1     106.804  98.314  93.037  1.00  0.00     0.053 C 
BRANCH   5   6
ATOM      6  C   UNL     1     108.103  97.924  92.399  1.00  0.00     0.041 C 
ATOM      7  O   UNL     1     108.797  96.997  92.892  1.00  0.00    -0.550 OA
ATOM      8  O   UNL     1     108.560  98.607  91.279  1.00  0.00    -0.550 OA
ENDBRANCH   5   6
ENDBRANCH   4   5
ENDBRANCH   3   4
ENDBRANCH   2   3
ENDBRANCH   1   2
BRANCH   1   9
ATOM      9  C   UNL     1     105.121  95.990  88.996  1.00  0.00     0.000 C 
BRANCH   9  10
ATOM     10  C   UNL     1     105.359  94.857  90.005  1.00  0.00    -0.000 C 
BRANCH  10  11
ATOM     11  C   UNL     1     104.053  94.218  90.510  1.00  0.00    -0.000 C 
BRANCH  11  12
ATOM     12  C   UNL     1     103.525  94.782  91.842  1.00  0.00    -0.000 C 
BRANCH  12  13
ATOM     13  C   UNL     1     102.465  95.876  91.650  1.00  0.00    -0.003 C 
ATOM     14  C   UNL     1     101.650  95.636  90.382  1.00  0.00     0.004 C 
ENDBRANCH  12  13
ENDBRANCH  11  12
ENDBRANCH  10  11
ENDBRANCH   9  10
ENDBRANCH   1   9
TORSDOF 10
ENDMDL
MODEL 5
REMARK VINA RESULT:    -3.621      2.467      5.065
REMARK INTER + INTRA:          -7.143
REMARK INTER:                  -5.945
REMARK INTRA:                  -1.198
REMARK UNBOUND:                -1.405
REMARK SMILES CCCCCCCCCCCC(=O)[O-]
REMARK SMILES IDX 7 1 8 2 9 3 10 4 11 5 12 6 13 7 14 8 6 9 5 10 4 11 3 12 2 13
REMARK SMILES IDX 1 14
REMARK H PARENT
REMARK Flexibility Score: inf
ROOT
ATOM      1  C   UNL     1      92.360 100.084  92.114  1.00  0.00     0.000 C 
ENDROOT
BRANCH   1   2
ATOM      2  C   UNL     1      91.551 101.122  91.328  1.00  0.00     0.000 C 
BRANCH   2   3
ATOM      3  C   UNL     1      92.343 101.640  90.121  1.00  0.00     0.000 C 
BRANCH   3   4
ATOM      4  C   UNL     1      92.419 103.173  90.129  1.00  0.00     0.006 C 
BRANCH   4   5
ATOM      5  C   UNL     1      93.862 103.683  90.234  1.00  0.00     0.053 C 
BRANCH   5   6
ATOM      6  C   UNL     1      94.557 103.135  91.443  1.00  0.00     0.041 C 
ATOM      7  O   UNL     1      94.122 103.392  92.596  1.00  0.00    -0.550 OA
ATOM      8  O   UNL     1      95.705 102.366  91.296  1.00  0.00    -0.550 OA
ENDBRANCH   5   6
ENDBRANCH   4   5
ENDBRANCH   3   4
ENDBRANCH   2   3
ENDBRANCH   1   2
BRANCH   1   9
ATOM      9  C   UNL     1      91.443  99.023  92.733  1.00  0.00     0.000 C 
BRANCH   9  10
ATOM     10  C   UNL     1      89.966  99.350  92.468  1.00  0.00    -0.000 C 
BRANCH  10  11
ATOM     11  C   UNL     1      89.241  98.252  91.668  1.00  0.00    -0.000 C 
BRANCH  11  12
ATOM     12  C   UNL     1      89.170  98.494  90.149  1.00  0.00    -0.000 C 
BRANCH  12  13
ATOM     13  C   UNL     1      89.974  97.464  89.341  1.00  0.00    -0.003 C 
ATOM     14  C   UNL     1      91.400  97.948  89.097  1.00  0.00     0.004 C 
ENDBRANCH  12  13
ENDBRANCH  11  12
ENDBRANCH  10  11
ENDBRANCH   9  10
ENDBRANCH   1   9
TORSDOF 10
ENDMDL
MODEL 6
REMARK VINA RESULT:    -3.598     11.948     13.692
REMARK INTER + INTRA:          -7.107
REMARK INTER:                  -5.702
REMARK INTRA:                  -1.405
REMARK UNBOUND:                -1.405
REMARK SMILES CCCCCCCCCCCC(=O)[O-]
REMARK SMILES IDX 7 1 8 2 9 3 10 4 11 5 12 6 13 7 14 8 6 9 5 10 4 11 3 12 2 13
REMARK SMILES IDX 1 14
REMARK H PARENT
REMARK Flexibility Score: inf
ROOT
ATOM      1  C   UNL     1     104.599  98.553  91.197  1.00  0.00     0.000 C 
ENDROOT
BRANCH   1   2
ATOM      2  C   UNL     1     105.335  97.992  89.974  1.00  0.00     0.000 C 
BRANCH   2   3
ATOM      3  C   UNL     1     105.704  96.518  90.181  1.00  0.00     0.000 C 
BRANCH   3   4
ATOM      4  C   UNL     1     104.864  95.608  89.273  1.00  0.00     0.006 C 
BRANCH   4   5
ATOM      5  C   UNL     1     104.254  94.427  90.039  1.00  0.00     0.053 C 
BRANCH   5   6
ATOM      6  C   UNL     1     103.446  94.886  91.215  1.00  0.00     0.041 C 
ATOM      7  O   UNL     1     103.771  94.543  92.381  1.00  0.00    -0.550 OA
ATOM      8  O   UNL     1     102.314  95.668  91.017  1.00  0.00    -0.550 OA
ENDBRANCH   5   6
ENDBRANCH   4   5
ENDBRANCH   3   4
ENDBRANCH   2   3
ENDBRANCH   1   2
BRANCH   1   9
ATOM      9  C   UNL     1     105.124  97.925  92.493  1.00  0.00     0.000 C 
BRANCH   9  10
ATOM     10  C   UNL     1     106.315  98.720  93.047  1.00  0.00    -0.000 C 
BRANCH  10  11
ATOM     11  C   UNL     1     107.618  97.901  93.090  1.00  0.00    -0.000 C 
BRANCH  11  12
ATOM     12  C   UNL     1     108.771  98.468  92.241  1.00  0.00    -0.000 C 
BRANCH  12  13
ATOM     13  C   UNL     1     108.467  99.863  91.676  1.00  0.00    -0.003 C 
ATOM     14  C   UNL     1     108.528  99.864  90.151  1.00  0.00     0.004 C 
ENDBRANCH  12  13
ENDBRANCH  11  12
ENDBRANCH  10  11
ENDBRANCH   9  10
ENDBRANCH   1   9
TORSDOF 10
ENDMDL
MODEL 7
REMARK VINA RESULT:    -3.573     11.259     13.444
REMARK INTER + INTRA:          -7.067
REMARK INTER:                  -5.764
REMARK INTRA:                  -1.303
REMARK UNBOUND:                -1.405
REMARK SMILES CCCCCCCCCCCC(=O)[O-]
REMARK SMILES IDX 7 1 8 2 9 3 10 4 11 5 12 6 13 7 14 8 6 9 5 10 4 11 3 12 2 13
REMARK SMILES IDX 1 14
REMARK H PARENT
REMARK Flexibility Score: inf
ROOT
ATOM      1  C   UNL     1     105.728  95.755  90.715  1.00  0.00     0.000 C 
ENDROOT
BRANCH   1   2
ATOM      2  C   UNL     1     105.601  97.024  89.866  1.00  0.00     0.000 C 
BRANCH   2   3
ATOM      3  C   UNL     1     105.364  98.257  90.747  1.00  0.00     0.000 C 
BRANCH   3   4
ATOM      4  C   UNL     1     105.183  97.855  92.218  1.00  0.00     0.006 C 
BRANCH   4   5
ATOM      5  C   UNL     1     106.134  98.617  93.150  1.00  0.00     0.053 C 
BRANCH   5   6
ATOM      6  C   UNL     1     107.567  98.431  92.752  1.00  0.00     0.041 C 
ATOM      7  O   UNL     1     108.112  97.301  92.856  1.00  0.00    -0.550 OA
ATOM      8  O   UNL     1     108.308  99.514  92.297  1.00  0.00    -0.550 OA
ENDBRANCH   5   6
ENDBRANCH   4   5
ENDBRANCH   3   4
ENDBRANCH   2   3
ENDBRANCH   1   2
BRANCH   1   9
ATOM      9  C   UNL     1     104.949  94.592  90.089  1.00  0.00     0.000 C 
BRANCH   9  10
ATOM     10  C   UNL     1     103.675  94.289  90.890  1.00  0.00    -0.000 C 
BRANCH  10  11
ATOM     11  C   UNL     1     102.495  95.203  90.513  1.00  0.00    -0.000 C 
BRANCH  11  12
ATOM     12  C   UNL     1     102.008  96.133  91.639  1.00  0.00    -0.000 C 
BRANCH  12  13
ATOM     13  C   UNL     1     101.720  97.561  91.154  1.00  0.00    -0.003 C 
ATOM     14  C   UNL     1     100.637  98.223  92.001  1.00  0.00     0.004 C 
ENDBRANCH  12  13
ENDBRANCH  11  12
ENDBRANCH  10  11
ENDBRANCH   9  10
ENDBRANCH   1   9
TORSDOF 10
ENDMDL
MODEL 8
REMARK VINA RESULT:    -3.568      2.438      4.987
REMARK INTER + INTRA:          -7.059
REMARK INTER:                  -5.577
REMARK INTRA:                  -1.482
REMARK UNBOUND:                -1.405
REMARK SMILES CCCCCCCCCCCC(=O)[O-]
REMARK SMILES IDX 7 1 8 2 9 3 10 4 11 5 12 6 13 7 14 8 6 9 5 10 4 11 3 12 2 13
REMARK SMILES IDX 1 14
REMARK H PARENT
REMARK Flexibility Score: inf
ROOT
ATOM      1  C   UNL     1      92.109  98.269  89.608  1.00  0.00     0.000 C 
ENDROOT
BRANCH   1   2
ATOM      2  C   UNL     1      92.767  99.311  88.696  1.00  0.00     0.000 C 
BRANCH   2   3
ATOM      3  C   UNL     1      92.002 100.640  88.734  1.00  0.00     0.000 C 
BRANCH   3   4
ATOM      4  C   UNL     1      92.960 101.820  88.946  1.00  0.00     0.006 C 
BRANCH   4   5
ATOM      5  C   UNL     1      92.605 102.639  90.194  1.00  0.00     0.053 C 
BRANCH   5   6
ATOM      6  C   UNL     1      93.737 103.526  90.616  1.00  0.00     0.041 C 
ATOM      7  O   UNL     1      94.293 104.285  89.781  1.00  0.00    -0.550 OA
ATOM      8  O   UNL     1      94.198 103.488  91.926  1.00  0.00    -0.550 OA
ENDBRANCH   5   6
ENDBRANCH   4   5
ENDBRANCH   3   4
ENDBRANCH   2   3
ENDBRANCH   1   2
BRANCH   1   9
ATOM      9  C   UNL     1      90.595  98.489  89.693  1.00  0.00     0.000 C 
BRANCH   9  10
ATOM     10  C   UNL     1      90.102  98.379  91.143  1.00  0.00    -0.000 C 
BRANCH  10  11
ATOM     11  C   UNL     1      89.750  99.743  91.763  1.00  0.00    -0.000 C 
BRANCH  11  12
ATOM     12  C   UNL     1      90.920 100.464  92.459  1.00  0.00    -0.000 C 
BRANCH  12  13
ATOM     13  C   UNL     1      91.923  99.493  93.099  1.00  0.00    -0.003 C 
ATOM     14  C   UNL     1      93.358  99.865  92.733  1.00  0.00     0.004 C 
ENDBRANCH  12  13
ENDBRANCH  11  12
ENDBRANCH  10  11
ENDBRANCH   9  10
ENDBRANCH   1   9
TORSDOF 10
ENDMDL
MODEL 9
REMARK VINA RESULT:    -3.556      1.592      3.097
REMARK INTER + INTRA:          -7.040
REMARK INTER:                  -5.402
REMARK INTRA:                  -1.638
REMARK UNBOUND:                -1.405
REMARK SMILES CCCCCCCCCCCC(=O)[O-]
REMARK SMILES IDX 7 1 8 2 9 3 10 4 11 5 12 6 13 7 14 8 6 9 5 10 4 11 3 12 2 13
REMARK SMILES IDX 1 14
REMARK H PARENT
REMARK Flexibility Score: inf
ROOT
ATOM      1  C   UNL     1      93.356 102.545  88.992  1.00  0.00     0.000 C 
ENDROOT
BRANCH   1   2
ATOM      2  C   UNL     1      92.405 101.534  89.643  1.00  0.00     0.000 C 
BRANCH   2   3
ATOM      3  C   UNL     1      92.100 101.920  91.096  1.00  0.00     0.000 C 
BRANCH   3   4
ATOM      4  C   UNL     1      91.953 100.673  91.978  1.00  0.00     0.006 C 
BRANCH   4   5
ATOM      5  C   UNL     1      91.874  99.382  91.152  1.00  0.00     0.053 C 
BRANCH   5   6
ATOM      6  C   UNL     1      90.550  98.699  91.316  1.00  0.00     0.041 C 
ATOM      7  O   UNL     1      90.169  97.844  90.474  1.00  0.00    -0.550 OA
ATOM      8  O   UNL     1      89.725  99.031  92.383  1.00  0.00    -0.550 OA
ENDBRANCH   5   6
ENDBRANCH   4   5
ENDBRANCH   3   4
ENDBRANCH   2   3
ENDBRANCH   1   2
BRANCH   1   9
ATOM      9  C   UNL     1      93.683 103.693  89.953  1.00  0.00     0.000 C 
BRANCH   9  10
ATOM     10  C   UNL     1      95.201 103.897  90.071  1.00  0.00    -0.000 C 
BRANCH  10  11
ATOM     11  C   UNL     1      95.974 102.576  90.239  1.00  0.00    -0.000 C 
BRANCH  11  12
ATOM     12  C   UNL     1      95.848 101.921  91.627  1.00  0.00    -0.000 C 
BRANCH  12  13
ATOM     13  C   UNL     1      95.611 100.406  91.554  1.00  0.00    -0.003 C 
ATOM     14  C   UNL     1      95.729  99.899  90.119  1.00  0.00     0.004 C 
ENDBRANCH  12  13
ENDBRANCH  11  12
ENDBRANCH  10  11
ENDBRANCH   9  10
ENDBRANCH   1   9
TORSDOF 10
ENDMDL
