MODEL 1
REMARK VINA RESULT:    -2.450      0.000      0.000
REMARK INTER + INTRA:          -2.243
REMARK INTER:                  -2.808
REMARK INTRA:                   0.565
REMARK UNBOUND:                 0.565
REMARK SMILES C=C(C)[C@@H]1CC[C@@]2(C(=O)[O-])CC[C@@]3(C)[C@@H](CC[C@H]4[C@]5(C)CC[C@@H](O)C(C)(C)[C@@H]5CC[C@]43C)[C@H]12
REMARK SMILES IDX 7 1 6 2 33 3 11 4 5 5 15 6 4 7 12 8 16 9 13 10 17 11 31 12
REMARK SMILES IDX 14 13 18 14 30 15 32 16 19 17 29 18 21 19 20 20 28 21 22 22
REMARK SMILES IDX 25 23 23 24 26 25 27 26 8 27 9 28 10 29 2 30 3 31 1 32 24 33
REMARK H PARENT 24 34
REMARK Flexibility Score: inf
ROOT
ATOM      1  C   UNL     1      30.447  38.407 -27.509  1.00  0.00     0.014 C 
ATOM      2  C   UNL     1      29.729  39.625 -28.124  1.00  0.00     0.014 C 
ATOM      3  C   UNL     1      30.672  38.929 -26.073  1.00  0.00     0.012 C 
ATOM      4  C   UNL     1      31.825  38.094 -28.123  1.00  0.00     0.014 C 
ATOM      5  C   UNL     1      28.774  40.125 -27.021  1.00  0.00     0.009 C 
ATOM      6  C   UNL     1      31.414  37.936 -25.135  1.00  0.00     0.000 C 
ATOM      7  C   UNL     1      29.377  39.666 -25.668  1.00  0.00     0.018 C 
ATOM      8  C   UNL     1      32.580  37.044 -27.262  1.00  0.00     0.008 C 
ATOM      9  C   UNL     1      31.570  38.438 -23.682  1.00  0.00     0.005 C 
ATOM     10  C   UNL     1      32.787  37.474 -25.751  1.00  0.00    -0.024 C 
ATOM     11  C   UNL     1      32.919  38.133 -22.992  1.00  0.00     0.005 C 
ATOM     12  C   UNL     1      33.344  36.272 -24.828  1.00  0.00    -0.024 C 
ATOM     13  C   UNL     1      33.821  38.677 -25.786  1.00  0.00     0.012 C 
ATOM     14  C   UNL     1      33.665  36.783 -23.354  1.00  0.00     0.002 C 
ATOM     15  C   UNL     1      32.338  35.058 -24.739  1.00  0.00     0.008 C 
ATOM     16  C   UNL     1      34.655  35.738 -25.508  1.00  0.00     0.012 C 
ATOM     17  C   UNL     1      33.562  35.705 -22.174  1.00  0.00    -0.026 C 
ATOM     18  C   UNL     1      31.452  34.919 -23.475  1.00  0.00     0.005 C 
ATOM     19  C   UNL     1      34.485  34.457 -22.391  1.00  0.00     0.010 C 
ATOM     20  C   UNL     1      34.074  36.414 -20.867  1.00  0.00     0.012 C 
ATOM     21  C   UNL     1      32.070  35.224 -22.062  1.00  0.00     0.003 C 
ATOM     22  C   UNL     1      34.265  33.321 -21.374  1.00  0.00     0.033 C 
ATOM     23  C   UNL     1      31.818  34.046 -21.017  1.00  0.00    -0.006 C 
ATOM     24  C   UNL     1      32.792  32.869 -21.316  1.00  0.00     0.120 C 
ATOM     25  C   UNL     1      30.347  33.528 -21.101  1.00  0.00     0.014 C 
ATOM     26  C   UNL     1      31.979  34.536 -19.546  1.00  0.00     0.014 C 
ENDROOT
BRANCH   1  27
ATOM     27  C   UNL     1      29.555  37.169 -27.681  1.00  0.00     0.048 C 
ATOM     28  O   UNL     1      28.384  37.300 -28.125  1.00  0.00    -0.550 OA
ATOM     29  O   UNL     1      30.029  35.880 -27.483  1.00  0.00    -0.550 OA
ENDBRANCH   1  27
BRANCH   7  30
ATOM     30  C   UNL     1      28.410  38.906 -24.751  1.00  0.00    -0.077 C 
ATOM     31  C   UNL     1      28.608  38.962 -23.256  1.00  0.00     0.039 C 
ATOM     32  C   UNL     1      27.322  38.260 -25.203  1.00  0.00     0.008 C 
ENDBRANCH   7  30
BRANCH  24  33
ATOM     33  O   UNL     1      32.647  31.861 -20.347  1.00  0.00    -0.393 OA
ATOM     34  H   UNL     1      32.803  32.285 -19.463  1.00  0.00     0.210 HD
ENDBRANCH  24  33
TORSDOF 3
ENDMDL
MODEL 2
REMARK VINA RESULT:    -1.993     15.020     17.731
REMARK INTER + INTRA:          -1.719
REMARK INTER:                  -2.152
REMARK INTRA:                   0.434
REMARK UNBOUND:                 0.565
REMARK SMILES C=C(C)[C@@H]1CC[C@@]2(C(=O)[O-])CC[C@@]3(C)[C@@H](CC[C@H]4[C@]5(C)CC[C@@H](O)C(C)(C)[C@@H]5CC[C@]43C)[C@H]12
REMARK SMILES IDX 7 1 6 2 33 3 11 4 5 5 15 6 4 7 12 8 16 9 13 10 17 11 31 12
REMARK SMILES IDX 14 13 18 14 30 15 32 16 19 17 29 18 21 19 20 20 28 21 22 22
REMARK SMILES IDX 25 23 23 24 26 25 27 26 8 27 9 28 10 29 2 30 3 31 1 32 24 33
REMARK H PARENT 24 34
REMARK Flexibility Score: inf
ROOT
ATOM      1  C   UNL     1      30.439  29.943  -9.438  1.00  0.00     0.014 C 
ATOM      2  C   UNL     1      31.613  30.552  -8.647  1.00  0.00     0.014 C 
ATOM      3  C   UNL     1      29.262  30.355  -8.528  1.00  0.00     0.012 C 
ATOM      4  C   UNL     1      30.453  28.405  -9.530  1.00  0.00     0.014 C 
ATOM      5  C   UNL     1      31.092  31.915  -8.146  1.00  0.00     0.009 C 
ATOM      6  C   UNL     1      27.867  29.879  -9.022  1.00  0.00     0.000 C 
ATOM      7  C   UNL     1      29.547  31.803  -8.073  1.00  0.00     0.018 C 
ATOM      8  C   UNL     1      29.104  27.879 -10.094  1.00  0.00     0.008 C 
ATOM      9  C   UNL     1      26.689  30.358  -8.144  1.00  0.00     0.005 C 
ATOM     10  C   UNL     1      27.836  28.323  -9.254  1.00  0.00    -0.024 C 
ATOM     11  C   UNL     1      25.554  29.338  -7.904  1.00  0.00     0.005 C 
ATOM     12  C   UNL     1      26.443  27.979  -9.995  1.00  0.00    -0.024 C 
ATOM     13  C   UNL     1      27.942  27.546  -7.875  1.00  0.00     0.012 C 
ATOM     14  C   UNL     1      25.198  28.316  -9.060  1.00  0.00     0.002 C 
ATOM     15  C   UNL     1      26.276  28.748 -11.364  1.00  0.00     0.008 C 
ATOM     16  C   UNL     1      26.464  26.443 -10.327  1.00  0.00     0.012 C 
ATOM     17  C   UNL     1      23.823  28.690  -9.791  1.00  0.00    -0.026 C 
ATOM     18  C   UNL     1      25.380  30.012 -11.400  1.00  0.00     0.005 C 
ATOM     19  C   UNL     1      23.316  27.577 -10.770  1.00  0.00     0.010 C 
ATOM     20  C   UNL     1      22.732  28.821  -8.665  1.00  0.00     0.012 C 
ATOM     21  C   UNL     1      24.029  30.024 -10.596  1.00  0.00     0.003 C 
ATOM     22  C   UNL     1      22.103  27.988 -11.626  1.00  0.00     0.033 C 
ATOM     23  C   UNL     1      22.787  30.469 -11.493  1.00  0.00    -0.006 C 
ATOM     24  C   UNL     1      22.362  29.288 -12.413  1.00  0.00     0.120 C 
ATOM     25  C   UNL     1      23.149  31.704 -12.378  1.00  0.00     0.014 C 
ATOM     26  C   UNL     1      21.588  30.949 -10.619  1.00  0.00     0.014 C 
ENDROOT
BRANCH   1  27
ATOM     27  C   UNL     1      30.462  30.506 -10.866  1.00  0.00     0.048 C 
ATOM     28  O   UNL     1      31.469  30.314 -11.598  1.00  0.00    -0.550 OA
ATOM     29  O   UNL     1      29.358  31.122 -11.438  1.00  0.00    -0.550 OA
ENDBRANCH   1  27
BRANCH   7  30
ATOM     30  C   UNL     1      28.781  32.916  -8.798  1.00  0.00    -0.077 C 
ATOM     31  C   UNL     1      29.517  33.819  -9.757  1.00  0.00     0.039 C 
ATOM     32  C   UNL     1      27.451  33.080  -8.699  1.00  0.00     0.008 C 
ENDBRANCH   7  30
BRANCH  24  33
ATOM     33  O   UNL     1      21.211  29.633 -13.144  1.00  0.00    -0.393 OA
ATOM     34  H   UNL     1      20.428  29.369 -12.592  1.00  0.00     0.210 HD
ENDBRANCH  24  33
TORSDOF 3
ENDMDL
MODEL 3
REMARK VINA RESULT:    -0.622      2.939      5.008
REMARK INTER + INTRA:          -0.148
REMARK INTER:                  -0.012
REMARK INTRA:                  -0.137
REMARK UNBOUND:                 0.565
REMARK SMILES C=C(C)[C@@H]1CC[C@@]2(C(=O)[O-])CC[C@@]3(C)[C@@H](CC[C@H]4[C@]5(C)CC[C@@H](O)C(C)(C)[C@@H]5CC[C@]43C)[C@H]12
REMARK SMILES IDX 7 1 6 2 33 3 11 4 5 5 15 6 4 7 12 8 16 9 13 10 17 11 31 12
REMARK SMILES IDX 14 13 18 14 30 15 32 16 19 17 29 18 21 19 20 20 28 21 22 22
REMARK SMILES IDX 25 23 23 24 26 25 27 26 8 27 9 28 10 29 2 30 3 31 1 32 24 33
REMARK H PARENT 24 34
REMARK Flexibility Score: inf
ROOT
ATOM      1  C   UNL     1      34.715  37.884 -25.857  1.00  0.00     0.014 C 
ATOM      2  C   UNL     1      34.847  38.292 -27.337  1.00  0.00     0.014 C 
ATOM      3  C   UNL     1      33.653  36.770 -25.981  1.00  0.00     0.012 C 
ATOM      4  C   UNL     1      34.148  38.980 -24.934  1.00  0.00     0.014 C 
ATOM      5  C   UNL     1      34.795  36.965 -28.123  1.00  0.00     0.009 C 
ATOM      6  C   UNL     1      33.245  36.115 -24.632  1.00  0.00     0.000 C 
ATOM      7  C   UNL     1      34.022  35.953 -27.238  1.00  0.00     0.018 C 
ATOM      8  C   UNL     1      33.794  38.393 -23.541  1.00  0.00     0.008 C 
ATOM      9  C   UNL     1      32.235  34.953 -24.774  1.00  0.00     0.005 C 
ATOM     10  C   UNL     1      32.762  37.191 -23.589  1.00  0.00    -0.024 C 
ATOM     11  C   UNL     1      31.125  34.874 -23.704  1.00  0.00     0.005 C 
ATOM     12  C   UNL     1      32.606  36.441 -22.167  1.00  0.00    -0.024 C 
ATOM     13  C   UNL     1      31.381  37.830 -24.038  1.00  0.00     0.012 C 
ATOM     14  C   UNL     1      31.464  35.332 -22.226  1.00  0.00     0.002 C 
ATOM     15  C   UNL     1      33.950  35.764 -21.687  1.00  0.00     0.008 C 
ATOM     16  C   UNL     1      32.235  37.538 -21.106  1.00  0.00     0.012 C 
ATOM     17  C   UNL     1      31.610  34.088 -21.229  1.00  0.00    -0.026 C 
ATOM     18  C   UNL     1      34.123  34.237 -21.883  1.00  0.00     0.005 C 
ATOM     19  C   UNL     1      31.704  34.506 -19.722  1.00  0.00     0.010 C 
ATOM     20  C   UNL     1      30.295  33.236 -21.372  1.00  0.00     0.012 C 
ATOM     21  C   UNL     1      32.902  33.282 -21.618  1.00  0.00     0.003 C 
ATOM     22  C   UNL     1      32.036  33.348 -18.762  1.00  0.00     0.033 C 
ATOM     23  C   UNL     1      33.268  32.080 -20.636  1.00  0.00    -0.006 C 
ATOM     24  C   UNL     1      33.322  32.604 -19.171  1.00  0.00     0.120 C 
ATOM     25  C   UNL     1      34.649  31.452 -21.008  1.00  0.00     0.014 C 
ATOM     26  C   UNL     1      32.254  30.902 -20.764  1.00  0.00     0.014 C 
ENDROOT
BRANCH   1  27
ATOM     27  C   UNL     1      36.101  37.486 -25.329  1.00  0.00     0.048 C 
ATOM     28  O   UNL     1      37.123  38.100 -25.734  1.00  0.00    -0.550 OA
ATOM     29  O   UNL     1      36.269  36.549 -24.320  1.00  0.00    -0.550 OA
ENDBRANCH   1  27
BRANCH   7  30
ATOM     30  C   UNL     1      34.736  34.616 -27.007  1.00  0.00    -0.077 C 
ATOM     31  C   UNL     1      33.949  33.331 -27.090  1.00  0.00     0.039 C 
ATOM     32  C   UNL     1      36.064  34.513 -26.824  1.00  0.00     0.008 C 
ENDBRANCH   7  30
BRANCH  24  33
ATOM     33  O   UNL     1      33.552  31.538 -18.283  1.00  0.00    -0.393 OA
ATOM     34  H   UNL     1      32.753  31.471 -17.698  1.00  0.00     0.210 HD
ENDBRANCH  24  33
TORSDOF 3
ENDMDL
MODEL 4
REMARK VINA RESULT:    -0.520     14.074     17.261
REMARK INTER + INTRA:          -0.031
REMARK INTER:                  -0.787
REMARK INTRA:                   0.756
REMARK UNBOUND:                 0.565
REMARK SMILES C=C(C)[C@@H]1CC[C@@]2(C(=O)[O-])CC[C@@]3(C)[C@@H](CC[C@H]4[C@]5(C)CC[C@@H](O)C(C)(C)[C@@H]5CC[C@]43C)[C@H]12
REMARK SMILES IDX 7 1 6 2 33 3 11 4 5 5 15 6 4 7 12 8 16 9 13 10 17 11 31 12
REMARK SMILES IDX 14 13 18 14 30 15 32 16 19 17 29 18 21 19 20 20 28 21 22 22
REMARK SMILES IDX 25 23 23 24 26 25 27 26 8 27 9 28 10 29 2 30 3 31 1 32 24 33
REMARK H PARENT 24 34
REMARK Flexibility Score: inf
ROOT
ATOM      1  C   UNL     1      21.056  29.220 -11.969  1.00  0.00     0.014 C 
ATOM      2  C   UNL     1      20.040  28.841 -13.064  1.00  0.00     0.014 C 
ATOM      3  C   UNL     1      22.336  28.598 -12.567  1.00  0.00     0.012 C 
ATOM      4  C   UNL     1      20.803  28.561 -10.599  1.00  0.00     0.014 C 
ATOM      5  C   UNL     1      20.791  29.047 -14.395  1.00  0.00     0.009 C 
ATOM      6  C   UNL     1      23.610  28.777 -11.694  1.00  0.00     0.000 C 
ATOM      7  C   UNL     1      22.303  28.900 -14.081  1.00  0.00     0.018 C 
ATOM      8  C   UNL     1      22.019  28.778  -9.656  1.00  0.00     0.008 C 
ATOM      9  C   UNL     1      24.899  28.214 -12.334  1.00  0.00     0.005 C 
ATOM     10  C   UNL     1      23.390  28.231 -10.233  1.00  0.00    -0.024 C 
ATOM     11  C   UNL     1      25.879  27.492 -11.383  1.00  0.00     0.005 C 
ATOM     12  C   UNL     1      24.666  28.689  -9.356  1.00  0.00    -0.024 C 
ATOM     13  C   UNL     1      23.253  26.651 -10.237  1.00  0.00     0.012 C 
ATOM     14  C   UNL     1      26.004  28.008  -9.890  1.00  0.00     0.002 C 
ATOM     15  C   UNL     1      24.863  30.256  -9.341  1.00  0.00     0.008 C 
ATOM     16  C   UNL     1      24.392  28.243  -7.875  1.00  0.00     0.012 C 
ATOM     17  C   UNL     1      27.371  28.803  -9.641  1.00  0.00    -0.026 C 
ATOM     18  C   UNL     1      25.935  30.879 -10.269  1.00  0.00     0.005 C 
ATOM     19  C   UNL     1      27.641  29.117  -8.131  1.00  0.00     0.010 C 
ATOM     20  C   UNL     1      28.537  27.858 -10.114  1.00  0.00     0.012 C 
ATOM     21  C   UNL     1      27.320  30.154 -10.443  1.00  0.00     0.003 C 
ATOM     22  C   UNL     1      28.847  30.042  -7.880  1.00  0.00     0.033 C 
ATOM     23  C   UNL     1      28.557  31.131 -10.198  1.00  0.00    -0.006 C 
ATOM     24  C   UNL     1      28.740  31.362  -8.669  1.00  0.00     0.120 C 
ATOM     25  C   UNL     1      28.332  32.507 -10.902  1.00  0.00     0.014 C 
ATOM     26  C   UNL     1      29.867  30.573 -10.833  1.00  0.00     0.014 C 
ENDROOT
BRANCH   1  27
ATOM     27  C   UNL     1      21.031  30.743 -11.778  1.00  0.00     0.048 C 
ATOM     28  O   UNL     1      19.928  31.349 -11.739  1.00  0.00    -0.550 OA
ATOM     29  O   UNL     1      22.179  31.478 -11.521  1.00  0.00    -0.550 OA
ENDBRANCH   1  27
BRANCH   7  30
ATOM     30  C   UNL     1      23.182  30.056 -14.573  1.00  0.00    -0.077 C 
ATOM     31  C   UNL     1      23.549  30.138 -16.035  1.00  0.00     0.039 C 
ATOM     32  C   UNL     1      23.575  31.070 -13.783  1.00  0.00     0.008 C 
ENDBRANCH   7  30
BRANCH  24  33
ATOM     33  O   UNL     1      29.883  32.147  -8.431  1.00  0.00    -0.393 OA
ATOM     34  H   UNL     1      30.667  31.541  -8.489  1.00  0.00     0.210 HD
ENDBRANCH  24  33
TORSDOF 3
ENDMDL
MODEL 5
REMARK VINA RESULT:     0.184     12.217     14.556
REMARK INTER + INTRA:           0.776
REMARK INTER:                  -0.099
REMARK INTRA:                   0.875
REMARK UNBOUND:                 0.565
REMARK SMILES C=C(C)[C@@H]1CC[C@@]2(C(=O)[O-])CC[C@@]3(C)[C@@H](CC[C@H]4[C@]5(C)CC[C@@H](O)C(C)(C)[C@@H]5CC[C@]43C)[C@H]12
REMARK SMILES IDX 7 1 6 2 33 3 11 4 5 5 15 6 4 7 12 8 16 9 13 10 17 11 31 12
REMARK SMILES IDX 14 13 18 14 30 15 32 16 19 17 29 18 21 19 20 20 28 21 22 22
REMARK SMILES IDX 25 23 23 24 26 25 27 26 8 27 9 28 10 29 2 30 3 31 1 32 24 33
REMARK H PARENT 24 34
REMARK Flexibility Score: inf
ROOT
ATOM      1  C   UNL     1      22.409  28.225 -20.981  1.00  0.00     0.014 C 
ATOM      2  C   UNL     1      22.435  28.806 -22.408  1.00  0.00     0.014 C 
ATOM      3  C   UNL     1      22.488  29.530 -20.160  1.00  0.00     0.012 C 
ATOM      4  C   UNL     1      23.630  27.359 -20.615  1.00  0.00     0.014 C 
ATOM      5  C   UNL     1      21.548  30.066 -22.342  1.00  0.00     0.009 C 
ATOM      6  C   UNL     1      22.500  29.324 -18.619  1.00  0.00     0.000 C 
ATOM      7  C   UNL     1      21.566  30.547 -20.868  1.00  0.00     0.018 C 
ATOM      8  C   UNL     1      23.649  27.057 -19.091  1.00  0.00     0.008 C 
ATOM      9  C   UNL     1      22.506  30.639 -17.807  1.00  0.00     0.005 C 
ATOM     10  C   UNL     1      23.655  28.351 -18.176  1.00  0.00    -0.024 C 
ATOM     11  C   UNL     1      23.397  30.662 -16.546  1.00  0.00     0.005 C 
ATOM     12  C   UNL     1      23.421  28.015 -16.614  1.00  0.00    -0.024 C 
ATOM     13  C   UNL     1      25.075  29.024 -18.396  1.00  0.00     0.012 C 
ATOM     14  C   UNL     1      23.571  29.323 -15.717  1.00  0.00     0.002 C 
ATOM     15  C   UNL     1      22.009  27.364 -16.337  1.00  0.00     0.008 C 
ATOM     16  C   UNL     1      24.507  26.956 -16.203  1.00  0.00     0.012 C 
ATOM     17  C   UNL     1      22.750  29.356 -14.342  1.00  0.00    -0.026 C 
ATOM     18  C   UNL     1      20.877  28.261 -15.775  1.00  0.00     0.005 C 
ATOM     19  C   UNL     1      23.086  28.160 -13.388  1.00  0.00     0.010 C 
ATOM     20  C   UNL     1      23.188  30.664 -13.585  1.00  0.00     0.012 C 
ATOM     21  C   UNL     1      21.214  29.331 -14.673  1.00  0.00     0.003 C 
ATOM     22  C   UNL     1      22.178  28.062 -12.148  1.00  0.00     0.033 C 
ATOM     23  C   UNL     1      20.253  29.226 -13.405  1.00  0.00    -0.006 C 
ATOM     24  C   UNL     1      20.684  28.016 -12.525  1.00  0.00     0.120 C 
ATOM     25  C   UNL     1      18.765  29.038 -13.843  1.00  0.00     0.014 C 
ATOM     26  C   UNL     1      20.253  30.544 -12.571  1.00  0.00     0.014 C 
ENDROOT
BRANCH   1  27
ATOM     27  C   UNL     1      21.148  27.363 -20.822  1.00  0.00     0.048 C 
ATOM     28  O   UNL     1      20.566  27.307 -19.707  1.00  0.00    -0.550 OA
ATOM     29  O   UNL     1      20.543  26.729 -21.897  1.00  0.00    -0.550 OA
ENDBRANCH   1  27
BRANCH   7  30
ATOM     30  C   UNL     1      20.184  30.776 -20.244  1.00  0.00    -0.077 C 
ATOM     31  C   UNL     1      19.151  31.573 -21.002  1.00  0.00     0.039 C 
ATOM     32  C   UNL     1      19.799  30.218 -19.083  1.00  0.00     0.008 C 
ENDBRANCH   7  30
BRANCH  24  33
ATOM     33  O   UNL     1      19.905  27.966 -11.355  1.00  0.00    -0.393 OA
ATOM     34  H   UNL     1      18.959  27.870 -11.641  1.00  0.00     0.210 HD
ENDBRANCH  24  33
TORSDOF 3
ENDMDL
MODEL 6
REMARK VINA RESULT:     0.274     12.781     17.784
REMARK INTER + INTRA:           0.880
REMARK INTER:                  -0.130
REMARK INTRA:                   1.010
REMARK UNBOUND:                 0.565
REMARK SMILES C=C(C)[C@@H]1CC[C@@]2(C(=O)[O-])CC[C@@]3(C)[C@@H](CC[C@H]4[C@]5(C)CC[C@@H](O)C(C)(C)[C@@H]5CC[C@]43C)[C@H]12
REMARK SMILES IDX 7 1 6 2 33 3 11 4 5 5 15 6 4 7 12 8 16 9 13 10 17 11 31 12
REMARK SMILES IDX 14 13 18 14 30 15 32 16 19 17 29 18 21 19 20 20 28 21 22 22
REMARK SMILES IDX 25 23 23 24 26 25 27 26 8 27 9 28 10 29 2 30 3 31 1 32 24 33
REMARK H PARENT 24 34
REMARK Flexibility Score: inf
ROOT
ATOM      1  C   UNL     1      21.298  28.035  -9.769  1.00  0.00     0.014 C 
ATOM      2  C   UNL     1      21.592  28.261  -8.273  1.00  0.00     0.014 C 
ATOM      3  C   UNL     1      22.270  29.063 -10.389  1.00  0.00     0.012 C 
ATOM      4  C   UNL     1      19.869  28.407 -10.209  1.00  0.00     0.014 C 
ATOM      5  C   UNL     1      23.120  28.452  -8.190  1.00  0.00     0.009 C 
ATOM      6  C   UNL     1      22.236  29.128 -11.942  1.00  0.00     0.000 C 
ATOM      7  C   UNL     1      23.581  28.969  -9.578  1.00  0.00     0.018 C 
ATOM      8  C   UNL     1      19.759  28.412 -11.759  1.00  0.00     0.008 C 
ATOM      9  C   UNL     1      23.263  30.107 -12.555  1.00  0.00     0.005 C 
ATOM     10  C   UNL     1      20.778  29.390 -12.477  1.00  0.00    -0.024 C 
ATOM     11  C   UNL     1      22.780  30.938 -13.765  1.00  0.00     0.005 C 
ATOM     12  C   UNL     1      20.816  29.190 -14.079  1.00  0.00    -0.024 C 
ATOM     13  C   UNL     1      20.297  30.856 -12.107  1.00  0.00     0.012 C 
ATOM     14  C   UNL     1      21.748  30.281 -14.771  1.00  0.00     0.002 C 
ATOM     15  C   UNL     1      21.313  27.752 -14.501  1.00  0.00     0.008 C 
ATOM     16  C   UNL     1      19.340  29.340 -14.596  1.00  0.00     0.012 C 
ATOM     17  C   UNL     1      22.437  29.871 -16.157  1.00  0.00    -0.026 C 
ATOM     18  C   UNL     1      22.780  27.583 -14.970  1.00  0.00     0.005 C 
ATOM     19  C   UNL     1      21.410  29.445 -17.260  1.00  0.00     0.010 C 
ATOM     20  C   UNL     1      23.163  31.157 -16.700  1.00  0.00     0.012 C 
ATOM     21  C   UNL     1      23.427  28.680 -15.893  1.00  0.00     0.003 C 
ATOM     22  C   UNL     1      22.051  28.865 -18.535  1.00  0.00     0.033 C 
ATOM     23  C   UNL     1      24.102  28.061 -17.198  1.00  0.00    -0.006 C 
ATOM     24  C   UNL     1      22.994  27.686 -18.226  1.00  0.00     0.120 C 
ATOM     25  C   UNL     1      24.931  26.784 -16.849  1.00  0.00     0.014 C 
ATOM     26  C   UNL     1      25.136  29.040 -17.832  1.00  0.00     0.014 C 
ENDROOT
BRANCH   1  27
ATOM     27  C   UNL     1      21.528  26.553 -10.099  1.00  0.00     0.048 C 
ATOM     28  O   UNL     1      20.649  25.703  -9.801  1.00  0.00    -0.550 OA
ATOM     29  O   UNL     1      22.624  26.118 -10.832  1.00  0.00    -0.550 OA
ENDBRANCH   1  27
BRANCH   7  30
ATOM     30  C   UNL     1      24.731  28.179 -10.215  1.00  0.00    -0.077 C 
ATOM     31  C   UNL     1      25.425  27.105  -9.414  1.00  0.00     0.039 C 
ATOM     32  C   UNL     1      25.102  28.326 -11.498  1.00  0.00     0.008 C 
ENDBRANCH   7  30
BRANCH  24  33
ATOM     33  O   UNL     1      23.578  27.225 -19.420  1.00  0.00    -0.393 OA
ATOM     34  H   UNL     1      23.899  26.302 -19.247  1.00  0.00     0.210 HD
ENDBRANCH  24  33
TORSDOF 3
ENDMDL
