MODEL 1
REMARK VINA RESULT:    -5.241      0.000      0.000
REMARK INTER + INTRA:          -8.330
REMARK INTER:                  -7.999
REMARK INTRA:                  -0.331
REMARK UNBOUND:                -0.331
REMARK SMILES CCCCCCCCCCC(=O)[O-]
REMARK SMILES IDX 7 1 8 2 9 3 10 4 11 5 12 6 13 7 6 8 5 9 4 10 3 11 2 12 1 13
REMARK H PARENT
REMARK Flexibility Score: inf
ROOT
ATOM      1  C   UNL     1      37.207  55.875  59.781  1.00  0.00     0.000 C 
ENDROOT
BRANCH   1   2
ATOM      2  C   UNL     1      35.923  55.384  59.093  1.00  0.00     0.000 C 
BRANCH   2   3
ATOM      3  C   UNL     1      35.828  53.849  59.043  1.00  0.00     0.006 C 
BRANCH   3   4
ATOM      4  C   UNL     1      34.836  53.366  57.976  1.00  0.00     0.053 C 
BRANCH   4   5
ATOM      5  C   UNL     1      34.509  51.912  58.134  1.00  0.00     0.041 C 
ATOM      6  O   UNL     1      35.416  51.045  58.026  1.00  0.00    -0.550 OA
ATOM      7  O   UNL     1      33.200  51.513  58.369  1.00  0.00    -0.550 OA
ENDBRANCH   4   5
ENDBRANCH   3   4
ENDBRANCH   2   3
ENDBRANCH   1   2
BRANCH   1   8
ATOM      8  C   UNL     1      38.111  54.718  60.241  1.00  0.00     0.000 C 
BRANCH   8   9
ATOM      9  C   UNL     1      39.471  55.205  60.769  1.00  0.00    -0.000 C 
BRANCH   9  10
ATOM     10  C   UNL     1      40.539  54.100  60.770  1.00  0.00    -0.000 C 
BRANCH  10  11
ATOM     11  C   UNL     1      41.710  54.472  59.848  1.00  0.00    -0.000 C 
BRANCH  11  12
ATOM     12  C   UNL     1      42.940  54.963  60.625  1.00  0.00    -0.003 C 
ATOM     13  C   UNL     1      43.515  56.263  60.061  1.00  0.00     0.004 C 
ENDBRANCH  11  12
ENDBRANCH  10  11
ENDBRANCH   9  10
ENDBRANCH   8   9
ENDBRANCH   1   8
TORSDOF 9
ENDMDL
MODEL 2
REMARK VINA RESULT:    -5.205      4.117      7.105
REMARK INTER + INTRA:          -8.275
REMARK INTER:                  -7.503
REMARK INTRA:                  -0.772
REMARK UNBOUND:                -0.331
REMARK SMILES CCCCCCCCCCC(=O)[O-]
REMARK SMILES IDX 7 1 8 2 9 3 10 4 11 5 12 6 13 7 6 8 5 9 4 10 3 11 2 12 1 13
REMARK H PARENT
REMARK Flexibility Score: inf
ROOT
ATOM      1  C   UNL     1      41.929  54.630  59.571  1.00  0.00     0.000 C 
ENDROOT
BRANCH   1   2
ATOM      2  C   UNL     1      43.065  55.477  60.170  1.00  0.00     0.000 C 
BRANCH   2   3
ATOM      3  C   UNL     1      43.344  56.752  59.355  1.00  0.00     0.006 C 
BRANCH   3   4
ATOM      4  C   UNL     1      42.263  57.010  58.297  1.00  0.00     0.053 C 
BRANCH   4   5
ATOM      5  C   UNL     1      41.617  58.351  58.472  1.00  0.00     0.041 C 
ATOM      6  O   UNL     1      40.427  58.533  58.105  1.00  0.00    -0.550 OA
ATOM      7  O   UNL     1      42.340  59.407  59.013  1.00  0.00    -0.550 OA
ENDBRANCH   4   5
ENDBRANCH   3   4
ENDBRANCH   2   3
ENDBRANCH   1   2
BRANCH   1   8
ATOM      8  C   UNL     1      41.010  54.027  60.648  1.00  0.00     0.000 C 
BRANCH   8   9
ATOM      9  C   UNL     1      39.546  54.468  60.490  1.00  0.00    -0.000 C 
BRANCH   9  10
ATOM     10  C   UNL     1      39.385  55.996  60.452  1.00  0.00    -0.000 C 
BRANCH  10  11
ATOM     11  C   UNL     1      37.913  56.386  60.251  1.00  0.00    -0.000 C 
BRANCH  11  12
ATOM     12  C   UNL     1      37.042  55.199  59.811  1.00  0.00    -0.003 C 
ATOM     13  C   UNL     1      36.006  55.585  58.756  1.00  0.00     0.004 C 
ENDBRANCH  11  12
ENDBRANCH  10  11
ENDBRANCH   9  10
ENDBRANCH   8   9
ENDBRANCH   1   8
TORSDOF 9
ENDMDL
MODEL 3
REMARK VINA RESULT:    -5.205      2.574      4.053
REMARK INTER + INTRA:          -8.274
REMARK INTER:                  -7.376
REMARK INTRA:                  -0.898
REMARK UNBOUND:                -0.331
REMARK SMILES CCCCCCCCCCC(=O)[O-]
REMARK SMILES IDX 7 1 8 2 9 3 10 4 11 5 12 6 13 7 6 8 5 9 4 10 3 11 2 12 1 13
REMARK H PARENT
REMARK Flexibility Score: inf
ROOT
ATOM      1  C   UNL     1      40.325  53.809  61.041  1.00  0.00     0.000 C 
ENDROOT
BRANCH   1   2
ATOM      2  C   UNL     1      38.900  54.277  60.704  1.00  0.00     0.000 C 
BRANCH   2   3
ATOM      3  C   UNL     1      38.740  55.805  60.803  1.00  0.00     0.006 C 
BRANCH   3   4
ATOM      4  C   UNL     1      37.999  56.388  59.592  1.00  0.00     0.053 C 
BRANCH   4   5
ATOM      5  C   UNL     1      36.526  56.118  59.655  1.00  0.00     0.041 C 
ATOM      6  O   UNL     1      35.792  56.791  60.425  1.00  0.00    -0.550 OA
ATOM      7  O   UNL     1      35.970  55.103  58.887  1.00  0.00    -0.550 OA
ENDBRANCH   4   5
ENDBRANCH   3   4
ENDBRANCH   2   3
ENDBRANCH   1   2
BRANCH   1   8
ATOM      8  C   UNL     1      41.355  54.237  59.982  1.00  0.00     0.000 C 
BRANCH   8   9
ATOM      9  C   UNL     1      42.653  54.778  60.604  1.00  0.00    -0.000 C 
BRANCH   9  10
ATOM     10  C   UNL     1      43.074  56.134  60.017  1.00  0.00    -0.000 C 
BRANCH  10  11
ATOM     11  C   UNL     1      42.197  56.504  58.811  1.00  0.00    -0.000 C 
BRANCH  11  12
ATOM     12  C   UNL     1      41.461  57.839  59.004  1.00  0.00    -0.003 C 
ATOM     13  C   UNL     1      41.972  58.936  58.070  1.00  0.00     0.004 C 
ENDBRANCH  11  12
ENDBRANCH  10  11
ENDBRANCH   9  10
ENDBRANCH   8   9
ENDBRANCH   1   8
TORSDOF 9
ENDMDL
MODEL 4
REMARK VINA RESULT:    -5.187      3.798      7.102
REMARK INTER + INTRA:          -8.247
REMARK INTER:                  -7.675
REMARK INTRA:                  -0.573
REMARK UNBOUND:                -0.331
REMARK SMILES CCCCCCCCCCC(=O)[O-]
REMARK SMILES IDX 7 1 8 2 9 3 10 4 11 5 12 6 13 7 6 8 5 9 4 10 3 11 2 12 1 13
REMARK H PARENT
REMARK Flexibility Score: inf
ROOT
ATOM      1  C   UNL     1      41.501  54.389  59.798  1.00  0.00     0.000 C 
ENDROOT
BRANCH   1   2
ATOM      2  C   UNL     1      42.735  54.869  60.581  1.00  0.00     0.000 C 
BRANCH   2   3
ATOM      3  C   UNL     1      43.325  56.172  60.014  1.00  0.00     0.006 C 
BRANCH   3   4
ATOM      4  C   UNL     1      42.386  57.369  60.222  1.00  0.00     0.053 C 
BRANCH   4   5
ATOM      5  C   UNL     1      41.833  57.878  58.926  1.00  0.00     0.041 C 
ATOM      6  O   UNL     1      42.611  58.289  58.025  1.00  0.00    -0.550 OA
ATOM      7  O   UNL     1      40.460  57.928  58.726  1.00  0.00    -0.550 OA
ENDBRANCH   4   5
ENDBRANCH   3   4
ENDBRANCH   2   3
ENDBRANCH   1   2
BRANCH   1   8
ATOM      8  C   UNL     1      40.290  54.123  60.709  1.00  0.00     0.000 C 
BRANCH   8   9
ATOM      9  C   UNL     1      39.282  55.284  60.706  1.00  0.00    -0.000 C 
BRANCH   9  10
ATOM     10  C   UNL     1      37.891  54.862  60.206  1.00  0.00    -0.000 C 
BRANCH  10  11
ATOM     11  C   UNL     1      37.161  56.047  59.557  1.00  0.00    -0.000 C 
BRANCH  11  12
ATOM     12  C   UNL     1      35.909  55.615  58.778  1.00  0.00    -0.003 C 
ATOM     13  C   UNL     1      35.683  54.104  58.814  1.00  0.00     0.004 C 
ENDBRANCH  11  12
ENDBRANCH  10  11
ENDBRANCH   9  10
ENDBRANCH   8   9
ENDBRANCH   1   8
TORSDOF 9
ENDMDL
MODEL 5
REMARK VINA RESULT:    -5.122      4.389      7.477
REMARK INTER + INTRA:          -8.148
REMARK INTER:                  -7.530
REMARK INTRA:                  -0.619
REMARK UNBOUND:                -0.331
REMARK SMILES CCCCCCCCCCC(=O)[O-]
REMARK SMILES IDX 7 1 8 2 9 3 10 4 11 5 12 6 13 7 6 8 5 9 4 10 3 11 2 12 1 13
REMARK H PARENT
REMARK Flexibility Score: inf
ROOT
ATOM      1  C   UNL     1      39.609  54.881  60.664  1.00  0.00     0.000 C 
ENDROOT
BRANCH   1   2
ATOM      2  C   UNL     1      40.917  54.165  60.288  1.00  0.00     0.000 C 
BRANCH   2   3
ATOM      3  C   UNL     1      41.913  55.091  59.568  1.00  0.00     0.006 C 
BRANCH   3   4
ATOM      4  C   UNL     1      43.168  55.357  60.412  1.00  0.00     0.053 C 
BRANCH   4   5
ATOM      5  C   UNL     1      43.607  56.787  60.324  1.00  0.00     0.041 C 
ATOM      6  O   UNL     1      42.827  57.711  60.673  1.00  0.00    -0.550 OA
ATOM      7  O   UNL     1      44.866  57.100  59.827  1.00  0.00    -0.550 OA
ENDBRANCH   4   5
ENDBRANCH   3   4
ENDBRANCH   2   3
ENDBRANCH   1   2
BRANCH   1   8
ATOM      8  C   UNL     1      39.618  56.370  60.277  1.00  0.00     0.000 C 
BRANCH   8   9
ATOM      9  C   UNL     1      38.356  56.787  59.504  1.00  0.00    -0.000 C 
BRANCH   9  10
ATOM     10  C   UNL     1      37.064  56.258  60.146  1.00  0.00    -0.000 C 
BRANCH  10  11
ATOM     11  C   UNL     1      36.222  55.483  59.120  1.00  0.00    -0.000 C 
BRANCH  11  12
ATOM     12  C   UNL     1      36.192  53.973  59.400  1.00  0.00    -0.003 C 
ATOM     13  C   UNL     1      35.346  53.201  58.388  1.00  0.00     0.004 C 
ENDBRANCH  11  12
ENDBRANCH  10  11
ENDBRANCH   9  10
ENDBRANCH   8   9
ENDBRANCH   1   8
TORSDOF 9
ENDMDL
MODEL 6
REMARK VINA RESULT:    -5.110      1.310      2.146
REMARK INTER + INTRA:          -8.129
REMARK INTER:                  -7.783
REMARK INTRA:                  -0.346
REMARK UNBOUND:                -0.331
REMARK SMILES CCCCCCCCCCC(=O)[O-]
REMARK SMILES IDX 7 1 8 2 9 3 10 4 11 5 12 6 13 7 6 8 5 9 4 10 3 11 2 12 1 13
REMARK H PARENT
REMARK Flexibility Score: inf
ROOT
ATOM      1  C   UNL     1      35.581  54.079  58.856  1.00  0.00     0.000 C 
ENDROOT
BRANCH   1   2
ATOM      2  C   UNL     1      35.987  52.595  58.855  1.00  0.00     0.000 C 
BRANCH   2   3
ATOM      3  C   UNL     1      35.040  51.724  58.011  1.00  0.00     0.006 C 
BRANCH   3   4
ATOM      4  C   UNL     1      33.591  52.227  58.063  1.00  0.00     0.053 C 
BRANCH   4   5
ATOM      5  C   UNL     1      32.623  51.118  58.341  1.00  0.00     0.041 C 
ATOM      6  O   UNL     1      32.875  49.947  57.954  1.00  0.00    -0.550 OA
ATOM      7  O   UNL     1      31.430  51.383  59.000  1.00  0.00    -0.550 OA
ENDBRANCH   4   5
ENDBRANCH   3   4
ENDBRANCH   2   3
ENDBRANCH   1   2
BRANCH   1   8
ATOM      8  C   UNL     1      36.628  54.977  59.536  1.00  0.00     0.000 C 
BRANCH   8   9
ATOM      9  C   UNL     1      37.777  54.173  60.167  1.00  0.00    -0.000 C 
BRANCH   9  10
ATOM     10  C   UNL     1      38.842  55.069  60.818  1.00  0.00    -0.000 C 
BRANCH  10  11
ATOM     11  C   UNL     1      40.244  54.463  60.647  1.00  0.00    -0.000 C 
BRANCH  11  12
ATOM     12  C   UNL     1      41.263  55.477  60.106  1.00  0.00    -0.003 C 
ATOM     13  C   UNL     1      42.427  54.811  59.372  1.00  0.00     0.004 C 
ENDBRANCH  11  12
ENDBRANCH  10  11
ENDBRANCH   9  10
ENDBRANCH   8   9
ENDBRANCH   1   8
TORSDOF 9
ENDMDL
MODEL 7
REMARK VINA RESULT:    -5.097      2.951      6.936
REMARK INTER + INTRA:          -8.109
REMARK INTER:                  -7.651
REMARK INTRA:                  -0.458
REMARK UNBOUND:                -0.331
REMARK SMILES CCCCCCCCCCC(=O)[O-]
REMARK SMILES IDX 7 1 8 2 9 3 10 4 11 5 12 6 13 7 6 8 5 9 4 10 3 11 2 12 1 13
REMARK H PARENT
REMARK Flexibility Score: inf
ROOT
ATOM      1  C   UNL     1      36.139  55.392  59.803  1.00  0.00     0.000 C 
ENDROOT
BRANCH   1   2
ATOM      2  C   UNL     1      37.351  56.299  59.531  1.00  0.00     0.000 C 
BRANCH   2   3
ATOM      3  C   UNL     1      38.340  56.336  60.709  1.00  0.00     0.006 C 
BRANCH   3   4
ATOM      4  C   UNL     1      39.722  55.791  60.321  1.00  0.00     0.053 C 
BRANCH   4   5
ATOM      5  C   UNL     1      39.893  54.359  60.726  1.00  0.00     0.041 C 
ATOM      6  O   UNL     1      38.945  53.740  61.276  1.00  0.00    -0.550 OA
ATOM      7  O   UNL     1      41.108  53.718  60.525  1.00  0.00    -0.550 OA
ENDBRANCH   4   5
ENDBRANCH   3   4
ENDBRANCH   2   3
ENDBRANCH   1   2
BRANCH   1   8
ATOM      8  C   UNL     1      35.841  54.437  58.635  1.00  0.00     0.000 C 
BRANCH   8   9
ATOM      9  C   UNL     1      36.045  52.961  59.012  1.00  0.00    -0.000 C 
BRANCH   9  10
ATOM     10  C   UNL     1      35.309  51.998  58.067  1.00  0.00    -0.000 C 
BRANCH  10  11
ATOM     11  C   UNL     1      33.801  52.293  58.052  1.00  0.00    -0.000 C 
BRANCH  11  12
ATOM     12  C   UNL     1      32.949  51.018  58.137  1.00  0.00    -0.003 C 
ATOM     13  C   UNL     1      31.644  51.230  58.905  1.00  0.00     0.004 C 
ENDBRANCH  11  12
ENDBRANCH  10  11
ENDBRANCH   9  10
ENDBRANCH   8   9
ENDBRANCH   1   8
TORSDOF 9
ENDMDL
MODEL 8
REMARK VINA RESULT:    -5.096      2.284      3.782
REMARK INTER + INTRA:          -8.108
REMARK INTER:                  -7.184
REMARK INTRA:                  -0.924
REMARK UNBOUND:                -0.331
REMARK SMILES CCCCCCCCCCC(=O)[O-]
REMARK SMILES IDX 7 1 8 2 9 3 10 4 11 5 12 6 13 7 6 8 5 9 4 10 3 11 2 12 1 13
REMARK H PARENT
REMARK Flexibility Score: inf
ROOT
ATOM      1  C   UNL     1      39.484  57.652  58.895  1.00  0.00     0.000 C 
ENDROOT
BRANCH   1   2
ATOM      2  C   UNL     1      39.673  57.149  60.337  1.00  0.00     0.000 C 
BRANCH   2   3
ATOM      3  C   UNL     1      38.756  55.960  60.673  1.00  0.00     0.006 C 
BRANCH   3   4
ATOM      4  C   UNL     1      37.422  56.027  59.918  1.00  0.00     0.053 C 
BRANCH   4   5
ATOM      5  C   UNL     1      36.841  54.666  59.686  1.00  0.00     0.041 C 
ATOM      6  O   UNL     1      35.808  54.531  58.980  1.00  0.00    -0.550 OA
ATOM      7  O   UNL     1      37.423  53.551  60.275  1.00  0.00    -0.550 OA
ENDBRANCH   4   5
ENDBRANCH   3   4
ENDBRANCH   2   3
ENDBRANCH   1   2
BRANCH   1   8
ATOM      8  C   UNL     1      40.795  58.159  58.270  1.00  0.00     0.000 C 
BRANCH   8   9
ATOM      9  C   UNL     1      41.964  58.161  59.269  1.00  0.00    -0.000 C 
BRANCH   9  10
ATOM     10  C   UNL     1      42.977  57.038  59.001  1.00  0.00    -0.000 C 
BRANCH  10  11
ATOM     11  C   UNL     1      43.437  56.391  60.316  1.00  0.00    -0.000 C 
BRANCH  11  12
ATOM     12  C   UNL     1      42.956  54.940  60.461  1.00  0.00    -0.003 C 
ATOM     13  C   UNL     1      41.992  54.522  59.351  1.00  0.00     0.004 C 
ENDBRANCH  11  12
ENDBRANCH  10  11
ENDBRANCH   9  10
ENDBRANCH   8   9
ENDBRANCH   1   8
TORSDOF 9
ENDMDL
MODEL 9
REMARK VINA RESULT:    -4.930      2.590      4.936
REMARK INTER + INTRA:          -7.856
REMARK INTER:                  -6.986
REMARK INTRA:                  -0.870
REMARK UNBOUND:                -0.331
REMARK SMILES CCCCCCCCCCC(=O)[O-]
REMARK SMILES IDX 7 1 8 2 9 3 10 4 11 5 12 6 13 7 6 8 5 9 4 10 3 11 2 12 1 13
REMARK H PARENT
REMARK Flexibility Score: inf
ROOT
ATOM      1  C   UNL     1      42.531  54.902  59.300  1.00  0.00     0.000 C 
ENDROOT
BRANCH   1   2
ATOM      2  C   UNL     1      41.392  54.077  59.923  1.00  0.00     0.000 C 
BRANCH   2   3
ATOM      3  C   UNL     1      40.264  54.958  60.487  1.00  0.00     0.006 C 
BRANCH   3   4
ATOM      4  C   UNL     1      39.081  54.124  61.000  1.00  0.00     0.053 C 
BRANCH   4   5
ATOM      5  C   UNL     1      37.837  54.368  60.202  1.00  0.00     0.041 C 
ATOM      6  O   UNL     1      37.059  53.415  59.936  1.00  0.00    -0.550 OA
ATOM      7  O   UNL     1      37.553  55.641  59.725  1.00  0.00    -0.550 OA
ENDBRANCH   4   5
ENDBRANCH   3   4
ENDBRANCH   2   3
ENDBRANCH   1   2
BRANCH   1   8
ATOM      8  C   UNL     1      43.277  55.758  60.338  1.00  0.00     0.000 C 
BRANCH   8   9
ATOM      9  C   UNL     1      43.505  57.201  59.860  1.00  0.00    -0.000 C 
BRANCH   9  10
ATOM     10  C   UNL     1      43.286  57.368  58.348  1.00  0.00    -0.000 C 
BRANCH  10  11
ATOM     11  C   UNL     1      42.223  58.441  58.065  1.00  0.00    -0.000 C 
BRANCH  11  12
ATOM     12  C   UNL     1      40.934  58.223  58.870  1.00  0.00    -0.003 C 
ATOM     13  C   UNL     1      39.677  58.278  58.002  1.00  0.00     0.004 C 
ENDBRANCH  11  12
ENDBRANCH  10  11
ENDBRANCH   9  10
ENDBRANCH   8   9
ENDBRANCH   1   8
TORSDOF 9
ENDMDL
