MODEL 1
REMARK VINA RESULT:    -3.289      0.000      0.000
REMARK INTER + INTRA:          -5.934
REMARK INTER:                  -5.020
REMARK INTRA:                  -0.914
REMARK UNBOUND:                -0.914
REMARK SMILES O=C([O-])CCCCCCCCC(=O)[O-]
REMARK SMILES IDX 7 1 6 2 5 3 4 4 2 5 1 6 3 7 8 8 9 9 10 10 11 11 12 12 13 13
REMARK SMILES IDX 14 14
REMARK H PARENT
REMARK Flexibility Score: inf
ROOT
ATOM      1  C   UNL     1     -10.419  -6.153   6.444  1.00  0.00     0.000 C 
ENDROOT
BRANCH   1   2
ATOM      2  C   UNL     1      -9.118  -6.386   7.222  1.00  0.00     0.000 C 
BRANCH   2   3
ATOM      3  C   UNL     1      -8.081  -5.304   6.898  1.00  0.00     0.006 C 
BRANCH   3   4
ATOM      4  C   UNL     1      -6.720  -5.928   6.579  1.00  0.00     0.053 C 
BRANCH   4   5
ATOM      5  C   UNL     1      -6.192  -5.399   5.282  1.00  0.00     0.041 C 
ATOM      6  O   UNL     1      -6.689  -4.360   4.773  1.00  0.00    -0.550 OA
ATOM      7  O   UNL     1      -5.185  -6.081   4.612  1.00  0.00    -0.550 OA
ENDBRANCH   4   5
ENDBRANCH   3   4
ENDBRANCH   2   3
ENDBRANCH   1   2
BRANCH   1   8
ATOM      8  C   UNL     1     -10.606  -7.213   5.352  1.00  0.00     0.000 C 
BRANCH   8   9
ATOM      9  C   UNL     1     -10.673  -6.563   3.961  1.00  0.00     0.000 C 
BRANCH   9  10
ATOM     10  C   UNL     1      -9.284  -6.214   3.404  1.00  0.00     0.006 C 
BRANCH  10  11
ATOM     11  C   UNL     1      -8.363  -7.437   3.302  1.00  0.00     0.053 C 
BRANCH  11  12
ATOM     12  C   UNL     1      -8.507  -8.089   1.963  1.00  0.00     0.041 C 
ATOM     13  O   UNL     1      -7.800  -7.709   0.994  1.00  0.00    -0.550 OA
ATOM     14  O   UNL     1      -9.389  -9.149   1.798  1.00  0.00    -0.550 OA
ENDBRANCH  11  12
ENDBRANCH  10  11
ENDBRANCH   9  10
ENDBRANCH   8   9
ENDBRANCH   1   8
TORSDOF 9
ENDMDL
MODEL 2
REMARK VINA RESULT:    -3.271     12.548     14.348
REMARK INTER + INTRA:          -5.907
REMARK INTER:                  -5.337
REMARK INTRA:                  -0.570
REMARK UNBOUND:                -0.914
REMARK SMILES O=C([O-])CCCCCCCCC(=O)[O-]
REMARK SMILES IDX 7 1 6 2 5 3 4 4 2 5 1 6 3 7 8 8 9 9 10 10 11 11 12 12 13 13
REMARK SMILES IDX 14 14
REMARK H PARENT
REMARK Flexibility Score: inf
ROOT
ATOM      1  C   UNL     1       3.192  -2.834  -3.295  1.00  0.00     0.000 C 
ENDROOT
BRANCH   1   2
ATOM      2  C   UNL     1       4.564  -2.236  -2.958  1.00  0.00     0.000 C 
BRANCH   2   3
ATOM      3  C   UNL     1       4.512  -0.704  -2.959  1.00  0.00     0.006 C 
BRANCH   3   4
ATOM      4  C   UNL     1       5.541  -0.121  -3.931  1.00  0.00     0.053 C 
BRANCH   4   5
ATOM      5  C   UNL     1       4.857   0.516  -5.099  1.00  0.00     0.041 C 
ATOM      6  O   UNL     1       3.604   0.458  -5.208  1.00  0.00    -0.550 OA
ATOM      7  O   UNL     1       5.607   1.130  -6.094  1.00  0.00    -0.550 OA
ENDBRANCH   4   5
ENDBRANCH   3   4
ENDBRANCH   2   3
ENDBRANCH   1   2
BRANCH   1   8
ATOM      8  C   UNL     1       2.063  -1.858  -2.940  1.00  0.00     0.000 C 
BRANCH   8   9
ATOM      9  C   UNL     1       0.994  -2.544  -2.077  1.00  0.00     0.000 C 
BRANCH   9  10
ATOM     10  C   UNL     1       0.703  -3.984  -2.529  1.00  0.00     0.006 C 
BRANCH  10  11
ATOM     11  C   UNL     1       0.892  -5.007  -1.401  1.00  0.00     0.053 C 
BRANCH  11  12
ATOM     12  C   UNL     1      -0.339  -5.084  -0.555  1.00  0.00     0.041 C 
ATOM     13  O   UNL     1      -1.447  -5.383  -1.073  1.00  0.00    -0.550 OA
ATOM     14  O   UNL     1      -0.255  -4.873   0.816  1.00  0.00    -0.550 OA
ENDBRANCH  11  12
ENDBRANCH  10  11
ENDBRANCH   9  10
ENDBRANCH   8   9
ENDBRANCH   1   8
TORSDOF 9
ENDMDL
MODEL 3
REMARK VINA RESULT:    -3.262     11.069     14.139
REMARK INTER + INTRA:          -5.892
REMARK INTER:                  -5.390
REMARK INTRA:                  -0.502
REMARK UNBOUND:                -0.914
REMARK SMILES O=C([O-])CCCCCCCCC(=O)[O-]
REMARK SMILES IDX 7 1 6 2 5 3 4 4 2 5 1 6 3 7 8 8 9 9 10 10 11 11 12 12 13 13
REMARK SMILES IDX 14 14
REMARK H PARENT
REMARK Flexibility Score: inf
ROOT
ATOM      1  C   UNL     1       1.919  -0.012   9.189  1.00  0.00     0.000 C 
ENDROOT
BRANCH   1   2
ATOM      2  C   UNL     1       1.125  -1.316   9.039  1.00  0.00     0.000 C 
BRANCH   2   3
ATOM      3  C   UNL     1       0.033  -1.175   7.971  1.00  0.00     0.006 C 
BRANCH   3   4
ATOM      4  C   UNL     1      -0.247   0.298   7.664  1.00  0.00     0.053 C 
BRANCH   4   5
ATOM      5  C   UNL     1      -1.476   0.759   8.384  1.00  0.00     0.041 C 
ATOM      6  O   UNL     1      -1.472   1.853   9.006  1.00  0.00    -0.550 OA
ATOM      7  O   UNL     1      -2.609  -0.044   8.408  1.00  0.00    -0.550 OA
ENDBRANCH   4   5
ENDBRANCH   3   4
ENDBRANCH   2   3
ENDBRANCH   1   2
BRANCH   1   8
ATOM      8  C   UNL     1       3.376  -0.295   9.573  1.00  0.00     0.000 C 
BRANCH   8   9
ATOM      9  C   UNL     1       4.258   0.940   9.332  1.00  0.00     0.000 C 
BRANCH   9  10
ATOM     10  C   UNL     1       3.489   2.097   8.677  1.00  0.00     0.006 C 
BRANCH  10  11
ATOM     11  C   UNL     1       4.300   2.798   7.578  1.00  0.00     0.053 C 
BRANCH  11  12
ATOM     12  C   UNL     1       3.469   3.846   6.906  1.00  0.00     0.041 C 
ATOM     13  O   UNL     1       2.220   3.709   6.826  1.00  0.00    -0.550 OA
ATOM     14  O   UNL     1       4.069   4.997   6.412  1.00  0.00    -0.550 OA
ENDBRANCH  11  12
ENDBRANCH  10  11
ENDBRANCH   9  10
ENDBRANCH   8   9
ENDBRANCH   1   8
TORSDOF 9
ENDMDL
MODEL 4
REMARK VINA RESULT:    -3.261     12.323     14.352
REMARK INTER + INTRA:          -5.890
REMARK INTER:                  -5.412
REMARK INTRA:                  -0.478
REMARK UNBOUND:                -0.914
REMARK SMILES O=C([O-])CCCCCCCCC(=O)[O-]
REMARK SMILES IDX 7 1 6 2 5 3 4 4 2 5 1 6 3 7 8 8 9 9 10 10 11 11 12 12 13 13
REMARK SMILES IDX 14 14
REMARK H PARENT
REMARK Flexibility Score: inf
ROOT
ATOM      1  C   UNL     1       0.540  -1.903  -3.855  1.00  0.00     0.000 C 
ENDROOT
BRANCH   1   2
ATOM      2  C   UNL     1       0.054  -3.159  -3.121  1.00  0.00     0.000 C 
BRANCH   2   3
ATOM      3  C   UNL     1       0.841  -3.378  -1.823  1.00  0.00     0.006 C 
BRANCH   3   4
ATOM      4  C   UNL     1       0.905  -4.865  -1.464  1.00  0.00     0.053 C 
BRANCH   4   5
ATOM      5  C   UNL     1      -0.241  -5.240  -0.577  1.00  0.00     0.041 C 
ATOM      6  O   UNL     1      -0.286  -4.822   0.610  1.00  0.00    -0.550 OA
ATOM      7  O   UNL     1      -1.233  -6.091  -1.046  1.00  0.00    -0.550 OA
ENDBRANCH   4   5
ENDBRANCH   3   4
ENDBRANCH   2   3
ENDBRANCH   1   2
BRANCH   1   8
ATOM      8  C   UNL     1       1.557  -1.129  -3.008  1.00  0.00     0.000 C 
BRANCH   8   9
ATOM      9  C   UNL     1       2.866  -0.912  -3.783  1.00  0.00     0.000 C 
BRANCH   9  10
ATOM     10  C   UNL     1       4.112  -1.106  -2.906  1.00  0.00     0.006 C 
BRANCH  10  11
ATOM     11  C   UNL     1       5.339  -0.362  -3.449  1.00  0.00     0.053 C 
BRANCH  11  12
ATOM     12  C   UNL     1       5.997  -1.161  -4.529  1.00  0.00     0.041 C 
ATOM     13  O   UNL     1       6.564  -0.580  -5.492  1.00  0.00    -0.550 OA
ATOM     14  O   UNL     1       6.028  -2.547  -4.448  1.00  0.00    -0.550 OA
ENDBRANCH  11  12
ENDBRANCH  10  11
ENDBRANCH   9  10
ENDBRANCH   8   9
ENDBRANCH   1   8
TORSDOF 9
ENDMDL
MODEL 5
REMARK VINA RESULT:    -3.236     11.134     13.811
REMARK INTER + INTRA:          -5.853
REMARK INTER:                  -5.348
REMARK INTRA:                  -0.505
REMARK UNBOUND:                -0.914
REMARK SMILES O=C([O-])CCCCCCCCC(=O)[O-]
REMARK SMILES IDX 7 1 6 2 5 3 4 4 2 5 1 6 3 7 8 8 9 9 10 10 11 11 12 12 13 13
REMARK SMILES IDX 14 14
REMARK H PARENT
REMARK Flexibility Score: inf
ROOT
ATOM      1  C   UNL     1       3.523  -0.278   9.634  1.00  0.00     0.000 C 
ENDROOT
BRANCH   1   2
ATOM      2  C   UNL     1       4.252   1.043   9.358  1.00  0.00     0.000 C 
BRANCH   2   3
ATOM      3  C   UNL     1       3.465   1.910   8.368  1.00  0.00     0.006 C 
BRANCH   3   4
ATOM      4  C   UNL     1       4.400   2.839   7.589  1.00  0.00     0.053 C 
BRANCH   4   5
ATOM      5  C   UNL     1       3.627   3.960   6.968  1.00  0.00     0.041 C 
ATOM      6  O   UNL     1       4.231   4.903   6.392  1.00  0.00    -0.550 OA
ATOM      7  O   UNL     1       2.242   3.989   7.069  1.00  0.00    -0.550 OA
ENDBRANCH   4   5
ENDBRANCH   3   4
ENDBRANCH   2   3
ENDBRANCH   1   2
BRANCH   1   8
ATOM      8  C   UNL     1       2.032  -0.165   9.295  1.00  0.00     0.000 C 
BRANCH   8   9
ATOM      9  C   UNL     1       1.473  -1.515   8.819  1.00  0.00     0.000 C 
BRANCH   9  10
ATOM     10  C   UNL     1       0.063  -1.393   8.221  1.00  0.00     0.006 C 
BRANCH  10  11
ATOM     11  C   UNL     1      -0.251   0.027   7.730  1.00  0.00     0.053 C 
BRANCH  11  12
ATOM     12  C   UNL     1      -1.406   0.598   8.490  1.00  0.00     0.041 C 
ATOM     13  O   UNL     1      -2.584   0.416   8.084  1.00  0.00    -0.550 OA
ATOM     14  O   UNL     1      -1.186   1.289   9.675  1.00  0.00    -0.550 OA
ENDBRANCH  11  12
ENDBRANCH  10  11
ENDBRANCH   9  10
ENDBRANCH   8   9
ENDBRANCH   1   8
TORSDOF 9
ENDMDL
MODEL 6
REMARK VINA RESULT:    -3.222     12.141     15.174
REMARK INTER + INTRA:          -5.832
REMARK INTER:                  -5.225
REMARK INTRA:                  -0.607
REMARK UNBOUND:                -0.914
REMARK SMILES O=C([O-])CCCCCCCCC(=O)[O-]
REMARK SMILES IDX 7 1 6 2 5 3 4 4 2 5 1 6 3 7 8 8 9 9 10 10 11 11 12 12 13 13
REMARK SMILES IDX 14 14
REMARK H PARENT
REMARK Flexibility Score: inf
ROOT
ATOM      1  C   UNL     1       2.460   0.353   9.839  1.00  0.00     0.000 C 
ENDROOT
BRANCH   1   2
ATOM      2  C   UNL     1       2.040  -0.964   9.175  1.00  0.00     0.000 C 
BRANCH   2   3
ATOM      3  C   UNL     1       0.518  -1.032   9.000  1.00  0.00     0.006 C 
BRANCH   3   4
ATOM      4  C   UNL     1       0.081  -0.327   7.714  1.00  0.00     0.053 C 
BRANCH   4   5
ATOM      5  C   UNL     1      -0.787   0.850   8.031  1.00  0.00     0.041 C 
ATOM      6  O   UNL     1      -0.282   1.998   8.142  1.00  0.00    -0.550 OA
ATOM      7  O   UNL     1      -2.147   0.671   8.253  1.00  0.00    -0.550 OA
ENDBRANCH   4   5
ENDBRANCH   3   4
ENDBRANCH   2   3
ENDBRANCH   1   2
BRANCH   1   8
ATOM      8  C   UNL     1       3.654   0.981   9.111  1.00  0.00     0.000 C 
BRANCH   8   9
ATOM      9  C   UNL     1       3.244   2.282   8.402  1.00  0.00     0.000 C 
BRANCH   9  10
ATOM     10  C   UNL     1       4.361   2.848   7.512  1.00  0.00     0.006 C 
BRANCH  10  11
ATOM     11  C   UNL     1       5.659   2.033   7.602  1.00  0.00     0.053 C 
BRANCH  11  12
ATOM     12  C   UNL     1       6.798   2.912   8.013  1.00  0.00     0.041 C 
ATOM     13  O   UNL     1       7.668   3.257   7.171  1.00  0.00    -0.550 OA
ATOM     14  O   UNL     1       6.872   3.390   9.315  1.00  0.00    -0.550 OA
ENDBRANCH  11  12
ENDBRANCH  10  11
ENDBRANCH   9  10
ENDBRANCH   8   9
ENDBRANCH   1   8
TORSDOF 9
ENDMDL
MODEL 7
REMARK VINA RESULT:    -3.184     12.083     14.638
REMARK INTER + INTRA:          -5.773
REMARK INTER:                  -5.284
REMARK INTRA:                  -0.489
REMARK UNBOUND:                -0.914
REMARK SMILES O=C([O-])CCCCCCCCC(=O)[O-]
REMARK SMILES IDX 7 1 6 2 5 3 4 4 2 5 1 6 3 7 8 8 9 9 10 10 11 11 12 12 13 13
REMARK SMILES IDX 14 14
REMARK H PARENT
REMARK Flexibility Score: inf
ROOT
ATOM      1  C   UNL     1       3.576   0.909   9.125  1.00  0.00     0.000 C 
ENDROOT
BRANCH   1   2
ATOM      2  C   UNL     1       3.369   2.278   8.463  1.00  0.00     0.000 C 
BRANCH   2   3
ATOM      3  C   UNL     1       4.543   2.627   7.541  1.00  0.00     0.006 C 
BRANCH   3   4
ATOM      4  C   UNL     1       5.775   1.782   7.878  1.00  0.00     0.053 C 
BRANCH   4   5
ATOM      5  C   UNL     1       6.983   2.653   8.023  1.00  0.00     0.041 C 
ATOM      6  O   UNL     1       7.204   3.573   7.193  1.00  0.00    -0.550 OA
ATOM      7  O   UNL     1       7.891   2.417   9.048  1.00  0.00    -0.550 OA
ENDBRANCH   4   5
ENDBRANCH   3   4
ENDBRANCH   2   3
ENDBRANCH   1   2
BRANCH   1   8
ATOM      8  C   UNL     1       2.254   0.353   9.666  1.00  0.00     0.000 C 
BRANCH   8   9
ATOM      9  C   UNL     1       1.891  -0.971   8.974  1.00  0.00     0.000 C 
BRANCH   9  10
ATOM     10  C   UNL     1       0.394  -1.073   8.642  1.00  0.00     0.006 C 
BRANCH  10  11
ATOM     11  C   UNL     1      -0.055  -0.029   7.611  1.00  0.00     0.053 C 
BRANCH  11  12
ATOM     12  C   UNL     1      -1.095   0.871   8.199  1.00  0.00     0.041 C 
ATOM     13  O   UNL     1      -0.786   2.029   8.586  1.00  0.00    -0.550 OA
ATOM     14  O   UNL     1      -2.416   0.450   8.277  1.00  0.00    -0.550 OA
ENDBRANCH  11  12
ENDBRANCH  10  11
ENDBRANCH   9  10
ENDBRANCH   8   9
ENDBRANCH   1   8
TORSDOF 9
ENDMDL
MODEL 8
REMARK VINA RESULT:    -3.159      9.642     12.161
REMARK INTER + INTRA:          -5.736
REMARK INTER:                  -5.036
REMARK INTRA:                  -0.700
REMARK UNBOUND:                -0.914
REMARK SMILES O=C([O-])CCCCCCCCC(=O)[O-]
REMARK SMILES IDX 7 1 6 2 5 3 4 4 2 5 1 6 3 7 8 8 9 9 10 10 11 11 12 12 13 13
REMARK SMILES IDX 14 14
REMARK H PARENT
REMARK Flexibility Score: inf
ROOT
ATOM      1  C   UNL     1       1.589  -1.269   8.768  1.00  0.00     0.000 C 
ENDROOT
BRANCH   1   2
ATOM      2  C   UNL     1       1.807  -0.018   9.629  1.00  0.00     0.000 C 
BRANCH   2   3
ATOM      3  C   UNL     1       2.879   0.891   9.017  1.00  0.00     0.006 C 
BRANCH   3   4
ATOM      4  C   UNL     1       2.531   2.367   9.226  1.00  0.00     0.053 C 
BRANCH   4   5
ATOM      5  C   UNL     1       2.294   3.041   7.911  1.00  0.00     0.041 C 
ATOM      6  O   UNL     1       1.124   3.159   7.462  1.00  0.00    -0.550 OA
ATOM      7  O   UNL     1       3.370   3.494   7.158  1.00  0.00    -0.550 OA
ENDBRANCH   4   5
ENDBRANCH   3   4
ENDBRANCH   2   3
ENDBRANCH   1   2
BRANCH   1   8
ATOM      8  C   UNL     1       0.136  -1.361   8.287  1.00  0.00     0.000 C 
BRANCH   8   9
ATOM      9  C   UNL     1      -0.300  -0.055   7.604  1.00  0.00     0.000 C 
BRANCH   9  10
ATOM     10  C   UNL     1      -1.524   0.585   8.278  1.00  0.00     0.006 C 
BRANCH  10  11
ATOM     11  C   UNL     1      -2.172  -0.334   9.323  1.00  0.00     0.053 C 
BRANCH  11  12
ATOM     12  C   UNL     1      -3.530  -0.766   8.867  1.00  0.00     0.041 C 
ATOM     13  O   UNL     1      -4.245   0.011   8.182  1.00  0.00    -0.550 OA
ATOM     14  O   UNL     1      -3.986  -2.046   9.156  1.00  0.00    -0.550 OA
ENDBRANCH  11  12
ENDBRANCH  10  11
ENDBRANCH   9  10
ENDBRANCH   8   9
ENDBRANCH   1   8
TORSDOF 9
ENDMDL
MODEL 9
REMARK VINA RESULT:    -3.131      0.924      4.200
REMARK INTER + INTRA:          -5.693
REMARK INTER:                  -4.886
REMARK INTRA:                  -0.807
REMARK UNBOUND:                -0.914
REMARK SMILES O=C([O-])CCCCCCCCC(=O)[O-]
REMARK SMILES IDX 7 1 6 2 5 3 4 4 2 5 1 6 3 7 8 8 9 9 10 10 11 11 12 12 13 13
REMARK SMILES IDX 14 14
REMARK H PARENT
REMARK Flexibility Score: inf
ROOT
ATOM      1  C   UNL     1      -9.710  -7.101   5.986  1.00  0.00     0.000 C 
ENDROOT
BRANCH   1   2
ATOM      2  C   UNL     1     -10.823  -7.133   4.930  1.00  0.00     0.000 C 
BRANCH   2   3
ATOM      3  C   UNL     1     -10.238  -7.101   3.513  1.00  0.00     0.006 C 
BRANCH   3   4
ATOM      4  C   UNL     1      -8.793  -6.595   3.528  1.00  0.00     0.053 C 
BRANCH   4   5
ATOM      5  C   UNL     1      -7.915  -7.494   2.713  1.00  0.00     0.041 C 
ATOM      6  O   UNL     1      -6.965  -8.115   3.259  1.00  0.00    -0.550 OA
ATOM      7  O   UNL     1      -8.115  -7.606   1.344  1.00  0.00    -0.550 OA
ENDBRANCH   4   5
ENDBRANCH   3   4
ENDBRANCH   2   3
ENDBRANCH   1   2
BRANCH   1   8
ATOM      8  C   UNL     1      -9.899  -5.924   6.951  1.00  0.00     0.000 C 
BRANCH   8   9
ATOM      9  C   UNL     1      -8.552  -5.263   7.281  1.00  0.00     0.000 C 
BRANCH   9  10
ATOM     10  C   UNL     1      -7.356  -6.189   7.011  1.00  0.00     0.006 C 
BRANCH  10  11
ATOM     11  C   UNL     1      -6.052  -5.417   6.771  1.00  0.00     0.053 C 
BRANCH  11  12
ATOM     12  C   UNL     1      -5.810  -5.246   5.304  1.00  0.00     0.041 C 
ATOM     13  O   UNL     1      -5.049  -6.039   4.691  1.00  0.00    -0.550 OA
ATOM     14  O   UNL     1      -6.464  -4.240   4.604  1.00  0.00    -0.550 OA
ENDBRANCH  11  12
ENDBRANCH  10  11
ENDBRANCH   9  10
ENDBRANCH   8   9
ENDBRANCH   1   8
TORSDOF 9
ENDMDL
