MODEL 1
REMARK VINA RESULT:    -1.401      0.000      0.000
REMARK INTER + INTRA:          -1.579
REMARK INTER:                  -1.483
REMARK INTRA:                  -0.096
REMARK UNBOUND:                -0.096
REMARK SMILES C=C(C)[C@H]1CC=C(C)C(=O)C1
REMARK SMILES IDX 8 1 7 2 6 3 5 4 4 5 11 6 9 7 10 8 2 9 1 10 3 11
REMARK H PARENT
REMARK Flexibility Score: inf
ROOT
ATOM      1  C   UNL     1      90.157  26.948  14.065  1.00  0.00     0.048 C 
ATOM      2  C   UNL     1      91.174  27.000  12.958  1.00  0.00    -0.012 C 
ATOM      3  C   UNL     1      91.474  25.884  12.273  1.00  0.00    -0.019 C 
ATOM      4  C   UNL     1      92.497  25.875  11.168  1.00  0.00     0.036 C 
ATOM      5  C   UNL     1      92.520  27.223  10.422  1.00  0.00     0.025 C 
ATOM      6  C   UNL     1      92.743  28.379  11.416  1.00  0.00     0.089 C 
ATOM      7  C   UNL     1      91.753  28.303  12.545  1.00  0.00     0.158 C 
ATOM      8  O   UNL     1      91.446  29.357  13.165  1.00  0.00    -0.295 OA
ENDROOT
BRANCH   5   9
ATOM      9  C   UNL     1      93.559  27.233   9.308  1.00  0.00    -0.077 C 
ATOM     10  C   UNL     1      94.110  26.093   8.856  1.00  0.00     0.008 C 
ATOM     11  C   UNL     1      93.987  28.538   8.687  1.00  0.00     0.039 C 
ENDBRANCH   5   9
TORSDOF 1
ENDMDL
MODEL 2
REMARK VINA RESULT:    -1.318     23.907     24.695
REMARK INTER + INTRA:          -1.492
REMARK INTER:                  -1.398
REMARK INTRA:                  -0.094
REMARK UNBOUND:                -0.096
REMARK SMILES C=C(C)[C@H]1CC=C(C)C(=O)C1
REMARK SMILES IDX 8 1 7 2 6 3 5 4 4 5 11 6 9 7 10 8 2 9 1 10 3 11
REMARK H PARENT
REMARK Flexibility Score: inf
ROOT
ATOM      1  C   UNL     1      74.876  43.450   9.110  1.00  0.00     0.048 C 
ATOM      2  C   UNL     1      74.965  43.894   7.675  1.00  0.00    -0.012 C 
ATOM      3  C   UNL     1      74.956  45.204   7.379  1.00  0.00    -0.019 C 
ATOM      4  C   UNL     1      75.024  45.704   5.960  1.00  0.00     0.036 C 
ATOM      5  C   UNL     1      75.862  44.758   5.080  1.00  0.00     0.025 C 
ATOM      6  C   UNL     1      75.316  43.320   5.167  1.00  0.00     0.089 C 
ATOM      7  C   UNL     1      75.186  42.892   6.603  1.00  0.00     0.158 C 
ATOM      8  O   UNL     1      75.230  41.663   6.883  1.00  0.00    -0.295 OA
ENDROOT
BRANCH   5   9
ATOM      9  C   UNL     1      75.932  45.245   3.638  1.00  0.00    -0.077 C 
ATOM     10  C   UNL     1      74.877  45.832   3.047  1.00  0.00     0.008 C 
ATOM     11  C   UNL     1      77.202  45.075   2.844  1.00  0.00     0.039 C 
ENDBRANCH   5   9
TORSDOF 1
ENDMDL
MODEL 3
REMARK VINA RESULT:    -1.304      1.739      4.341
REMARK INTER + INTRA:          -1.476
REMARK INTER:                  -1.378
REMARK INTRA:                  -0.098
REMARK UNBOUND:                -0.096
REMARK SMILES C=C(C)[C@H]1CC=C(C)C(=O)C1
REMARK SMILES IDX 8 1 7 2 6 3 5 4 4 5 11 6 9 7 10 8 2 9 1 10 3 11
REMARK H PARENT
REMARK Flexibility Score: inf
ROOT
ATOM      1  C   UNL     1      93.984  25.877   8.695  1.00  0.00     0.048 C 
ATOM      2  C   UNL     1      93.182  26.594   9.746  1.00  0.00    -0.012 C 
ATOM      3  C   UNL     1      92.499  25.889  10.663  1.00  0.00    -0.019 C 
ATOM      4  C   UNL     1      91.666  26.555  11.726  1.00  0.00     0.036 C 
ATOM      5  C   UNL     1      92.278  27.905  12.145  1.00  0.00     0.025 C 
ATOM      6  C   UNL     1      92.481  28.806  10.911  1.00  0.00     0.089 C 
ATOM      7  C   UNL     1      93.246  28.074   9.843  1.00  0.00     0.158 C 
ATOM      8  O   UNL     1      93.915  28.736   9.004  1.00  0.00    -0.295 OA
ENDROOT
BRANCH   5   9
ATOM      9  C   UNL     1      91.440  28.597  13.212  1.00  0.00    -0.077 C 
ATOM     10  C   UNL     1      91.276  29.931  13.217  1.00  0.00     0.008 C 
ATOM     11  C   UNL     1      90.772  27.783  14.291  1.00  0.00     0.039 C 
ENDBRANCH   5   9
TORSDOF 1
ENDMDL
MODEL 4
REMARK VINA RESULT:    -1.298      1.490      4.297
REMARK INTER + INTRA:          -1.470
REMARK INTER:                  -1.376
REMARK INTRA:                  -0.094
REMARK UNBOUND:                -0.096
REMARK SMILES C=C(C)[C@H]1CC=C(C)C(=O)C1
REMARK SMILES IDX 8 1 7 2 6 3 5 4 4 5 11 6 9 7 10 8 2 9 1 10 3 11
REMARK H PARENT
REMARK Flexibility Score: inf
ROOT
ATOM      1  C   UNL     1      94.482  27.653   8.453  1.00  0.00     0.048 C 
ATOM      2  C   UNL     1      93.449  27.420   9.521  1.00  0.00    -0.012 C 
ATOM      3  C   UNL     1      93.107  26.165   9.859  1.00  0.00    -0.019 C 
ATOM      4  C   UNL     1      92.066  25.875  10.908  1.00  0.00     0.036 C 
ATOM      5  C   UNL     1      92.070  26.955  12.006  1.00  0.00     0.025 C 
ATOM      6  C   UNL     1      91.896  28.353  11.382  1.00  0.00     0.089 C 
ATOM      7  C   UNL     1      92.901  28.569  10.284  1.00  0.00     0.158 C 
ATOM      8  O   UNL     1      93.247  29.746   9.992  1.00  0.00    -0.295 OA
ENDROOT
BRANCH   5   9
ATOM      9  C   UNL     1      91.014  26.681  13.070  1.00  0.00    -0.077 C 
ATOM     10  C   UNL     1      89.751  27.120  12.931  1.00  0.00     0.008 C 
ATOM     11  C   UNL     1      91.375  25.901  14.308  1.00  0.00     0.039 C 
ENDBRANCH   5   9
TORSDOF 1
ENDMDL
MODEL 5
REMARK VINA RESULT:    -1.275      1.390      2.244
REMARK INTER + INTRA:          -1.446
REMARK INTER:                  -1.352
REMARK INTRA:                  -0.094
REMARK UNBOUND:                -0.096
REMARK SMILES C=C(C)[C@H]1CC=C(C)C(=O)C1
REMARK SMILES IDX 8 1 7 2 6 3 5 4 4 5 11 6 9 7 10 8 2 9 1 10 3 11
REMARK H PARENT
REMARK Flexibility Score: inf
ROOT
ATOM      1  C   UNL     1      91.567  29.335  14.373  1.00  0.00     0.048 C 
ATOM      2  C   UNL     1      91.820  28.738  13.016  1.00  0.00    -0.012 C 
ATOM      3  C   UNL     1      92.449  29.461  12.074  1.00  0.00    -0.019 C 
ATOM      4  C   UNL     1      92.713  28.920  10.694  1.00  0.00     0.036 C 
ATOM      5  C   UNL     1      92.950  27.399  10.731  1.00  0.00     0.025 C 
ATOM      6  C   UNL     1      91.769  26.690  11.421  1.00  0.00     0.089 C 
ATOM      7  C   UNL     1      91.487  27.315  12.759  1.00  0.00     0.158 C 
ATOM      8  O   UNL     1      90.928  26.623  13.654  1.00  0.00    -0.295 OA
ENDROOT
BRANCH   5   9
ATOM      9  C   UNL     1      93.207  26.835   9.339  1.00  0.00    -0.077 C 
ATOM     10  C   UNL     1      92.200  26.389   8.568  1.00  0.00     0.008 C 
ATOM     11  C   UNL     1      94.613  26.770   8.799  1.00  0.00     0.039 C 
ENDBRANCH   5   9
TORSDOF 1
ENDMDL
MODEL 6
REMARK VINA RESULT:    -1.229     24.182     24.885
REMARK INTER + INTRA:          -1.397
REMARK INTER:                  -1.299
REMARK INTRA:                  -0.098
REMARK UNBOUND:                -0.096
REMARK SMILES C=C(C)[C@H]1CC=C(C)C(=O)C1
REMARK SMILES IDX 8 1 7 2 6 3 5 4 4 5 11 6 9 7 10 8 2 9 1 10 3 11
REMARK H PARENT
REMARK Flexibility Score: inf
ROOT
ATOM      1  C   UNL     1      75.732  45.248   7.461  1.00  0.00     0.048 C 
ATOM      2  C   UNL     1      75.789  44.964   5.985  1.00  0.00    -0.012 C 
ATOM      3  C   UNL     1      74.875  45.506   5.164  1.00  0.00    -0.019 C 
ATOM      4  C   UNL     1      74.875  45.241   3.681  1.00  0.00     0.036 C 
ATOM      5  C   UNL     1      76.308  45.041   3.154  1.00  0.00     0.025 C 
ATOM      6  C   UNL     1      77.019  43.927   3.947  1.00  0.00     0.089 C 
ATOM      7  C   UNL     1      76.924  44.188   5.425  1.00  0.00     0.158 C 
ATOM      8  O   UNL     1      77.803  43.708   6.191  1.00  0.00    -0.295 OA
ENDROOT
BRANCH   5   9
ATOM      9  C   UNL     1      76.324  44.760   1.657  1.00  0.00    -0.077 C 
ATOM     10  C   UNL     1      77.313  44.049   1.089  1.00  0.00     0.008 C 
ATOM     11  C   UNL     1      75.214  45.281   0.780  1.00  0.00     0.039 C 
ENDBRANCH   5   9
TORSDOF 1
ENDMDL
MODEL 7
REMARK VINA RESULT:    -1.219      2.063      4.255
REMARK INTER + INTRA:          -1.387
REMARK INTER:                  -1.295
REMARK INTRA:                  -0.092
REMARK UNBOUND:                -0.096
REMARK SMILES C=C(C)[C@H]1CC=C(C)C(=O)C1
REMARK SMILES IDX 8 1 7 2 6 3 5 4 4 5 11 6 9 7 10 8 2 9 1 10 3 11
REMARK H PARENT
REMARK Flexibility Score: inf
ROOT
ATOM      1  C   UNL     1      93.333  25.875   9.492  1.00  0.00     0.048 C 
ATOM      2  C   UNL     1      92.779  26.918  10.423  1.00  0.00    -0.012 C 
ATOM      3  C   UNL     1      92.186  26.544  11.569  1.00  0.00    -0.019 C 
ATOM      4  C   UNL     1      91.598  27.544  12.529  1.00  0.00     0.036 C 
ATOM      5  C   UNL     1      92.393  28.863  12.511  1.00  0.00     0.025 C 
ATOM      6  C   UNL     1      92.484  29.414  11.075  1.00  0.00     0.089 C 
ATOM      7  C   UNL     1      92.997  28.358  10.136  1.00  0.00     0.158 C 
ATOM      8  O   UNL     1      93.586  28.711   9.078  1.00  0.00    -0.295 OA
ENDROOT
BRANCH   5   9
ATOM      9  C   UNL     1      91.803  29.890  13.470  1.00  0.00    -0.077 C 
ATOM     10  C   UNL     1      91.831  29.701  14.800  1.00  0.00     0.008 C 
ATOM     11  C   UNL     1      91.174  31.150  12.933  1.00  0.00     0.039 C 
ENDBRANCH   5   9
TORSDOF 1
ENDMDL
MODEL 8
REMARK VINA RESULT:    -1.210      4.159      6.369
REMARK INTER + INTRA:          -1.377
REMARK INTER:                  -1.280
REMARK INTRA:                  -0.097
REMARK UNBOUND:                -0.096
REMARK SMILES C=C(C)[C@H]1CC=C(C)C(=O)C1
REMARK SMILES IDX 8 1 7 2 6 3 5 4 4 5 11 6 9 7 10 8 2 9 1 10 3 11
REMARK H PARENT
REMARK Flexibility Score: inf
ROOT
ATOM      1  C   UNL     1      92.997  31.158  11.378  1.00  0.00     0.048 C 
ATOM      2  C   UNL     1      93.302  30.785  12.803  1.00  0.00    -0.012 C 
ATOM      3  C   UNL     1      94.491  31.108  13.338  1.00  0.00    -0.019 C 
ATOM      4  C   UNL     1      94.856  30.743  14.753  1.00  0.00     0.036 C 
ATOM      5  C   UNL     1      93.614  30.749  15.665  1.00  0.00     0.025 C 
ATOM      6  C   UNL     1      92.522  29.828  15.087  1.00  0.00     0.089 C 
ATOM      7  C   UNL     1      92.248  30.173  13.649  1.00  0.00     0.158 C 
ATOM      8  O   UNL     1      91.119  29.901  13.157  1.00  0.00    -0.295 OA
ENDROOT
BRANCH   5   9
ATOM      9  C   UNL     1      93.966  30.371  17.098  1.00  0.00    -0.077 C 
ATOM     10  C   UNL     1      93.262  29.443  17.769  1.00  0.00     0.008 C 
ATOM     11  C   UNL     1      95.125  31.039  17.792  1.00  0.00     0.039 C 
ENDBRANCH   5   9
TORSDOF 1
ENDMDL
MODEL 9
REMARK VINA RESULT:    -1.182     22.823     23.644
REMARK INTER + INTRA:          -1.347
REMARK INTER:                  -1.250
REMARK INTRA:                  -0.097
REMARK UNBOUND:                -0.096
REMARK SMILES C=C(C)[C@H]1CC=C(C)C(=O)C1
REMARK SMILES IDX 8 1 7 2 6 3 5 4 4 5 11 6 9 7 10 8 2 9 1 10 3 11
REMARK H PARENT
REMARK Flexibility Score: inf
ROOT
ATOM      1  C   UNL     1      75.653  39.522   7.615  1.00  0.00     0.048 C 
ATOM      2  C   UNL     1      75.639  40.879   6.966  1.00  0.00    -0.012 C 
ATOM      3  C   UNL     1      75.824  40.989   5.640  1.00  0.00    -0.019 C 
ATOM      4  C   UNL     1      75.838  42.323   4.942  1.00  0.00     0.036 C 
ATOM      5  C   UNL     1      74.893  43.322   5.636  1.00  0.00     0.025 C 
ATOM      6  C   UNL     1      75.245  43.441   7.131  1.00  0.00     0.089 C 
ATOM      7  C   UNL     1      75.301  42.080   7.770  1.00  0.00     0.158 C 
ATOM      8  O   UNL     1      75.092  41.975   9.010  1.00  0.00    -0.295 OA
ENDROOT
BRANCH   5   9
ATOM      9  C   UNL     1      74.905  44.681   4.947  1.00  0.00    -0.077 C 
ATOM     10  C   UNL     1      74.922  45.823   5.655  1.00  0.00     0.008 C 
ATOM     11  C   UNL     1      74.901  44.764   3.442  1.00  0.00     0.039 C 
ENDBRANCH   5   9
TORSDOF 1
ENDMDL
