MODEL 1
REMARK VINA RESULT:    -3.910      0.000      0.000
REMARK INTER + INTRA:          -4.557
REMARK INTER:                  -4.710
REMARK INTRA:                   0.153
REMARK UNBOUND:                 0.153
REMARK SMILES O=c1c(O)c(-c2ccc(O)c(O)c2)oc2cc(O)cc(O)c12
REMARK SMILES IDX 5 1 3 2 2 3 1 4 22 5 20 6 19 7 17 8 16 9 15 10 14 11 6 12
REMARK SMILES IDX 7 13 8 14 9 15 13 16 11 17 10 18 12 20 4 22 21 24 18 26
REMARK H PARENT 10 19 12 21 4 23 21 25 18 27
REMARK Flexibility Score: inf
ROOT
ATOM      1  C   UNL     1      22.113  44.634  29.907  1.00  0.00     0.180 A 
ATOM      2  C   UNL     1      22.612  45.346  28.799  1.00  0.00     0.208 A 
ATOM      3  C   UNL     1      22.629  44.720  27.543  1.00  0.00     0.238 A 
ATOM      4  O   UNL     1      23.064  45.351  26.543  1.00  0.00    -0.285 OA
ATOM      5  C   UNL     1      22.169  43.393  27.419  1.00  0.00     0.111 A 
ATOM      6  C   UNL     1      22.156  42.690  26.191  1.00  0.00     0.134 A 
ATOM      7  C   UNL     1      21.690  41.367  26.150  1.00  0.00     0.093 A 
ATOM      8  C   UNL     1      21.238  40.736  27.314  1.00  0.00     0.123 A 
ATOM      9  C   UNL     1      21.248  41.425  28.528  1.00  0.00     0.094 A 
ATOM     10  C   UNL     1      21.707  42.745  28.589  1.00  0.00     0.146 A 
ATOM     11  O   UNL     1      21.700  43.379  29.755  1.00  0.00    -0.452 OA
ENDROOT
BRANCH   1  12
ATOM     12  C   UNL     1      22.043  45.232  31.260  1.00  0.00     0.025 A 
ATOM     13  C   UNL     1      23.125  45.988  31.738  1.00  0.00     0.016 A 
ATOM     14  C   UNL     1      23.090  46.545  33.019  1.00  0.00     0.051 A 
ATOM     15  C   UNL     1      21.979  46.341  33.847  1.00  0.00     0.157 A 
ATOM     16  C   UNL     1      20.938  45.012  32.103  1.00  0.00     0.062 A 
ATOM     17  C   UNL     1      20.900  45.566  33.388  1.00  0.00     0.158 A 
BRANCH  15  18
ATOM     18  O   UNL     1      21.946  46.899  35.125  1.00  0.00    -0.504 OA
ATOM     19  H   UNL     1      21.415  47.737  35.324  1.00  0.00     0.293 HD
ENDBRANCH  15  18
BRANCH  17  20
ATOM     20  O   UNL     1      19.787  45.333  34.194  1.00  0.00    -0.504 OA
ATOM     21  H   UNL     1      19.029  44.728  33.901  1.00  0.00     0.293 HD
ENDBRANCH  17  20
ENDBRANCH   1  12
BRANCH   2  22
ATOM     22  O   UNL     1      23.109  46.642  28.959  1.00  0.00    -0.502 OA
ATOM     23  H   UNL     1      22.989  47.359  28.253  1.00  0.00     0.293 HD
ENDBRANCH   2  22
BRANCH   6  24
ATOM     24  O   UNL     1      22.603  43.292  25.014  1.00  0.00    -0.507 OA
ATOM     25  H   UNL     1      23.202  42.803  24.358  1.00  0.00     0.293 HD
ENDBRANCH   6  24
BRANCH   8  26
ATOM     26  O   UNL     1      20.776  39.422  27.276  1.00  0.00    -0.508 OA
ATOM     27  H   UNL     1      21.160  38.708  27.883  1.00  0.00     0.293 HD
ENDBRANCH   8  26
TORSDOF 6
ENDMDL
MODEL 2
REMARK VINA RESULT:    -2.095      1.404      2.967
REMARK INTER + INTRA:          -2.372
REMARK INTER:                  -2.088
REMARK INTRA:                  -0.283
REMARK UNBOUND:                 0.153
REMARK SMILES O=c1c(O)c(-c2ccc(O)c(O)c2)oc2cc(O)cc(O)c12
REMARK SMILES IDX 5 1 3 2 2 3 1 4 22 5 20 6 19 7 17 8 16 9 15 10 14 11 6 12
REMARK SMILES IDX 7 13 8 14 9 15 13 16 11 17 10 18 12 20 4 22 21 24 18 26
REMARK H PARENT 10 19 12 21 4 23 21 25 18 27
REMARK Flexibility Score: inf
ROOT
ATOM      1  C   UNL     1      21.788  43.971  30.659  1.00  0.00     0.180 A 
ATOM      2  C   UNL     1      21.279  42.666  30.807  1.00  0.00     0.208 A 
ATOM      3  C   UNL     1      21.204  41.836  29.678  1.00  0.00     0.238 A 
ATOM      4  O   UNL     1      20.760  40.662  29.802  1.00  0.00    -0.285 OA
ATOM      5  C   UNL     1      21.616  42.326  28.423  1.00  0.00     0.111 A 
ATOM      6  C   UNL     1      21.569  41.555  27.237  1.00  0.00     0.134 A 
ATOM      7  C   UNL     1      21.989  42.118  26.022  1.00  0.00     0.093 A 
ATOM      8  C   UNL     1      22.455  43.437  25.973  1.00  0.00     0.123 A 
ATOM      9  C   UNL     1      22.504  44.201  27.140  1.00  0.00     0.094 A 
ATOM     10  C   UNL     1      22.091  43.657  28.360  1.00  0.00     0.146 A 
ATOM     11  O   UNL     1      22.154  44.404  29.456  1.00  0.00    -0.452 OA
ENDROOT
BRANCH   1  12
ATOM     12  C   UNL     1      21.918  44.900  31.804  1.00  0.00     0.025 A 
ATOM     13  C   UNL     1      22.979  44.737  32.709  1.00  0.00     0.016 A 
ATOM     14  C   UNL     1      23.110  45.589  33.809  1.00  0.00     0.051 A 
ATOM     15  C   UNL     1      22.174  46.608  34.028  1.00  0.00     0.157 A 
ATOM     16  C   UNL     1      20.969  45.911  32.039  1.00  0.00     0.062 A 
ATOM     17  C   UNL     1      21.096  46.766  33.141  1.00  0.00     0.158 A 
BRANCH  15  18
ATOM     18  O   UNL     1      22.308  47.458  35.125  1.00  0.00    -0.504 OA
ATOM     19  H   UNL     1      22.305  47.104  36.074  1.00  0.00     0.293 HD
ENDBRANCH  15  18
BRANCH  17  20
ATOM     20  O   UNL     1      20.140  47.761  33.339  1.00  0.00    -0.504 OA
ATOM     21  H   UNL     1      19.997  48.510  32.673  1.00  0.00     0.293 HD
ENDBRANCH  17  20
ENDBRANCH   1  12
BRANCH   2  22
ATOM     22  O   UNL     1      20.831  42.221  32.053  1.00  0.00    -0.502 OA
ATOM     23  H   UNL     1      19.914  42.455  32.414  1.00  0.00     0.293 HD
ENDBRANCH   2  22
BRANCH   6  24
ATOM     24  O   UNL     1      21.107  40.238  27.254  1.00  0.00    -0.507 OA
ATOM     25  H   UNL     1      21.723  39.454  27.072  1.00  0.00     0.293 HD
ENDBRANCH   6  24
BRANCH   8  26
ATOM     26  O   UNL     1      22.872  43.998  24.768  1.00  0.00    -0.508 OA
ATOM     27  H   UNL     1      23.393  44.866  24.740  1.00  0.00     0.293 HD
ENDBRANCH   8  26
TORSDOF 6
ENDMDL
