MODEL 1
REMARK VINA RESULT:    -4.538      0.000      0.000
REMARK INTER + INTRA:          -5.598
REMARK INTER:                  -5.333
REMARK INTRA:                  -0.265
REMARK UNBOUND:                -0.265
REMARK SMILES COc1cc2ccc(=O)oc2c(OC)c1OC
REMARK SMILES IDX 3 1 15 2 12 3 11 4 5 5 4 6 6 7 7 8 8 9 9 10 10 11 2 12 1 13
REMARK SMILES IDX 16 14 17 15 13 16 14 17
REMARK H PARENT
REMARK Flexibility Score: inf
ROOT
ATOM      1  C   UNL     1       2.287 -17.619  -5.864  1.00  0.00     0.165 A 
ATOM      2  C   UNL     1       1.702 -18.385  -6.886  1.00  0.00     0.207 A 
ATOM      3  C   UNL     1       0.568 -17.893  -7.589  1.00  0.00     0.208 A 
ATOM      4  C   UNL     1       0.042 -16.622  -7.241  1.00  0.00     0.184 A 
ATOM      5  C   UNL     1       0.645 -15.867  -6.211  1.00  0.00     0.025 A 
ATOM      6  C   UNL     1       1.756 -16.364  -5.531  1.00  0.00     0.062 A 
ATOM      7  C   UNL     1       0.107 -14.616  -5.887  1.00  0.00     0.020 A 
ATOM      8  C   UNL     1      -1.002 -14.144  -6.581  1.00  0.00     0.094 A 
ATOM      9  C   UNL     1      -1.551 -14.938  -7.589  1.00  0.00     0.336 A 
ATOM     10  O   UNL     1      -2.555 -14.534  -8.232  1.00  0.00    -0.246 OA
ATOM     11  O   UNL     1      -1.019 -16.122  -7.875  1.00  0.00    -0.419 OA
ENDROOT
BRANCH   1  12
ATOM     12  O   UNL     1       3.406 -18.148  -5.198  1.00  0.00    -0.493 OA
ATOM     13  C   UNL     1       4.386 -17.372  -4.515  1.00  0.00     0.278 C 
ENDBRANCH   1  12
BRANCH   2  14
ATOM     14  O   UNL     1       2.306 -19.632  -7.148  1.00  0.00    -0.490 OA
ATOM     15  C   UNL     1       1.920 -20.898  -6.624  1.00  0.00     0.278 C 
ENDBRANCH   2  14
BRANCH   3  16
ATOM     16  O   UNL     1       0.009 -18.688  -8.607  1.00  0.00    -0.490 OA
ATOM     17  C   UNL     1      -1.057 -19.624  -8.478  1.00  0.00     0.278 C 
ENDBRANCH   3  16
TORSDOF 3
ENDMDL
MODEL 2
REMARK VINA RESULT:    -4.483      1.728      2.446
REMARK INTER + INTRA:          -5.534
REMARK INTER:                  -5.223
REMARK INTRA:                  -0.311
REMARK UNBOUND:                -0.265
REMARK SMILES COc1cc2ccc(=O)oc2c(OC)c1OC
REMARK SMILES IDX 3 1 15 2 12 3 11 4 5 5 4 6 6 7 7 8 8 9 9 10 10 11 2 12 1 13
REMARK SMILES IDX 16 14 17 15 13 16 14 17
REMARK H PARENT
REMARK Flexibility Score: inf
ROOT
ATOM      1  C   UNL     1       1.213 -19.349  -7.811  1.00  0.00     0.165 A 
ATOM      2  C   UNL     1       0.045 -19.700  -8.508  1.00  0.00     0.207 A 
ATOM      3  C   UNL     1      -0.983 -18.738  -8.712  1.00  0.00     0.208 A 
ATOM      4  C   UNL     1      -0.808 -17.426  -8.201  1.00  0.00     0.184 A 
ATOM      5  C   UNL     1       0.375 -17.093  -7.504  1.00  0.00     0.025 A 
ATOM      6  C   UNL     1       1.373 -18.048  -7.313  1.00  0.00     0.062 A 
ATOM      7  C   UNL     1       0.524 -15.792  -7.011  1.00  0.00     0.020 A 
ATOM      8  C   UNL     1      -0.488 -14.859  -7.216  1.00  0.00     0.094 A 
ATOM      9  C   UNL     1      -1.631 -15.251  -7.913  1.00  0.00     0.336 A 
ATOM     10  O   UNL     1      -2.561 -14.426  -8.111  1.00  0.00    -0.246 OA
ATOM     11  O   UNL     1      -1.745 -16.494  -8.370  1.00  0.00    -0.419 OA
ENDROOT
BRANCH   1  12
ATOM     12  O   UNL     1       2.200 -20.334  -7.636  1.00  0.00    -0.493 OA
ATOM     13  C   UNL     1       2.468 -21.003  -6.407  1.00  0.00     0.278 C 
ENDBRANCH   1  12
BRANCH   2  14
ATOM     14  O   UNL     1      -0.024 -21.031  -8.971  1.00  0.00    -0.490 OA
ATOM     15  C   UNL     1      -0.673 -22.126  -8.335  1.00  0.00     0.278 C 
ENDBRANCH   2  14
BRANCH   3  16
ATOM     16  O   UNL     1      -2.140 -19.127  -9.414  1.00  0.00    -0.490 OA
ATOM     17  C   UNL     1      -3.377 -19.562  -8.857  1.00  0.00     0.278 C 
ENDBRANCH   3  16
TORSDOF 3
ENDMDL
MODEL 3
REMARK VINA RESULT:    -4.428      9.423     12.361
REMARK INTER + INTRA:          -5.469
REMARK INTER:                  -5.177
REMARK INTRA:                  -0.292
REMARK UNBOUND:                -0.265
REMARK SMILES COc1cc2ccc(=O)oc2c(OC)c1OC
REMARK SMILES IDX 3 1 15 2 12 3 11 4 5 5 4 6 6 7 7 8 8 9 9 10 10 11 2 12 1 13
REMARK SMILES IDX 16 14 17 15 13 16 14 17
REMARK H PARENT
REMARK Flexibility Score: inf
ROOT
ATOM      1  C   UNL     1      10.979 -17.329  -5.828  1.00  0.00     0.165 A 
ATOM      2  C   UNL     1      12.164 -16.577  -5.873  1.00  0.00     0.207 A 
ATOM      3  C   UNL     1      12.974 -16.585  -7.043  1.00  0.00     0.208 A 
ATOM      4  C   UNL     1      12.564 -17.363  -8.156  1.00  0.00     0.184 A 
ATOM      5  C   UNL     1      11.368 -18.112  -8.092  1.00  0.00     0.025 A 
ATOM      6  C   UNL     1      10.586 -18.093  -6.937  1.00  0.00     0.062 A 
ATOM      7  C   UNL     1      10.985 -18.870  -9.204  1.00  0.00     0.020 A 
ATOM      8  C   UNL     1      11.784 -18.871 -10.343  1.00  0.00     0.094 A 
ATOM      9  C   UNL     1      12.953 -18.110 -10.343  1.00  0.00     0.336 A 
ATOM     10  O   UNL     1      13.694 -18.093 -11.361  1.00  0.00    -0.246 OA
ATOM     11  O   UNL     1      13.291 -17.399  -9.273  1.00  0.00    -0.419 OA
ENDROOT
BRANCH   1  12
ATOM     12  O   UNL     1      10.214 -17.289  -4.651  1.00  0.00    -0.493 OA
ATOM     13  C   UNL     1       8.987 -16.580  -4.504  1.00  0.00     0.278 C 
ENDBRANCH   1  12
BRANCH   2  14
ATOM     14  O   UNL     1      12.475 -15.842  -4.710  1.00  0.00    -0.490 OA
ATOM     15  C   UNL     1      12.140 -14.486  -4.439  1.00  0.00     0.278 C 
ENDBRANCH   2  14
BRANCH   3  16
ATOM     16  O   UNL     1      14.154 -15.819  -7.051  1.00  0.00    -0.490 OA
ATOM     17  C   UNL     1      14.286 -14.449  -7.418  1.00  0.00     0.278 C 
ENDBRANCH   3  16
TORSDOF 3
ENDMDL
MODEL 4
REMARK VINA RESULT:    -4.415      1.813      6.018
REMARK INTER + INTRA:          -5.454
REMARK INTER:                  -5.201
REMARK INTRA:                  -0.252
REMARK UNBOUND:                -0.265
REMARK SMILES COc1cc2ccc(=O)oc2c(OC)c1OC
REMARK SMILES IDX 3 1 15 2 12 3 11 4 5 5 4 6 6 7 7 8 8 9 9 10 10 11 2 12 1 13
REMARK SMILES IDX 16 14 17 15 13 16 14 17
REMARK H PARENT
REMARK Flexibility Score: inf
ROOT
ATOM      1  C   UNL     1      -2.194 -17.258  -8.812  1.00  0.00     0.165 A 
ATOM      2  C   UNL     1      -1.264 -16.463  -8.121  1.00  0.00     0.207 A 
ATOM      3  C   UNL     1      -0.039 -17.026  -7.667  1.00  0.00     0.208 A 
ATOM      4  C   UNL     1       0.224 -18.397  -7.921  1.00  0.00     0.184 A 
ATOM      5  C   UNL     1      -0.724 -19.180  -8.617  1.00  0.00     0.025 A 
ATOM      6  C   UNL     1      -1.920 -18.612  -9.056  1.00  0.00     0.062 A 
ATOM      7  C   UNL     1      -0.441 -20.529  -8.856  1.00  0.00     0.020 A 
ATOM      8  C   UNL     1       0.760 -21.070  -8.406  1.00  0.00     0.094 A 
ATOM      9  C   UNL     1       1.654 -20.244  -7.725  1.00  0.00     0.336 A 
ATOM     10  O   UNL     1       2.747 -20.708  -7.308  1.00  0.00    -0.246 OA
ATOM     11  O   UNL     1       1.358 -18.965  -7.513  1.00  0.00    -0.419 OA
ENDROOT
BRANCH   1  12
ATOM     12  O   UNL     1      -3.389 -16.657  -9.241  1.00  0.00    -0.493 OA
ATOM     13  C   UNL     1      -4.364 -17.289 -10.065  1.00  0.00     0.278 C 
ENDBRANCH   1  12
BRANCH   2  14
ATOM     14  O   UNL     1      -1.627 -15.115  -7.924  1.00  0.00    -0.490 OA
ATOM     15  C   UNL     1      -2.139 -14.532  -6.731  1.00  0.00     0.278 C 
ENDBRANCH   2  14
BRANCH   3  16
ATOM     16  O   UNL     1       0.868 -16.199  -6.979  1.00  0.00    -0.490 OA
ATOM     17  C   UNL     1       1.018 -16.075  -5.567  1.00  0.00     0.278 C 
ENDBRANCH   3  16
TORSDOF 3
ENDMDL
MODEL 5
REMARK VINA RESULT:    -4.411      1.333      5.598
REMARK INTER + INTRA:          -5.449
REMARK INTER:                  -5.166
REMARK INTRA:                  -0.283
REMARK UNBOUND:                -0.265
REMARK SMILES COc1cc2ccc(=O)oc2c(OC)c1OC
REMARK SMILES IDX 3 1 15 2 12 3 11 4 5 5 4 6 6 7 7 8 8 9 9 10 10 11 2 12 1 13
REMARK SMILES IDX 16 14 17 15 13 16 14 17
REMARK H PARENT
REMARK Flexibility Score: inf
ROOT
ATOM      1  C   UNL     1      -0.398 -16.525  -7.821  1.00  0.00     0.165 A 
ATOM      2  C   UNL     1       0.498 -16.310  -6.760  1.00  0.00     0.207 A 
ATOM      3  C   UNL     1       1.333 -17.367  -6.302  1.00  0.00     0.208 A 
ATOM      4  C   UNL     1       1.244 -18.635  -6.933  1.00  0.00     0.184 A 
ATOM      5  C   UNL     1       0.338 -18.831  -7.999  1.00  0.00     0.025 A 
ATOM      6  C   UNL     1      -0.474 -17.784  -8.435  1.00  0.00     0.062 A 
ATOM      7  C   UNL     1       0.270 -20.091  -8.604  1.00  0.00     0.020 A 
ATOM      8  C   UNL     1       1.091 -21.118  -8.148  1.00  0.00     0.094 A 
ATOM      9  C   UNL     1       1.965 -20.859  -7.092  1.00  0.00     0.336 A 
ATOM     10  O   UNL     1       2.719 -21.771  -6.661  1.00  0.00    -0.246 OA
ATOM     11  O   UNL     1       2.008 -19.653  -6.536  1.00  0.00    -0.419 OA
ENDROOT
BRANCH   1  12
ATOM     12  O   UNL     1      -1.202 -15.451  -8.237  1.00  0.00    -0.493 OA
ATOM     13  C   UNL     1      -2.574 -15.284  -7.893  1.00  0.00     0.278 C 
ENDBRANCH   1  12
BRANCH   2  14
ATOM     14  O   UNL     1       0.502 -15.013  -6.207  1.00  0.00    -0.490 OA
ATOM     15  C   UNL     1      -0.141 -14.590  -5.010  1.00  0.00     0.278 C 
ENDBRANCH   2  14
BRANCH   3  16
ATOM     16  O   UNL     1       2.217 -17.114  -5.237  1.00  0.00    -0.490 OA
ATOM     17  C   UNL     1       3.596 -16.766  -5.330  1.00  0.00     0.278 C 
ENDBRANCH   3  16
TORSDOF 3
ENDMDL
MODEL 6
REMARK VINA RESULT:    -4.402      2.101      3.549
REMARK INTER + INTRA:          -5.439
REMARK INTER:                  -5.145
REMARK INTRA:                  -0.294
REMARK UNBOUND:                -0.265
REMARK SMILES COc1cc2ccc(=O)oc2c(OC)c1OC
REMARK SMILES IDX 3 1 15 2 12 3 11 4 5 5 4 6 6 7 7 8 8 9 9 10 10 11 2 12 1 13
REMARK SMILES IDX 16 14 17 15 13 16 14 17
REMARK H PARENT
REMARK Flexibility Score: inf
ROOT
ATOM      1  C   UNL     1       0.129 -16.945  -7.804  1.00  0.00     0.165 A 
ATOM      2  C   UNL     1      -1.202 -16.841  -8.241  1.00  0.00     0.207 A 
ATOM      3  C   UNL     1      -2.088 -15.915  -7.622  1.00  0.00     0.208 A 
ATOM      4  C   UNL     1      -1.605 -15.105  -6.562  1.00  0.00     0.184 A 
ATOM      5  C   UNL     1      -0.262 -15.224  -6.139  1.00  0.00     0.025 A 
ATOM      6  C   UNL     1       0.593 -16.136  -6.756  1.00  0.00     0.062 A 
ATOM      7  C   UNL     1       0.190 -14.412  -5.092  1.00  0.00     0.020 A 
ATOM      8  C   UNL     1      -0.685 -13.511  -4.494  1.00  0.00     0.094 A 
ATOM      9  C   UNL     1      -1.998 -13.441  -4.959  1.00  0.00     0.336 A 
ATOM     10  O   UNL     1      -2.810 -12.634  -4.435  1.00  0.00    -0.246 OA
ATOM     11  O   UNL     1      -2.400 -14.224  -5.955  1.00  0.00    -0.419 OA
ENDROOT
BRANCH   1  12
ATOM     12  O   UNL     1       0.966 -17.873  -8.446  1.00  0.00    -0.493 OA
ATOM     13  C   UNL     1       1.633 -18.950  -7.794  1.00  0.00     0.278 C 
ENDBRANCH   1  12
BRANCH   2  14
ATOM     14  O   UNL     1      -1.575 -17.694  -9.299  1.00  0.00    -0.490 OA
ATOM     15  C   UNL     1      -2.161 -18.986  -9.192  1.00  0.00     0.278 C 
ENDBRANCH   2  14
BRANCH   3  16
ATOM     16  O   UNL     1      -3.414 -15.839  -8.086  1.00  0.00    -0.490 OA
ATOM     17  C   UNL     1      -4.530 -16.594  -7.623  1.00  0.00     0.278 C 
ENDBRANCH   3  16
TORSDOF 3
ENDMDL
MODEL 7
REMARK VINA RESULT:    -4.277      2.193      5.253
REMARK INTER + INTRA:          -5.291
REMARK INTER:                  -5.016
REMARK INTRA:                  -0.275
REMARK UNBOUND:                -0.265
REMARK SMILES COc1cc2ccc(=O)oc2c(OC)c1OC
REMARK SMILES IDX 3 1 15 2 12 3 11 4 5 5 4 6 6 7 7 8 8 9 9 10 10 11 2 12 1 13
REMARK SMILES IDX 16 14 17 15 13 16 14 17
REMARK H PARENT
REMARK Flexibility Score: inf
ROOT
ATOM      1  C   UNL     1      -1.116 -16.280  -8.006  1.00  0.00     0.165 A 
ATOM      2  C   UNL     1      -2.040 -17.132  -8.635  1.00  0.00     0.207 A 
ATOM      3  C   UNL     1      -1.705 -18.492  -8.885  1.00  0.00     0.208 A 
ATOM      4  C   UNL     1      -0.428 -18.968  -8.491  1.00  0.00     0.184 A 
ATOM      5  C   UNL     1       0.487 -18.097  -7.860  1.00  0.00     0.025 A 
ATOM      6  C   UNL     1       0.142 -16.767  -7.622  1.00  0.00     0.062 A 
ATOM      7  C   UNL     1       1.740 -18.592  -7.480  1.00  0.00     0.020 A 
ATOM      8  C   UNL     1       2.057 -19.923  -7.730  1.00  0.00     0.094 A 
ATOM      9  C   UNL     1       1.109 -20.733  -8.357  1.00  0.00     0.336 A 
ATOM     10  O   UNL     1       1.372 -21.941  -8.595  1.00  0.00    -0.246 OA
ATOM     11  O   UNL     1      -0.073 -20.235  -8.706  1.00  0.00    -0.419 OA
ENDROOT
BRANCH   1  12
ATOM     12  O   UNL     1      -1.493 -14.946  -7.781  1.00  0.00    -0.493 OA
ATOM     13  C   UNL     1      -1.235 -14.222  -6.581  1.00  0.00     0.278 C 
ENDBRANCH   1  12
BRANCH   2  14
ATOM     14  O   UNL     1      -3.278 -16.553  -8.984  1.00  0.00    -0.490 OA
ATOM     15  C   UNL     1      -4.500 -16.645  -8.261  1.00  0.00     0.278 C 
ENDBRANCH   2  14
BRANCH   3  16
ATOM     16  O   UNL     1      -2.656 -19.314  -9.517  1.00  0.00    -0.490 OA
ATOM     17  C   UNL     1      -3.572 -20.206  -8.889  1.00  0.00     0.278 C 
ENDBRANCH   3  16
TORSDOF 3
ENDMDL
MODEL 8
REMARK VINA RESULT:    -4.260      1.467      3.469
REMARK INTER + INTRA:          -5.272
REMARK INTER:                  -4.972
REMARK INTRA:                  -0.299
REMARK UNBOUND:                -0.265
REMARK SMILES COc1cc2ccc(=O)oc2c(OC)c1OC
REMARK SMILES IDX 3 1 15 2 12 3 11 4 5 5 4 6 6 7 7 8 8 9 9 10 10 11 2 12 1 13
REMARK SMILES IDX 16 14 17 15 13 16 14 17
REMARK H PARENT
REMARK Flexibility Score: inf
ROOT
ATOM      1  C   UNL     1       0.556 -18.853  -8.076  1.00  0.00     0.165 A 
ATOM      2  C   UNL     1       1.417 -18.726  -6.973  1.00  0.00     0.207 A 
ATOM      3  C   UNL     1       1.415 -17.534  -6.197  1.00  0.00     0.208 A 
ATOM      4  C   UNL     1       0.533 -16.482  -6.554  1.00  0.00     0.184 A 
ATOM      5  C   UNL     1      -0.327 -16.629  -7.666  1.00  0.00     0.025 A 
ATOM      6  C   UNL     1      -0.312 -17.804  -8.417  1.00  0.00     0.062 A 
ATOM      7  C   UNL     1      -1.188 -15.577  -7.998  1.00  0.00     0.020 A 
ATOM      8  C   UNL     1      -1.181 -14.416  -7.232  1.00  0.00     0.094 A 
ATOM      9  C   UNL     1      -0.309 -14.333  -6.146  1.00  0.00     0.336 A 
ATOM     10  O   UNL     1      -0.284 -13.294  -5.437  1.00  0.00    -0.246 OA
ATOM     11  O   UNL     1       0.498 -15.349  -5.854  1.00  0.00    -0.419 OA
ENDROOT
BRANCH   1  12
ATOM     12  O   UNL     1       0.594 -20.048  -8.812  1.00  0.00    -0.493 OA
ATOM     13  C   UNL     1      -0.417 -21.052  -8.784  1.00  0.00     0.278 C 
ENDBRANCH   1  12
BRANCH   2  14
ATOM     14  O   UNL     1       2.251 -19.832  -6.709  1.00  0.00    -0.490 OA
ATOM     15  C   UNL     1       2.047 -20.844  -5.730  1.00  0.00     0.278 C 
ENDBRANCH   2  14
BRANCH   3  16
ATOM     16  O   UNL     1       2.292 -17.443  -5.100  1.00  0.00    -0.490 OA
ATOM     17  C   UNL     1       3.618 -16.922  -5.101  1.00  0.00     0.278 C 
ENDBRANCH   3  16
TORSDOF 3
ENDMDL
MODEL 9
REMARK VINA RESULT:    -4.237     10.155     11.985
REMARK INTER + INTRA:          -5.245
REMARK INTER:                  -4.987
REMARK INTRA:                  -0.258
REMARK UNBOUND:                -0.265
REMARK SMILES COc1cc2ccc(=O)oc2c(OC)c1OC
REMARK SMILES IDX 3 1 15 2 12 3 11 4 5 5 4 6 6 7 7 8 8 9 9 10 10 11 2 12 1 13
REMARK SMILES IDX 16 14 17 15 13 16 14 17
REMARK H PARENT
REMARK Flexibility Score: inf
ROOT
ATOM      1  C   UNL     1      11.646 -18.156  -7.861  1.00  0.00     0.165 A 
ATOM      2  C   UNL     1      12.811 -17.377  -7.769  1.00  0.00     0.207 A 
ATOM      3  C   UNL     1      12.951 -16.418  -6.728  1.00  0.00     0.208 A 
ATOM      4  C   UNL     1      11.899 -16.265  -5.789  1.00  0.00     0.184 A 
ATOM      5  C   UNL     1      10.735 -17.059  -5.897  1.00  0.00     0.025 A 
ATOM      6  C   UNL     1      10.614 -17.994  -6.924  1.00  0.00     0.062 A 
ATOM      7  C   UNL     1       9.711 -16.888  -4.958  1.00  0.00     0.020 A 
ATOM      8  C   UNL     1       9.859 -15.948  -3.944  1.00  0.00     0.094 A 
ATOM      9  C   UNL     1      11.033 -15.195  -3.892  1.00  0.00     0.336 A 
ATOM     10  O   UNL     1      11.191 -14.338  -2.984  1.00  0.00    -0.246 OA
ATOM     11  O   UNL     1      11.988 -15.379  -4.797  1.00  0.00    -0.419 OA
ENDROOT
BRANCH   1  12
ATOM     12  O   UNL     1      11.554 -19.089  -8.907  1.00  0.00    -0.493 OA
ATOM     13  C   UNL     1      10.353 -19.415  -9.601  1.00  0.00     0.278 C 
ENDBRANCH   1  12
BRANCH   2  14
ATOM     14  O   UNL     1      13.792 -17.612  -8.755  1.00  0.00    -0.490 OA
ATOM     15  C   UNL     1      14.976 -18.390  -8.616  1.00  0.00     0.278 C 
ENDBRANCH   2  14
BRANCH   3  16
ATOM     16  O   UNL     1      14.133 -15.656  -6.668  1.00  0.00    -0.490 OA
ATOM     17  C   UNL     1      14.371 -14.392  -7.282  1.00  0.00     0.278 C 
ENDBRANCH   3  16
TORSDOF 3
ENDMDL
