MODEL 1
REMARK VINA RESULT:    -3.806      0.000      0.000
REMARK INTER + INTRA:          -5.693
REMARK INTER:                  -5.808
REMARK INTRA:                   0.116
REMARK UNBOUND:                 0.116
REMARK SMILES CC1=CCC[C@H](C)C(=O)C[C@H](C(C)C)C(=O)C1
REMARK SMILES IDX 8 1 9 2 6 3 7 4 5 5 4 6 3 7 2 8 1 9 10 11 11 12 15 13 16 14
REMARK SMILES IDX 17 15 12 17 13 18 14 19
REMARK H PARENT
REMARK Flexibility Score: 70.00
ROOT
ATOM      1  C   UNL     1       3.236  15.654  -9.035  1.00  0.00     0.136 C 
ATOM      2  O   UNL     1       2.067  15.309  -9.125  1.00  0.00    -0.299 OA
ENDROOT
BRANCH   1   3
ATOM      3  C   UNL     1       4.332  14.600  -9.090  1.00  0.00     0.053 C 
ATOM      4  C   UNL     1       5.684  15.116  -8.568  1.00  0.00     0.016 C 
BRANCH   3   5
ATOM      5  C   UNL     1       3.932  13.271  -8.409  1.00  0.00     0.015 C 
BRANCH   5   6
ATOM      6  C   UNL     1       4.064  13.199  -6.868  1.00  0.00     0.028 C 
BRANCH   6   7
ATOM      7  C   UNL     1       2.967  13.855  -6.057  1.00  0.00    -0.028 C 
ATOM      8  C   UNL     1       2.991  15.109  -5.551  1.00  0.00    -0.070 CG0
ATOM      9  C   UNL     1       1.717  15.647  -4.946  1.00  0.00     0.039 C 
ATOM     10  G   UNL     1       4.185  16.031  -5.683  1.00  0.00     0.000 G0
ENDBRANCH   6   7
ENDBRANCH   5   6
ENDBRANCH   3   5
ENDBRANCH   1   3
BRANCH   1  11
ATOM     11  C   UNL     1       3.579  17.103  -8.734  1.00  0.00     0.087 C 
BRANCH  11  12
ATOM     12  C   UNL     1       2.979  17.738  -7.440  1.00  0.00     0.066 C 
BRANCH  12  13
ATOM     13  C   UNL     1       3.769  17.435  -6.162  1.00  0.00     0.140 C 
ATOM     14  O   UNL     1       4.043  18.373  -5.426  1.00  0.00    -0.299 OA
BRANCH  13  15
ATOM     15  C   UNL     1       4.168  16.053  -5.693  1.00  0.00     0.106 CG0
ATOM     16  G   UNL     1       2.992  15.116  -5.524  1.00  0.00     0.000 G0
ENDBRANCH  13  15
ENDBRANCH  12  13
BRANCH  12  17
ATOM     17  C   UNL     1       2.565  19.244  -7.556  1.00  0.00    -0.006 C 
ATOM     18  C   UNL     1       3.522  20.034  -8.469  1.00  0.00     0.008 C 
ATOM     19  C   UNL     1       1.132  19.411  -8.094  1.00  0.00     0.008 C 
ENDBRANCH  12  17
ENDBRANCH  11  12
ENDBRANCH   1  11
TORSDOF 1
ENDMDL
MODEL 2
REMARK VINA RESULT:    -3.484      1.951      5.125
REMARK INTER + INTRA:          -5.201
REMARK INTER:                  -6.007
REMARK INTRA:                   0.806
REMARK UNBOUND:                 0.116
REMARK SMILES CC1=CCC[C@H](C)C(=O)C[C@H](C(C)C)C(=O)C1
REMARK SMILES IDX 8 1 9 2 6 3 7 4 5 5 4 6 3 7 2 8 1 9 10 11 11 12 15 13 16 14
REMARK SMILES IDX 17 15 12 17 13 18 14 19
REMARK H PARENT
REMARK Flexibility Score: 70.00
ROOT
ATOM      1  C   UNL     1       3.597  17.946  -5.723  1.00  0.00     0.136 C 
ATOM      2  O   UNL     1       4.388  17.593  -4.861  1.00  0.00    -0.299 OA
ENDROOT
BRANCH   1   3
ATOM      3  C   UNL     1       3.843  19.245  -6.475  1.00  0.00     0.053 C 
ATOM      4  C   UNL     1       4.496  19.024  -7.851  1.00  0.00     0.016 C 
BRANCH   3   5
ATOM      5  C   UNL     1       2.584  20.135  -6.581  1.00  0.00     0.015 C 
BRANCH   5   6
ATOM      6  C   UNL     1       1.971  20.326  -7.990  1.00  0.00     0.028 C 
BRANCH   6   7
ATOM      7  C   UNL     1       0.802  19.436  -8.353  1.00  0.00    -0.028 C 
ATOM      8  C   UNL     1       0.878  18.149  -8.762  1.00  0.00    -0.070 CG0
ATOM      9  C   UNL     1      -0.412  17.372  -8.880  1.00  0.00     0.039 C 
ATOM     10  G   UNL     1       2.190  17.425  -8.977  1.00  0.00     0.000 G0
ENDBRANCH   6   7
ENDBRANCH   5   6
ENDBRANCH   3   5
ENDBRANCH   1   3
BRANCH   1  11
ATOM     11  C   UNL     1       2.313  17.164  -5.941  1.00  0.00     0.087 C 
BRANCH  11  12
ATOM     12  C   UNL     1       2.397  15.853  -6.786  1.00  0.00     0.066 C 
BRANCH  12  13
ATOM     13  C   UNL     1       2.274  16.067  -8.298  1.00  0.00     0.140 C 
ATOM     14  O   UNL     1       2.161  15.076  -9.007  1.00  0.00    -0.299 OA
BRANCH  13  15
ATOM     15  C   UNL     1       2.197  17.414  -8.983  1.00  0.00     0.106 CG0
ATOM     16  G   UNL     1       0.874  18.118  -8.771  1.00  0.00     0.000 G0
ENDBRANCH  13  15
ENDBRANCH  12  13
BRANCH  12  17
ATOM     17  C   UNL     1       3.561  14.877  -6.403  1.00  0.00    -0.006 C 
ATOM     18  C   UNL     1       3.049  13.446  -6.148  1.00  0.00     0.008 C 
ATOM     19  C   UNL     1       4.648  14.817  -7.492  1.00  0.00     0.008 C 
ENDBRANCH  12  17
ENDBRANCH  11  12
ENDBRANCH   1  11
TORSDOF 1
ENDMDL
MODEL 3
REMARK VINA RESULT:    -3.483      2.244      3.325
REMARK INTER + INTRA:          -5.199
REMARK INTER:                  -5.585
REMARK INTRA:                   0.386
REMARK UNBOUND:                 0.116
REMARK SMILES CC1=CCC[C@H](C)C(=O)C[C@H](C(C)C)C(=O)C1
REMARK SMILES IDX 8 1 9 2 6 3 7 4 5 5 4 6 3 7 2 8 1 9 10 11 11 12 15 13 16 14
REMARK SMILES IDX 17 15 12 17 13 18 14 19
REMARK H PARENT
REMARK Flexibility Score: 70.00
ROOT
ATOM      1  C   UNL     1       2.620  12.945  -7.294  1.00  0.00     0.136 C 
ATOM      2  O   UNL     1       2.261  12.775  -6.138  1.00  0.00    -0.299 OA
ENDROOT
BRANCH   1   3
ATOM      3  C   UNL     1       3.064  11.748  -8.121  1.00  0.00     0.053 C 
ATOM      4  C   UNL     1       1.891  11.030  -8.811  1.00  0.00     0.016 C 
BRANCH   3   5
ATOM      5  C   UNL     1       4.190  12.087  -9.125  1.00  0.00     0.015 C 
BRANCH   5   6
ATOM      6  C   UNL     1       5.637  11.723  -8.713  1.00  0.00     0.028 C 
BRANCH   6   7
ATOM      7  C   UNL     1       5.991  11.883  -7.250  1.00  0.00    -0.028 C 
ATOM      8  C   UNL     1       6.030  13.048  -6.563  1.00  0.00    -0.070 CG0
ATOM      9  C   UNL     1       6.208  12.975  -5.066  1.00  0.00     0.039 C 
ATOM     10  G   UNL     1       5.774  14.395  -7.204  1.00  0.00     0.000 G0
ENDBRANCH   6   7
ENDBRANCH   5   6
ENDBRANCH   3   5
ENDBRANCH   1   3
BRANCH   1  11
ATOM     11  C   UNL     1       2.747  14.353  -7.850  1.00  0.00     0.087 C 
BRANCH  11  12
ATOM     12  C   UNL     1       3.290  15.463  -6.895  1.00  0.00     0.066 C 
BRANCH  12  13
ATOM     13  C   UNL     1       4.743  15.261  -6.452  1.00  0.00     0.140 C 
ATOM     14  O   UNL     1       5.088  15.755  -5.387  1.00  0.00    -0.299 OA
BRANCH  13  15
ATOM     15  C   UNL     1       5.769  14.428  -7.188  1.00  0.00     0.106 CG0
ATOM     16  G   UNL     1       5.991  13.066  -6.566  1.00  0.00     0.000 G0
ENDBRANCH  13  15
ENDBRANCH  12  13
BRANCH  12  17
ATOM     17  C   UNL     1       2.987  16.937  -7.332  1.00  0.00    -0.006 C 
ATOM     18  C   UNL     1       3.899  17.392  -8.488  1.00  0.00     0.008 C 
ATOM     19  C   UNL     1       1.522  17.122  -7.767  1.00  0.00     0.008 C 
ENDBRANCH  12  17
ENDBRANCH  11  12
ENDBRANCH   1  11
TORSDOF 1
ENDMDL
MODEL 4
REMARK VINA RESULT:    -3.389      1.580      4.331
REMARK INTER + INTRA:          -5.056
REMARK INTER:                  -5.502
REMARK INTRA:                   0.447
REMARK UNBOUND:                 0.116
REMARK SMILES CC1=CCC[C@H](C)C(=O)C[C@H](C(C)C)C(=O)C1
REMARK SMILES IDX 8 1 9 2 6 3 7 4 5 5 4 6 3 7 2 8 1 9 10 11 11 12 15 13 16 14
REMARK SMILES IDX 17 15 12 17 13 18 14 19
REMARK H PARENT
REMARK Flexibility Score: 70.00
ROOT
ATOM      1  C   UNL     1       2.120  16.476  -8.898  1.00  0.00     0.136 C 
ATOM      2  O   UNL     1       1.194  15.687  -9.008  1.00  0.00    -0.299 OA
ENDROOT
BRANCH   1   3
ATOM      3  C   UNL     1       1.832  17.970  -8.901  1.00  0.00     0.053 C 
ATOM      4  C   UNL     1       0.455  18.315  -8.307  1.00  0.00     0.016 C 
BRANCH   3   5
ATOM      5  C   UNL     1       2.956  18.807  -8.249  1.00  0.00     0.015 C 
BRANCH   5   6
ATOM      6  C   UNL     1       2.809  19.135  -6.743  1.00  0.00     0.028 C 
BRANCH   6   7
ATOM      7  C   UNL     1       3.757  18.433  -5.795  1.00  0.00    -0.028 C 
ATOM      8  C   UNL     1       3.673  17.143  -5.394  1.00  0.00    -0.070 CG0
ATOM      9  C   UNL     1       4.829  16.575  -4.607  1.00  0.00     0.039 C 
ATOM     10  G   UNL     1       2.546  16.220  -5.808  1.00  0.00     0.000 G0
ENDBRANCH   6   7
ENDBRANCH   5   6
ENDBRANCH   3   5
ENDBRANCH   1   3
BRANCH   1  11
ATOM     11  C   UNL     1       3.552  15.970  -8.894  1.00  0.00     0.087 C 
BRANCH  11  12
ATOM     12  C   UNL     1       3.966  14.970  -7.768  1.00  0.00     0.066 C 
BRANCH  12  13
ATOM     13  C   UNL     1       3.037  14.971  -6.550  1.00  0.00     0.140 C 
ATOM     14  O   UNL     1       2.714  13.889  -6.078  1.00  0.00    -0.299 OA
BRANCH  13  15
ATOM     15  C   UNL     1       2.549  16.208  -5.828  1.00  0.00     0.106 CG0
ATOM     16  G   UNL     1       3.671  17.124  -5.386  1.00  0.00     0.000 G0
ENDBRANCH  13  15
ENDBRANCH  12  13
BRANCH  12  17
ATOM     17  C   UNL     1       4.335  13.526  -8.250  1.00  0.00    -0.006 C 
ATOM     18  C   UNL     1       3.226  12.911  -9.124  1.00  0.00     0.008 C 
ATOM     19  C   UNL     1       5.653  13.500  -9.046  1.00  0.00     0.008 C 
ENDBRANCH  12  17
ENDBRANCH  11  12
ENDBRANCH   1  11
TORSDOF 1
ENDMDL
MODEL 5
REMARK VINA RESULT:    -3.081      1.481      2.019
REMARK INTER + INTRA:          -4.587
REMARK INTER:                  -5.015
REMARK INTRA:                   0.428
REMARK UNBOUND:                 0.116
REMARK SMILES CC1=CCC[C@H](C)C(=O)C[C@H](C(C)C)C(=O)C1
REMARK SMILES IDX 8 1 9 2 6 3 7 4 5 5 4 6 3 7 2 8 1 9 10 11 11 12 15 13 16 14
REMARK SMILES IDX 17 15 12 17 13 18 14 19
REMARK H PARENT
REMARK Flexibility Score: 70.00
ROOT
ATOM      1  C   UNL     1       3.042  14.073  -8.342  1.00  0.00     0.136 C 
ATOM      2  O   UNL     1       2.142  13.424  -7.830  1.00  0.00    -0.299 OA
ENDROOT
BRANCH   1   3
ATOM      3  C   UNL     1       4.488  13.680  -8.081  1.00  0.00     0.053 C 
ATOM      4  C   UNL     1       5.496  14.671  -8.689  1.00  0.00     0.016 C 
BRANCH   3   5
ATOM      5  C   UNL     1       4.786  13.413  -6.588  1.00  0.00     0.015 C 
BRANCH   5   6
ATOM      6  C   UNL     1       4.735  14.628  -5.630  1.00  0.00     0.028 C 
BRANCH   6   7
ATOM      7  C   UNL     1       3.367  15.059  -5.146  1.00  0.00    -0.028 C 
ATOM      8  C   UNL     1       2.789  16.263  -5.363  1.00  0.00    -0.070 CG0
ATOM      9  C   UNL     1       1.340  16.427  -4.973  1.00  0.00     0.039 C 
ATOM     10  G   UNL     1       3.483  17.395  -6.090  1.00  0.00     0.000 G0
ENDBRANCH   6   7
ENDBRANCH   5   6
ENDBRANCH   3   5
ENDBRANCH   1   3
BRANCH   1  11
ATOM     11  C   UNL     1       2.719  15.338  -9.119  1.00  0.00     0.087 C 
BRANCH  11  12
ATOM     12  C   UNL     1       2.221  16.578  -8.310  1.00  0.00     0.066 C 
BRANCH  12  13
ATOM     13  C   UNL     1       3.329  17.336  -7.571  1.00  0.00     0.140 C 
ATOM     14  O   UNL     1       4.123  17.982  -8.241  1.00  0.00    -0.299 OA
BRANCH  13  15
ATOM     15  C   UNL     1       3.473  17.418  -6.067  1.00  0.00     0.106 CG0
ATOM     16  G   UNL     1       2.796  16.276  -5.339  1.00  0.00     0.000 G0
ENDBRANCH  13  15
ENDBRANCH  12  13
BRANCH  12  17
ATOM     17  C   UNL     1       1.238  17.531  -9.072  1.00  0.00    -0.006 C 
ATOM     18  C   UNL     1      -0.196  16.968  -9.106  1.00  0.00     0.008 C 
ATOM     19  C   UNL     1       1.194  18.938  -8.448  1.00  0.00     0.008 C 
ENDBRANCH  12  17
ENDBRANCH  11  12
ENDBRANCH   1  11
TORSDOF 1
ENDMDL
MODEL 6
REMARK VINA RESULT:    -2.975      1.666      3.282
REMARK INTER + INTRA:          -4.424
REMARK INTER:                  -5.218
REMARK INTRA:                   0.794
REMARK UNBOUND:                 0.116
REMARK SMILES CC1=CCC[C@H](C)C(=O)C[C@H](C(C)C)C(=O)C1
REMARK SMILES IDX 8 1 9 2 6 3 7 4 5 5 4 6 3 7 2 8 1 9 10 11 11 12 15 13 16 14
REMARK SMILES IDX 17 15 12 17 13 18 14 19
REMARK H PARENT
REMARK Flexibility Score: 70.00
ROOT
ATOM      1  C   UNL     1       2.444  16.483  -5.632  1.00  0.00     0.136 C 
ATOM      2  O   UNL     1       1.336  15.996  -5.464  1.00  0.00    -0.299 OA
ENDROOT
BRANCH   1   3
ATOM      3  C   UNL     1       3.654  15.827  -4.986  1.00  0.00     0.053 C 
ATOM      4  C   UNL     1       3.370  14.395  -4.500  1.00  0.00     0.016 C 
BRANCH   3   5
ATOM      5  C   UNL     1       4.922  15.885  -5.869  1.00  0.00     0.015 C 
BRANCH   5   6
ATOM      6  C   UNL     1       5.258  14.626  -6.704  1.00  0.00     0.028 C 
BRANCH   6   7
ATOM      7  C   UNL     1       4.089  13.789  -7.179  1.00  0.00    -0.028 C 
ATOM      8  C   UNL     1       3.275  14.078  -8.221  1.00  0.00    -0.070 CG0
ATOM      9  C   UNL     1       2.295  13.017  -8.660  1.00  0.00     0.039 C 
ATOM     10  G   UNL     1       3.393  15.347  -9.036  1.00  0.00     0.000 G0
ENDBRANCH   6   7
ENDBRANCH   5   6
ENDBRANCH   3   5
ENDBRANCH   1   3
BRANCH   1  11
ATOM     11  C   UNL     1       2.588  17.805  -6.367  1.00  0.00     0.087 C 
BRANCH  11  12
ATOM     12  C   UNL     1       2.880  17.755  -7.901  1.00  0.00     0.066 C 
BRANCH  12  13
ATOM     13  C   UNL     1       2.436  16.458  -8.587  1.00  0.00     0.140 C 
ATOM     14  O   UNL     1       1.247  16.328  -8.845  1.00  0.00    -0.299 OA
BRANCH  13  15
ATOM     15  C   UNL     1       3.364  15.356  -9.046  1.00  0.00     0.106 CG0
ATOM     16  G   UNL     1       3.263  14.100  -8.206  1.00  0.00     0.000 G0
ENDBRANCH  13  15
ENDBRANCH  12  13
BRANCH  12  17
ATOM     17  C   UNL     1       2.478  19.037  -8.707  1.00  0.00    -0.006 C 
ATOM     18  C   UNL     1       1.103  19.581  -8.273  1.00  0.00     0.008 C 
ATOM     19  C   UNL     1       3.516  20.164  -8.556  1.00  0.00     0.008 C 
ENDBRANCH  12  17
ENDBRANCH  11  12
ENDBRANCH   1  11
TORSDOF 1
ENDMDL
MODEL 7
REMARK VINA RESULT:    -2.970      1.871      4.749
REMARK INTER + INTRA:          -4.417
REMARK INTER:                  -4.651
REMARK INTRA:                   0.234
REMARK UNBOUND:                 0.116
REMARK SMILES CC1=CCC[C@H](C)C(=O)C[C@H](C(C)C)C(=O)C1
REMARK SMILES IDX 8 1 9 2 6 3 7 4 5 5 4 6 3 7 2 8 1 9 10 11 11 12 15 13 16 14
REMARK SMILES IDX 17 15 12 17 13 18 14 19
REMARK H PARENT
REMARK Flexibility Score: 70.00
ROOT
ATOM      1  C   UNL     1       4.515  16.823  -5.795  1.00  0.00     0.136 C 
ATOM      2  O   UNL     1       4.691  16.702  -4.592  1.00  0.00    -0.299 OA
ENDROOT
BRANCH   1   3
ATOM      3  C   UNL     1       3.585  17.911  -6.308  1.00  0.00     0.053 C 
ATOM      4  C   UNL     1       3.932  19.304  -5.755  1.00  0.00     0.016 C 
BRANCH   3   5
ATOM      5  C   UNL     1       3.462  17.929  -7.849  1.00  0.00     0.015 C 
BRANCH   5   6
ATOM      6  C   UNL     1       2.174  17.327  -8.462  1.00  0.00     0.028 C 
BRANCH   6   7
ATOM      7  C   UNL     1       2.280  15.932  -9.039  1.00  0.00    -0.028 C 
ATOM      8  C   UNL     1       2.221  14.774  -8.342  1.00  0.00    -0.070 CG0
ATOM      9  C   UNL     1       2.144  13.485  -9.124  1.00  0.00     0.039 C 
ATOM     10  G   UNL     1       2.097  14.722  -6.834  1.00  0.00     0.000 G0
ENDBRANCH   6   7
ENDBRANCH   5   6
ENDBRANCH   3   5
ENDBRANCH   1   3
BRANCH   1  11
ATOM     11  C   UNL     1       5.114  15.809  -6.755  1.00  0.00     0.087 C 
BRANCH  11  12
ATOM     12  C   UNL     1       4.750  14.305  -6.542  1.00  0.00     0.066 C 
BRANCH  12  13
ATOM     13  C   UNL     1       3.287  14.057  -6.160  1.00  0.00     0.140 C 
ATOM     14  O   UNL     1       3.064  13.345  -5.190  1.00  0.00    -0.299 OA
BRANCH  13  15
ATOM     15  C   UNL     1       2.092  14.690  -6.837  1.00  0.00     0.106 CG0
ATOM     16  G   UNL     1       2.229  14.765  -8.343  1.00  0.00     0.000 G0
ENDBRANCH  13  15
ENDBRANCH  12  13
BRANCH  12  17
ATOM     17  C   UNL     1       5.264  13.323  -7.649  1.00  0.00    -0.006 C 
ATOM     18  C   UNL     1       6.079  14.055  -8.733  1.00  0.00     0.008 C 
ATOM     19  C   UNL     1       6.135  12.195  -7.065  1.00  0.00     0.008 C 
ENDBRANCH  12  17
ENDBRANCH  11  12
ENDBRANCH   1  11
TORSDOF 1
ENDMDL
MODEL 8
REMARK VINA RESULT:    -2.907      1.460      1.995
REMARK INTER + INTRA:          -4.320
REMARK INTER:                  -4.588
REMARK INTRA:                   0.268
REMARK UNBOUND:                 0.116
REMARK SMILES CC1=CCC[C@H](C)C(=O)C[C@H](C(C)C)C(=O)C1
REMARK SMILES IDX 8 1 9 2 6 3 7 4 5 5 4 6 3 7 2 8 1 9 10 11 11 12 15 13 16 14
REMARK SMILES IDX 17 15 12 17 13 18 14 19
REMARK H PARENT
REMARK Flexibility Score: 70.00
ROOT
ATOM      1  C   UNL     1       3.145  15.271  -8.745  1.00  0.00     0.136 C 
ATOM      2  O   UNL     1       2.034  14.886  -9.078  1.00  0.00    -0.299 OA
ENDROOT
BRANCH   1   3
ATOM      3  C   UNL     1       4.096  14.302  -8.060  1.00  0.00     0.053 C 
ATOM      4  C   UNL     1       4.639  13.224  -9.014  1.00  0.00     0.016 C 
BRANCH   3   5
ATOM      5  C   UNL     1       5.239  15.010  -7.296  1.00  0.00     0.015 C 
BRANCH   5   6
ATOM      6  C   UNL     1       4.872  15.707  -5.964  1.00  0.00     0.028 C 
BRANCH   6   7
ATOM      7  C   UNL     1       3.549  15.325  -5.335  1.00  0.00    -0.028 C 
ATOM      8  C   UNL     1       2.427  16.082  -5.319  1.00  0.00    -0.070 CG0
ATOM      9  C   UNL     1       1.154  15.440  -4.821  1.00  0.00     0.039 C 
ATOM     10  G   UNL     1       2.365  17.481  -5.893  1.00  0.00     0.000 G0
ENDBRANCH   6   7
ENDBRANCH   5   6
ENDBRANCH   3   5
ENDBRANCH   1   3
BRANCH   1  11
ATOM     11  C   UNL     1       3.516  16.737  -8.893  1.00  0.00     0.087 C 
BRANCH  11  12
ATOM     12  C   UNL     1       2.414  17.800  -8.580  1.00  0.00     0.066 C 
BRANCH  12  13
ATOM     13  C   UNL     1       1.685  17.581  -7.250  1.00  0.00     0.140 C 
ATOM     14  O   UNL     1       0.477  17.391  -7.287  1.00  0.00    -0.299 OA
BRANCH  13  15
ATOM     15  C   UNL     1       2.352  17.497  -5.895  1.00  0.00     0.106 CG0
ATOM     16  G   UNL     1       2.419  16.088  -5.347  1.00  0.00     0.000 G0
ENDBRANCH  13  15
ENDBRANCH  12  13
BRANCH  12  17
ATOM     17  C   UNL     1       2.833  19.293  -8.804  1.00  0.00    -0.006 C 
ATOM     18  C   UNL     1       1.738  20.272  -8.342  1.00  0.00     0.008 C 
ATOM     19  C   UNL     1       4.141  19.644  -8.070  1.00  0.00     0.008 C 
ENDBRANCH  12  17
ENDBRANCH  11  12
ENDBRANCH   1  11
TORSDOF 1
ENDMDL
MODEL 9
REMARK VINA RESULT:    -2.807      1.516      4.229
REMARK INTER + INTRA:          -4.169
REMARK INTER:                  -4.887
REMARK INTRA:                   0.719
REMARK UNBOUND:                 0.116
REMARK SMILES CC1=CCC[C@H](C)C(=O)C[C@H](C(C)C)C(=O)C1
REMARK SMILES IDX 8 1 9 2 6 3 7 4 5 5 4 6 3 7 2 8 1 9 10 11 11 12 15 13 16 14
REMARK SMILES IDX 17 15 12 17 13 18 14 19
REMARK H PARENT
REMARK Flexibility Score: 70.00
ROOT
ATOM      1  C   UNL     1       3.412  17.703  -8.429  1.00  0.00     0.136 C 
ATOM      2  O   UNL     1       2.236  17.623  -8.749  1.00  0.00    -0.299 OA
ENDROOT
BRANCH   1   3
ATOM      3  C   UNL     1       3.893  18.922  -7.656  1.00  0.00     0.053 C 
ATOM      4  C   UNL     1       3.449  20.249  -8.296  1.00  0.00     0.016 C 
BRANCH   3   5
ATOM      5  C   UNL     1       3.535  18.870  -6.153  1.00  0.00     0.015 C 
BRANCH   5   6
ATOM      6  C   UNL     1       2.627  17.707  -5.684  1.00  0.00     0.028 C 
BRANCH   6   7
ATOM      7  C   UNL     1       3.318  16.499  -5.089  1.00  0.00    -0.028 C 
ATOM      8  C   UNL     1       3.182  15.218  -5.505  1.00  0.00    -0.070 CG0
ATOM      9  C   UNL     1       4.111  14.186  -4.913  1.00  0.00     0.039 C 
ATOM     10  G   UNL     1       2.244  14.806  -6.619  1.00  0.00     0.000 G0
ENDBRANCH   6   7
ENDBRANCH   5   6
ENDBRANCH   3   5
ENDBRANCH   1   3
BRANCH   1  11
ATOM     11  C   UNL     1       4.405  16.662  -8.917  1.00  0.00     0.087 C 
BRANCH  11  12
ATOM     12  C   UNL     1       4.302  15.224  -8.316  1.00  0.00     0.066 C 
BRANCH  12  13
ATOM     13  C   UNL     1       2.872  14.773  -7.996  1.00  0.00     0.140 C 
ATOM     14  O   UNL     1       2.206  14.301  -8.907  1.00  0.00    -0.299 OA
BRANCH  13  15
ATOM     15  C   UNL     1       2.242  14.791  -6.621  1.00  0.00     0.106 CG0
ATOM     16  G   UNL     1       3.197  15.230  -5.531  1.00  0.00     0.000 G0
ENDBRANCH  13  15
ENDBRANCH  12  13
BRANCH  12  17
ATOM     17  C   UNL     1       5.134  14.122  -9.056  1.00  0.00    -0.006 C 
ATOM     18  C   UNL     1       6.634  14.473  -9.107  1.00  0.00     0.008 C 
ATOM     19  C   UNL     1       4.981  12.739  -8.396  1.00  0.00     0.008 C 
ENDBRANCH  12  17
ENDBRANCH  11  12
ENDBRANCH   1  11
TORSDOF 1
ENDMDL
