MODEL 1
REMARK VINA RESULT:    -3.042      0.000      0.000
REMARK INTER + INTRA:          -3.441
REMARK INTER:                  -3.398
REMARK INTRA:                  -0.043
REMARK UNBOUND:                -0.043
REMARK SMILES CCCC(=O)[O-]
REMARK SMILES IDX 3 1 4 2 5 3 6 4 2 5 1 6
REMARK H PARENT
REMARK Flexibility Score: inf
ROOT
ATOM      1  C   UNL     1      13.345 -29.400  23.077  1.00  0.00     0.052 C 
ENDROOT
BRANCH   1   2
ATOM      2  C   UNL     1      12.881 -30.768  22.690  1.00  0.00     0.041 C 
ATOM      3  O   UNL     1      13.154 -31.759  23.417  1.00  0.00    -0.550 OA
ATOM      4  O   UNL     1      12.107 -30.943  21.550  1.00  0.00    -0.550 OA
ENDBRANCH   1   2
BRANCH   1   5
ATOM      5  C   UNL     1      12.362 -28.759  24.060  1.00  0.00     0.003 C 
ATOM      6  C   UNL     1      11.292 -27.956  23.327  1.00  0.00     0.004 C 
ENDBRANCH   1   5
TORSDOF 2
ENDMDL
MODEL 2
REMARK VINA RESULT:    -3.036      1.629      2.118
REMARK INTER + INTRA:          -3.434
REMARK INTER:                  -3.407
REMARK INTRA:                  -0.026
REMARK UNBOUND:                -0.043
REMARK SMILES CCCC(=O)[O-]
REMARK SMILES IDX 3 1 4 2 5 3 6 4 2 5 1 6
REMARK H PARENT
REMARK Flexibility Score: inf
ROOT
ATOM      1  C   UNL     1      12.361 -30.702  22.288  1.00  0.00     0.052 C 
ENDROOT
BRANCH   1   2
ATOM      2  C   UNL     1      13.323 -31.053  21.198  1.00  0.00     0.041 C 
ATOM      3  O   UNL     1      13.011 -31.908  20.328  1.00  0.00    -0.550 OA
ATOM      4  O   UNL     1      14.547 -30.401  21.114  1.00  0.00    -0.550 OA
ENDBRANCH   1   2
BRANCH   1   5
ATOM      5  C   UNL     1      13.102 -30.092  23.481  1.00  0.00     0.003 C 
ATOM      6  C   UNL     1      12.380 -28.853  24.003  1.00  0.00     0.004 C 
ENDBRANCH   1   5
TORSDOF 2
ENDMDL
MODEL 3
REMARK VINA RESULT:    -3.034      1.646      1.970
REMARK INTER + INTRA:          -3.433
REMARK INTER:                  -3.403
REMARK INTRA:                  -0.029
REMARK UNBOUND:                -0.043
REMARK SMILES CCCC(=O)[O-]
REMARK SMILES IDX 3 1 4 2 5 3 6 4 2 5 1 6
REMARK H PARENT
REMARK Flexibility Score: inf
ROOT
ATOM      1  C   UNL     1      12.408 -30.655  22.334  1.00  0.00     0.052 C 
ENDROOT
BRANCH   1   2
ATOM      2  C   UNL     1      13.349 -30.948  21.209  1.00  0.00     0.041 C 
ATOM      3  O   UNL     1      14.417 -30.292  21.089  1.00  0.00    -0.550 OA
ATOM      4  O   UNL     1      13.070 -31.978  20.320  1.00  0.00    -0.550 OA
ENDBRANCH   1   2
BRANCH   1   5
ATOM      5  C   UNL     1      13.162 -30.037  23.515  1.00  0.00     0.003 C 
ATOM      6  C   UNL     1      12.418 -28.827  24.072  1.00  0.00     0.004 C 
ENDBRANCH   1   5
TORSDOF 2
ENDMDL
MODEL 4
REMARK VINA RESULT:    -2.918     10.669     11.198
REMARK INTER + INTRA:          -3.303
REMARK INTER:                  -3.265
REMARK INTRA:                  -0.038
REMARK UNBOUND:                -0.043
REMARK SMILES CCCC(=O)[O-]
REMARK SMILES IDX 3 1 4 2 5 3 6 4 2 5 1 6
REMARK H PARENT
REMARK Flexibility Score: inf
ROOT
ATOM      1  C   UNL     1      21.947 -25.294  20.746  1.00  0.00     0.052 C 
ENDROOT
BRANCH   1   2
ATOM      2  C   UNL     1      23.053 -25.352  19.741  1.00  0.00     0.041 C 
ATOM      3  O   UNL     1      23.648 -24.298  19.393  1.00  0.00    -0.550 OA
ATOM      4  O   UNL     1      23.458 -26.575  19.223  1.00  0.00    -0.550 OA
ENDBRANCH   1   2
BRANCH   1   5
ATOM      5  C   UNL     1      20.638 -25.797  20.133  1.00  0.00     0.003 C 
ATOM      6  C   UNL     1      20.199 -27.112  20.771  1.00  0.00     0.004 C 
ENDBRANCH   1   5
TORSDOF 2
ENDMDL
MODEL 5
REMARK VINA RESULT:    -2.909     10.872     11.379
REMARK INTER + INTRA:          -3.293
REMARK INTER:                  -3.260
REMARK INTRA:                  -0.033
REMARK UNBOUND:                -0.043
REMARK SMILES CCCC(=O)[O-]
REMARK SMILES IDX 3 1 4 2 5 3 6 4 2 5 1 6
REMARK H PARENT
REMARK Flexibility Score: inf
ROOT
ATOM      1  C   UNL     1      22.081 -25.164  20.749  1.00  0.00     0.052 C 
ENDROOT
BRANCH   1   2
ATOM      2  C   UNL     1      23.163 -25.111  19.717  1.00  0.00     0.041 C 
ATOM      3  O   UNL     1      23.378 -26.104  18.973  1.00  0.00    -0.550 OA
ATOM      4  O   UNL     1      23.903 -23.948  19.544  1.00  0.00    -0.550 OA
ENDBRANCH   1   2
BRANCH   1   5
ATOM      5  C   UNL     1      20.804 -25.764  20.155  1.00  0.00     0.003 C 
ATOM      6  C   UNL     1      20.258 -26.883  21.036  1.00  0.00     0.004 C 
ENDBRANCH   1   5
TORSDOF 2
ENDMDL
MODEL 6
REMARK VINA RESULT:    -2.878      2.139      3.029
REMARK INTER + INTRA:          -3.258
REMARK INTER:                  -3.222
REMARK INTRA:                  -0.036
REMARK UNBOUND:                -0.043
REMARK SMILES CCCC(=O)[O-]
REMARK SMILES IDX 3 1 4 2 5 3 6 4 2 5 1 6
REMARK H PARENT
REMARK Flexibility Score: inf
ROOT
ATOM      1  C   UNL     1      13.135 -30.236  23.604  1.00  0.00     0.052 C 
ENDROOT
BRANCH   1   2
ATOM      2  C   UNL     1      12.354 -28.977  23.808  1.00  0.00     0.041 C 
ATOM      3  O   UNL     1      12.770 -28.094  24.603  1.00  0.00    -0.550 OA
ATOM      4  O   UNL     1      11.189 -28.756  23.084  1.00  0.00    -0.550 OA
ENDBRANCH   1   2
BRANCH   1   5
ATOM      5  C   UNL     1      12.783 -30.873  22.258  1.00  0.00     0.003 C 
ATOM      6  C   UNL     1      13.895 -30.656  21.236  1.00  0.00     0.004 C 
ENDBRANCH   1   5
TORSDOF 2
ENDMDL
MODEL 7
REMARK VINA RESULT:    -2.848      2.030      2.826
REMARK INTER + INTRA:          -3.224
REMARK INTER:                  -3.179
REMARK INTRA:                  -0.045
REMARK UNBOUND:                -0.043
REMARK SMILES CCCC(=O)[O-]
REMARK SMILES IDX 3 1 4 2 5 3 6 4 2 5 1 6
REMARK H PARENT
REMARK Flexibility Score: inf
ROOT
ATOM      1  C   UNL     1      13.031 -30.221  23.110  1.00  0.00     0.052 C 
ENDROOT
BRANCH   1   2
ATOM      2  C   UNL     1      13.979 -31.251  23.639  1.00  0.00     0.041 C 
ATOM      3  O   UNL     1      13.538 -32.305  24.168  1.00  0.00    -0.550 OA
ATOM      4  O   UNL     1      15.349 -31.069  23.505  1.00  0.00    -0.550 OA
ENDBRANCH   1   2
BRANCH   1   5
ATOM      5  C   UNL     1      12.183 -30.806  21.977  1.00  0.00     0.003 C 
ATOM      6  C   UNL     1      13.061 -31.375  20.867  1.00  0.00     0.004 C 
ENDBRANCH   1   5
TORSDOF 2
ENDMDL
MODEL 8
REMARK VINA RESULT:    -2.836      2.281      3.327
REMARK INTER + INTRA:          -3.211
REMARK INTER:                  -3.173
REMARK INTRA:                  -0.038
REMARK UNBOUND:                -0.043
REMARK SMILES CCCC(=O)[O-]
REMARK SMILES IDX 3 1 4 2 5 3 6 4 2 5 1 6
REMARK H PARENT
REMARK Flexibility Score: inf
ROOT
ATOM      1  C   UNL     1      12.526 -29.996  22.742  1.00  0.00     0.052 C 
ENDROOT
BRANCH   1   2
ATOM      2  C   UNL     1      11.982 -28.798  23.452  1.00  0.00     0.041 C 
ATOM      3  O   UNL     1      10.907 -28.266  23.066  1.00  0.00    -0.550 OA
ATOM      4  O   UNL     1      12.634 -28.296  24.571  1.00  0.00    -0.550 OA
ENDBRANCH   1   2
BRANCH   1   5
ATOM      5  C   UNL     1      13.471 -30.779  23.658  1.00  0.00     0.003 C 
ATOM      6  C   UNL     1      14.908 -30.722  23.148  1.00  0.00     0.004 C 
ENDBRANCH   1   5
TORSDOF 2
ENDMDL
MODEL 9
REMARK VINA RESULT:    -2.750      5.518      7.040
REMARK INTER + INTRA:          -3.115
REMARK INTER:                  -3.077
REMARK INTRA:                  -0.038
REMARK UNBOUND:                -0.043
REMARK SMILES CCCC(=O)[O-]
REMARK SMILES IDX 3 1 4 2 5 3 6 4 2 5 1 6
REMARK H PARENT
REMARK Flexibility Score: inf
ROOT
ATOM      1  C   UNL     1      15.200 -35.086  20.034  1.00  0.00     0.052 C 
ENDROOT
BRANCH   1   2
ATOM      2  C   UNL     1      15.213 -34.310  21.312  1.00  0.00     0.041 C 
ATOM      3  O   UNL     1      16.014 -34.619  22.233  1.00  0.00    -0.550 OA
ATOM      4  O   UNL     1      14.374 -33.214  21.468  1.00  0.00    -0.550 OA
ENDBRANCH   1   2
BRANCH   1   5
ATOM      5  C   UNL     1      16.606 -35.150  19.431  1.00  0.00     0.003 C 
ATOM      6  C   UNL     1      17.111 -36.588  19.361  1.00  0.00     0.004 C 
ENDBRANCH   1   5
TORSDOF 2
ENDMDL
