MODEL 1
REMARK VINA RESULT:    -8.311      0.000      0.000
REMARK INTER + INTRA:          -9.040
REMARK INTER:                  -9.040
REMARK INTRA:                   0.000
REMARK UNBOUND:                 0.000
REMARK SMILES Cc1cc(O)c2c(c1)C(=O)c1cc(O)cc(O)c1C2=O
REMARK SMILES IDX 1 1 2 2 8 3 7 4 6 5 4 6 3 7 19 8 20 9 18 10 11 11 9 12 10 13
REMARK SMILES IDX 12 14 13 15 15 16 16 17 5 18 17 20 14 22
REMARK H PARENT 5 19 17 21 14 23
REMARK Flexibility Score: inf
ROOT
ATOM      1  C   UNL     1       3.518  -1.627   5.362  1.00  0.00     0.044 C 
ATOM      2  C   UNL     1       3.189  -1.373   3.920  1.00  0.00    -0.047 A 
ATOM      3  C   UNL     1       4.206  -1.349   2.959  1.00  0.00     0.016 A 
ATOM      4  C   UNL     1       3.904  -1.140   1.602  1.00  0.00     0.038 A 
ATOM      5  C   UNL     1       2.563  -0.953   1.201  1.00  0.00     0.076 A 
ATOM      6  C   UNL     1       1.530  -1.064   2.167  1.00  0.00     0.127 A 
ATOM      7  C   UNL     1       1.856  -1.251   3.514  1.00  0.00     0.050 A 
ATOM      8  C   UNL     1       2.297  -0.589  -0.215  1.00  0.00     0.201 C 
ATOM      9  O   UNL     1       1.295   0.118  -0.503  1.00  0.00    -0.288 OA
ATOM     10  C   UNL     1       3.310  -0.897  -1.259  1.00  0.00     0.076 A 
ATOM     11  C   UNL     1       4.650  -1.086  -0.853  1.00  0.00     0.041 A 
ATOM     12  C   UNL     1       4.987  -1.123   0.590  1.00  0.00     0.194 C 
ATOM     13  O   UNL     1       6.195  -1.164   0.955  1.00  0.00    -0.289 OA
ATOM     14  C   UNL     1       5.658  -1.242  -1.820  1.00  0.00     0.059 A 
ATOM     15  C   UNL     1       5.345  -1.228  -3.179  1.00  0.00     0.120 A 
ATOM     16  C   UNL     1       4.016  -1.082  -3.585  1.00  0.00     0.093 A 
ATOM     17  C   UNL     1       2.992  -0.945  -2.642  1.00  0.00     0.131 A 
ENDROOT
BRANCH   6  18
ATOM     18  O   UNL     1       0.175  -1.030   1.830  1.00  0.00    -0.507 OA
ATOM     19  H   UNL     1      -0.509  -0.475   2.325  1.00  0.00     0.293 HD
ENDBRANCH   6  18
BRANCH  17  20
ATOM     20  O   UNL     1       1.679  -0.897  -3.117  1.00  0.00    -0.507 OA
ATOM     21  H   UNL     1       0.888  -1.267  -2.611  1.00  0.00     0.293 HD
ENDBRANCH  17  20
BRANCH  15  22
ATOM     22  O   UNL     1       6.362  -1.372  -4.120  1.00  0.00    -0.508 OA
ATOM     23  H   UNL     1       6.435  -2.200  -4.698  1.00  0.00     0.293 HD
ENDBRANCH  15  22
TORSDOF 3
ENDMDL
MODEL 2
REMARK VINA RESULT:    -7.641      1.220      1.485
REMARK INTER + INTRA:          -8.311
REMARK INTER:                  -8.311
REMARK INTRA:                   0.000
REMARK UNBOUND:                 0.000
REMARK SMILES Cc1cc(O)c2c(c1)C(=O)c1cc(O)cc(O)c1C2=O
REMARK SMILES IDX 1 1 2 2 8 3 7 4 6 5 4 6 3 7 19 8 20 9 18 10 11 11 9 12 10 13
REMARK SMILES IDX 12 14 13 15 15 16 16 17 5 18 17 20 14 22
REMARK H PARENT 5 19 17 21 14 23
REMARK Flexibility Score: inf
ROOT
ATOM      1  C   UNL     1       1.825  -2.837   6.139  1.00  0.00     0.044 C 
ATOM      2  C   UNL     1       1.877  -2.317   4.732  1.00  0.00    -0.047 A 
ATOM      3  C   UNL     1       3.086  -2.313   4.027  1.00  0.00     0.016 A 
ATOM      4  C   UNL     1       3.139  -1.854   2.699  1.00  0.00     0.038 A 
ATOM      5  C   UNL     1       1.963  -1.393   2.068  1.00  0.00     0.076 A 
ATOM      6  C   UNL     1       0.727  -1.479   2.758  1.00  0.00     0.127 A 
ATOM      7  C   UNL     1       0.702  -1.919   4.085  1.00  0.00     0.050 A 
ATOM      8  C   UNL     1       2.084  -0.780   0.719  1.00  0.00     0.201 C 
ATOM      9  O   UNL     1       1.273   0.117   0.364  1.00  0.00    -0.288 OA
ATOM     10  C   UNL     1       3.267  -1.086  -0.127  1.00  0.00     0.076 A 
ATOM     11  C   UNL     1       4.440  -1.550   0.508  1.00  0.00     0.041 A 
ATOM     12  C   UNL     1       4.422  -1.860   1.958  1.00  0.00     0.194 C 
ATOM     13  O   UNL     1       5.495  -2.153   2.554  1.00  0.00    -0.289 OA
ATOM     14  C   UNL     1       5.619  -1.720  -0.238  1.00  0.00     0.059 A 
ATOM     15  C   UNL     1       5.637  -1.449  -1.605  1.00  0.00     0.120 A 
ATOM     16  C   UNL     1       4.469  -1.028  -2.247  1.00  0.00     0.093 A 
ATOM     17  C   UNL     1       3.278  -0.871  -1.531  1.00  0.00     0.131 A 
ENDROOT
BRANCH   6  18
ATOM     18  O   UNL     1      -0.497  -1.174   2.157  1.00  0.00    -0.507 OA
ATOM     19  H   UNL     1      -0.663  -1.243   1.163  1.00  0.00     0.293 HD
ENDBRANCH   6  18
BRANCH  17  20
ATOM     20  O   UNL     1       2.130  -0.538  -2.253  1.00  0.00    -0.507 OA
ATOM     21  H   UNL     1       1.399  -1.198  -2.476  1.00  0.00     0.293 HD
ENDBRANCH  17  20
BRANCH  15  22
ATOM     22  O   UNL     1       6.820  -1.612  -2.322  1.00  0.00    -0.508 OA
ATOM     23  H   UNL     1       7.720  -1.376  -1.921  1.00  0.00     0.293 HD
ENDBRANCH  15  22
TORSDOF 3
ENDMDL
MODEL 3
REMARK VINA RESULT:    -7.307      2.217      6.612
REMARK INTER + INTRA:          -7.948
REMARK INTER:                  -7.948
REMARK INTRA:                   0.000
REMARK UNBOUND:                 0.000
REMARK SMILES Cc1cc(O)c2c(c1)C(=O)c1cc(O)cc(O)c1C2=O
REMARK SMILES IDX 1 1 2 2 8 3 7 4 6 5 4 6 3 7 19 8 20 9 18 10 11 11 9 12 10 13
REMARK SMILES IDX 12 14 13 15 15 16 16 17 5 18 17 20 14 22
REMARK H PARENT 5 19 17 21 14 23
REMARK Flexibility Score: inf
ROOT
ATOM      1  C   UNL     1       7.591  -1.232  -7.700  1.00  0.00     0.044 C 
ATOM      2  C   UNL     1       6.503  -1.166  -6.669  1.00  0.00    -0.047 A 
ATOM      3  C   UNL     1       6.750  -1.586  -5.357  1.00  0.00     0.016 A 
ATOM      4  C   UNL     1       5.745  -1.503  -4.377  1.00  0.00     0.038 A 
ATOM      5  C   UNL     1       4.473  -0.991  -4.717  1.00  0.00     0.076 A 
ATOM      6  C   UNL     1       4.256  -0.489  -6.025  1.00  0.00     0.127 A 
ATOM      7  C   UNL     1       5.264  -0.602  -6.988  1.00  0.00     0.050 A 
ATOM      8  C   UNL     1       3.395  -1.055  -3.696  1.00  0.00     0.201 C 
ATOM      9  O   UNL     1       2.194  -1.170  -4.060  1.00  0.00    -0.288 OA
ATOM     10  C   UNL     1       3.747  -1.175  -2.257  1.00  0.00     0.076 A 
ATOM     11  C   UNL     1       5.021  -1.685  -1.922  1.00  0.00     0.041 A 
ATOM     12  C   UNL     1       6.018  -1.942  -2.988  1.00  0.00     0.194 C 
ATOM     13  O   UNL     1       7.108  -2.514  -2.709  1.00  0.00    -0.289 OA
ATOM     14  C   UNL     1       5.340  -1.941  -0.578  1.00  0.00     0.059 A 
ATOM     15  C   UNL     1       4.414  -1.682   0.432  1.00  0.00     0.120 A 
ATOM     16  C   UNL     1       3.167  -1.140   0.110  1.00  0.00     0.093 A 
ATOM     17  C   UNL     1       2.833  -0.857  -1.218  1.00  0.00     0.131 A 
ENDROOT
BRANCH   6  18
ATOM     18  O   UNL     1       3.076   0.158  -6.400  1.00  0.00    -0.507 OA
ATOM     19  H   UNL     1       2.158  -0.249  -6.291  1.00  0.00     0.293 HD
ENDBRANCH   6  18
BRANCH  17  20
ATOM     20  O   UNL     1       1.607  -0.231  -1.456  1.00  0.00    -0.507 OA
ATOM     21  H   UNL     1       0.795  -0.351  -0.867  1.00  0.00     0.293 HD
ENDBRANCH  17  20
BRANCH  15  22
ATOM     22  O   UNL     1       4.747  -1.956   1.757  1.00  0.00    -0.508 OA
ATOM     23  H   UNL     1       4.036  -2.125   2.459  1.00  0.00     0.293 HD
ENDBRANCH  15  22
TORSDOF 3
ENDMDL
MODEL 4
REMARK VINA RESULT:    -7.306      1.712      5.914
REMARK INTER + INTRA:          -7.946
REMARK INTER:                  -7.946
REMARK INTRA:                   0.000
REMARK UNBOUND:                 0.000
REMARK SMILES Cc1cc(O)c2c(c1)C(=O)c1cc(O)cc(O)c1C2=O
REMARK SMILES IDX 1 1 2 2 8 3 7 4 6 5 4 6 3 7 19 8 20 9 18 10 11 11 9 12 10 13
REMARK SMILES IDX 12 14 13 15 15 16 16 17 5 18 17 20 14 22
REMARK H PARENT 5 19 17 21 14 23
REMARK Flexibility Score: inf
ROOT
ATOM      1  C   UNL     1       8.170  -2.096  -5.501  1.00  0.00     0.044 C 
ATOM      2  C   UNL     1       6.901  -1.831  -4.745  1.00  0.00    -0.047 A 
ATOM      3  C   UNL     1       6.863  -1.995  -3.355  1.00  0.00     0.016 A 
ATOM      4  C   UNL     1       5.687  -1.723  -2.634  1.00  0.00     0.038 A 
ATOM      5  C   UNL     1       4.532  -1.279  -3.316  1.00  0.00     0.076 A 
ATOM      6  C   UNL     1       4.603  -1.033  -4.711  1.00  0.00     0.127 A 
ATOM      7  C   UNL     1       5.777  -1.332  -5.410  1.00  0.00     0.050 A 
ATOM      8  C   UNL     1       3.269  -1.143  -2.543  1.00  0.00     0.201 C 
ATOM      9  O   UNL     1       2.162  -1.320  -3.117  1.00  0.00    -0.288 OA
ATOM     10  C   UNL     1       3.321  -0.989  -1.066  1.00  0.00     0.076 A 
ATOM     11  C   UNL     1       4.479  -1.432  -0.389  1.00  0.00     0.041 A 
ATOM     12  C   UNL     1       5.657  -1.892  -1.163  1.00  0.00     0.194 C 
ATOM     13  O   UNL     1       6.643  -2.405  -0.565  1.00  0.00    -0.289 OA
ATOM     14  C   UNL     1       4.512  -1.429   1.016  1.00  0.00     0.059 A 
ATOM     15  C   UNL     1       3.414  -0.979   1.749  1.00  0.00     0.120 A 
ATOM     16  C   UNL     1       2.282  -0.502   1.084  1.00  0.00     0.093 A 
ATOM     17  C   UNL     1       2.232  -0.475  -0.313  1.00  0.00     0.131 A 
ENDROOT
BRANCH   6  18
ATOM     18  O   UNL     1       3.550  -0.465  -5.432  1.00  0.00    -0.507 OA
ATOM     19  H   UNL     1       3.629   0.404  -5.943  1.00  0.00     0.293 HD
ENDBRANCH   6  18
BRANCH  17  20
ATOM     20  O   UNL     1       1.107   0.100  -0.908  1.00  0.00    -0.507 OA
ATOM     21  H   UNL     1       0.524  -0.379  -1.580  1.00  0.00     0.293 HD
ENDBRANCH  17  20
BRANCH  15  22
ATOM     22  O   UNL     1       3.464  -0.998   3.141  1.00  0.00    -0.508 OA
ATOM     23  H   UNL     1       3.574  -1.863   3.657  1.00  0.00     0.293 HD
ENDBRANCH  15  22
TORSDOF 3
ENDMDL
MODEL 5
REMARK VINA RESULT:    -7.190      1.954      6.302
REMARK INTER + INTRA:          -7.821
REMARK INTER:                  -7.821
REMARK INTRA:                   0.000
REMARK UNBOUND:                 0.000
REMARK SMILES Cc1cc(O)c2c(c1)C(=O)c1cc(O)cc(O)c1C2=O
REMARK SMILES IDX 1 1 2 2 8 3 7 4 6 5 4 6 3 7 19 8 20 9 18 10 11 11 9 12 10 13
REMARK SMILES IDX 12 14 13 15 15 16 16 17 5 18 17 20 14 22
REMARK H PARENT 5 19 17 21 14 23
REMARK Flexibility Score: inf
ROOT
ATOM      1  C   UNL     1       5.610  -1.026  -2.726  1.00  0.00     0.044 C 
ATOM      2  C   UNL     1       5.136  -1.239  -1.318  1.00  0.00    -0.047 A 
ATOM      3  C   UNL     1       3.846  -0.849  -0.943  1.00  0.00     0.016 A 
ATOM      4  C   UNL     1       3.383  -1.070   0.366  1.00  0.00     0.038 A 
ATOM      5  C   UNL     1       4.225  -1.693   1.314  1.00  0.00     0.076 A 
ATOM      6  C   UNL     1       5.500  -2.162   0.904  1.00  0.00     0.127 A 
ATOM      7  C   UNL     1       5.946  -1.912  -0.397  1.00  0.00     0.050 A 
ATOM      8  C   UNL     1       3.758  -1.776   2.722  1.00  0.00     0.201 C 
ATOM      9  O   UNL     1       4.597  -1.767   3.662  1.00  0.00    -0.288 OA
ATOM     10  C   UNL     1       2.306  -1.678   3.025  1.00  0.00     0.076 A 
ATOM     11  C   UNL     1       1.466  -1.058   2.073  1.00  0.00     0.041 A 
ATOM     12  C   UNL     1       2.012  -0.660   0.753  1.00  0.00     0.194 C 
ATOM     13  O   UNL     1       1.301   0.006  -0.049  1.00  0.00    -0.289 OA
ATOM     14  C   UNL     1       0.115  -0.824   2.380  1.00  0.00     0.059 A 
ATOM     15  C   UNL     1      -0.410  -1.213   3.612  1.00  0.00     0.120 A 
ATOM     16  C   UNL     1       0.407  -1.863   4.541  1.00  0.00     0.093 A 
ATOM     17  C   UNL     1       1.749  -2.126   4.252  1.00  0.00     0.131 A 
ENDROOT
BRANCH   6  18
ATOM     18  O   UNL     1       6.334  -2.908   1.740  1.00  0.00    -0.507 OA
ATOM     19  H   UNL     1       7.139  -3.422   1.410  1.00  0.00     0.293 HD
ENDBRANCH   6  18
BRANCH  17  20
ATOM     20  O   UNL     1       2.480  -2.861   5.189  1.00  0.00    -0.507 OA
ATOM     21  H   UNL     1       2.409  -2.721   6.186  1.00  0.00     0.293 HD
ENDBRANCH  17  20
BRANCH  15  22
ATOM     22  O   UNL     1      -1.749  -0.959   3.900  1.00  0.00    -0.508 OA
ATOM     23  H   UNL     1      -2.098  -0.014   4.008  1.00  0.00     0.293 HD
ENDBRANCH  15  22
TORSDOF 3
ENDMDL
MODEL 6
REMARK VINA RESULT:    -7.164     13.426     13.625
REMARK INTER + INTRA:          -7.792
REMARK INTER:                  -7.792
REMARK INTRA:                   0.000
REMARK UNBOUND:                 0.000
REMARK SMILES Cc1cc(O)c2c(c1)C(=O)c1cc(O)cc(O)c1C2=O
REMARK SMILES IDX 1 1 2 2 8 3 7 4 6 5 4 6 3 7 19 8 20 9 18 10 11 11 9 12 10 13
REMARK SMILES IDX 12 14 13 15 15 16 16 17 5 18 17 20 14 22
REMARK H PARENT 5 19 17 21 14 23
REMARK Flexibility Score: inf
ROOT
ATOM      1  C   UNL     1       1.338  12.625   5.304  1.00  0.00     0.044 C 
ATOM      2  C   UNL     1       1.476  12.595   3.810  1.00  0.00    -0.047 A 
ATOM      3  C   UNL     1       2.729  12.782   3.215  1.00  0.00     0.016 A 
ATOM      4  C   UNL     1       2.873  12.727   1.818  1.00  0.00     0.038 A 
ATOM      5  C   UNL     1       1.745  12.481   1.004  1.00  0.00     0.076 A 
ATOM      6  C   UNL     1       0.496  12.209   1.617  1.00  0.00     0.127 A 
ATOM      7  C   UNL     1       0.372  12.289   3.008  1.00  0.00     0.050 A 
ATOM      8  C   UNL     1       1.909  12.578  -0.470  1.00  0.00     0.201 C 
ATOM      9  O   UNL     1       0.936  12.936  -1.186  1.00  0.00    -0.288 OA
ATOM     10  C   UNL     1       3.259  12.437  -1.074  1.00  0.00     0.076 A 
ATOM     11  C   UNL     1       4.385  12.681  -0.256  1.00  0.00     0.041 A 
ATOM     12  C   UNL     1       4.205  12.919   1.197  1.00  0.00     0.194 C 
ATOM     13  O   UNL     1       5.191  13.261   1.907  1.00  0.00    -0.289 OA
ATOM     14  C   UNL     1       5.671  12.692  -0.821  1.00  0.00     0.059 A 
ATOM     15  C   UNL     1       5.849  12.449  -2.182  1.00  0.00     0.120 A 
ATOM     16  C   UNL     1       4.743  12.167  -2.989  1.00  0.00     0.093 A 
ATOM     17  C   UNL     1       3.455  12.130  -2.446  1.00  0.00     0.131 A 
ENDROOT
BRANCH   6  18
ATOM     18  O   UNL     1      -0.633  11.822   0.891  1.00  0.00    -0.507 OA
ATOM     19  H   UNL     1      -1.356  11.221   1.262  1.00  0.00     0.293 HD
ENDBRANCH   6  18
BRANCH  17  20
ATOM     20  O   UNL     1       2.409  11.751  -3.292  1.00  0.00    -0.507 OA
ATOM     21  H   UNL     1       1.791  10.976  -3.103  1.00  0.00     0.293 HD
ENDBRANCH  17  20
BRANCH  15  22
ATOM     22  O   UNL     1       7.132  12.478  -2.724  1.00  0.00    -0.508 OA
ATOM     23  H   UNL     1       7.301  12.793  -3.672  1.00  0.00     0.293 HD
ENDBRANCH  15  22
TORSDOF 3
ENDMDL
MODEL 7
REMARK VINA RESULT:    -6.977     12.124     13.459
REMARK INTER + INTRA:          -7.589
REMARK INTER:                  -7.589
REMARK INTRA:                   0.000
REMARK UNBOUND:                 0.000
REMARK SMILES Cc1cc(O)c2c(c1)C(=O)c1cc(O)cc(O)c1C2=O
REMARK SMILES IDX 1 1 2 2 8 3 7 4 6 5 4 6 3 7 19 8 20 9 18 10 11 11 9 12 10 13
REMARK SMILES IDX 12 14 13 15 15 16 16 17 5 18 17 20 14 22
REMARK H PARENT 5 19 17 21 14 23
REMARK Flexibility Score: inf
ROOT
ATOM      1  C   UNL     1      -9.999  -3.260   0.779  1.00  0.00     0.044 C 
ATOM      2  C   UNL     1      -9.496  -3.003  -0.611  1.00  0.00    -0.047 A 
ATOM      3  C   UNL     1     -10.032  -1.958  -1.372  1.00  0.00     0.016 A 
ATOM      4  C   UNL     1      -9.547  -1.691  -2.665  1.00  0.00     0.038 A 
ATOM      5  C   UNL     1      -8.509  -2.483  -3.203  1.00  0.00     0.076 A 
ATOM      6  C   UNL     1      -7.912  -3.485  -2.395  1.00  0.00     0.127 A 
ATOM      7  C   UNL     1      -8.425  -3.745  -1.120  1.00  0.00     0.050 A 
ATOM      8  C   UNL     1      -8.125  -2.268  -4.623  1.00  0.00     0.201 C 
ATOM      9  O   UNL     1      -7.678  -3.229  -5.303  1.00  0.00    -0.288 OA
ATOM     10  C   UNL     1      -8.445  -0.977  -5.286  1.00  0.00     0.076 A 
ATOM     11  C   UNL     1      -9.482  -0.187  -4.743  1.00  0.00     0.041 A 
ATOM     12  C   UNL     1     -10.116  -0.579  -3.461  1.00  0.00     0.194 C 
ATOM     13  O   UNL     1     -11.125   0.051  -3.037  1.00  0.00    -0.289 OA
ATOM     14  C   UNL     1      -9.906   0.971  -5.417  1.00  0.00     0.059 A 
ATOM     15  C   UNL     1      -9.301   1.356  -6.613  1.00  0.00     0.120 A 
ATOM     16  C   UNL     1      -8.247   0.600  -7.134  1.00  0.00     0.093 A 
ATOM     17  C   UNL     1      -7.793  -0.544  -6.471  1.00  0.00     0.131 A 
ENDROOT
BRANCH   6  18
ATOM     18  O   UNL     1      -6.793  -4.215  -2.801  1.00  0.00    -0.507 OA
ATOM     19  H   UNL     1      -6.792  -5.219  -2.912  1.00  0.00     0.293 HD
ENDBRANCH   6  18
BRANCH  17  20
ATOM     20  O   UNL     1      -6.677  -1.197  -7.000  1.00  0.00    -0.507 OA
ATOM     21  H   UNL     1      -6.435  -2.154  -6.785  1.00  0.00     0.293 HD
ENDBRANCH  17  20
BRANCH  15  22
ATOM     22  O   UNL     1      -9.746   2.500  -7.272  1.00  0.00    -0.508 OA
ATOM     23  H   UNL     1      -9.098   3.198  -7.618  1.00  0.00     0.293 HD
ENDBRANCH  15  22
TORSDOF 3
ENDMDL
MODEL 8
REMARK VINA RESULT:    -6.960      2.817      6.739
REMARK INTER + INTRA:          -7.571
REMARK INTER:                  -7.571
REMARK INTRA:                   0.000
REMARK UNBOUND:                 0.000
REMARK SMILES Cc1cc(O)c2c(c1)C(=O)c1cc(O)cc(O)c1C2=O
REMARK SMILES IDX 1 1 2 2 8 3 7 4 6 5 4 6 3 7 19 8 20 9 18 10 11 11 9 12 10 13
REMARK SMILES IDX 12 14 13 15 15 16 16 17 5 18 17 20 14 22
REMARK H PARENT 5 19 17 21 14 23
REMARK Flexibility Score: inf
ROOT
ATOM      1  C   UNL     1       5.965  -1.965   0.624  1.00  0.00     0.044 C 
ATOM      2  C   UNL     1       4.587  -1.802   1.195  1.00  0.00    -0.047 A 
ATOM      3  C   UNL     1       4.225  -2.480   2.365  1.00  0.00     0.016 A 
ATOM      4  C   UNL     1       2.945  -2.311   2.923  1.00  0.00     0.038 A 
ATOM      5  C   UNL     1       2.015  -1.450   2.301  1.00  0.00     0.076 A 
ATOM      6  C   UNL     1       2.417  -0.701   1.165  1.00  0.00     0.127 A 
ATOM      7  C   UNL     1       3.687  -0.901   0.616  1.00  0.00     0.050 A 
ATOM      8  C   UNL     1       0.628  -1.411   2.834  1.00  0.00     0.201 C 
ATOM      9  O   UNL     1      -0.334  -1.161   2.060  1.00  0.00    -0.288 OA
ATOM     10  C   UNL     1       0.361  -1.850   4.229  1.00  0.00     0.076 A 
ATOM     11  C   UNL     1       1.296  -2.709   4.848  1.00  0.00     0.041 A 
ATOM     12  C   UNL     1       2.573  -3.028   4.166  1.00  0.00     0.194 C 
ATOM     13  O   UNL     1       3.352  -3.891   4.656  1.00  0.00    -0.289 OA
ATOM     14  C   UNL     1       1.013  -3.254   6.112  1.00  0.00     0.059 A 
ATOM     15  C   UNL     1      -0.177  -2.943   6.768  1.00  0.00     0.120 A 
ATOM     16  C   UNL     1      -1.087  -2.062   6.178  1.00  0.00     0.093 A 
ATOM     17  C   UNL     1      -0.820  -1.489   4.930  1.00  0.00     0.131 A 
ENDROOT
BRANCH   6  18
ATOM     18  O   UNL     1       1.606   0.272   0.576  1.00  0.00    -0.507 OA
ATOM     19  H   UNL     1       1.463   0.349  -0.421  1.00  0.00     0.293 HD
ENDBRANCH   6  18
BRANCH  17  20
ATOM     20  O   UNL     1      -1.730  -0.547   4.444  1.00  0.00    -0.507 OA
ATOM     21  H   UNL     1      -1.455   0.331   4.027  1.00  0.00     0.293 HD
ENDBRANCH  17  20
BRANCH  15  22
ATOM     22  O   UNL     1      -0.442  -3.505   8.015  1.00  0.00    -0.508 OA
ATOM     23  H   UNL     1      -1.238  -3.213   8.570  1.00  0.00     0.293 HD
ENDBRANCH  15  22
TORSDOF 3
ENDMDL
