MODEL 1
REMARK VINA RESULT:    -4.598      0.000      0.000
REMARK INTER + INTRA:          -6.673
REMARK INTER:                  -6.479
REMARK INTRA:                  -0.194
REMARK UNBOUND:                -0.194
REMARK SMILES CCCCCCCCC(=O)[O-]
REMARK SMILES IDX 6 1 7 2 8 3 9 4 10 5 11 6 5 7 4 8 3 9 2 10 1 11
REMARK H PARENT
REMARK Flexibility Score: inf
ROOT
ATOM      1  C   UNL     1      -3.651   1.230  -0.127  1.00  0.00     0.000 C 
ENDROOT
BRANCH   1   2
ATOM      2  C   UNL     1      -2.835   2.497  -0.432  1.00  0.00     0.006 C 
BRANCH   2   3
ATOM      3  C   UNL     1      -3.370   3.732   0.303  1.00  0.00     0.053 C 
BRANCH   3   4
ATOM      4  C   UNL     1      -3.006   4.979  -0.440  1.00  0.00     0.041 C 
ATOM      5  O   UNL     1      -3.009   4.990  -1.699  1.00  0.00    -0.550 OA
ATOM      6  O   UNL     1      -2.615   6.115   0.257  1.00  0.00    -0.550 OA
ENDBRANCH   3   4
ENDBRANCH   2   3
ENDBRANCH   1   2
BRANCH   1   7
ATOM      7  C   UNL     1      -3.062  -0.027  -0.789  1.00  0.00     0.000 C 
BRANCH   7   8
ATOM      8  C   UNL     1      -4.145  -0.998  -1.290  1.00  0.00    -0.000 C 
BRANCH   8   9
ATOM      9  C   UNL     1      -3.755  -1.824  -2.534  1.00  0.00    -0.000 C 
BRANCH   9  10
ATOM     10  C   UNL     1      -3.754  -3.348  -2.326  1.00  0.00    -0.003 C 
ATOM     11  C   UNL     1      -3.798  -3.749  -0.852  1.00  0.00     0.004 C 
ENDBRANCH   9  10
ENDBRANCH   8   9
ENDBRANCH   7   8
ENDBRANCH   1   7
TORSDOF 7
ENDMDL
MODEL 2
REMARK VINA RESULT:    -4.412      3.967      6.765
REMARK INTER + INTRA:          -6.412
REMARK INTER:                  -6.187
REMARK INTRA:                  -0.225
REMARK UNBOUND:                -0.194
REMARK SMILES CCCCCCCCC(=O)[O-]
REMARK SMILES IDX 6 1 7 2 8 3 9 4 10 5 11 6 5 7 4 8 3 9 2 10 1 11
REMARK H PARENT
REMARK Flexibility Score: inf
ROOT
ATOM      1  C   UNL     1      -3.004   0.189  -0.663  1.00  0.00     0.000 C 
ENDROOT
BRANCH   1   2
ATOM      2  C   UNL     1      -4.102  -0.819  -1.040  1.00  0.00     0.006 C 
BRANCH   2   3
ATOM      3  C   UNL     1      -3.832  -1.508  -2.384  1.00  0.00     0.053 C 
BRANCH   3   4
ATOM      4  C   UNL     1      -3.762  -2.992  -2.204  1.00  0.00     0.041 C 
ATOM      5  O   UNL     1      -3.764  -3.752  -3.208  1.00  0.00    -0.550 OA
ATOM      6  O   UNL     1      -3.746  -3.538  -0.927  1.00  0.00    -0.550 OA
ENDBRANCH   3   4
ENDBRANCH   2   3
ENDBRANCH   1   2
BRANCH   1   7
ATOM      7  C   UNL     1      -3.575   1.508  -0.116  1.00  0.00     0.000 C 
BRANCH   7   8
ATOM      8  C   UNL     1      -2.613   2.695  -0.302  1.00  0.00    -0.000 C 
BRANCH   8   9
ATOM      9  C   UNL     1      -3.164   4.059   0.161  1.00  0.00    -0.000 C 
BRANCH   9  10
ATOM     10  C   UNL     1      -3.061   5.187  -0.880  1.00  0.00    -0.003 C 
ATOM     11  C   UNL     1      -2.974   4.668  -2.314  1.00  0.00     0.004 C 
ENDBRANCH   9  10
ENDBRANCH   8   9
ENDBRANCH   7   8
ENDBRANCH   1   7
TORSDOF 7
ENDMDL
MODEL 3
REMARK VINA RESULT:    -3.201      4.217      6.230
REMARK INTER + INTRA:          -4.705
REMARK INTER:                  -4.322
REMARK INTRA:                  -0.383
REMARK UNBOUND:                -0.194
REMARK SMILES CCCCCCCCC(=O)[O-]
REMARK SMILES IDX 6 1 7 2 8 3 9 4 10 5 11 6 5 7 4 8 3 9 2 10 1 11
REMARK H PARENT
REMARK Flexibility Score: inf
ROOT
ATOM      1  C   UNL     1      -4.331   0.356  -1.025  1.00  0.00     0.000 C 
ENDROOT
BRANCH   1   2
ATOM      2  C   UNL     1      -3.870  -1.110  -0.982  1.00  0.00     0.006 C 
BRANCH   2   3
ATOM      3  C   UNL     1      -3.614  -1.687  -2.381  1.00  0.00     0.053 C 
BRANCH   3   4
ATOM      4  C   UNL     1      -3.749  -3.177  -2.363  1.00  0.00     0.041 C 
ATOM      5  O   UNL     1      -3.885  -3.815  -3.441  1.00  0.00    -0.550 OA
ATOM      6  O   UNL     1      -3.776  -3.858  -1.152  1.00  0.00    -0.550 OA
ENDBRANCH   3   4
ENDBRANCH   2   3
ENDBRANCH   1   2
BRANCH   1   7
ATOM      7  C   UNL     1      -3.791   1.180   0.156  1.00  0.00     0.000 C 
BRANCH   7   8
ATOM      8  C   UNL     1      -2.996   2.417  -0.295  1.00  0.00    -0.000 C 
BRANCH   8   9
ATOM      9  C   UNL     1      -1.479   2.352  -0.023  1.00  0.00    -0.000 C 
BRANCH   9  10
ATOM     10  C   UNL     1      -0.889   0.933   0.026  1.00  0.00    -0.003 C 
ATOM     11  C   UNL     1       0.594   0.890  -0.338  1.00  0.00     0.004 C 
ENDBRANCH   9  10
ENDBRANCH   8   9
ENDBRANCH   7   8
ENDBRANCH   1   7
TORSDOF 7
ENDMDL
MODEL 4
REMARK VINA RESULT:    -3.006     13.723     15.446
REMARK INTER + INTRA:          -4.430
REMARK INTER:                  -4.110
REMARK INTRA:                  -0.320
REMARK UNBOUND:                -0.194
REMARK SMILES CCCCCCCCC(=O)[O-]
REMARK SMILES IDX 6 1 7 2 8 3 9 4 10 5 11 6 5 7 4 8 3 9 2 10 1 11
REMARK H PARENT
REMARK Flexibility Score: inf
ROOT
ATOM      1  C   UNL     1       2.503  -8.736   8.944  1.00  0.00     0.000 C 
ENDROOT
BRANCH   1   2
ATOM      2  C   UNL     1       3.758  -9.524   9.355  1.00  0.00     0.006 C 
BRANCH   2   3
ATOM      3  C   UNL     1       4.854  -9.486   8.281  1.00  0.00     0.053 C 
BRANCH   3   4
ATOM      4  C   UNL     1       5.197  -8.071   7.936  1.00  0.00     0.041 C 
ATOM      5  O   UNL     1       5.020  -7.644   6.764  1.00  0.00    -0.550 OA
ATOM      6  O   UNL     1       5.758  -7.238   8.895  1.00  0.00    -0.550 OA
ENDBRANCH   3   4
ENDBRANCH   2   3
ENDBRANCH   1   2
BRANCH   1   7
ATOM      7  C   UNL     1       1.863  -7.986  10.125  1.00  0.00     0.000 C 
BRANCH   7   8
ATOM      8  C   UNL     1       2.049  -6.462  10.033  1.00  0.00    -0.000 C 
BRANCH   8   9
ATOM      9  C   UNL     1       0.761  -5.664   9.745  1.00  0.00    -0.000 C 
BRANCH   9  10
ATOM     10  C   UNL     1       0.981  -4.303   9.062  1.00  0.00    -0.003 C 
ATOM     11  C   UNL     1       1.503  -3.232  10.018  1.00  0.00     0.004 C 
ENDBRANCH   9  10
ENDBRANCH   8   9
ENDBRANCH   7   8
ENDBRANCH   1   7
TORSDOF 7
ENDMDL
MODEL 5
REMARK VINA RESULT:    -2.876     13.198     14.737
REMARK INTER + INTRA:          -4.247
REMARK INTER:                  -3.729
REMARK INTRA:                  -0.518
REMARK UNBOUND:                -0.194
REMARK SMILES CCCCCCCCC(=O)[O-]
REMARK SMILES IDX 6 1 7 2 8 3 9 4 10 5 11 6 5 7 4 8 3 9 2 10 1 11
REMARK H PARENT
REMARK Flexibility Score: inf
ROOT
ATOM      1  C   UNL     1       1.945  -7.752   8.706  1.00  0.00     0.000 C 
ENDROOT
BRANCH   1   2
ATOM      2  C   UNL     1       1.754  -6.759   9.864  1.00  0.00     0.006 C 
BRANCH   2   3
ATOM      3  C   UNL     1       0.500  -5.890   9.693  1.00  0.00     0.053 C 
BRANCH   3   4
ATOM      4  C   UNL     1       0.747  -4.811   8.687  1.00  0.00     0.041 C 
ATOM      5  O   UNL     1       1.316  -3.741   9.032  1.00  0.00    -0.550 OA
ATOM      6  O   UNL     1       0.305  -4.965   7.379  1.00  0.00    -0.550 OA
ENDBRANCH   3   4
ENDBRANCH   2   3
ENDBRANCH   1   2
BRANCH   1   7
ATOM      7  C   UNL     1       1.867  -9.218   9.166  1.00  0.00     0.000 C 
BRANCH   7   8
ATOM      8  C   UNL     1       3.212  -9.954   9.035  1.00  0.00    -0.000 C 
BRANCH   8   9
ATOM      9  C   UNL     1       4.251  -9.613  10.122  1.00  0.00    -0.000 C 
BRANCH   9  10
ATOM     10  C   UNL     1       5.522  -8.915   9.609  1.00  0.00    -0.003 C 
ATOM     11  C   UNL     1       5.473  -7.396   9.768  1.00  0.00     0.004 C 
ENDBRANCH   9  10
ENDBRANCH   8   9
ENDBRANCH   7   8
ENDBRANCH   1   7
TORSDOF 7
ENDMDL
MODEL 6
REMARK VINA RESULT:    -2.837     13.900     14.440
REMARK INTER + INTRA:          -4.192
REMARK INTER:                  -3.818
REMARK INTRA:                  -0.373
REMARK UNBOUND:                -0.194
REMARK SMILES CCCCCCCCC(=O)[O-]
REMARK SMILES IDX 6 1 7 2 8 3 9 4 10 5 11 6 5 7 4 8 3 9 2 10 1 11
REMARK H PARENT
REMARK Flexibility Score: inf
ROOT
ATOM      1  C   UNL     1       7.277   2.596  -9.543  1.00  0.00     0.000 C 
ENDROOT
BRANCH   1   2
ATOM      2  C   UNL     1       6.647   3.912 -10.029  1.00  0.00     0.006 C 
BRANCH   2   3
ATOM      3  C   UNL     1       7.356   5.148  -9.460  1.00  0.00     0.053 C 
BRANCH   3   4
ATOM      4  C   UNL     1       6.478   6.354  -9.581  1.00  0.00     0.041 C 
ATOM      5  O   UNL     1       6.981   7.509  -9.562  1.00  0.00    -0.550 OA
ATOM      6  O   UNL     1       5.099   6.205  -9.664  1.00  0.00    -0.550 OA
ENDBRANCH   3   4
ENDBRANCH   2   3
ENDBRANCH   1   2
BRANCH   1   7
ATOM      7  C   UNL     1       8.161   2.788  -8.299  1.00  0.00     0.000 C 
BRANCH   7   8
ATOM      8  C   UNL     1       9.598   2.279  -8.507  1.00  0.00    -0.000 C 
BRANCH   8   9
ATOM      9  C   UNL     1      10.020   1.121  -7.579  1.00  0.00    -0.000 C 
BRANCH   9  10
ATOM     10  C   UNL     1      10.041  -0.266  -8.243  1.00  0.00    -0.003 C 
ATOM     11  C   UNL     1      10.105  -0.197  -9.768  1.00  0.00     0.004 C 
ENDBRANCH   9  10
ENDBRANCH   8   9
ENDBRANCH   7   8
ENDBRANCH   1   7
TORSDOF 7
ENDMDL
MODEL 7
REMARK VINA RESULT:    -2.770     13.741     15.582
REMARK INTER + INTRA:          -4.097
REMARK INTER:                  -3.717
REMARK INTRA:                  -0.380
REMARK UNBOUND:                -0.194
REMARK SMILES CCCCCCCCC(=O)[O-]
REMARK SMILES IDX 6 1 7 2 8 3 9 4 10 5 11 6 5 7 4 8 3 9 2 10 1 11
REMARK H PARENT
REMARK Flexibility Score: inf
ROOT
ATOM      1  C   UNL     1       2.834  -9.874   9.865  1.00  0.00     0.000 C 
ENDROOT
BRANCH   1   2
ATOM      2  C   UNL     1       3.710  -9.899   8.602  1.00  0.00     0.006 C 
BRANCH   2   3
ATOM      3  C   UNL     1       5.139  -9.406   8.868  1.00  0.00     0.053 C 
BRANCH   3   4
ATOM      4  C   UNL     1       5.326  -8.028   8.315  1.00  0.00     0.041 C 
ATOM      5  O   UNL     1       5.887  -7.138   9.008  1.00  0.00    -0.550 OA
ATOM      6  O   UNL     1       4.837  -7.712   7.054  1.00  0.00    -0.550 OA
ENDBRANCH   3   4
ENDBRANCH   2   3
ENDBRANCH   1   2
BRANCH   1   7
ATOM      7  C   UNL     1       1.565  -9.024   9.687  1.00  0.00     0.000 C 
BRANCH   7   8
ATOM      8  C   UNL     1       1.836  -7.692   8.967  1.00  0.00    -0.000 C 
BRANCH   8   9
ATOM      9  C   UNL     1       1.713  -6.435   9.852  1.00  0.00    -0.000 C 
BRANCH   9  10
ATOM     10  C   UNL     1       0.670  -5.408   9.379  1.00  0.00    -0.003 C 
ATOM     11  C   UNL     1       0.283  -5.584   7.911  1.00  0.00     0.004 C 
ENDBRANCH   9  10
ENDBRANCH   8   9
ENDBRANCH   7   8
ENDBRANCH   1   7
TORSDOF 7
ENDMDL
MODEL 8
REMARK VINA RESULT:    -2.690      9.806     11.474
REMARK INTER + INTRA:          -3.985
REMARK INTER:                  -3.423
REMARK INTRA:                  -0.562
REMARK UNBOUND:                -0.194
REMARK SMILES CCCCCCCCC(=O)[O-]
REMARK SMILES IDX 6 1 7 2 8 3 9 4 10 5 11 6 5 7 4 8 3 9 2 10 1 11
REMARK H PARENT
REMARK Flexibility Score: inf
ROOT
ATOM      1  C   UNL     1      -9.366   9.320  -8.791  1.00  0.00     0.000 C 
ENDROOT
BRANCH   1   2
ATOM      2  C   UNL     1      -8.059  10.125  -8.695  1.00  0.00     0.006 C 
BRANCH   2   3
ATOM      3  C   UNL     1      -7.014   9.673  -9.724  1.00  0.00     0.053 C 
BRANCH   3   4
ATOM      4  C   UNL     1      -5.716   9.363  -9.046  1.00  0.00     0.041 C 
ATOM      5  O   UNL     1      -5.621   9.443  -7.792  1.00  0.00    -0.550 OA
ATOM      6  O   UNL     1      -4.598   9.033  -9.801  1.00  0.00    -0.550 OA
ENDBRANCH   3   4
ENDBRANCH   2   3
ENDBRANCH   1   2
BRANCH   1   7
ATOM      7  C   UNL     1      -9.211   8.039  -9.628  1.00  0.00     0.000 C 
BRANCH   7   8
ATOM      8  C   UNL     1      -9.185   6.764  -8.767  1.00  0.00    -0.000 C 
BRANCH   8   9
ATOM      9  C   UNL     1      -7.812   6.419  -8.155  1.00  0.00    -0.000 C 
BRANCH   9  10
ATOM     10  C   UNL     1      -7.846   6.007  -6.674  1.00  0.00    -0.003 C 
ATOM     11  C   UNL     1      -6.505   6.202  -5.969  1.00  0.00     0.004 C 
ENDBRANCH   9  10
ENDBRANCH   8   9
ENDBRANCH   7   8
ENDBRANCH   1   7
TORSDOF 7
ENDMDL
