MODEL 1
REMARK VINA RESULT:    -5.933      0.000      0.000
REMARK INTER + INTRA:          -6.695
REMARK INTER:                  -6.453
REMARK INTRA:                  -0.242
REMARK UNBOUND:                -0.242
REMARK SMILES O=C([O-])c1ccccc1O
REMARK SMILES IDX 4 1 9 2 5 3 8 4 6 5 7 6 2 7 1 8 3 9 10 10
REMARK H PARENT 10 11
REMARK Flexibility Score: inf
ROOT
ATOM      1  C   UNL     1     -30.086  57.811   4.648  1.00  0.00     0.039 A 
ATOM      2  C   UNL     1     -30.865  56.879   3.922  1.00  0.00     0.124 A 
ATOM      3  C   UNL     1     -28.960  58.384   4.024  1.00  0.00     0.014 A 
ATOM      4  C   UNL     1     -30.509  56.542   2.608  1.00  0.00     0.047 A 
ATOM      5  C   UNL     1     -28.617  58.040   2.714  1.00  0.00     0.001 A 
ATOM      6  C   UNL     1     -29.390  57.120   2.007  1.00  0.00     0.004 A 
ENDROOT
BRANCH   1   7
ATOM      7  C   UNL     1     -30.427  58.196   6.042  1.00  0.00     0.075 C 
ATOM      8  O   UNL     1     -31.628  58.370   6.379  1.00  0.00    -0.545 OA
ATOM      9  O   UNL     1     -29.436  58.374   7.000  1.00  0.00    -0.545 OA
ENDBRANCH   1   7
BRANCH   2  10
ATOM     10  O   UNL     1     -31.988  56.284   4.499  1.00  0.00    -0.507 OA
ATOM     11  H   UNL     1     -32.066  56.153   5.501  1.00  0.00     0.293 HD
ENDBRANCH   2  10
TORSDOF 2
ENDMDL
MODEL 2
REMARK VINA RESULT:    -5.748      5.890      7.419
REMARK INTER + INTRA:          -6.493
REMARK INTER:                  -6.246
REMARK INTRA:                  -0.247
REMARK UNBOUND:                -0.242
REMARK SMILES O=C([O-])c1ccccc1O
REMARK SMILES IDX 4 1 9 2 5 3 8 4 6 5 7 6 2 7 1 8 3 9 10 10
REMARK H PARENT 10 11
REMARK Flexibility Score: inf
ROOT
ATOM      1  C   UNL     1     -27.732  57.280  -1.764  1.00  0.00     0.039 A 
ATOM      2  C   UNL     1     -28.958  57.985  -1.771  1.00  0.00     0.124 A 
ATOM      3  C   UNL     1     -27.185  56.885  -0.526  1.00  0.00     0.014 A 
ATOM      4  C   UNL     1     -29.604  58.279  -0.561  1.00  0.00     0.047 A 
ATOM      5  C   UNL     1     -27.840  57.183   0.671  1.00  0.00     0.001 A 
ATOM      6  C   UNL     1     -29.047  57.880   0.654  1.00  0.00     0.004 A 
ENDROOT
BRANCH   1   7
ATOM      7  C   UNL     1     -27.014  56.948  -3.021  1.00  0.00     0.075 C 
ATOM      8  O   UNL     1     -25.755  56.994  -3.066  1.00  0.00    -0.545 OA
ATOM      9  O   UNL     1     -27.706  56.581  -4.168  1.00  0.00    -0.545 OA
ENDBRANCH   1   7
BRANCH   2  10
ATOM     10  O   UNL     1     -29.538  58.397  -2.972  1.00  0.00    -0.507 OA
ATOM     11  H   UNL     1     -28.992  58.497  -3.820  1.00  0.00     0.293 HD
ENDBRANCH   2  10
TORSDOF 2
ENDMDL
MODEL 3
REMARK VINA RESULT:    -5.697     11.745     13.052
REMARK INTER + INTRA:          -6.439
REMARK INTER:                  -6.283
REMARK INTRA:                  -0.156
REMARK UNBOUND:                -0.242
REMARK SMILES O=C([O-])c1ccccc1O
REMARK SMILES IDX 4 1 9 2 5 3 8 4 6 5 7 6 2 7 1 8 3 9 10 10
REMARK H PARENT 10 11
REMARK Flexibility Score: inf
ROOT
ATOM      1  C   UNL     1     -21.566  57.293  -4.931  1.00  0.00     0.039 A 
ATOM      2  C   UNL     1     -20.865  56.281  -4.233  1.00  0.00     0.124 A 
ATOM      3  C   UNL     1     -20.840  58.382  -5.455  1.00  0.00     0.014 A 
ATOM      4  C   UNL     1     -19.474  56.376  -4.073  1.00  0.00     0.047 A 
ATOM      5  C   UNL     1     -19.456  58.463  -5.290  1.00  0.00     0.001 A 
ATOM      6  C   UNL     1     -18.773  57.462  -4.600  1.00  0.00     0.004 A 
ENDROOT
BRANCH   1   7
ATOM      7  C   UNL     1     -23.038  57.233  -5.123  1.00  0.00     0.075 C 
ATOM      8  O   UNL     1     -23.816  57.514  -4.172  1.00  0.00    -0.545 OA
ATOM      9  O   UNL     1     -23.588  56.870  -6.346  1.00  0.00    -0.545 OA
ENDBRANCH   1   7
BRANCH   2  10
ATOM     10  O   UNL     1     -21.540  55.185  -3.695  1.00  0.00    -0.507 OA
ATOM     11  H   UNL     1     -21.057  54.468  -3.167  1.00  0.00     0.293 HD
ENDBRANCH   2  10
TORSDOF 2
ENDMDL
MODEL 4
REMARK VINA RESULT:    -5.639      6.278      8.289
REMARK INTER + INTRA:          -6.376
REMARK INTER:                  -6.178
REMARK INTRA:                  -0.198
REMARK UNBOUND:                -0.242
REMARK SMILES O=C([O-])c1ccccc1O
REMARK SMILES IDX 4 1 9 2 5 3 8 4 6 5 7 6 2 7 1 8 3 9 10 10
REMARK H PARENT 10 11
REMARK Flexibility Score: inf
ROOT
ATOM      1  C   UNL     1     -27.552  59.091  11.091  1.00  0.00     0.039 A 
ATOM      2  C   UNL     1     -26.794  60.258  10.834  1.00  0.00     0.124 A 
ATOM      3  C   UNL     1     -27.162  58.250  12.153  1.00  0.00     0.014 A 
ATOM      4  C   UNL     1     -25.678  60.557  11.630  1.00  0.00     0.047 A 
ATOM      5  C   UNL     1     -26.049  58.561  12.938  1.00  0.00     0.001 A 
ATOM      6  C   UNL     1     -25.308  59.712  12.677  1.00  0.00     0.004 A 
ENDROOT
BRANCH   1   7
ATOM      7  C   UNL     1     -28.741  58.736  10.274  1.00  0.00     0.075 C 
ATOM      8  O   UNL     1     -29.890  58.733  10.790  1.00  0.00    -0.545 OA
ATOM      9  O   UNL     1     -28.614  58.400   8.931  1.00  0.00    -0.545 OA
ENDBRANCH   1   7
BRANCH   2  10
ATOM     10  O   UNL     1     -27.141  61.120   9.793  1.00  0.00    -0.507 OA
ATOM     11  H   UNL     1     -27.365  62.094   9.961  1.00  0.00     0.293 HD
ENDBRANCH   2  10
TORSDOF 2
ENDMDL
MODEL 5
REMARK VINA RESULT:    -5.582      1.188      2.484
REMARK INTER + INTRA:          -6.314
REMARK INTER:                  -6.100
REMARK INTRA:                  -0.214
REMARK UNBOUND:                -0.242
REMARK SMILES O=C([O-])c1ccccc1O
REMARK SMILES IDX 4 1 9 2 5 3 8 4 6 5 7 6 2 7 1 8 3 9 10 10
REMARK H PARENT 10 11
REMARK Flexibility Score: inf
ROOT
ATOM      1  C   UNL     1     -29.879  57.747   4.131  1.00  0.00     0.039 A 
ATOM      2  C   UNL     1     -28.708  58.208   3.485  1.00  0.00     0.124 A 
ATOM      3  C   UNL     1     -30.781  56.942   3.406  1.00  0.00     0.014 A 
ATOM      4  C   UNL     1     -28.464  57.862   2.147  1.00  0.00     0.047 A 
ATOM      5  C   UNL     1     -30.525  56.604   2.075  1.00  0.00     0.001 A 
ATOM      6  C   UNL     1     -29.368  57.064   1.446  1.00  0.00     0.004 A 
ENDROOT
BRANCH   1   7
ATOM      7  C   UNL     1     -30.178  58.089   5.546  1.00  0.00     0.075 C 
ATOM      8  O   UNL     1     -29.241  58.329   6.354  1.00  0.00    -0.545 OA
ATOM      9  O   UNL     1     -31.486  58.153   6.008  1.00  0.00    -0.545 OA
ENDBRANCH   1   7
BRANCH   2  10
ATOM     10  O   UNL     1     -27.787  59.008   4.162  1.00  0.00    -0.507 OA
ATOM     11  H   UNL     1     -27.507  58.808   5.116  1.00  0.00     0.293 HD
ENDBRANCH   2  10
TORSDOF 2
ENDMDL
MODEL 6
REMARK VINA RESULT:    -5.500     13.178     14.521
REMARK INTER + INTRA:          -6.224
REMARK INTER:                  -6.005
REMARK INTRA:                  -0.220
REMARK UNBOUND:                -0.242
REMARK SMILES O=C([O-])c1ccccc1O
REMARK SMILES IDX 4 1 9 2 5 3 8 4 6 5 7 6 2 7 1 8 3 9 10 10
REMARK H PARENT 10 11
REMARK Flexibility Score: inf
ROOT
ATOM      1  C   UNL     1     -20.019  58.192  -5.467  1.00  0.00     0.039 A 
ATOM      2  C   UNL     1     -19.147  58.589  -4.426  1.00  0.00     0.124 A 
ATOM      3  C   UNL     1     -19.516  58.121  -6.782  1.00  0.00     0.014 A 
ATOM      4  C   UNL     1     -17.810  58.903  -4.714  1.00  0.00     0.047 A 
ATOM      5  C   UNL     1     -18.182  58.435  -7.054  1.00  0.00     0.001 A 
ATOM      6  C   UNL     1     -17.330  58.826  -6.022  1.00  0.00     0.004 A 
ENDROOT
BRANCH   1   7
ATOM      7  C   UNL     1     -21.442  57.851  -5.208  1.00  0.00     0.075 C 
ATOM      8  O   UNL     1     -22.246  58.736  -4.810  1.00  0.00    -0.545 OA
ATOM      9  O   UNL     1     -21.916  56.559  -5.396  1.00  0.00    -0.545 OA
ENDBRANCH   1   7
BRANCH   2  10
ATOM     10  O   UNL     1     -19.600  58.675  -3.109  1.00  0.00    -0.507 OA
ATOM     11  H   UNL     1     -18.960  58.794  -2.332  1.00  0.00     0.293 HD
ENDBRANCH   2  10
TORSDOF 2
ENDMDL
MODEL 7
REMARK VINA RESULT:    -5.497     12.861     14.074
REMARK INTER + INTRA:          -6.221
REMARK INTER:                  -6.000
REMARK INTRA:                  -0.221
REMARK UNBOUND:                -0.242
REMARK SMILES O=C([O-])c1ccccc1O
REMARK SMILES IDX 4 1 9 2 5 3 8 4 6 5 7 6 2 7 1 8 3 9 10 10
REMARK H PARENT 10 11
REMARK Flexibility Score: inf
ROOT
ATOM      1  C   UNL     1     -19.739  56.869  -4.694  1.00  0.00     0.039 A 
ATOM      2  C   UNL     1     -20.573  57.876  -5.234  1.00  0.00     0.124 A 
ATOM      3  C   UNL     1     -18.369  56.872  -5.029  1.00  0.00     0.014 A 
ATOM      4  C   UNL     1     -20.032  58.851  -6.085  1.00  0.00     0.047 A 
ATOM      5  C   UNL     1     -17.844  57.850  -5.876  1.00  0.00     0.001 A 
ATOM      6  C   UNL     1     -18.674  58.838  -6.404  1.00  0.00     0.004 A 
ENDROOT
BRANCH   1   7
ATOM      7  C   UNL     1     -20.269  55.816  -3.789  1.00  0.00     0.075 C 
ATOM      8  O   UNL     1     -19.511  55.253  -2.954  1.00  0.00    -0.545 OA
ATOM      9  O   UNL     1     -21.603  55.430  -3.841  1.00  0.00    -0.545 OA
ENDBRANCH   1   7
BRANCH   2  10
ATOM     10  O   UNL     1     -21.935  57.913  -4.932  1.00  0.00    -0.507 OA
ATOM     11  H   UNL     1     -22.445  58.787  -4.879  1.00  0.00     0.293 HD
ENDBRANCH   2  10
TORSDOF 2
ENDMDL
MODEL 8
REMARK VINA RESULT:    -5.379      4.852      5.879
REMARK INTER + INTRA:          -6.092
REMARK INTER:                  -5.852
REMARK INTRA:                  -0.240
REMARK UNBOUND:                -0.242
REMARK SMILES O=C([O-])c1ccccc1O
REMARK SMILES IDX 4 1 9 2 5 3 8 4 6 5 7 6 2 7 1 8 3 9 10 10
REMARK H PARENT 10 11
REMARK Flexibility Score: inf
ROOT
ATOM      1  C   UNL     1     -28.438  57.027  -0.004  1.00  0.00     0.039 A 
ATOM      2  C   UNL     1     -29.567  57.808  -0.347  1.00  0.00     0.124 A 
ATOM      3  C   UNL     1     -28.518  56.177   1.118  1.00  0.00     0.014 A 
ATOM      4  C   UNL     1     -30.735  57.727   0.426  1.00  0.00     0.047 A 
ATOM      5  C   UNL     1     -29.688  56.106   1.878  1.00  0.00     0.001 A 
ATOM      6  C   UNL     1     -30.795  56.880   1.533  1.00  0.00     0.004 A 
ENDROOT
BRANCH   1   7
ATOM      7  C   UNL     1     -27.181  57.081  -0.793  1.00  0.00     0.075 C 
ATOM      8  O   UNL     1     -26.065  56.948  -0.223  1.00  0.00    -0.545 OA
ATOM      9  O   UNL     1     -27.204  57.280  -2.168  1.00  0.00    -0.545 OA
ENDBRANCH   1   7
BRANCH   2  10
ATOM     10  O   UNL     1     -29.534  58.664  -1.448  1.00  0.00    -0.507 OA
ATOM     11  H   UNL     1     -29.856  59.624  -1.386  1.00  0.00     0.293 HD
ENDBRANCH   2  10
TORSDOF 2
ENDMDL
MODEL 9
REMARK VINA RESULT:    -5.347     12.876     14.146
REMARK INTER + INTRA:          -6.057
REMARK INTER:                  -5.815
REMARK INTRA:                  -0.243
REMARK UNBOUND:                -0.242
REMARK SMILES O=C([O-])c1ccccc1O
REMARK SMILES IDX 4 1 9 2 5 3 8 4 6 5 7 6 2 7 1 8 3 9 10 10
REMARK H PARENT 10 11
REMARK Flexibility Score: inf
ROOT
ATOM      1  C   UNL     1     -20.149  57.553  -4.689  1.00  0.00     0.039 A 
ATOM      2  C   UNL     1     -19.488  57.962  -5.871  1.00  0.00     0.124 A 
ATOM      3  C   UNL     1     -19.625  57.959  -3.445  1.00  0.00     0.014 A 
ATOM      4  C   UNL     1     -18.334  58.756  -5.789  1.00  0.00     0.047 A 
ATOM      5  C   UNL     1     -18.476  58.751  -3.378  1.00  0.00     0.001 A 
ATOM      6  C   UNL     1     -17.831  59.148  -4.549  1.00  0.00     0.004 A 
ENDROOT
BRANCH   1   7
ATOM      7  C   UNL     1     -21.373  56.712  -4.728  1.00  0.00     0.075 C 
ATOM      8  O   UNL     1     -22.263  56.924  -5.595  1.00  0.00    -0.545 OA
ATOM      9  O   UNL     1     -21.565  55.681  -3.817  1.00  0.00    -0.545 OA
ENDBRANCH   1   7
BRANCH   2  10
ATOM     10  O   UNL     1     -19.969  57.583  -7.125  1.00  0.00    -0.507 OA
ATOM     11  H   UNL     1     -20.786  56.992  -7.226  1.00  0.00     0.293 HD
ENDBRANCH   2  10
TORSDOF 2
ENDMDL
