MODEL 1
REMARK VINA RESULT:    -4.772      0.000      0.000
REMARK INTER + INTRA:          -5.572
REMARK INTER:                  -5.469
REMARK INTRA:                  -0.103
REMARK UNBOUND:                -0.103
REMARK SMILES COc1cc(C(=O)[O-])ccc1O
REMARK SMILES IDX 5 1 9 2 4 3 10 4 3 5 11 6 6 7 7 8 8 9 2 10 1 11 12 12
REMARK H PARENT 12 13
REMARK Flexibility Score: inf
ROOT
ATOM      1  C   UNL     1      24.680  65.557  91.152  1.00  0.00     0.001 A 
ATOM      2  C   UNL     1      25.843  64.788  90.979  1.00  0.00     0.014 A 
ATOM      3  C   UNL     1      23.428  64.916  91.138  1.00  0.00     0.060 A 
ATOM      4  C   UNL     1      25.757  63.407  90.796  1.00  0.00     0.051 A 
ATOM      5  C   UNL     1      23.336  63.521  90.954  1.00  0.00     0.161 A 
ATOM      6  C   UNL     1      24.508  62.772  90.783  1.00  0.00     0.157 A 
ENDROOT
BRANCH   1   7
ATOM      7  C   UNL     1      24.768  67.021  91.346  1.00  0.00     0.072 C 
ATOM      8  O   UNL     1      23.729  67.734  91.325  1.00  0.00    -0.545 OA
ATOM      9  O   UNL     1      25.999  67.633  91.556  1.00  0.00    -0.545 OA
ENDBRANCH   1   7
BRANCH   5  10
ATOM     10  O   UNL     1      22.104  62.848  90.934  1.00  0.00    -0.493 OA
ATOM     11  C   UNL     1      21.230  62.796  89.811  1.00  0.00     0.278 C 
ENDBRANCH   5  10
BRANCH   6  12
ATOM     12  O   UNL     1      24.424  61.393  90.600  1.00  0.00    -0.504 OA
ATOM     13  H   UNL     1      25.015  60.752  91.115  1.00  0.00     0.293 HD
ENDBRANCH   6  12
TORSDOF 3
ENDMDL
MODEL 2
REMARK VINA RESULT:    -4.682      2.097      4.938
REMARK INTER + INTRA:          -5.469
REMARK INTER:                  -5.379
REMARK INTRA:                  -0.090
REMARK UNBOUND:                -0.103
REMARK SMILES COc1cc(C(=O)[O-])ccc1O
REMARK SMILES IDX 5 1 9 2 4 3 10 4 3 5 11 6 6 7 7 8 8 9 2 10 1 11 12 12
REMARK H PARENT 12 13
REMARK Flexibility Score: inf
ROOT
ATOM      1  C   UNL     1      23.683  61.436  90.713  1.00  0.00     0.001 A 
ATOM      2  C   UNL     1      23.422  61.513  89.335  1.00  0.00     0.014 A 
ATOM      3  C   UNL     1      23.669  62.616  91.479  1.00  0.00     0.060 A 
ATOM      4  C   UNL     1      23.153  62.744  88.734  1.00  0.00     0.051 A 
ATOM      5  C   UNL     1      23.397  63.861  90.876  1.00  0.00     0.161 A 
ATOM      6  C   UNL     1      23.140  63.917  89.500  1.00  0.00     0.157 A 
ENDROOT
BRANCH   1   7
ATOM      7  C   UNL     1      23.969  60.133  91.353  1.00  0.00     0.072 C 
ATOM      8  O   UNL     1      23.089  59.549  92.039  1.00  0.00    -0.545 OA
ATOM      9  O   UNL     1      25.215  59.533  91.206  1.00  0.00    -0.545 OA
ENDBRANCH   1   7
BRANCH   5  10
ATOM     10  O   UNL     1      23.375  65.058  91.609  1.00  0.00    -0.493 OA
ATOM     11  C   UNL     1      24.528  65.833  91.925  1.00  0.00     0.278 C 
ENDBRANCH   5  10
BRANCH   6  12
ATOM     12  O   UNL     1      22.870  65.145  88.899  1.00  0.00    -0.504 OA
ATOM     13  H   UNL     1      22.791  65.996  89.443  1.00  0.00     0.293 HD
ENDBRANCH   6  12
TORSDOF 3
ENDMDL
MODEL 3
REMARK VINA RESULT:    -4.553      2.202      4.869
REMARK INTER + INTRA:          -5.321
REMARK INTER:                  -5.222
REMARK INTRA:                  -0.099
REMARK UNBOUND:                -0.103
REMARK SMILES COc1cc(C(=O)[O-])ccc1O
REMARK SMILES IDX 5 1 9 2 4 3 10 4 3 5 11 6 6 7 7 8 8 9 2 10 1 11 12 12
REMARK H PARENT 12 13
REMARK Flexibility Score: inf
ROOT
ATOM      1  C   UNL     1      23.803  61.867  90.533  1.00  0.00     0.001 A 
ATOM      2  C   UNL     1      23.239  62.277  91.753  1.00  0.00     0.014 A 
ATOM      3  C   UNL     1      24.197  62.843  89.600  1.00  0.00     0.060 A 
ATOM      4  C   UNL     1      23.071  63.634  92.034  1.00  0.00     0.051 A 
ATOM      5  C   UNL     1      24.030  64.215  89.880  1.00  0.00     0.161 A 
ATOM      6  C   UNL     1      23.464  64.602  91.102  1.00  0.00     0.157 A 
ENDROOT
BRANCH   1   7
ATOM      7  C   UNL     1      23.982  60.429  90.232  1.00  0.00     0.072 C 
ATOM      8  O   UNL     1      23.693  59.972  89.094  1.00  0.00    -0.545 OA
ATOM      9  O   UNL     1      24.474  59.561  91.200  1.00  0.00    -0.545 OA
ENDBRANCH   1   7
BRANCH   5  10
ATOM     10  O   UNL     1      24.410  65.216  88.972  1.00  0.00    -0.493 OA
ATOM     11  C   UNL     1      23.682  65.559  87.797  1.00  0.00     0.278 C 
ENDBRANCH   5  10
BRANCH   6  12
ATOM     12  O   UNL     1      23.296  65.957  91.384  1.00  0.00    -0.504 OA
ATOM     13  H   UNL     1      23.486  66.671  90.690  1.00  0.00     0.293 HD
ENDBRANCH   6  12
TORSDOF 3
ENDMDL
MODEL 4
REMARK VINA RESULT:    -4.537      2.191      5.420
REMARK INTER + INTRA:          -5.303
REMARK INTER:                  -5.206
REMARK INTRA:                  -0.096
REMARK UNBOUND:                -0.103
REMARK SMILES COc1cc(C(=O)[O-])ccc1O
REMARK SMILES IDX 5 1 9 2 4 3 10 4 3 5 11 6 6 7 7 8 8 9 2 10 1 11 12 12
REMARK H PARENT 12 13
REMARK Flexibility Score: inf
ROOT
ATOM      1  C   UNL     1      23.313  60.567  91.116  1.00  0.00     0.001 A 
ATOM      2  C   UNL     1      22.283  60.418  90.172  1.00  0.00     0.014 A 
ATOM      3  C   UNL     1      23.613  61.852  91.604  1.00  0.00     0.060 A 
ATOM      4  C   UNL     1      21.567  61.530  89.725  1.00  0.00     0.051 A 
ATOM      5  C   UNL     1      22.893  62.977  91.155  1.00  0.00     0.161 A 
ATOM      6  C   UNL     1      21.869  62.807  90.213  1.00  0.00     0.157 A 
ENDROOT
BRANCH   1   7
ATOM      7  C   UNL     1      24.074  59.390  91.592  1.00  0.00     0.072 C 
ATOM      8  O   UNL     1      23.539  58.552  92.365  1.00  0.00    -0.545 OA
ATOM      9  O   UNL     1      25.391  59.192  91.192  1.00  0.00    -0.545 OA
ENDBRANCH   1   7
BRANCH   5  10
ATOM     10  O   UNL     1      23.165  64.274  91.619  1.00  0.00    -0.493 OA
ATOM     11  C   UNL     1      24.272  65.066  91.199  1.00  0.00     0.278 C 
ENDBRANCH   5  10
BRANCH   6  12
ATOM     12  O   UNL     1      21.154  63.917  89.765  1.00  0.00    -0.504 OA
ATOM     13  H   UNL     1      21.622  64.735  89.394  1.00  0.00     0.293 HD
ENDBRANCH   6  12
TORSDOF 3
ENDMDL
MODEL 5
REMARK VINA RESULT:    -4.535      1.970      3.235
REMARK INTER + INTRA:          -5.301
REMARK INTER:                  -5.223
REMARK INTRA:                  -0.077
REMARK UNBOUND:                -0.103
REMARK SMILES COc1cc(C(=O)[O-])ccc1O
REMARK SMILES IDX 5 1 9 2 4 3 10 4 3 5 11 6 6 7 7 8 8 9 2 10 1 11 12 12
REMARK H PARENT 12 13
REMARK Flexibility Score: inf
ROOT
ATOM      1  C   UNL     1      24.500  63.597  90.640  1.00  0.00     0.001 A 
ATOM      2  C   UNL     1      23.472  64.365  90.067  1.00  0.00     0.014 A 
ATOM      3  C   UNL     1      24.260  62.242  90.932  1.00  0.00     0.060 A 
ATOM      4  C   UNL     1      22.229  63.791  89.792  1.00  0.00     0.051 A 
ATOM      5  C   UNL     1      23.006  61.659  90.656  1.00  0.00     0.161 A 
ATOM      6  C   UNL     1      21.994  62.442  90.085  1.00  0.00     0.157 A 
ENDROOT
BRANCH   1   7
ATOM      7  C   UNL     1      25.818  64.203  90.932  1.00  0.00     0.072 C 
ATOM      8  O   UNL     1      26.875  63.683  90.486  1.00  0.00    -0.545 OA
ATOM      9  O   UNL     1      25.909  65.356  91.703  1.00  0.00    -0.545 OA
ENDBRANCH   1   7
BRANCH   5  10
ATOM     10  O   UNL     1      22.731  60.311  90.935  1.00  0.00    -0.493 OA
ATOM     11  C   UNL     1      23.539  59.475  91.759  1.00  0.00     0.278 C 
ENDBRANCH   5  10
BRANCH   6  12
ATOM     12  O   UNL     1      20.753  61.869  89.811  1.00  0.00    -0.504 OA
ATOM     13  H   UNL     1      20.630  61.207  89.054  1.00  0.00     0.293 HD
ENDBRANCH   6  12
TORSDOF 3
ENDMDL
MODEL 6
REMARK VINA RESULT:    -4.482      2.735      3.648
REMARK INTER + INTRA:          -5.240
REMARK INTER:                  -5.152
REMARK INTRA:                  -0.088
REMARK UNBOUND:                -0.103
REMARK SMILES COc1cc(C(=O)[O-])ccc1O
REMARK SMILES IDX 5 1 9 2 4 3 10 4 3 5 11 6 6 7 7 8 8 9 2 10 1 11 12 12
REMARK H PARENT 12 13
REMARK Flexibility Score: inf
ROOT
ATOM      1  C   UNL     1      23.902  62.657  90.655  1.00  0.00     0.001 A 
ATOM      2  C   UNL     1      23.718  62.471  89.274  1.00  0.00     0.014 A 
ATOM      3  C   UNL     1      23.733  61.562  91.521  1.00  0.00     0.060 A 
ATOM      4  C   UNL     1      23.372  61.216  88.770  1.00  0.00     0.051 A 
ATOM      5  C   UNL     1      23.384  60.293  91.016  1.00  0.00     0.161 A 
ATOM      6  C   UNL     1      23.204  60.128  89.637  1.00  0.00     0.157 A 
ENDROOT
BRANCH   1   7
ATOM      7  C   UNL     1      24.270  63.986  91.192  1.00  0.00     0.072 C 
ATOM      8  O   UNL     1      23.396  64.733  91.707  1.00  0.00    -0.545 OA
ATOM      9  O   UNL     1      25.586  64.430  91.138  1.00  0.00    -0.545 OA
ENDBRANCH   1   7
BRANCH   5  10
ATOM     10  O   UNL     1      23.206  59.179  91.852  1.00  0.00    -0.493 OA
ATOM     11  C   UNL     1      24.260  58.336  92.308  1.00  0.00     0.278 C 
ENDBRANCH   5  10
BRANCH   6  12
ATOM     12  O   UNL     1      22.858  58.876  89.132  1.00  0.00    -0.504 OA
ATOM     13  H   UNL     1      22.754  58.070  89.738  1.00  0.00     0.293 HD
ENDBRANCH   6  12
TORSDOF 3
ENDMDL
MODEL 7
REMARK VINA RESULT:    -4.397      4.730      7.520
REMARK INTER + INTRA:          -5.142
REMARK INTER:                  -5.040
REMARK INTRA:                  -0.102
REMARK UNBOUND:                -0.103
REMARK SMILES COc1cc(C(=O)[O-])ccc1O
REMARK SMILES IDX 5 1 9 2 4 3 10 4 3 5 11 6 6 7 7 8 8 9 2 10 1 11 12 12
REMARK H PARENT 12 13
REMARK Flexibility Score: inf
ROOT
ATOM      1  C   UNL     1      22.500  57.891  88.989  1.00  0.00     0.001 A 
ATOM      2  C   UNL     1      22.003  57.019  89.972  1.00  0.00     0.014 A 
ATOM      3  C   UNL     1      23.197  59.046  89.388  1.00  0.00     0.060 A 
ATOM      4  C   UNL     1      22.198  57.295  91.326  1.00  0.00     0.051 A 
ATOM      5  C   UNL     1      23.396  59.329  90.755  1.00  0.00     0.161 A 
ATOM      6  C   UNL     1      22.892  58.446  91.720  1.00  0.00     0.157 A 
ENDROOT
BRANCH   1   7
ATOM      7  C   UNL     1      22.295  57.601  87.552  1.00  0.00     0.072 C 
ATOM      8  O   UNL     1      21.420  56.773  87.184  1.00  0.00    -0.545 OA
ATOM      9  O   UNL     1      23.066  58.238  86.587  1.00  0.00    -0.545 OA
ENDBRANCH   1   7
BRANCH   5  10
ATOM     10  O   UNL     1      24.085  60.472  91.190  1.00  0.00    -0.493 OA
ATOM     11  C   UNL     1      23.511  61.772  91.289  1.00  0.00     0.278 C 
ENDBRANCH   5  10
BRANCH   6  12
ATOM     12  O   UNL     1      23.086  58.721  93.072  1.00  0.00    -0.504 OA
ATOM     13  H   UNL     1      22.317  58.707  93.732  1.00  0.00     0.293 HD
ENDBRANCH   6  12
TORSDOF 3
ENDMDL
MODEL 8
REMARK VINA RESULT:    -4.373      3.284      5.793
REMARK INTER + INTRA:          -5.115
REMARK INTER:                  -5.034
REMARK INTRA:                  -0.080
REMARK UNBOUND:                -0.103
REMARK SMILES COc1cc(C(=O)[O-])ccc1O
REMARK SMILES IDX 5 1 9 2 4 3 10 4 3 5 11 6 6 7 7 8 8 9 2 10 1 11 12 12
REMARK H PARENT 12 13
REMARK Flexibility Score: inf
ROOT
ATOM      1  C   UNL     1      22.858  59.861  90.834  1.00  0.00     0.001 A 
ATOM      2  C   UNL     1      23.723  60.803  91.417  1.00  0.00     0.014 A 
ATOM      3  C   UNL     1      21.757  60.315  90.087  1.00  0.00     0.060 A 
ATOM      4  C   UNL     1      23.492  62.170  91.257  1.00  0.00     0.051 A 
ATOM      5  C   UNL     1      21.519  61.695  89.922  1.00  0.00     0.161 A 
ATOM      6  C   UNL     1      22.394  62.618  90.512  1.00  0.00     0.157 A 
ENDROOT
BRANCH   1   7
ATOM      7  C   UNL     1      23.101  58.411  91.003  1.00  0.00     0.072 C 
ATOM      8  O   UNL     1      22.142  57.595  90.985  1.00  0.00    -0.545 OA
ATOM      9  O   UNL     1      24.392  57.928  91.182  1.00  0.00    -0.545 OA
ENDBRANCH   1   7
BRANCH   5  10
ATOM     10  O   UNL     1      20.430  62.184  89.184  1.00  0.00    -0.493 OA
ATOM     11  C   UNL     1      19.137  62.439  89.725  1.00  0.00     0.278 C 
ENDBRANCH   5  10
BRANCH   6  12
ATOM     12  O   UNL     1      22.164  63.983  90.352  1.00  0.00    -0.504 OA
ATOM     13  H   UNL     1      21.302  64.333  89.949  1.00  0.00     0.293 HD
ENDBRANCH   6  12
TORSDOF 3
ENDMDL
MODEL 9
REMARK VINA RESULT:    -4.326      3.758      5.899
REMARK INTER + INTRA:          -5.061
REMARK INTER:                  -4.975
REMARK INTRA:                  -0.086
REMARK UNBOUND:                -0.103
REMARK SMILES COc1cc(C(=O)[O-])ccc1O
REMARK SMILES IDX 5 1 9 2 4 3 10 4 3 5 11 6 6 7 7 8 8 9 2 10 1 11 12 12
REMARK H PARENT 12 13
REMARK Flexibility Score: inf
ROOT
ATOM      1  C   UNL     1      23.763  59.862  90.911  1.00  0.00     0.001 A 
ATOM      2  C   UNL     1      23.740  61.207  91.317  1.00  0.00     0.014 A 
ATOM      3  C   UNL     1      23.594  59.555  89.549  1.00  0.00     0.060 A 
ATOM      4  C   UNL     1      23.552  62.225  90.380  1.00  0.00     0.051 A 
ATOM      5  C   UNL     1      23.404  60.580  88.600  1.00  0.00     0.161 A 
ATOM      6  C   UNL     1      23.383  61.916  89.025  1.00  0.00     0.157 A 
ENDROOT
BRANCH   1   7
ATOM      7  C   UNL     1      23.962  58.781  91.902  1.00  0.00     0.072 C 
ATOM      8  O   UNL     1      22.979  58.130  92.347  1.00  0.00    -0.545 OA
ATOM      9  O   UNL     1      25.238  58.466  92.356  1.00  0.00    -0.545 OA
ENDBRANCH   1   7
BRANCH   5  10
ATOM     10  O   UNL     1      23.231  60.312  87.233  1.00  0.00    -0.493 OA
ATOM     11  C   UNL     1      24.114  59.515  86.449  1.00  0.00     0.278 C 
ENDBRANCH   5  10
BRANCH   6  12
ATOM     12  O   UNL     1      23.196  62.932  88.090  1.00  0.00    -0.504 OA
ATOM     13  H   UNL     1      23.071  63.897  88.374  1.00  0.00     0.293 HD
ENDBRANCH   6  12
TORSDOF 3
ENDMDL
