MODEL 1
REMARK VINA RESULT:    -3.751      0.000      0.000
REMARK INTER + INTRA:          -4.672
REMARK INTER:                  -4.409
REMARK INTRA:                  -0.262
REMARK UNBOUND:                -0.262
REMARK SMILES O=c1cc(-c2ccc(O)c(O)c2)oc2cc(O)cc(O)c12
REMARK SMILES IDX 4 1 3 2 2 3 1 4 21 5 19 6 18 7 16 8 15 9 14 10 13 11 5 12
REMARK SMILES IDX 6 13 7 14 8 15 12 16 10 17 9 18 11 20 20 22 17 24
REMARK H PARENT 9 19 11 21 20 23 17 25
REMARK Flexibility Score: inf
ROOT
ATOM      1  C   UNL     1      18.276  34.972  43.917  1.00  0.00     0.138 A 
ATOM      2  C   UNL     1      17.213  34.688  44.785  1.00  0.00     0.100 A 
ATOM      3  C   UNL     1      15.907  34.668  44.293  1.00  0.00     0.197 A 
ATOM      4  O   UNL     1      14.980  34.349  45.081  1.00  0.00    -0.289 OA
ATOM      5  C   UNL     1      15.664  34.966  42.930  1.00  0.00     0.107 A 
ATOM      6  C   UNL     1      14.371  35.015  42.327  1.00  0.00     0.134 A 
ATOM      7  C   UNL     1      14.263  35.207  40.944  1.00  0.00     0.093 A 
ATOM      8  C   UNL     1      15.392  35.409  40.154  1.00  0.00     0.123 A 
ATOM      9  C   UNL     1      16.659  35.416  40.741  1.00  0.00     0.094 A 
ATOM     10  C   UNL     1      16.802  35.194  42.112  1.00  0.00     0.146 A 
ATOM     11  O   UNL     1      18.026  35.194  42.631  1.00  0.00    -0.456 OA
ENDROOT
BRANCH   1  12
ATOM     12  C   UNL     1      19.684  35.007  44.388  1.00  0.00     0.021 A 
ATOM     13  C   UNL     1      20.540  33.898  44.244  1.00  0.00     0.016 A 
ATOM     14  C   UNL     1      21.857  33.955  44.705  1.00  0.00     0.051 A 
ATOM     15  C   UNL     1      22.340  35.114  45.326  1.00  0.00     0.157 A 
ATOM     16  C   UNL     1      20.173  36.162  45.026  1.00  0.00     0.062 A 
ATOM     17  C   UNL     1      21.492  36.221  45.487  1.00  0.00     0.158 A 
BRANCH  15  18
ATOM     18  O   UNL     1      23.656  35.167  45.784  1.00  0.00    -0.504 OA
ATOM     19  H   UNL     1      24.415  34.736  45.270  1.00  0.00     0.293 HD
ENDBRANCH  15  18
BRANCH  17  20
ATOM     20  O   UNL     1      21.941  37.388  46.105  1.00  0.00    -0.504 OA
ATOM     21  H   UNL     1      22.745  37.396  46.722  1.00  0.00     0.293 HD
ENDBRANCH  17  20
ENDBRANCH   1  12
BRANCH   6  22
ATOM     22  O   UNL     1      13.172  34.909  43.039  1.00  0.00    -0.507 OA
ATOM     23  H   UNL     1      12.686  34.045  43.222  1.00  0.00     0.293 HD
ENDBRANCH   6  22
BRANCH   8  24
ATOM     24  O   UNL     1      15.245  35.611  38.782  1.00  0.00    -0.508 OA
ATOM     25  H   UNL     1      14.637  35.025  38.222  1.00  0.00     0.293 HD
ENDBRANCH   8  24
TORSDOF 5
ENDMDL
MODEL 2
REMARK VINA RESULT:    -3.708      1.435      7.185
REMARK INTER + INTRA:          -4.620
REMARK INTER:                  -4.347
REMARK INTRA:                  -0.273
REMARK UNBOUND:                -0.262
REMARK SMILES O=c1cc(-c2ccc(O)c(O)c2)oc2cc(O)cc(O)c12
REMARK SMILES IDX 4 1 3 2 2 3 1 4 21 5 19 6 18 7 16 8 15 9 14 10 13 11 5 12
REMARK SMILES IDX 6 13 7 14 8 15 12 16 10 17 9 18 11 20 20 22 17 24
REMARK H PARENT 9 19 11 21 20 23 17 25
REMARK Flexibility Score: inf
ROOT
ATOM      1  C   UNL     1      19.039  35.058  44.108  1.00  0.00     0.138 A 
ATOM      2  C   UNL     1      19.529  36.126  44.871  1.00  0.00     0.100 A 
ATOM      3  C   UNL     1      20.872  36.146  45.248  1.00  0.00     0.197 A 
ATOM      4  O   UNL     1      21.297  37.148  45.879  1.00  0.00    -0.289 OA
ATOM      5  C   UNL     1      21.720  35.072  44.885  1.00  0.00     0.107 A 
ATOM      6  C   UNL     1      23.097  34.966  45.249  1.00  0.00     0.134 A 
ATOM      7  C   UNL     1      23.866  33.915  44.734  1.00  0.00     0.093 A 
ATOM      8  C   UNL     1      23.298  32.937  43.920  1.00  0.00     0.123 A 
ATOM      9  C   UNL     1      21.941  33.002  43.601  1.00  0.00     0.094 A 
ATOM     10  C   UNL     1      21.154  34.056  44.071  1.00  0.00     0.146 A 
ATOM     11  O   UNL     1      19.869  34.090  43.734  1.00  0.00    -0.456 OA
ENDROOT
BRANCH   1  12
ATOM     12  C   UNL     1      17.619  34.986  43.680  1.00  0.00     0.021 A 
ATOM     13  C   UNL     1      16.579  34.750  44.600  1.00  0.00     0.016 A 
ATOM     14  C   UNL     1      15.253  34.678  44.168  1.00  0.00     0.051 A 
ATOM     15  C   UNL     1      14.941  34.831  42.811  1.00  0.00     0.157 A 
ATOM     16  C   UNL     1      17.298  35.125  42.317  1.00  0.00     0.062 A 
ATOM     17  C   UNL     1      15.970  35.054  41.882  1.00  0.00     0.158 A 
BRANCH  15  18
ATOM     18  O   UNL     1      13.616  34.759  42.385  1.00  0.00    -0.504 OA
ATOM     19  H   UNL     1      13.144  35.559  41.979  1.00  0.00     0.293 HD
ENDBRANCH  15  18
BRANCH  17  20
ATOM     20  O   UNL     1      15.693  35.206  40.524  1.00  0.00    -0.504 OA
ATOM     21  H   UNL     1      14.785  35.507  40.190  1.00  0.00     0.293 HD
ENDBRANCH  17  20
ENDBRANCH   1  12
BRANCH   6  22
ATOM     22  O   UNL     1      23.744  35.843  46.125  1.00  0.00    -0.507 OA
ATOM     23  H   UNL     1      24.664  36.229  45.978  1.00  0.00     0.293 HD
ENDBRANCH   6  22
BRANCH   8  24
ATOM     24  O   UNL     1      24.091  31.898  43.438  1.00  0.00    -0.508 OA
ATOM     25  H   UNL     1      24.669  31.340  44.056  1.00  0.00     0.293 HD
ENDBRANCH   8  24
TORSDOF 5
ENDMDL
MODEL 3
REMARK VINA RESULT:    -3.694      0.912      1.607
REMARK INTER + INTRA:          -4.604
REMARK INTER:                  -4.335
REMARK INTRA:                  -0.269
REMARK UNBOUND:                -0.262
REMARK SMILES O=c1cc(-c2ccc(O)c(O)c2)oc2cc(O)cc(O)c12
REMARK SMILES IDX 4 1 3 2 2 3 1 4 21 5 19 6 18 7 16 8 15 9 14 10 13 11 5 12
REMARK SMILES IDX 6 13 7 14 8 15 12 16 10 17 9 18 11 20 20 22 17 24
REMARK H PARENT 9 19 11 21 20 23 17 25
REMARK Flexibility Score: inf
ROOT
ATOM      1  C   UNL     1      17.865  35.269  43.893  1.00  0.00     0.138 A 
ATOM      2  C   UNL     1      16.900  34.588  44.647  1.00  0.00     0.100 A 
ATOM      3  C   UNL     1      15.716  34.171  44.037  1.00  0.00     0.197 A 
ATOM      4  O   UNL     1      14.897  33.508  44.722  1.00  0.00    -0.289 OA
ATOM      5  C   UNL     1      15.487  34.466  42.671  1.00  0.00     0.107 A 
ATOM      6  C   UNL     1      14.301  34.124  41.954  1.00  0.00     0.134 A 
ATOM      7  C   UNL     1      14.235  34.365  40.576  1.00  0.00     0.093 A 
ATOM      8  C   UNL     1      15.285  34.985  39.902  1.00  0.00     0.123 A 
ATOM      9  C   UNL     1      16.429  35.371  40.603  1.00  0.00     0.094 A 
ATOM     10  C   UNL     1      16.539  35.114  41.970  1.00  0.00     0.146 A 
ATOM     11  O   UNL     1      17.650  35.484  42.600  1.00  0.00    -0.456 OA
ENDROOT
BRANCH   1  12
ATOM     12  C   UNL     1      19.142  35.736  44.492  1.00  0.00     0.021 A 
ATOM     13  C   UNL     1      19.194  36.862  45.336  1.00  0.00     0.016 A 
ATOM     14  C   UNL     1      20.410  37.285  45.878  1.00  0.00     0.051 A 
ATOM     15  C   UNL     1      21.594  36.599  45.581  1.00  0.00     0.157 A 
ATOM     16  C   UNL     1      20.338  35.061  44.188  1.00  0.00     0.062 A 
ATOM     17  C   UNL     1      21.556  35.483  44.730  1.00  0.00     0.158 A 
BRANCH  15  18
ATOM     18  O   UNL     1      22.805  37.024  46.125  1.00  0.00    -0.504 OA
ATOM     19  H   UNL     1      23.071  36.794  47.075  1.00  0.00     0.293 HD
ENDBRANCH  15  18
BRANCH  17  20
ATOM     20  O   UNL     1      22.718  34.781  44.412  1.00  0.00    -0.504 OA
ATOM     21  H   UNL     1      23.518  34.751  45.034  1.00  0.00     0.293 HD
ENDBRANCH  17  20
ENDBRANCH   1  12
BRANCH   6  22
ATOM     22  O   UNL     1      13.159  33.577  42.548  1.00  0.00    -0.507 OA
ATOM     23  H   UNL     1      13.022  32.595  42.736  1.00  0.00     0.293 HD
ENDBRANCH   6  22
BRANCH   8  24
ATOM     24  O   UNL     1      15.178  35.221  38.532  1.00  0.00    -0.508 OA
ATOM     25  H   UNL     1      14.292  35.456  38.101  1.00  0.00     0.293 HD
ENDBRANCH   8  24
TORSDOF 5
ENDMDL
MODEL 4
REMARK VINA RESULT:    -3.552      3.878      7.842
REMARK INTER + INTRA:          -4.437
REMARK INTER:                  -4.147
REMARK INTRA:                  -0.291
REMARK UNBOUND:                -0.262
REMARK SMILES O=c1cc(-c2ccc(O)c(O)c2)oc2cc(O)cc(O)c12
REMARK SMILES IDX 4 1 3 2 2 3 1 4 21 5 19 6 18 7 16 8 15 9 14 10 13 11 5 12
REMARK SMILES IDX 6 13 7 14 8 15 12 16 10 17 9 18 11 20 20 22 17 24
REMARK H PARENT 9 19 11 21 20 23 17 25
REMARK Flexibility Score: inf
ROOT
ATOM      1  C   UNL     1      18.169  35.121  39.450  1.00  0.00     0.138 A 
ATOM      2  C   UNL     1      18.304  35.140  38.055  1.00  0.00     0.100 A 
ATOM      3  C   UNL     1      19.523  34.785  37.475  1.00  0.00     0.197 A 
ATOM      4  O   UNL     1      19.596  34.750  36.220  1.00  0.00    -0.289 OA
ATOM      5  C   UNL     1      20.620  34.440  38.301  1.00  0.00     0.107 A 
ATOM      6  C   UNL     1      21.921  34.099  37.822  1.00  0.00     0.134 A 
ATOM      7  C   UNL     1      22.896  33.663  38.727  1.00  0.00     0.093 A 
ATOM      8  C   UNL     1      22.638  33.611  40.095  1.00  0.00     0.123 A 
ATOM      9  C   UNL     1      21.385  33.992  40.580  1.00  0.00     0.094 A 
ATOM     10  C   UNL     1      20.381  34.399  39.700  1.00  0.00     0.146 A 
ATOM     11  O   UNL     1      19.198  34.740  40.200  1.00  0.00    -0.456 OA
ENDROOT
BRANCH   1  12
ATOM     12  C   UNL     1      16.895  35.491  40.119  1.00  0.00     0.021 A 
ATOM     13  C   UNL     1      16.596  35.066  41.428  1.00  0.00     0.016 A 
ATOM     14  C   UNL     1      15.386  35.420  42.029  1.00  0.00     0.051 A 
ATOM     15  C   UNL     1      14.450  36.195  41.333  1.00  0.00     0.157 A 
ATOM     16  C   UNL     1      15.944  36.257  39.422  1.00  0.00     0.062 A 
ATOM     17  C   UNL     1      14.732  36.614  40.022  1.00  0.00     0.158 A 
BRANCH  15  18
ATOM     18  O   UNL     1      13.245  36.547  41.937  1.00  0.00    -0.504 OA
ATOM     19  H   UNL     1      12.490  36.971  41.410  1.00  0.00     0.293 HD
ENDBRANCH  15  18
BRANCH  17  20
ATOM     20  O   UNL     1      13.819  37.383  39.301  1.00  0.00    -0.504 OA
ATOM     21  H   UNL     1      13.063  36.966  38.771  1.00  0.00     0.293 HD
ENDBRANCH  17  20
ENDBRANCH   1  12
BRANCH   6  22
ATOM     22  O   UNL     1      22.311  34.197  36.483  1.00  0.00    -0.507 OA
ATOM     23  H   UNL     1      22.854  33.505  35.989  1.00  0.00     0.293 HD
ENDBRANCH   6  22
BRANCH   8  24
ATOM     24  O   UNL     1      23.637  33.185  40.969  1.00  0.00    -0.508 OA
ATOM     25  H   UNL     1      24.615  33.384  40.794  1.00  0.00     0.293 HD
ENDBRANCH   8  24
TORSDOF 5
ENDMDL
MODEL 5
REMARK VINA RESULT:    -3.541      3.774      4.646
REMARK INTER + INTRA:          -4.425
REMARK INTER:                  -4.138
REMARK INTRA:                  -0.287
REMARK UNBOUND:                -0.262
REMARK SMILES O=c1cc(-c2ccc(O)c(O)c2)oc2cc(O)cc(O)c12
REMARK SMILES IDX 4 1 3 2 2 3 1 4 21 5 19 6 18 7 16 8 15 9 14 10 13 11 5 12
REMARK SMILES IDX 6 13 7 14 8 15 12 16 10 17 9 18 11 20 20 22 17 24
REMARK H PARENT 9 19 11 21 20 23 17 25
REMARK Flexibility Score: inf
ROOT
ATOM      1  C   UNL     1      18.899  34.760  39.807  1.00  0.00     0.138 A 
ATOM      2  C   UNL     1      18.356  34.208  40.975  1.00  0.00     0.100 A 
ATOM      3  C   UNL     1      17.068  34.569  41.374  1.00  0.00     0.197 A 
ATOM      4  O   UNL     1      16.584  34.010  42.391  1.00  0.00    -0.289 OA
ATOM      5  C   UNL     1      16.336  35.514  40.616  1.00  0.00     0.107 A 
ATOM      6  C   UNL     1      15.031  35.987  40.950  1.00  0.00     0.134 A 
ATOM      7  C   UNL     1      14.357  36.834  40.061  1.00  0.00     0.093 A 
ATOM      8  C   UNL     1      14.960  37.271  38.883  1.00  0.00     0.123 A 
ATOM      9  C   UNL     1      16.256  36.856  38.573  1.00  0.00     0.094 A 
ATOM     10  C   UNL     1      16.942  35.985  39.421  1.00  0.00     0.146 A 
ATOM     11  O   UNL     1      18.169  35.602  39.083  1.00  0.00    -0.456 OA
ENDROOT
BRANCH   1  12
ATOM     12  C   UNL     1      20.264  34.411  39.337  1.00  0.00     0.021 A 
ATOM     13  C   UNL     1      20.608  34.446  37.971  1.00  0.00     0.016 A 
ATOM     14  C   UNL     1      21.897  34.103  37.557  1.00  0.00     0.051 A 
ATOM     15  C   UNL     1      22.861  33.712  38.493  1.00  0.00     0.157 A 
ATOM     16  C   UNL     1      21.235  34.004  40.270  1.00  0.00     0.062 A 
ATOM     17  C   UNL     1      22.527  33.661  39.856  1.00  0.00     0.158 A 
BRANCH  15  18
ATOM     18  O   UNL     1      24.147  33.371  38.075  1.00  0.00    -0.504 OA
ATOM     19  H   UNL     1      24.357  32.455  37.695  1.00  0.00     0.293 HD
ENDBRANCH  15  18
BRANCH  17  20
ATOM     20  O   UNL     1      23.463  33.272  40.813  1.00  0.00    -0.504 OA
ATOM     21  H   UNL     1      23.481  33.671  41.744  1.00  0.00     0.293 HD
ENDBRANCH  17  20
ENDBRANCH   1  12
BRANCH   6  22
ATOM     22  O   UNL     1      14.369  35.679  42.142  1.00  0.00    -0.507 OA
ATOM     23  H   UNL     1      14.824  35.396  42.997  1.00  0.00     0.293 HD
ENDBRANCH   6  22
BRANCH   8  24
ATOM     24  O   UNL     1      14.264  38.125  38.030  1.00  0.00    -0.508 OA
ATOM     25  H   UNL     1      14.152  37.915  37.045  1.00  0.00     0.293 HD
ENDBRANCH   8  24
TORSDOF 5
ENDMDL
MODEL 6
REMARK VINA RESULT:    -3.504      3.856      5.503
REMARK INTER + INTRA:          -4.380
REMARK INTER:                  -4.071
REMARK INTRA:                  -0.309
REMARK UNBOUND:                -0.262
REMARK SMILES O=c1cc(-c2ccc(O)c(O)c2)oc2cc(O)cc(O)c12
REMARK SMILES IDX 4 1 3 2 2 3 1 4 21 5 19 6 18 7 16 8 15 9 14 10 13 11 5 12
REMARK SMILES IDX 6 13 7 14 8 15 12 16 10 17 9 18 11 20 20 22 17 24
REMARK H PARENT 9 19 11 21 20 23 17 25
REMARK Flexibility Score: inf
ROOT
ATOM      1  C   UNL     1      16.844  35.801  39.506  1.00  0.00     0.138 A 
ATOM      2  C   UNL     1      16.141  36.736  38.735  1.00  0.00     0.100 A 
ATOM      3  C   UNL     1      14.926  37.241  39.202  1.00  0.00     0.197 A 
ATOM      4  O   UNL     1      14.349  38.125  38.519  1.00  0.00    -0.289 OA
ATOM      5  C   UNL     1      14.400  36.780  40.433  1.00  0.00     0.107 A 
ATOM      6  C   UNL     1      13.152  37.194  40.988  1.00  0.00     0.134 A 
ATOM      7  C   UNL     1      12.789  36.758  42.268  1.00  0.00     0.093 A 
ATOM      8  C   UNL     1      13.597  35.880  42.987  1.00  0.00     0.123 A 
ATOM      9  C   UNL     1      14.795  35.427  42.432  1.00  0.00     0.094 A 
ATOM     10  C   UNL     1      15.201  35.869  41.172  1.00  0.00     0.146 A 
ATOM     11  O   UNL     1      16.355  35.426  40.683  1.00  0.00    -0.456 OA
ENDROOT
BRANCH   1  12
ATOM     12  C   UNL     1      18.140  35.231  39.057  1.00  0.00     0.021 A 
ATOM     13  C   UNL     1      18.469  35.126  37.691  1.00  0.00     0.016 A 
ATOM     14  C   UNL     1      19.691  34.576  37.297  1.00  0.00     0.051 A 
ATOM     15  C   UNL     1      20.602  34.115  38.255  1.00  0.00     0.157 A 
ATOM     16  C   UNL     1      19.055  34.752  40.012  1.00  0.00     0.062 A 
ATOM     17  C   UNL     1      20.280  34.203  39.619  1.00  0.00     0.158 A 
BRANCH  15  18
ATOM     18  O   UNL     1      21.821  33.569  37.857  1.00  0.00    -0.504 OA
ATOM     19  H   UNL     1      22.064  32.606  38.061  1.00  0.00     0.293 HD
ENDBRANCH  15  18
BRANCH  17  20
ATOM     20  O   UNL     1      21.164  33.748  40.598  1.00  0.00    -0.504 OA
ATOM     21  H   UNL     1      22.036  33.289  40.365  1.00  0.00     0.293 HD
ENDBRANCH  17  20
ENDBRANCH   1  12
BRANCH   6  22
ATOM     22  O   UNL     1      12.229  38.003  40.319  1.00  0.00    -0.507 OA
ATOM     23  H   UNL     1      12.128  38.998  40.457  1.00  0.00     0.293 HD
ENDBRANCH   6  22
BRANCH   8  24
ATOM     24  O   UNL     1      13.197  35.456  44.253  1.00  0.00    -0.508 OA
ATOM     25  H   UNL     1      13.361  34.509  44.573  1.00  0.00     0.293 HD
ENDBRANCH   8  24
TORSDOF 5
ENDMDL
MODEL 7
REMARK VINA RESULT:    -3.488      1.443      7.096
REMARK INTER + INTRA:          -4.363
REMARK INTER:                  -4.100
REMARK INTRA:                  -0.263
REMARK UNBOUND:                -0.262
REMARK SMILES O=c1cc(-c2ccc(O)c(O)c2)oc2cc(O)cc(O)c12
REMARK SMILES IDX 4 1 3 2 2 3 1 4 21 5 19 6 18 7 16 8 15 9 14 10 13 11 5 12
REMARK SMILES IDX 6 13 7 14 8 15 12 16 10 17 9 18 11 20 20 22 17 24
REMARK H PARENT 9 19 11 21 20 23 17 25
REMARK Flexibility Score: inf
ROOT
ATOM      1  C   UNL     1      17.555  34.574  43.223  1.00  0.00     0.138 A 
ATOM      2  C   UNL     1      18.092  33.282  43.147  1.00  0.00     0.100 A 
ATOM      3  C   UNL     1      19.363  33.031  43.666  1.00  0.00     0.197 A 
ATOM      4  O   UNL     1      19.792  31.850  43.640  1.00  0.00    -0.289 OA
ATOM      5  C   UNL     1      20.112  34.090  44.235  1.00  0.00     0.107 A 
ATOM      6  C   UNL     1      21.433  33.959  44.759  1.00  0.00     0.134 A 
ATOM      7  C   UNL     1      22.030  35.051  45.402  1.00  0.00     0.093 A 
ATOM      8  C   UNL     1      21.379  36.280  45.489  1.00  0.00     0.123 A 
ATOM      9  C   UNL     1      20.108  36.434  44.934  1.00  0.00     0.094 A 
ATOM     10  C   UNL     1      19.472  35.355  44.316  1.00  0.00     0.146 A 
ATOM     11  O   UNL     1      18.256  35.538  43.812  1.00  0.00    -0.456 OA
ENDROOT
BRANCH   1  12
ATOM     12  C   UNL     1      16.208  34.896  42.686  1.00  0.00     0.021 A 
ATOM     13  C   UNL     1      16.030  35.379  41.375  1.00  0.00     0.016 A 
ATOM     14  C   UNL     1      14.752  35.683  40.900  1.00  0.00     0.051 A 
ATOM     15  C   UNL     1      13.632  35.520  41.725  1.00  0.00     0.157 A 
ATOM     16  C   UNL     1      15.080  34.749  43.513  1.00  0.00     0.062 A 
ATOM     17  C   UNL     1      13.799  35.052  43.039  1.00  0.00     0.158 A 
BRANCH  15  18
ATOM     18  O   UNL     1      12.359  35.824  41.246  1.00  0.00    -0.504 OA
ATOM     19  H   UNL     1      11.722  35.101  40.933  1.00  0.00     0.293 HD
ENDBRANCH  15  18
BRANCH  17  20
ATOM     20  O   UNL     1      12.705  34.884  43.887  1.00  0.00    -0.504 OA
ATOM     21  H   UNL     1      12.052  34.117  43.778  1.00  0.00     0.293 HD
ENDBRANCH  17  20
ENDBRANCH   1  12
BRANCH   6  22
ATOM     22  O   UNL     1      22.206  32.800  44.650  1.00  0.00    -0.507 OA
ATOM     23  H   UNL     1      23.161  32.772  44.327  1.00  0.00     0.293 HD
ENDBRANCH   6  22
BRANCH   8  24
ATOM     24  O   UNL     1      22.010  37.349  46.125  1.00  0.00    -0.508 OA
ATOM     25  H   UNL     1      21.810  37.585  47.090  1.00  0.00     0.293 HD
ENDBRANCH   8  24
TORSDOF 5
ENDMDL
MODEL 8
REMARK VINA RESULT:    -3.452      2.990      7.267
REMARK INTER + INTRA:          -4.319
REMARK INTER:                  -4.002
REMARK INTRA:                  -0.318
REMARK UNBOUND:                -0.262
REMARK SMILES O=c1cc(-c2ccc(O)c(O)c2)oc2cc(O)cc(O)c12
REMARK SMILES IDX 4 1 3 2 2 3 1 4 21 5 19 6 18 7 16 8 15 9 14 10 13 11 5 12
REMARK SMILES IDX 6 13 7 14 8 15 12 16 10 17 9 18 11 20 20 22 17 24
REMARK H PARENT 9 19 11 21 20 23 17 25
REMARK Flexibility Score: inf
ROOT
ATOM      1  C   UNL     1      16.462  35.495  40.631  1.00  0.00     0.138 A 
ATOM      2  C   UNL     1      16.782  35.730  39.287  1.00  0.00     0.100 A 
ATOM      3  C   UNL     1      18.038  35.363  38.803  1.00  0.00     0.197 A 
ATOM      4  O   UNL     1      18.274  35.528  37.579  1.00  0.00    -0.289 OA
ATOM      5  C   UNL     1      18.989  34.786  39.680  1.00  0.00     0.107 A 
ATOM      6  C   UNL     1      20.314  34.410  39.306  1.00  0.00     0.134 A 
ATOM      7  C   UNL     1      21.127  33.741  40.230  1.00  0.00     0.093 A 
ATOM      8  C   UNL     1      20.686  33.489  41.528  1.00  0.00     0.123 A 
ATOM      9  C   UNL     1      19.411  33.900  41.920  1.00  0.00     0.094 A 
ATOM     10  C   UNL     1      18.564  34.539  41.012  1.00  0.00     0.146 A 
ATOM     11  O   UNL     1      17.352  34.902  41.420  1.00  0.00    -0.456 OA
ENDROOT
BRANCH   1  12
ATOM     12  C   UNL     1      15.141  35.867  41.199  1.00  0.00     0.021 A 
ATOM     13  C   UNL     1      14.218  36.647  40.476  1.00  0.00     0.016 A 
ATOM     14  C   UNL     1      12.986  36.990  41.039  1.00  0.00     0.051 A 
ATOM     15  C   UNL     1      12.657  36.569  42.333  1.00  0.00     0.157 A 
ATOM     16  C   UNL     1      14.808  35.460  42.504  1.00  0.00     0.062 A 
ATOM     17  C   UNL     1      13.575  35.802  43.069  1.00  0.00     0.158 A 
BRANCH  15  18
ATOM     18  O   UNL     1      11.427  36.913  42.890  1.00  0.00    -0.504 OA
ATOM     19  H   UNL     1      11.094  37.870  42.894  1.00  0.00     0.293 HD
ENDBRANCH  15  18
BRANCH  17  20
ATOM     20  O   UNL     1      13.279  35.371  44.362  1.00  0.00    -0.504 OA
ATOM     21  H   UNL     1      12.919  34.443  44.551  1.00  0.00     0.293 HD
ENDBRANCH  17  20
ENDBRANCH   1  12
BRANCH   6  22
ATOM     22  O   UNL     1      20.885  34.689  38.061  1.00  0.00    -0.507 OA
ATOM     23  H   UNL     1      20.413  35.161  37.304  1.00  0.00     0.293 HD
ENDBRANCH   6  22
BRANCH   8  24
ATOM     24  O   UNL     1      21.528  32.834  42.426  1.00  0.00    -0.508 OA
ATOM     25  H   UNL     1      22.533  32.827  42.301  1.00  0.00     0.293 HD
ENDBRANCH   8  24
TORSDOF 5
ENDMDL
MODEL 9
REMARK VINA RESULT:    -3.443      3.854      4.937
REMARK INTER + INTRA:          -4.310
REMARK INTER:                  -4.023
REMARK INTRA:                  -0.287
REMARK UNBOUND:                -0.262
REMARK SMILES O=c1cc(-c2ccc(O)c(O)c2)oc2cc(O)cc(O)c12
REMARK SMILES IDX 4 1 3 2 2 3 1 4 21 5 19 6 18 7 16 8 15 9 14 10 13 11 5 12
REMARK SMILES IDX 6 13 7 14 8 15 12 16 10 17 9 18 11 20 20 22 17 24
REMARK H PARENT 9 19 11 21 20 23 17 25
REMARK Flexibility Score: inf
ROOT
ATOM      1  C   UNL     1      17.557  35.173  39.997  1.00  0.00     0.138 A 
ATOM      2  C   UNL     1      17.376  35.964  38.854  1.00  0.00     0.100 A 
ATOM      3  C   UNL     1      16.220  36.734  38.724  1.00  0.00     0.197 A 
ATOM      4  O   UNL     1      16.114  37.481  37.718  1.00  0.00    -0.289 OA
ATOM      5  C   UNL     1      15.226  36.687  39.731  1.00  0.00     0.107 A 
ATOM      6  C   UNL     1      13.989  37.399  39.686  1.00  0.00     0.134 A 
ATOM      7  C   UNL     1      13.134  37.365  40.794  1.00  0.00     0.093 A 
ATOM      8  C   UNL     1      13.441  36.601  41.919  1.00  0.00     0.123 A 
ATOM      9  C   UNL     1      14.623  35.859  41.952  1.00  0.00     0.094 A 
ATOM     10  C   UNL     1      15.512  35.898  40.877  1.00  0.00     0.146 A 
ATOM     11  O   UNL     1      16.634  35.189  40.953  1.00  0.00    -0.456 OA
ENDROOT
BRANCH   1  12
ATOM     12  C   UNL     1      18.767  34.334  40.187  1.00  0.00     0.021 A 
ATOM     13  C   UNL     1      18.745  33.172  40.982  1.00  0.00     0.016 A 
ATOM     14  C   UNL     1      19.902  32.407  41.150  1.00  0.00     0.051 A 
ATOM     15  C   UNL     1      21.101  32.791  40.537  1.00  0.00     0.157 A 
ATOM     16  C   UNL     1      19.979  34.721  39.586  1.00  0.00     0.062 A 
ATOM     17  C   UNL     1      21.138  33.955  39.753  1.00  0.00     0.158 A 
BRANCH  15  18
ATOM     18  O   UNL     1      22.252  32.024  40.707  1.00  0.00    -0.504 OA
ATOM     19  H   UNL     1      22.274  31.039  40.470  1.00  0.00     0.293 HD
ENDBRANCH  15  18
BRANCH  17  20
ATOM     20  O   UNL     1      22.317  34.367  39.132  1.00  0.00    -0.504 OA
ATOM     21  H   UNL     1      22.722  35.282  39.297  1.00  0.00     0.293 HD
ENDBRANCH  17  20
ENDBRANCH   1  12
BRANCH   6  22
ATOM     22  O   UNL     1      13.546  38.125  38.577  1.00  0.00    -0.507 OA
ATOM     23  H   UNL     1      13.704  39.111  38.433  1.00  0.00     0.293 HD
ENDBRANCH   6  22
BRANCH   8  24
ATOM     24  O   UNL     1      12.559  36.580  42.998  1.00  0.00    -0.508 OA
ATOM     25  H   UNL     1      12.392  35.735  43.531  1.00  0.00     0.293 HD
ENDBRANCH   8  24
TORSDOF 5
ENDMDL
