MODEL 1
REMARK VINA RESULT:    -5.547      0.000      0.000
REMARK INTER + INTRA:         -10.351
REMARK INTER:                  -7.331
REMARK INTRA:                  -3.019
REMARK UNBOUND:                -3.019
REMARK SMILES CC[C@H](C=C[C@H](C)[C@@H]1CC[C@H]2[C@H]3CC=C4C[C@@H](O)CC[C@]4(C)[C@H]3CC[C@@]21C)C(C)C
REMARK SMILES IDX 6 1 7 2 5 3 4 4 3 5 2 6 1 7 28 8 29 9 30 10 8 11 9 12 26 13
REMARK SMILES IDX 10 14 11 15 25 16 27 17 12 18 24 19 23 20 13 21 21 22 14 23
REMARK SMILES IDX 15 24 20 25 22 26 16 27 19 28 17 29 18 30
REMARK H PARENT 18 31
REMARK Flexibility Score: inf
ROOT
ATOM      1  C   UNL     1      17.031  34.939  50.559  1.00  0.00     0.012 C 
ATOM      2  C   UNL     1      18.299  34.327  51.189  1.00  0.00     0.012 C 
ENDROOT
BRANCH   1   3
ATOM      3  C   UNL     1      16.333  35.851  51.552  1.00  0.00    -0.028 C 
ATOM      4  C   UNL     1      15.026  35.800  51.876  1.00  0.00    -0.027 C 
BRANCH   4   5
ATOM      5  C   UNL     1      14.039  34.733  51.426  1.00  0.00     0.014 C 
BRANCH   5   6
ATOM      6  C   UNL     1      14.148  33.512  52.373  1.00  0.00     0.004 C 
ATOM      7  C   UNL     1      14.150  33.862  53.864  1.00  0.00     0.004 C 
ENDBRANCH   5   6
BRANCH   5   8
ATOM      8  C   UNL     1      12.601  35.330  51.311  1.00  0.00    -0.011 C 
ATOM      9  C   UNL     1      12.640  36.754  50.729  1.00  0.00     0.008 C 
ATOM     10  C   UNL     1      11.679  34.462  50.436  1.00  0.00     0.008 C 
ENDBRANCH   5   8
ENDBRANCH   4   5
ENDBRANCH   1   3
BRANCH   1  11
ATOM     11  C   UNL     1      17.212  35.630  49.160  1.00  0.00     0.002 C 
ATOM     12  C   UNL     1      17.382  37.174  49.276  1.00  0.00     0.005 C 
ATOM     13  C   UNL     1      16.134  35.445  48.030  1.00  0.00    -0.026 C 
ATOM     14  C   UNL     1      16.198  37.832  48.544  1.00  0.00     0.005 C 
ATOM     15  C   UNL     1      15.248  36.680  48.275  1.00  0.00    -0.001 C 
ATOM     16  C   UNL     1      15.224  34.190  48.044  1.00  0.00     0.007 C 
ATOM     17  C   UNL     1      16.918  35.460  46.673  1.00  0.00     0.012 C 
ATOM     18  C   UNL     1      14.032  36.885  47.340  1.00  0.00     0.000 C 
ATOM     19  C   UNL     1      14.015  34.329  47.076  1.00  0.00     0.005 C 
ATOM     20  C   UNL     1      13.153  35.603  47.359  1.00  0.00     0.003 C 
ATOM     21  C   UNL     1      14.356  37.318  45.904  1.00  0.00     0.031 C 
ATOM     22  C   UNL     1      11.831  35.778  46.487  1.00  0.00    -0.008 C 
ATOM     23  C   UNL     1      13.106  37.487  45.103  1.00  0.00    -0.027 C 
ATOM     24  C   UNL     1      11.997  36.746  45.299  1.00  0.00    -0.065 C 
ATOM     25  C   UNL     1      10.721  36.389  47.405  1.00  0.00     0.014 C 
ATOM     26  C   UNL     1      11.334  34.402  45.962  1.00  0.00     0.016 C 
ATOM     27  C   UNL     1      10.752  37.105  44.513  1.00  0.00     0.063 C 
ATOM     28  C   UNL     1       9.427  36.787  46.664  1.00  0.00     0.033 C 
ATOM     29  C   UNL     1       9.714  37.717  45.469  1.00  0.00     0.118 C 
BRANCH  29  30
ATOM     30  O   UNL     1       8.527  38.024  44.782  1.00  0.00    -0.393 OA
ATOM     31  H   UNL     1       7.879  38.381  45.445  1.00  0.00     0.210 HD
ENDBRANCH  29  30
ENDBRANCH   1  11
TORSDOF 6
ENDMDL
MODEL 2
REMARK VINA RESULT:    -5.392      3.469      7.646
REMARK INTER + INTRA:         -10.145
REMARK INTER:                  -7.440
REMARK INTRA:                  -2.705
REMARK UNBOUND:                -3.019
REMARK SMILES CC[C@H](C=C[C@H](C)[C@@H]1CC[C@H]2[C@H]3CC=C4C[C@@H](O)CC[C@]4(C)[C@H]3CC[C@@]21C)C(C)C
REMARK SMILES IDX 6 1 7 2 5 3 4 4 3 5 2 6 1 7 28 8 29 9 30 10 8 11 9 12 26 13
REMARK SMILES IDX 10 14 11 15 25 16 27 17 12 18 24 19 23 20 13 21 21 22 14 23
REMARK SMILES IDX 15 24 20 25 22 26 16 27 19 28 17 29 18 30
REMARK H PARENT 18 31
REMARK Flexibility Score: inf
ROOT
ATOM      1  C   UNL     1      13.676  35.562  47.888  1.00  0.00     0.012 C 
ATOM      2  C   UNL     1      13.536  35.262  46.381  1.00  0.00     0.012 C 
ENDROOT
BRANCH   1   3
ATOM      3  C   UNL     1      14.255  36.949  48.101  1.00  0.00    -0.028 C 
ATOM      4  C   UNL     1      15.337  37.238  48.851  1.00  0.00    -0.027 C 
BRANCH   4   5
ATOM      5  C   UNL     1      16.266  36.223  49.501  1.00  0.00     0.014 C 
BRANCH   5   6
ATOM      6  C   UNL     1      17.735  36.651  49.252  1.00  0.00     0.004 C 
ATOM      7  C   UNL     1      17.912  38.125  48.875  1.00  0.00     0.004 C 
ENDBRANCH   5   6
BRANCH   5   8
ATOM      8  C   UNL     1      15.900  36.030  51.006  1.00  0.00    -0.011 C 
ATOM      9  C   UNL     1      16.964  35.183  51.727  1.00  0.00     0.008 C 
ATOM     10  C   UNL     1      15.750  37.372  51.745  1.00  0.00     0.008 C 
ENDBRANCH   5   8
ENDBRANCH   4   5
ENDBRANCH   1   3
BRANCH   1  11
ATOM     11  C   UNL     1      12.396  35.323  48.768  1.00  0.00     0.002 C 
ATOM     12  C   UNL     1      11.901  36.625  49.465  1.00  0.00     0.005 C 
ATOM     13  C   UNL     1      12.404  34.249  49.918  1.00  0.00    -0.026 C 
ATOM     14  C   UNL     1      12.000  36.408  50.987  1.00  0.00     0.005 C 
ATOM     15  C   UNL     1      12.796  35.124  51.123  1.00  0.00    -0.001 C 
ATOM     16  C   UNL     1      13.397  33.062  49.843  1.00  0.00     0.007 C 
ATOM     17  C   UNL     1      10.952  33.664  49.977  1.00  0.00     0.012 C 
ATOM     18  C   UNL     1      12.912  34.431  52.501  1.00  0.00     0.000 C 
ATOM     19  C   UNL     1      13.506  32.299  51.194  1.00  0.00     0.005 C 
ATOM     20  C   UNL     1      13.896  33.232  52.388  1.00  0.00     0.003 C 
ATOM     21  C   UNL     1      11.589  34.007  53.152  1.00  0.00     0.031 C 
ATOM     22  C   UNL     1      14.135  32.527  53.796  1.00  0.00    -0.008 C 
ATOM     23  C   UNL     1      11.830  33.356  54.476  1.00  0.00    -0.027 C 
ATOM     24  C   UNL     1      12.927  32.621  54.749  1.00  0.00    -0.065 C 
ATOM     25  C   UNL     1      15.321  33.257  54.510  1.00  0.00     0.014 C 
ATOM     26  C   UNL     1      14.520  31.033  53.603  1.00  0.00     0.016 C 
ATOM     27  C   UNL     1      13.118  32.126  56.168  1.00  0.00     0.063 C 
ATOM     28  C   UNL     1      15.563  32.806  55.967  1.00  0.00     0.033 C 
ATOM     29  C   UNL     1      14.281  32.898  56.816  1.00  0.00     0.118 C 
BRANCH  29  30
ATOM     30  O   UNL     1      14.516  32.436  58.122  1.00  0.00    -0.393 OA
ATOM     31  H   UNL     1      15.500  32.405  58.258  1.00  0.00     0.210 HD
ENDBRANCH  29  30
ENDBRANCH   1  11
TORSDOF 6
ENDMDL
MODEL 3
REMARK VINA RESULT:    -5.383      3.216      6.759
REMARK INTER + INTRA:         -10.133
REMARK INTER:                  -7.555
REMARK INTRA:                  -2.578
REMARK UNBOUND:                -3.019
REMARK SMILES CC[C@H](C=C[C@H](C)[C@@H]1CC[C@H]2[C@H]3CC=C4C[C@@H](O)CC[C@]4(C)[C@H]3CC[C@@]21C)C(C)C
REMARK SMILES IDX 6 1 7 2 5 3 4 4 3 5 2 6 1 7 28 8 29 9 30 10 8 11 9 12 26 13
REMARK SMILES IDX 10 14 11 15 25 16 27 17 12 18 24 19 23 20 13 21 21 22 14 23
REMARK SMILES IDX 15 24 20 25 22 26 16 27 19 28 17 29 18 30
REMARK H PARENT 18 31
REMARK Flexibility Score: inf
ROOT
ATOM      1  C   UNL     1      17.557  35.863  49.108  1.00  0.00     0.012 C 
ATOM      2  C   UNL     1      19.030  36.266  48.891  1.00  0.00     0.012 C 
ENDROOT
BRANCH   1   3
ATOM      3  C   UNL     1      16.657  36.597  48.131  1.00  0.00    -0.028 C 
ATOM      4  C   UNL     1      15.389  36.985  48.377  1.00  0.00    -0.027 C 
BRANCH   4   5
ATOM      5  C   UNL     1      14.674  36.895  49.716  1.00  0.00     0.014 C 
BRANCH   5   6
ATOM      6  C   UNL     1      15.228  37.994  50.659  1.00  0.00     0.004 C 
ATOM      7  C   UNL     1      15.801  37.468  51.979  1.00  0.00     0.004 C 
ENDBRANCH   5   6
BRANCH   5   8
ATOM      8  C   UNL     1      13.126  36.942  49.517  1.00  0.00    -0.011 C 
ATOM      9  C   UNL     1      12.714  36.193  48.237  1.00  0.00     0.008 C 
ATOM     10  C   UNL     1      12.367  36.338  50.712  1.00  0.00     0.008 C 
ENDBRANCH   5   8
ENDBRANCH   4   5
ENDBRANCH   1   3
BRANCH   1  11
ATOM     11  C   UNL     1      17.254  34.321  49.135  1.00  0.00     0.002 C 
ATOM     12  C   UNL     1      16.119  33.920  48.146  1.00  0.00     0.005 C 
ATOM     13  C   UNL     1      16.863  33.605  50.480  1.00  0.00    -0.026 C 
ATOM     14  C   UNL     1      14.957  33.343  48.975  1.00  0.00     0.005 C 
ATOM     15  C   UNL     1      15.327  33.679  50.407  1.00  0.00    -0.001 C 
ATOM     16  C   UNL     1      17.311  34.223  51.829  1.00  0.00     0.007 C 
ATOM     17  C   UNL     1      17.455  32.157  50.390  1.00  0.00     0.012 C 
ATOM     18  C   UNL     1      14.525  33.060  51.577  1.00  0.00     0.000 C 
ATOM     19  C   UNL     1      16.569  33.592  53.041  1.00  0.00     0.005 C 
ATOM     20  C   UNL     1      15.012  33.683  52.916  1.00  0.00     0.003 C 
ATOM     21  C   UNL     1      14.516  31.527  51.646  1.00  0.00     0.031 C 
ATOM     22  C   UNL     1      14.165  33.157  54.157  1.00  0.00    -0.008 C 
ATOM     23  C   UNL     1      13.709  31.049  52.809  1.00  0.00    -0.027 C 
ATOM     24  C   UNL     1      13.611  31.730  53.969  1.00  0.00    -0.065 C 
ATOM     25  C   UNL     1      12.923  34.094  54.330  1.00  0.00     0.014 C 
ATOM     26  C   UNL     1      15.009  33.211  55.461  1.00  0.00     0.016 C 
ATOM     27  C   UNL     1      12.656  31.208  55.023  1.00  0.00     0.063 C 
ATOM     28  C   UNL     1      11.902  33.613  55.384  1.00  0.00     0.033 C 
ATOM     29  C   UNL     1      11.453  32.162  55.126  1.00  0.00     0.118 C 
BRANCH  29  30
ATOM     30  O   UNL     1      10.564  31.733  56.126  1.00  0.00    -0.393 OA
ATOM     31  H   UNL     1      10.537  32.436  56.828  1.00  0.00     0.210 HD
ENDBRANCH  29  30
ENDBRANCH   1  11
TORSDOF 6
ENDMDL
MODEL 4
REMARK VINA RESULT:    -5.332      3.583      7.575
REMARK INTER + INTRA:         -10.066
REMARK INTER:                  -6.912
REMARK INTRA:                  -3.153
REMARK UNBOUND:                -3.019
REMARK SMILES CC[C@H](C=C[C@H](C)[C@@H]1CC[C@H]2[C@H]3CC=C4C[C@@H](O)CC[C@]4(C)[C@H]3CC[C@@]21C)C(C)C
REMARK SMILES IDX 6 1 7 2 5 3 4 4 3 5 2 6 1 7 28 8 29 9 30 10 8 11 9 12 26 13
REMARK SMILES IDX 10 14 11 15 25 16 27 17 12 18 24 19 23 20 13 21 21 22 14 23
REMARK SMILES IDX 15 24 20 25 22 26 16 27 19 28 17 29 18 30
REMARK H PARENT 18 31
REMARK Flexibility Score: inf
ROOT
ATOM      1  C   UNL     1      12.482  34.618  50.413  1.00  0.00     0.012 C 
ATOM      2  C   UNL     1      11.019  34.162  50.229  1.00  0.00     0.012 C 
ENDROOT
BRANCH   1   3
ATOM      3  C   UNL     1      12.538  36.099  50.742  1.00  0.00    -0.028 C 
ATOM      4  C   UNL     1      13.404  36.985  50.211  1.00  0.00    -0.027 C 
BRANCH   4   5
ATOM      5  C   UNL     1      14.383  36.705  49.081  1.00  0.00     0.014 C 
BRANCH   5   6
ATOM      6  C   UNL     1      13.613  36.698  47.735  1.00  0.00     0.004 C 
ATOM      7  C   UNL     1      13.708  35.383  46.956  1.00  0.00     0.004 C 
ENDBRANCH   5   6
BRANCH   5   8
ATOM      8  C   UNL     1      15.579  37.707  49.130  1.00  0.00    -0.011 C 
ATOM      9  C   UNL     1      16.159  37.802  50.553  1.00  0.00     0.008 C 
ATOM     10  C   UNL     1      16.707  37.315  48.160  1.00  0.00     0.008 C 
ENDBRANCH   5   8
ENDBRANCH   4   5
ENDBRANCH   1   3
BRANCH   1  11
ATOM     11  C   UNL     1      13.357  33.767  51.402  1.00  0.00     0.002 C 
ATOM     12  C   UNL     1      13.597  34.493  52.760  1.00  0.00     0.005 C 
ATOM     13  C   UNL     1      14.786  33.264  50.978  1.00  0.00    -0.026 C 
ATOM     14  C   UNL     1      15.111  34.731  52.903  1.00  0.00     0.005 C 
ATOM     15  C   UNL     1      15.665  34.400  51.530  1.00  0.00    -0.001 C 
ATOM     16  C   UNL     1      15.114  33.089  49.473  1.00  0.00     0.007 C 
ATOM     17  C   UNL     1      14.986  31.878  51.681  1.00  0.00     0.012 C 
ATOM     18  C   UNL     1      17.194  34.286  51.322  1.00  0.00     0.000 C 
ATOM     19  C   UNL     1      16.639  32.916  49.220  1.00  0.00     0.005 C 
ATOM     20  C   UNL     1      17.490  34.090  49.808  1.00  0.00     0.003 C 
ATOM     21  C   UNL     1      17.910  33.228  52.171  1.00  0.00     0.031 C 
ATOM     22  C   UNL     1      19.054  34.057  49.509  1.00  0.00    -0.008 C 
ATOM     23  C   UNL     1      19.376  33.216  51.887  1.00  0.00    -0.027 C 
ATOM     24  C   UNL     1      19.896  33.505  50.676  1.00  0.00    -0.065 C 
ATOM     25  C   UNL     1      19.535  35.528  49.273  1.00  0.00     0.014 C 
ATOM     26  C   UNL     1      19.350  33.229  48.227  1.00  0.00     0.016 C 
ATOM     27  C   UNL     1      21.404  33.590  50.549  1.00  0.00     0.063 C 
ATOM     28  C   UNL     1      21.065  35.686  49.145  1.00  0.00     0.033 C 
ATOM     29  C   UNL     1      21.807  35.059  50.341  1.00  0.00     0.118 C 
BRANCH  29  30
ATOM     30  O   UNL     1      23.198  35.173  50.177  1.00  0.00    -0.393 OA
ATOM     31  H   UNL     1      23.584  35.447  51.050  1.00  0.00     0.210 HD
ENDBRANCH  29  30
ENDBRANCH   1  11
TORSDOF 6
ENDMDL
MODEL 5
REMARK VINA RESULT:    -5.304      2.927      6.442
REMARK INTER + INTRA:         -10.029
REMARK INTER:                  -7.006
REMARK INTRA:                  -3.023
REMARK UNBOUND:                -3.019
REMARK SMILES CC[C@H](C=C[C@H](C)[C@@H]1CC[C@H]2[C@H]3CC=C4C[C@@H](O)CC[C@]4(C)[C@H]3CC[C@@]21C)C(C)C
REMARK SMILES IDX 6 1 7 2 5 3 4 4 3 5 2 6 1 7 28 8 29 9 30 10 8 11 9 12 26 13
REMARK SMILES IDX 10 14 11 15 25 16 27 17 12 18 24 19 23 20 13 21 21 22 14 23
REMARK SMILES IDX 15 24 20 25 22 26 16 27 19 28 17 29 18 30
REMARK H PARENT 18 31
REMARK Flexibility Score: inf
ROOT
ATOM      1  C   UNL     1      15.056  36.004  46.744  1.00  0.00     0.012 C 
ATOM      2  C   UNL     1      15.600  36.019  45.300  1.00  0.00     0.012 C 
ENDROOT
BRANCH   1   3
ATOM      3  C   UNL     1      15.148  37.388  47.360  1.00  0.00    -0.028 C 
ATOM      4  C   UNL     1      15.702  37.677  48.554  1.00  0.00    -0.027 C 
BRANCH   4   5
ATOM      5  C   UNL     1      16.468  36.704  49.438  1.00  0.00     0.014 C 
BRANCH   5   6
ATOM      6  C   UNL     1      17.955  36.684  48.999  1.00  0.00     0.004 C 
ATOM      7  C   UNL     1      18.473  35.308  48.573  1.00  0.00     0.004 C 
ENDBRANCH   5   6
BRANCH   5   8
ATOM      8  C   UNL     1      16.249  37.044  50.946  1.00  0.00    -0.011 C 
ATOM      9  C   UNL     1      14.852  37.646  51.177  1.00  0.00     0.008 C 
ATOM     10  C   UNL     1      16.413  35.810  51.851  1.00  0.00     0.008 C 
ENDBRANCH   5   8
ENDBRANCH   4   5
ENDBRANCH   1   3
BRANCH   1  11
ATOM     11  C   UNL     1      13.633  35.369  46.944  1.00  0.00     0.002 C 
ATOM     12  C   UNL     1      12.520  36.445  47.119  1.00  0.00     0.005 C 
ATOM     13  C   UNL     1      13.368  34.349  48.112  1.00  0.00    -0.026 C 
ATOM     14  C   UNL     1      11.909  36.266  48.521  1.00  0.00     0.005 C 
ATOM     15  C   UNL     1      12.854  35.299  49.210  1.00  0.00    -0.001 C 
ATOM     16  C   UNL     1      14.551  33.536  48.695  1.00  0.00     0.007 C 
ATOM     17  C   UNL     1      12.303  33.334  47.572  1.00  0.00     0.012 C 
ATOM     18  C   UNL     1      12.461  34.673  50.569  1.00  0.00     0.000 C 
ATOM     19  C   UNL     1      14.185  32.843  50.039  1.00  0.00     0.005 C 
ATOM     20  C   UNL     1      13.659  33.847  51.117  1.00  0.00     0.003 C 
ATOM     21  C   UNL     1      11.165  33.850  50.580  1.00  0.00     0.031 C 
ATOM     22  C   UNL     1      13.356  33.248  52.561  1.00  0.00    -0.008 C 
ATOM     23  C   UNL     1      10.890  33.305  51.943  1.00  0.00    -0.027 C 
ATOM     24  C   UNL     1      11.863  32.953  52.808  1.00  0.00    -0.065 C 
ATOM     25  C   UNL     1      13.778  34.314  53.627  1.00  0.00     0.014 C 
ATOM     26  C   UNL     1      14.181  31.954  52.803  1.00  0.00     0.016 C 
ATOM     27  C   UNL     1      11.456  32.539  54.208  1.00  0.00     0.063 C 
ATOM     28  C   UNL     1      13.384  33.958  55.077  1.00  0.00     0.033 C 
ATOM     29  C   UNL     1      11.882  33.636  55.199  1.00  0.00     0.118 C 
BRANCH  29  30
ATOM     30  O   UNL     1      11.559  33.268  56.516  1.00  0.00    -0.393 OA
ATOM     31  H   UNL     1      10.847  32.576  56.469  1.00  0.00     0.210 HD
ENDBRANCH  29  30
ENDBRANCH   1  11
TORSDOF 6
ENDMDL
MODEL 6
REMARK VINA RESULT:    -5.213      4.050      7.966
REMARK INTER + INTRA:          -9.909
REMARK INTER:                  -7.048
REMARK INTRA:                  -2.861
REMARK UNBOUND:                -3.019
REMARK SMILES CC[C@H](C=C[C@H](C)[C@@H]1CC[C@H]2[C@H]3CC=C4C[C@@H](O)CC[C@]4(C)[C@H]3CC[C@@]21C)C(C)C
REMARK SMILES IDX 6 1 7 2 5 3 4 4 3 5 2 6 1 7 28 8 29 9 30 10 8 11 9 12 26 13
REMARK SMILES IDX 10 14 11 15 25 16 27 17 12 18 24 19 23 20 13 21 21 22 14 23
REMARK SMILES IDX 15 24 20 25 22 26 16 27 19 28 17 29 18 30
REMARK H PARENT 18 31
REMARK Flexibility Score: inf
ROOT
ATOM      1  C   UNL     1      15.615  36.978  48.249  1.00  0.00     0.012 C 
ATOM      2  C   UNL     1      15.008  37.646  46.998  1.00  0.00     0.012 C 
ENDROOT
BRANCH   1   3
ATOM      3  C   UNL     1      17.002  37.530  48.526  1.00  0.00    -0.028 C 
ATOM      4  C   UNL     1      18.085  36.796  48.849  1.00  0.00    -0.027 C 
BRANCH   4   5
ATOM      5  C   UNL     1      18.162  35.276  48.853  1.00  0.00     0.014 C 
BRANCH   5   6
ATOM      6  C   UNL     1      18.391  34.778  47.403  1.00  0.00     0.004 C 
ATOM      7  C   UNL     1      17.251  33.928  46.835  1.00  0.00     0.004 C 
ENDBRANCH   5   6
BRANCH   5   8
ATOM      8  C   UNL     1      19.233  34.783  49.877  1.00  0.00    -0.011 C 
ATOM      9  C   UNL     1      19.269  33.246  49.939  1.00  0.00     0.008 C 
ATOM     10  C   UNL     1      20.642  35.300  49.539  1.00  0.00     0.008 C 
ENDBRANCH   5   8
ENDBRANCH   4   5
ENDBRANCH   1   3
BRANCH   1  11
ATOM     11  C   UNL     1      14.720  36.974  49.540  1.00  0.00     0.002 C 
ATOM     12  C   UNL     1      15.190  38.023  50.593  1.00  0.00     0.005 C 
ATOM     13  C   UNL     1      14.521  35.655  50.374  1.00  0.00    -0.026 C 
ATOM     14  C   UNL     1      15.610  37.258  51.862  1.00  0.00     0.005 C 
ATOM     15  C   UNL     1      15.640  35.807  51.421  1.00  0.00    -0.001 C 
ATOM     16  C   UNL     1      14.696  34.282  49.678  1.00  0.00     0.007 C 
ATOM     17  C   UNL     1      13.067  35.722  50.955  1.00  0.00     0.012 C 
ATOM     18  C   UNL     1      15.790  34.683  52.474  1.00  0.00     0.000 C 
ATOM     19  C   UNL     1      14.797  33.113  50.699  1.00  0.00     0.005 C 
ATOM     20  C   UNL     1      15.941  33.318  51.746  1.00  0.00     0.003 C 
ATOM     21  C   UNL     1      14.698  34.623  53.550  1.00  0.00     0.031 C 
ATOM     22  C   UNL     1      16.193  32.125  52.770  1.00  0.00    -0.008 C 
ATOM     23  C   UNL     1      14.954  33.506  54.509  1.00  0.00    -0.027 C 
ATOM     24  C   UNL     1      15.547  32.349  54.152  1.00  0.00    -0.065 C 
ATOM     25  C   UNL     1      17.735  32.011  53.015  1.00  0.00     0.014 C 
ATOM     26  C   UNL     1      15.686  30.779  52.180  1.00  0.00     0.016 C 
ATOM     27  C   UNL     1      15.871  31.348  55.243  1.00  0.00     0.063 C 
ATOM     28  C   UNL     1      18.133  31.014  54.124  1.00  0.00     0.033 C 
ATOM     29  C   UNL     1      17.395  31.302  55.445  1.00  0.00     0.118 C 
BRANCH  29  30
ATOM     30  O   UNL     1      17.737  30.352  56.423  1.00  0.00    -0.393 OA
ATOM     31  H   UNL     1      17.724  30.809  57.305  1.00  0.00     0.210 HD
ENDBRANCH  29  30
ENDBRANCH   1  11
TORSDOF 6
ENDMDL
MODEL 7
REMARK VINA RESULT:    -5.136      3.487      6.952
REMARK INTER + INTRA:          -9.807
REMARK INTER:                  -6.621
REMARK INTRA:                  -3.186
REMARK UNBOUND:                -3.019
REMARK SMILES CC[C@H](C=C[C@H](C)[C@@H]1CC[C@H]2[C@H]3CC=C4C[C@@H](O)CC[C@]4(C)[C@H]3CC[C@@]21C)C(C)C
REMARK SMILES IDX 6 1 7 2 5 3 4 4 3 5 2 6 1 7 28 8 29 9 30 10 8 11 9 12 26 13
REMARK SMILES IDX 10 14 11 15 25 16 27 17 12 18 24 19 23 20 13 21 21 22 14 23
REMARK SMILES IDX 15 24 20 25 22 26 16 27 19 28 17 29 18 30
REMARK H PARENT 18 31
REMARK Flexibility Score: inf
ROOT
ATOM      1  C   UNL     1      15.806  35.308  46.795  1.00  0.00     0.012 C 
ATOM      2  C   UNL     1      16.410  35.573  45.401  1.00  0.00     0.012 C 
ENDROOT
BRANCH   1   3
ATOM      3  C   UNL     1      14.641  36.246  47.056  1.00  0.00    -0.028 C 
ATOM      4  C   UNL     1      14.467  36.986  48.169  1.00  0.00    -0.027 C 
BRANCH   4   5
ATOM      5  C   UNL     1      15.469  37.136  49.304  1.00  0.00     0.014 C 
BRANCH   5   6
ATOM      6  C   UNL     1      16.580  38.125  48.869  1.00  0.00     0.004 C 
ATOM      7  C   UNL     1      17.995  37.539  48.888  1.00  0.00     0.004 C 
ENDBRANCH   5   6
BRANCH   5   8
ATOM      8  C   UNL     1      14.743  37.528  50.629  1.00  0.00    -0.011 C 
ATOM      9  C   UNL     1      13.383  36.817  50.743  1.00  0.00     0.008 C 
ATOM     10  C   UNL     1      15.583  37.194  51.874  1.00  0.00     0.008 C 
ENDBRANCH   5   8
ENDBRANCH   4   5
ENDBRANCH   1   3
BRANCH   1  11
ATOM     11  C   UNL     1      15.438  33.816  47.123  1.00  0.00     0.002 C 
ATOM     12  C   UNL     1      13.936  33.500  46.852  1.00  0.00     0.005 C 
ATOM     13  C   UNL     1      15.704  33.220  48.554  1.00  0.00    -0.026 C 
ATOM     14  C   UNL     1      13.290  33.106  48.194  1.00  0.00     0.005 C 
ATOM     15  C   UNL     1      14.341  33.470  49.226  1.00  0.00    -0.001 C 
ATOM     16  C   UNL     1      16.803  33.850  49.447  1.00  0.00     0.007 C 
ATOM     17  C   UNL     1      16.062  31.710  48.338  1.00  0.00     0.012 C 
ATOM     18  C   UNL     1      14.173  33.010  50.693  1.00  0.00     0.000 C 
ATOM     19  C   UNL     1      16.707  33.373  50.924  1.00  0.00     0.005 C 
ATOM     20  C   UNL     1      15.302  33.639  51.558  1.00  0.00     0.003 C 
ATOM     21  C   UNL     1      14.081  31.494  50.914  1.00  0.00     0.031 C 
ATOM     22  C   UNL     1      15.136  33.280  53.101  1.00  0.00    -0.008 C 
ATOM     23  C   UNL     1      13.916  31.175  52.364  1.00  0.00    -0.027 C 
ATOM     24  C   UNL     1      14.454  31.920  53.351  1.00  0.00    -0.065 C 
ATOM     25  C   UNL     1      14.216  34.364  53.756  1.00  0.00     0.014 C 
ATOM     26  C   UNL     1      16.514  33.302  53.821  1.00  0.00     0.016 C 
ATOM     27  C   UNL     1      14.103  31.569  54.783  1.00  0.00     0.063 C 
ATOM     28  C   UNL     1      13.812  34.061  55.215  1.00  0.00     0.033 C 
ATOM     29  C   UNL     1      13.184  32.661  55.356  1.00  0.00     0.118 C 
BRANCH  29  30
ATOM     30  O   UNL     1      12.870  32.390  56.699  1.00  0.00    -0.393 OA
ATOM     31  H   UNL     1      12.309  31.571  56.718  1.00  0.00     0.210 HD
ENDBRANCH  29  30
ENDBRANCH   1  11
TORSDOF 6
ENDMDL
MODEL 8
REMARK VINA RESULT:    -5.119      2.957      6.722
REMARK INTER + INTRA:          -9.784
REMARK INTER:                  -6.607
REMARK INTRA:                  -3.177
REMARK UNBOUND:                -3.019
REMARK SMILES CC[C@H](C=C[C@H](C)[C@@H]1CC[C@H]2[C@H]3CC=C4C[C@@H](O)CC[C@]4(C)[C@H]3CC[C@@]21C)C(C)C
REMARK SMILES IDX 6 1 7 2 5 3 4 4 3 5 2 6 1 7 28 8 29 9 30 10 8 11 9 12 26 13
REMARK SMILES IDX 10 14 11 15 25 16 27 17 12 18 24 19 23 20 13 21 21 22 14 23
REMARK SMILES IDX 15 24 20 25 22 26 16 27 19 28 17 29 18 30
REMARK H PARENT 18 31
REMARK Flexibility Score: inf
ROOT
ATOM      1  C   UNL     1      13.949  36.807  46.592  1.00  0.00     0.012 C 
ATOM      2  C   UNL     1      13.930  37.833  45.439  1.00  0.00     0.012 C 
ENDROOT
BRANCH   1   3
ATOM      3  C   UNL     1      14.085  35.398  46.045  1.00  0.00    -0.028 C 
ATOM      4  C   UNL     1      13.341  34.338  46.420  1.00  0.00    -0.027 C 
BRANCH   4   5
ATOM      5  C   UNL     1      12.135  34.381  47.347  1.00  0.00     0.014 C 
BRANCH   5   6
ATOM      6  C   UNL     1      10.931  34.987  46.581  1.00  0.00     0.004 C 
ATOM      7  C   UNL     1      10.366  36.270  47.198  1.00  0.00     0.004 C 
ENDBRANCH   5   6
BRANCH   5   8
ATOM      8  C   UNL     1      11.862  32.971  47.959  1.00  0.00    -0.011 C 
ATOM      9  C   UNL     1      13.179  32.284  48.365  1.00  0.00     0.008 C 
ATOM     10  C   UNL     1      10.939  33.039  49.188  1.00  0.00     0.008 C 
ENDBRANCH   5   8
ENDBRANCH   4   5
ENDBRANCH   1   3
BRANCH   1  11
ATOM     11  C   UNL     1      14.970  37.083  47.753  1.00  0.00     0.002 C 
ATOM     12  C   UNL     1      16.330  36.355  47.535  1.00  0.00     0.005 C 
ATOM     13  C   UNL     1      14.594  36.757  49.245  1.00  0.00    -0.026 C 
ATOM     14  C   UNL     1      16.520  35.359  48.694  1.00  0.00     0.005 C 
ATOM     15  C   UNL     1      15.167  35.334  49.380  1.00  0.00    -0.001 C 
ATOM     16  C   UNL     1      13.102  36.716  49.662  1.00  0.00     0.007 C 
ATOM     17  C   UNL     1      15.312  37.839  50.122  1.00  0.00     0.012 C 
ATOM     18  C   UNL     1      15.007  34.627  50.747  1.00  0.00     0.000 C 
ATOM     19  C   UNL     1      12.898  36.060  51.057  1.00  0.00     0.005 C 
ATOM     20  C   UNL     1      13.505  34.621  51.147  1.00  0.00     0.003 C 
ATOM     21  C   UNL     1      15.886  35.162  51.886  1.00  0.00     0.031 C 
ATOM     22  C   UNL     1      13.255  33.825  52.503  1.00  0.00    -0.008 C 
ATOM     23  C   UNL     1      15.648  34.398  53.148  1.00  0.00    -0.027 C 
ATOM     24  C   UNL     1      14.452  33.867  53.474  1.00  0.00    -0.065 C 
ATOM     25  C   UNL     1      13.026  32.318  52.148  1.00  0.00     0.014 C 
ATOM     26  C   UNL     1      11.988  34.360  53.228  1.00  0.00     0.016 C 
ATOM     27  C   UNL     1      14.372  33.001  54.716  1.00  0.00     0.063 C 
ATOM     28  C   UNL     1      12.945  31.379  53.370  1.00  0.00     0.033 C 
ATOM     29  C   UNL     1      14.168  31.536  54.295  1.00  0.00     0.118 C 
BRANCH  29  30
ATOM     30  O   UNL     1      14.047  30.708  55.423  1.00  0.00    -0.393 OA
ATOM     31  H   UNL     1      13.087  30.684  55.678  1.00  0.00     0.210 HD
ENDBRANCH  29  30
ENDBRANCH   1  11
TORSDOF 6
ENDMDL
MODEL 9
REMARK VINA RESULT:    -5.100      1.465      2.151
REMARK INTER + INTRA:          -9.759
REMARK INTER:                  -6.529
REMARK INTRA:                  -3.230
REMARK UNBOUND:                -3.019
REMARK SMILES CC[C@H](C=C[C@H](C)[C@@H]1CC[C@H]2[C@H]3CC=C4C[C@@H](O)CC[C@]4(C)[C@H]3CC[C@@]21C)C(C)C
REMARK SMILES IDX 6 1 7 2 5 3 4 4 3 5 2 6 1 7 28 8 29 9 30 10 8 11 9 12 26 13
REMARK SMILES IDX 10 14 11 15 25 16 27 17 12 18 24 19 23 20 13 21 21 22 14 23
REMARK SMILES IDX 15 24 20 25 22 26 16 27 19 28 17 29 18 30
REMARK H PARENT 18 31
REMARK Flexibility Score: inf
ROOT
ATOM      1  C   UNL     1      15.946  34.481  52.279  1.00  0.00     0.012 C 
ATOM      2  C   UNL     1      16.924  33.989  53.366  1.00  0.00     0.012 C 
ENDROOT
BRANCH   1   3
ATOM      3  C   UNL     1      14.588  34.783  52.886  1.00  0.00    -0.028 C 
ATOM      4  C   UNL     1      13.402  34.383  52.386  1.00  0.00    -0.027 C 
BRANCH   4   5
ATOM      5  C   UNL     1      13.205  33.435  51.212  1.00  0.00     0.014 C 
BRANCH   5   6
ATOM      6  C   UNL     1      13.447  31.981  51.691  1.00  0.00     0.004 C 
ATOM      7  C   UNL     1      14.602  31.264  50.986  1.00  0.00     0.004 C 
ENDBRANCH   5   6
BRANCH   5   8
ATOM      8  C   UNL     1      11.812  33.668  50.546  1.00  0.00    -0.011 C 
ATOM      9  C   UNL     1      11.544  35.170  50.341  1.00  0.00     0.008 C 
ATOM     10  C   UNL     1      11.689  32.952  49.189  1.00  0.00     0.008 C 
ENDBRANCH   5   8
ENDBRANCH   4   5
ENDBRANCH   1   3
BRANCH   1  11
ATOM     11  C   UNL     1      16.453  35.655  51.366  1.00  0.00     0.002 C 
ATOM     12  C   UNL     1      15.891  37.039  51.810  1.00  0.00     0.005 C 
ATOM     13  C   UNL     1      16.211  35.622  49.812  1.00  0.00    -0.026 C 
ATOM     14  C   UNL     1      15.032  37.588  50.657  1.00  0.00     0.005 C 
ATOM     15  C   UNL     1      14.892  36.410  49.711  1.00  0.00    -0.001 C 
ATOM     16  C   UNL     1      16.013  34.260  49.101  1.00  0.00     0.007 C 
ATOM     17  C   UNL     1      17.449  36.331  49.164  1.00  0.00     0.012 C 
ATOM     18  C   UNL     1      14.291  36.619  48.301  1.00  0.00     0.000 C 
ATOM     19  C   UNL     1      15.459  34.424  47.657  1.00  0.00     0.005 C 
ATOM     20  C   UNL     1      14.125  35.238  47.607  1.00  0.00     0.003 C 
ATOM     21  C   UNL     1      15.032  37.613  47.397  1.00  0.00     0.031 C 
ATOM     22  C   UNL     1      13.424  35.371  46.183  1.00  0.00    -0.008 C 
ATOM     23  C   UNL     1      14.357  37.734  46.070  1.00  0.00    -0.027 C 
ATOM     24  C   UNL     1      13.705  36.713  45.477  1.00  0.00    -0.065 C 
ATOM     25  C   UNL     1      11.875  35.298  46.395  1.00  0.00     0.014 C 
ATOM     26  C   UNL     1      13.850  34.203  45.250  1.00  0.00     0.016 C 
ATOM     27  C   UNL     1      12.948  36.999  44.196  1.00  0.00     0.063 C 
ATOM     28  C   UNL     1      11.043  35.590  45.128  1.00  0.00     0.033 C 
ATOM     29  C   UNL     1      11.438  36.931  44.480  1.00  0.00     0.118 C 
BRANCH  29  30
ATOM     30  O   UNL     1      10.702  37.150  43.303  1.00  0.00    -0.393 OA
ATOM     31  H   UNL     1      10.075  37.902  43.474  1.00  0.00     0.210 HD
ENDBRANCH  29  30
ENDBRANCH   1  11
TORSDOF 6
ENDMDL
