MODEL 1
REMARK VINA RESULT:    -5.195      0.000      0.000
REMARK INTER + INTRA:          -5.347
REMARK INTER:                  -5.347
REMARK INTRA:                   0.000
REMARK UNBOUND:                 0.000
REMARK SMILES Oc1ccc2[nH]ccc2c1
REMARK SMILES IDX 3 1 4 2 5 3 9 4 8 5 7 6 6 7 10 8 2 9 1 11
REMARK H PARENT 6 10 1 12
REMARK Flexibility Score: inf
ROOT
ATOM      1  C   UNL     1      34.377   4.478  31.254  1.00  0.00     0.048 A 
ATOM      2  C   UNL     1      33.713   5.001  32.379  1.00  0.00     0.030 A 
ATOM      3  C   UNL     1      33.527   6.381  32.441  1.00  0.00     0.046 A 
ATOM      4  C   UNL     1      33.971   7.212  31.448  1.00  0.00     0.003 A 
ATOM      5  C   UNL     1      33.635   8.499  31.807  1.00  0.00     0.028 A 
ATOM      6  C   UNL     1      32.988   8.377  33.032  1.00  0.00     0.083 A 
ATOM      7  N   UNL     1      32.924   7.081  33.415  1.00  0.00    -0.361 N 
ATOM      8  C   UNL     1      34.632   6.726  30.322  1.00  0.00     0.056 A 
ATOM      9  C   UNL     1      34.837   5.334  30.227  1.00  0.00     0.116 A 
ATOM     10  H   UNL     1      32.494   6.706  34.290  1.00  0.00     0.166 HD
ENDROOT
BRANCH   9  11
ATOM     11  O   UNL     1      35.491   4.790  29.125  1.00  0.00    -0.508 OA
ATOM     12  H   UNL     1      36.203   5.308  28.623  1.00  0.00     0.293 HD
ENDBRANCH   9  11
TORSDOF 1
ENDMDL
MODEL 2
REMARK VINA RESULT:    -5.038      4.949      6.220
REMARK INTER + INTRA:          -5.185
REMARK INTER:                  -5.185
REMARK INTRA:                   0.000
REMARK UNBOUND:                 0.000
REMARK SMILES Oc1ccc2[nH]ccc2c1
REMARK SMILES IDX 3 1 4 2 5 3 9 4 8 5 7 6 6 7 10 8 2 9 1 11
REMARK H PARENT 6 10 1 12
REMARK Flexibility Score: inf
ROOT
ATOM      1  C   UNL     1      35.544  12.229  28.034  1.00  0.00     0.048 A 
ATOM      2  C   UNL     1      35.846  10.917  28.446  1.00  0.00     0.030 A 
ATOM      3  C   UNL     1      34.915  10.256  29.244  1.00  0.00     0.046 A 
ATOM      4  C   UNL     1      33.741  10.849  29.623  1.00  0.00     0.003 A 
ATOM      5  C   UNL     1      33.052   9.942  30.397  1.00  0.00     0.028 A 
ATOM      6  C   UNL     1      33.866   8.815  30.448  1.00  0.00     0.083 A 
ATOM      7  N   UNL     1      35.003   9.012  29.741  1.00  0.00    -0.361 N 
ATOM      8  C   UNL     1      33.412  12.146  29.233  1.00  0.00     0.056 A 
ATOM      9  C   UNL     1      34.333  12.844  28.424  1.00  0.00     0.116 A 
ATOM     10  H   UNL     1      35.786   8.333  29.613  1.00  0.00     0.166 HD
ENDROOT
BRANCH   9  11
ATOM     11  O   UNL     1      34.058  14.143  28.003  1.00  0.00    -0.508 OA
ATOM     12  H   UNL     1      34.516  14.944  28.423  1.00  0.00     0.293 HD
ENDBRANCH   9  11
TORSDOF 1
ENDMDL
MODEL 3
REMARK VINA RESULT:    -4.919      1.937      2.564
REMARK INTER + INTRA:          -5.062
REMARK INTER:                  -5.062
REMARK INTRA:                   0.000
REMARK UNBOUND:                 0.000
REMARK SMILES Oc1ccc2[nH]ccc2c1
REMARK SMILES IDX 3 1 4 2 5 3 9 4 8 5 7 6 6 7 10 8 2 9 1 11
REMARK H PARENT 6 10 1 12
REMARK Flexibility Score: inf
ROOT
ATOM      1  C   UNL     1      34.697   3.894  30.687  1.00  0.00     0.048 A 
ATOM      2  C   UNL     1      34.864   5.108  29.996  1.00  0.00     0.030 A 
ATOM      3  C   UNL     1      34.449   6.278  30.628  1.00  0.00     0.046 A 
ATOM      4  C   UNL     1      33.895   6.263  31.880  1.00  0.00     0.003 A 
ATOM      5  C   UNL     1      33.597   7.565  32.215  1.00  0.00     0.028 A 
ATOM      6  C   UNL     1      33.996   8.323  31.119  1.00  0.00     0.083 A 
ATOM      7  N   UNL     1      34.516   7.532  30.152  1.00  0.00    -0.361 N 
ATOM      8  C   UNL     1      33.716   5.078  32.591  1.00  0.00     0.056 A 
ATOM      9  C   UNL     1      34.126   3.874  31.980  1.00  0.00     0.116 A 
ATOM     10  H   UNL     1      34.891   7.838  29.226  1.00  0.00     0.166 HD
ENDROOT
BRANCH   9  11
ATOM     11  O   UNL     1      33.972   2.659  32.642  1.00  0.00    -0.508 OA
ATOM     12  H   UNL     1      33.986   1.777  32.142  1.00  0.00     0.293 HD
ENDBRANCH   9  11
TORSDOF 1
ENDMDL
MODEL 4
REMARK VINA RESULT:    -4.907      2.604      4.077
REMARK INTER + INTRA:          -5.050
REMARK INTER:                  -5.050
REMARK INTRA:                   0.000
REMARK UNBOUND:                 0.000
REMARK SMILES Oc1ccc2[nH]ccc2c1
REMARK SMILES IDX 3 1 4 2 5 3 9 4 8 5 7 6 6 7 10 8 2 9 1 11
REMARK H PARENT 6 10 1 12
REMARK Flexibility Score: inf
ROOT
ATOM      1  C   UNL     1      33.556   8.476  31.894  1.00  0.00     0.048 A 
ATOM      2  C   UNL     1      34.161   7.959  30.734  1.00  0.00     0.030 A 
ATOM      3  C   UNL     1      34.383   6.584  30.674  1.00  0.00     0.046 A 
ATOM      4  C   UNL     1      34.031   5.753  31.703  1.00  0.00     0.003 A 
ATOM      5  C   UNL     1      34.380   4.472  31.337  1.00  0.00     0.028 A 
ATOM      6  C   UNL     1      34.941   4.597  30.070  1.00  0.00     0.083 A 
ATOM      7  N   UNL     1      34.940   5.890  29.669  1.00  0.00    -0.361 N 
ATOM      8  C   UNL     1      33.431   6.234  32.866  1.00  0.00     0.056 A 
ATOM      9  C   UNL     1      33.192   7.621  32.958  1.00  0.00     0.116 A 
ATOM     10  H   UNL     1      35.301   6.266  28.764  1.00  0.00     0.166 HD
ENDROOT
BRANCH   9  11
ATOM     11  O   UNL     1      32.595   8.159  34.096  1.00  0.00    -0.508 OA
ATOM     12  H   UNL     1      33.086   8.817  34.690  1.00  0.00     0.293 HD
ENDBRANCH   9  11
TORSDOF 1
ENDMDL
MODEL 5
REMARK VINA RESULT:    -4.858      6.765      7.536
REMARK INTER + INTRA:          -5.000
REMARK INTER:                  -5.000
REMARK INTRA:                   0.000
REMARK UNBOUND:                 0.000
REMARK SMILES Oc1ccc2[nH]ccc2c1
REMARK SMILES IDX 3 1 4 2 5 3 9 4 8 5 7 6 6 7 10 8 2 9 1 11
REMARK H PARENT 6 10 1 12
REMARK Flexibility Score: inf
ROOT
ATOM      1  C   UNL     1      28.339   3.011  33.474  1.00  0.00     0.048 A 
ATOM      2  C   UNL     1      28.857   4.318  33.401  1.00  0.00     0.030 A 
ATOM      3  C   UNL     1      28.385   5.257  34.316  1.00  0.00     0.046 A 
ATOM      4  C   UNL     1      27.448   4.933  35.261  1.00  0.00     0.003 A 
ATOM      5  C   UNL     1      27.199   6.069  35.999  1.00  0.00     0.028 A 
ATOM      6  C   UNL     1      28.019   7.048  35.449  1.00  0.00     0.083 A 
ATOM      7  N   UNL     1      28.742   6.547  34.421  1.00  0.00    -0.361 N 
ATOM      8  C   UNL     1      26.916   3.650  35.360  1.00  0.00     0.056 A 
ATOM      9  C   UNL     1      27.372   2.675  34.449  1.00  0.00     0.116 A 
ATOM     10  H   UNL     1      29.435   7.061  33.831  1.00  0.00     0.166 HD
ENDROOT
BRANCH   9  11
ATOM     11  O   UNL     1      26.876   1.374  34.500  1.00  0.00    -0.508 OA
ATOM     12  H   UNL     1      26.065   1.138  35.061  1.00  0.00     0.293 HD
ENDBRANCH   9  11
TORSDOF 1
ENDMDL
MODEL 6
REMARK VINA RESULT:    -4.782      4.454      5.581
REMARK INTER + INTRA:          -4.922
REMARK INTER:                  -4.922
REMARK INTRA:                   0.000
REMARK UNBOUND:                 0.000
REMARK SMILES Oc1ccc2[nH]ccc2c1
REMARK SMILES IDX 3 1 4 2 5 3 9 4 8 5 7 6 6 7 10 8 2 9 1 11
REMARK H PARENT 6 10 1 12
REMARK Flexibility Score: inf
ROOT
ATOM      1  C   UNL     1      33.252   9.089  30.768  1.00  0.00     0.048 A 
ATOM      2  C   UNL     1      34.472   9.013  30.071  1.00  0.00     0.030 A 
ATOM      3  C   UNL     1      34.869  10.125  29.332  1.00  0.00     0.046 A 
ATOM      4  C   UNL     1      34.108  11.262  29.276  1.00  0.00     0.003 A 
ATOM      5  C   UNL     1      34.770  12.163  28.473  1.00  0.00     0.028 A 
ATOM      6  C   UNL     1      35.931  11.509  28.072  1.00  0.00     0.083 A 
ATOM      7  N   UNL     1      35.987  10.264  28.600  1.00  0.00    -0.361 N 
ATOM      8  C   UNL     1      32.895  11.370  29.954  1.00  0.00     0.056 A 
ATOM      9  C   UNL     1      32.464  10.261  30.712  1.00  0.00     0.116 A 
ATOM     10  H   UNL     1      36.745   9.558  28.463  1.00  0.00     0.166 HD
ENDROOT
BRANCH   9  11
ATOM     11  O   UNL     1      31.260  10.310  31.412  1.00  0.00    -0.508 OA
ATOM     12  H   UNL     1      30.384  10.512  30.944  1.00  0.00     0.293 HD
ENDBRANCH   9  11
TORSDOF 1
ENDMDL
MODEL 7
REMARK VINA RESULT:    -4.731      3.937      5.219
REMARK INTER + INTRA:          -4.869
REMARK INTER:                  -4.869
REMARK INTRA:                   0.000
REMARK UNBOUND:                 0.000
REMARK SMILES Oc1ccc2[nH]ccc2c1
REMARK SMILES IDX 3 1 4 2 5 3 9 4 8 5 7 6 6 7 10 8 2 9 1 11
REMARK H PARENT 6 10 1 12
REMARK Flexibility Score: inf
ROOT
ATOM      1  C   UNL     1      34.821  11.978  28.478  1.00  0.00     0.048 A 
ATOM      2  C   UNL     1      33.608  12.086  29.182  1.00  0.00     0.030 A 
ATOM      3  C   UNL     1      33.203  10.998  29.953  1.00  0.00     0.046 A 
ATOM      4  C   UNL     1      33.951   9.854  30.032  1.00  0.00     0.003 A 
ATOM      5  C   UNL     1      33.284   8.982  30.863  1.00  0.00     0.028 A 
ATOM      6  C   UNL     1      32.135   9.661  31.255  1.00  0.00     0.083 A 
ATOM      7  N   UNL     1      32.090  10.893  30.697  1.00  0.00    -0.361 N 
ATOM      8  C   UNL     1      35.156   9.714  29.347  1.00  0.00     0.056 A 
ATOM      9  C   UNL     1      35.595  10.798  28.558  1.00  0.00     0.116 A 
ATOM     10  H   UNL     1      31.341  11.611  30.821  1.00  0.00     0.166 HD
ENDROOT
BRANCH   9  11
ATOM     11  O   UNL     1      36.793  10.716  27.851  1.00  0.00    -0.508 OA
ATOM     12  H   UNL     1      37.045   9.883  27.330  1.00  0.00     0.293 HD
ENDBRANCH   9  11
TORSDOF 1
ENDMDL
MODEL 8
REMARK VINA RESULT:    -4.706      1.994      3.321
REMARK INTER + INTRA:          -4.844
REMARK INTER:                  -4.844
REMARK INTRA:                   0.000
REMARK UNBOUND:                 0.000
REMARK SMILES Oc1ccc2[nH]ccc2c1
REMARK SMILES IDX 3 1 4 2 5 3 9 4 8 5 7 6 6 7 10 8 2 9 1 11
REMARK H PARENT 6 10 1 12
REMARK Flexibility Score: inf
ROOT
ATOM      1  C   UNL     1      33.515   8.110  32.213  1.00  0.00     0.048 A 
ATOM      2  C   UNL     1      33.424   6.835  32.800  1.00  0.00     0.030 A 
ATOM      3  C   UNL     1      33.860   5.742  32.053  1.00  0.00     0.046 A 
ATOM      4  C   UNL     1      34.362   5.889  30.788  1.00  0.00     0.003 A 
ATOM      5  C   UNL     1      34.699   4.635  30.330  1.00  0.00     0.028 A 
ATOM      6  C   UNL     1      34.375   3.769  31.369  1.00  0.00     0.083 A 
ATOM      7  N   UNL     1      33.863   4.450  32.420  1.00  0.00    -0.361 N 
ATOM      8  C   UNL     1      34.466   7.138  30.178  1.00  0.00     0.056 A 
ATOM      9  C   UNL     1      34.033   8.265  30.907  1.00  0.00     0.116 A 
ATOM     10  H   UNL     1      33.537   4.050  33.328  1.00  0.00     0.166 HD
ENDROOT
BRANCH   9  11
ATOM     11  O   UNL     1      34.112   9.539  30.348  1.00  0.00    -0.508 OA
ATOM     12  H   UNL     1      34.281  10.358  30.920  1.00  0.00     0.293 HD
ENDBRANCH   9  11
TORSDOF 1
ENDMDL
MODEL 9
REMARK VINA RESULT:    -4.581      4.097      5.233
REMARK INTER + INTRA:          -4.715
REMARK INTER:                  -4.715
REMARK INTRA:                   0.000
REMARK UNBOUND:                 0.000
REMARK SMILES Oc1ccc2[nH]ccc2c1
REMARK SMILES IDX 3 1 4 2 5 3 9 4 8 5 7 6 6 7 10 8 2 9 1 11
REMARK H PARENT 6 10 1 12
REMARK Flexibility Score: inf
ROOT
ATOM      1  C   UNL     1      32.847   9.605  30.727  1.00  0.00     0.048 A 
ATOM      2  C   UNL     1      32.804  10.908  30.197  1.00  0.00     0.030 A 
ATOM      3  C   UNL     1      33.874  11.325  29.408  1.00  0.00     0.046 A 
ATOM      4  C   UNL     1      34.940  10.505  29.149  1.00  0.00     0.003 A 
ATOM      5  C   UNL     1      35.815  11.207  28.350  1.00  0.00     0.028 A 
ATOM      6  C   UNL     1      35.218  12.450  28.162  1.00  0.00     0.083 A 
ATOM      7  N   UNL     1      34.033  12.517  28.810  1.00  0.00    -0.361 N 
ATOM      8  C   UNL     1      35.013   9.210  29.658  1.00  0.00     0.056 A 
ATOM      9  C   UNL     1      33.945   8.757  30.460  1.00  0.00     0.116 A 
ATOM     10  H   UNL     1      33.378  13.331  28.838  1.00  0.00     0.166 HD
ENDROOT
BRANCH   9  11
ATOM     11  O   UNL     1      33.963   7.471  30.997  1.00  0.00    -0.508 OA
ATOM     12  H   UNL     1      33.357   7.209  31.766  1.00  0.00     0.293 HD
ENDBRANCH   9  11
TORSDOF 1
ENDMDL
