MODEL 1
REMARK VINA RESULT:    -3.854      0.000      0.000
REMARK INTER + INTRA:          -4.864
REMARK INTER:                  -4.642
REMARK INTRA:                  -0.222
REMARK UNBOUND:                -0.222
REMARK SMILES OCC(O)CO
REMARK SMILES IDX 3 1 5 2 6 3 2 5 1 6 4 8
REMARK H PARENT 6 4 1 7 4 9
REMARK Flexibility Score: inf
ROOT
ATOM      1  C   UNL     1      21.869  -6.486   4.276  1.00  0.00     0.165 C 
ENDROOT
BRANCH   1   2
ATOM      2  C   UNL     1      23.039  -5.750   3.607  1.00  0.00     0.190 C 
BRANCH   2   3
ATOM      3  O   UNL     1      23.743  -4.987   4.550  1.00  0.00    -0.394 OA
ATOM      4  H   UNL     1      24.641  -4.811   4.165  1.00  0.00     0.210 HD
ENDBRANCH   2   3
ENDBRANCH   1   2
BRANCH   1   5
ATOM      5  C   UNL     1      22.337  -7.185   5.558  1.00  0.00     0.190 C 
BRANCH   5   6
ATOM      6  O   UNL     1      22.138  -6.352   6.670  1.00  0.00    -0.394 OA
ATOM      7  H   UNL     1      21.173  -6.399   6.893  1.00  0.00     0.210 HD
ENDBRANCH   5   6
ENDBRANCH   1   5
BRANCH   1   8
ATOM      8  O   UNL     1      20.851  -5.572   4.595  1.00  0.00    -0.388 OA
ATOM      9  H   UNL     1      20.018  -5.905   4.171  1.00  0.00     0.211 HD
ENDBRANCH   1   8
TORSDOF 5
ENDMDL
MODEL 2
REMARK VINA RESULT:    -3.612      0.741      2.691
REMARK INTER + INTRA:          -4.573
REMARK INTER:                  -4.559
REMARK INTRA:                  -0.014
REMARK UNBOUND:                -0.222
REMARK SMILES OCC(O)CO
REMARK SMILES IDX 3 1 5 2 6 3 2 5 1 6 4 8
REMARK H PARENT 6 4 1 7 4 9
REMARK Flexibility Score: inf
ROOT
ATOM      1  C   UNL     1      22.204  -6.575   4.653  1.00  0.00     0.165 C 
ENDROOT
BRANCH   1   2
ATOM      2  C   UNL     1      20.691  -6.688   4.418  1.00  0.00     0.190 C 
BRANCH   2   3
ATOM      3  O   UNL     1      20.071  -5.445   4.604  1.00  0.00    -0.394 OA
ATOM      4  H   UNL     1      20.526  -5.008   5.370  1.00  0.00     0.210 HD
ENDBRANCH   2   3
ENDBRANCH   1   2
BRANCH   1   5
ATOM      5  C   UNL     1      22.843  -5.656   3.605  1.00  0.00     0.190 C 
BRANCH   5   6
ATOM      6  O   UNL     1      23.924  -4.957   4.162  1.00  0.00    -0.394 OA
ATOM      7  H   UNL     1      24.203  -5.459   4.971  1.00  0.00     0.210 HD
ENDBRANCH   5   6
ENDBRANCH   1   5
BRANCH   1   8
ATOM      8  O   UNL     1      22.451  -6.055   5.934  1.00  0.00    -0.388 OA
ATOM      9  H   UNL     1      21.691  -6.331   6.511  1.00  0.00     0.211 HD
ENDBRANCH   1   8
TORSDOF 5
ENDMDL
MODEL 3
REMARK VINA RESULT:    -3.519      0.571      2.491
REMARK INTER + INTRA:          -4.461
REMARK INTER:                  -4.258
REMARK INTRA:                  -0.203
REMARK UNBOUND:                -0.222
REMARK SMILES OCC(O)CO
REMARK SMILES IDX 3 1 5 2 6 3 2 5 1 6 4 8
REMARK H PARENT 6 4 1 7 4 9
REMARK Flexibility Score: inf
ROOT
ATOM      1  C   UNL     1      22.952  -6.285   4.213  1.00  0.00     0.165 C 
ENDROOT
BRANCH   1   2
ATOM      2  C   UNL     1      22.614  -7.174   5.419  1.00  0.00     0.190 C 
BRANCH   2   3
ATOM      3  O   UNL     1      22.247  -6.388   6.521  1.00  0.00    -0.394 OA
ATOM      4  H   UNL     1      22.327  -5.440   6.239  1.00  0.00     0.210 HD
ENDBRANCH   2   3
ENDBRANCH   1   2
BRANCH   1   5
ATOM      5  C   UNL     1      21.670  -5.855   3.489  1.00  0.00     0.190 C 
BRANCH   5   6
ATOM      6  O   UNL     1      20.685  -5.485   4.416  1.00  0.00    -0.394 OA
ATOM      7  H   UNL     1      19.978  -5.009   3.909  1.00  0.00     0.210 HD
ENDBRANCH   5   6
ENDBRANCH   1   5
BRANCH   1   8
ATOM      8  O   UNL     1      23.644  -5.141   4.643  1.00  0.00    -0.388 OA
ATOM      9  H   UNL     1      22.964  -4.443   4.831  1.00  0.00     0.211 HD
ENDBRANCH   1   8
TORSDOF 5
ENDMDL
MODEL 4
REMARK VINA RESULT:    -3.490      5.098      5.786
REMARK INTER + INTRA:          -4.426
REMARK INTER:                  -4.203
REMARK INTRA:                  -0.223
REMARK UNBOUND:                -0.222
REMARK SMILES OCC(O)CO
REMARK SMILES IDX 3 1 5 2 6 3 2 5 1 6 4 8
REMARK H PARENT 6 4 1 7 4 9
REMARK Flexibility Score: inf
ROOT
ATOM      1  C   UNL     1      17.218  -7.792   7.536  1.00  0.00     0.165 C 
ENDROOT
BRANCH   1   2
ATOM      2  C   UNL     1      18.292  -6.851   6.971  1.00  0.00     0.190 C 
BRANCH   2   3
ATOM      3  O   UNL     1      18.961  -6.188   8.009  1.00  0.00    -0.394 OA
ATOM      4  H   UNL     1      19.837  -6.640   8.123  1.00  0.00     0.210 HD
ENDBRANCH   2   3
ENDBRANCH   1   2
BRANCH   1   5
ATOM      5  C   UNL     1      17.871  -8.998   8.224  1.00  0.00     0.190 C 
BRANCH   5   6
ATOM      6  O   UNL     1      18.284  -8.657   9.520  1.00  0.00    -0.394 OA
ATOM      7  H   UNL     1      17.750  -7.866   9.791  1.00  0.00     0.210 HD
ENDBRANCH   5   6
ENDBRANCH   1   5
BRANCH   1   8
ATOM      8  O   UNL     1      16.424  -7.104   8.469  1.00  0.00    -0.388 OA
ATOM      9  H   UNL     1      17.018  -6.843   9.220  1.00  0.00     0.211 HD
ENDBRANCH   1   8
TORSDOF 5
ENDMDL
MODEL 5
REMARK VINA RESULT:    -3.486      1.229      2.730
REMARK INTER + INTRA:          -4.420
REMARK INTER:                  -4.210
REMARK INTRA:                  -0.210
REMARK UNBOUND:                -0.222
REMARK SMILES OCC(O)CO
REMARK SMILES IDX 3 1 5 2 6 3 2 5 1 6 4 8
REMARK H PARENT 6 4 1 7 4 9
REMARK Flexibility Score: inf
ROOT
ATOM      1  C   UNL     1      22.504  -7.115   4.478  1.00  0.00     0.165 C 
ENDROOT
BRANCH   1   2
ATOM      2  C   UNL     1      21.484  -6.824   5.589  1.00  0.00     0.190 C 
BRANCH   2   3
ATOM      3  O   UNL     1      22.139  -6.488   6.782  1.00  0.00    -0.394 OA
ATOM      4  H   UNL     1      22.595  -5.621   6.626  1.00  0.00     0.210 HD
ENDBRANCH   2   3
ENDBRANCH   1   2
BRANCH   1   5
ATOM      5  C   UNL     1      22.915  -5.816   3.774  1.00  0.00     0.190 C 
BRANCH   5   6
ATOM      6  O   UNL     1      23.748  -5.052   4.606  1.00  0.00    -0.394 OA
ATOM      7  H   UNL     1      23.641  -5.410   5.525  1.00  0.00     0.210 HD
ENDBRANCH   5   6
ENDBRANCH   1   5
BRANCH   1   8
ATOM      8  O   UNL     1      23.646  -7.723   5.026  1.00  0.00    -0.388 OA
ATOM      9  H   UNL     1      24.413  -7.120   4.843  1.00  0.00     0.211 HD
ENDBRANCH   1   8
TORSDOF 5
ENDMDL
MODEL 6
REMARK VINA RESULT:    -3.343      1.814      2.726
REMARK INTER + INTRA:          -4.249
REMARK INTER:                  -4.226
REMARK INTRA:                  -0.022
REMARK UNBOUND:                -0.222
REMARK SMILES OCC(O)CO
REMARK SMILES IDX 3 1 5 2 6 3 2 5 1 6 4 8
REMARK H PARENT 6 4 1 7 4 9
REMARK Flexibility Score: inf
ROOT
ATOM      1  C   UNL     1      22.656  -6.753   3.059  1.00  0.00     0.165 C 
ENDROOT
BRANCH   1   2
ATOM      2  C   UNL     1      22.836  -5.835   4.277  1.00  0.00     0.190 C 
BRANCH   2   3
ATOM      3  O   UNL     1      23.912  -4.958   4.078  1.00  0.00    -0.394 OA
ATOM      4  H   UNL     1      23.637  -4.323   3.366  1.00  0.00     0.210 HD
ENDBRANCH   2   3
ENDBRANCH   1   2
BRANCH   1   5
ATOM      5  C   UNL     1      21.327  -6.456   2.355  1.00  0.00     0.190 C 
BRANCH   5   6
ATOM      6  O   UNL     1      20.384  -5.975   3.275  1.00  0.00    -0.394 OA
ATOM      7  H   UNL     1      20.893  -5.535   4.004  1.00  0.00     0.210 HD
ENDBRANCH   5   6
ENDBRANCH   1   5
BRANCH   1   8
ATOM      8  O   UNL     1      23.712  -6.556   2.154  1.00  0.00    -0.388 OA
ATOM      9  H   UNL     1      24.296  -5.852   2.538  1.00  0.00     0.211 HD
ENDBRANCH   1   8
TORSDOF 5
ENDMDL
MODEL 7
REMARK VINA RESULT:    -3.322      4.903      5.973
REMARK INTER + INTRA:          -4.223
REMARK INTER:                  -4.001
REMARK INTRA:                  -0.222
REMARK UNBOUND:                -0.222
REMARK SMILES OCC(O)CO
REMARK SMILES IDX 3 1 5 2 6 3 2 5 1 6 4 8
REMARK H PARENT 6 4 1 7 4 9
REMARK Flexibility Score: inf
ROOT
ATOM      1  C   UNL     1      18.299  -7.171   7.383  1.00  0.00     0.165 C 
ENDROOT
BRANCH   1   2
ATOM      2  C   UNL     1      18.223  -8.615   7.900  1.00  0.00     0.190 C 
BRANCH   2   3
ATOM      3  O   UNL     1      18.157  -8.632   9.301  1.00  0.00    -0.394 OA
ATOM      4  H   UNL     1      17.266  -8.273   9.551  1.00  0.00     0.210 HD
ENDBRANCH   2   3
ENDBRANCH   1   2
BRANCH   1   5
ATOM      5  C   UNL     1      17.884  -6.185   8.483  1.00  0.00     0.190 C 
BRANCH   5   6
ATOM      6  O   UNL     1      16.516  -6.315   8.764  1.00  0.00    -0.394 OA
ATOM      7  H   UNL     1      16.417  -7.121   9.335  1.00  0.00     0.210 HD
ENDBRANCH   5   6
ENDBRANCH   1   5
BRANCH   1   8
ATOM      8  O   UNL     1      19.610  -6.878   6.973  1.00  0.00    -0.388 OA
ATOM      9  H   UNL     1      19.665  -5.894   6.856  1.00  0.00     0.211 HD
ENDBRANCH   1   8
TORSDOF 5
ENDMDL
MODEL 8
REMARK VINA RESULT:    -3.275      5.243      6.058
REMARK INTER + INTRA:          -4.166
REMARK INTER:                  -3.951
REMARK INTRA:                  -0.215
REMARK UNBOUND:                -0.222
REMARK SMILES OCC(O)CO
REMARK SMILES IDX 3 1 5 2 6 3 2 5 1 6 4 8
REMARK H PARENT 6 4 1 7 4 9
REMARK Flexibility Score: inf
ROOT
ATOM      1  C   UNL     1      17.363  -7.427   8.533  1.00  0.00     0.165 C 
ENDROOT
BRANCH   1   2
ATOM      2  C   UNL     1      17.831  -5.999   8.851  1.00  0.00     0.190 C 
BRANCH   2   3
ATOM      3  O   UNL     1      19.051  -5.729   8.215  1.00  0.00    -0.394 OA
ATOM      4  H   UNL     1      19.748  -5.720   8.922  1.00  0.00     0.210 HD
ENDBRANCH   2   3
ENDBRANCH   1   2
BRANCH   1   5
ATOM      5  C   UNL     1      17.502  -7.715   7.033  1.00  0.00     0.190 C 
BRANCH   5   6
ATOM      6  O   UNL     1      16.909  -6.689   6.282  1.00  0.00    -0.394 OA
ATOM      7  H   UNL     1      17.647  -6.199   5.834  1.00  0.00     0.210 HD
ENDBRANCH   5   6
ENDBRANCH   1   5
BRANCH   1   8
ATOM      8  O   UNL     1      18.134  -8.354   9.253  1.00  0.00    -0.388 OA
ATOM      9  H   UNL     1      18.093  -8.086  10.208  1.00  0.00     0.211 HD
ENDBRANCH   1   8
TORSDOF 5
ENDMDL
MODEL 9
REMARK VINA RESULT:    -3.273      1.431      2.548
REMARK INTER + INTRA:          -4.164
REMARK INTER:                  -4.134
REMARK INTRA:                  -0.030
REMARK UNBOUND:                -0.222
REMARK SMILES OCC(O)CO
REMARK SMILES IDX 3 1 5 2 6 3 2 5 1 6 4 8
REMARK H PARENT 6 4 1 7 4 9
REMARK Flexibility Score: inf
ROOT
ATOM      1  C   UNL     1      21.132  -6.658   4.651  1.00  0.00     0.165 C 
ENDROOT
BRANCH   1   2
ATOM      2  C   UNL     1      22.132  -7.169   5.699  1.00  0.00     0.190 C 
BRANCH   2   3
ATOM      3  O   UNL     1      22.038  -6.415   6.877  1.00  0.00    -0.394 OA
ATOM      4  H   UNL     1      22.954  -6.356   7.255  1.00  0.00     0.210 HD
ENDBRANCH   2   3
ENDBRANCH   1   2
BRANCH   1   5
ATOM      5  C   UNL     1      19.712  -6.639   5.231  1.00  0.00     0.190 C 
BRANCH   5   6
ATOM      6  O   UNL     1      19.115  -5.387   5.018  1.00  0.00    -0.394 OA
ATOM      7  H   UNL     1      18.660  -5.433   4.138  1.00  0.00     0.210 HD
ENDBRANCH   5   6
ENDBRANCH   1   5
BRANCH   1   8
ATOM      8  O   UNL     1      21.484  -5.359   4.250  1.00  0.00    -0.388 OA
ATOM      9  H   UNL     1      21.816  -4.885   5.056  1.00  0.00     0.211 HD
ENDBRANCH   1   8
TORSDOF 5
ENDMDL
