MODEL 1
REMARK VINA RESULT:    -5.870      0.000      0.000
REMARK INTER + INTRA:          -7.492
REMARK INTER:                  -7.071
REMARK INTRA:                  -0.421
REMARK UNBOUND:                -0.421
REMARK SMILES CCCCc1oc(O)c2ccccc12
REMARK SMILES IDX 4 1 5 2 7 3 6 4 9 5 14 6 10 7 13 8 11 9 12 10 8 11 3 13 2 14
REMARK SMILES IDX 1 15
REMARK H PARENT 8 12
REMARK Flexibility Score: inf
ROOT
ATOM      1  C   UNL     1      21.965 -17.000  -9.626  1.00  0.00     0.076 C 
ENDROOT
BRANCH   1   2
ATOM      2  C   UNL     1      22.745 -17.538 -10.786  1.00  0.00     0.116 A 
ATOM      3  C   UNL     1      24.353 -18.436 -11.887  1.00  0.00     0.290 A 
ATOM      4  O   UNL     1      23.938 -18.097 -10.681  1.00  0.00    -0.430 OA
ATOM      5  C   UNL     1      23.403 -18.082 -12.822  1.00  0.00     0.066 A 
ATOM      6  C   UNL     1      22.376 -17.507 -12.120  1.00  0.00     0.027 A 
ATOM      7  C   UNL     1      23.364 -18.214 -14.209  1.00  0.00     0.016 A 
ATOM      8  C   UNL     1      21.237 -17.015 -12.756  1.00  0.00     0.012 A 
ATOM      9  C   UNL     1      22.225 -17.730 -14.880  1.00  0.00     0.001 A 
ATOM     10  C   UNL     1      21.167 -17.133 -14.158  1.00  0.00     0.001 A 
BRANCH   3  11
ATOM     11  O   UNL     1      25.574 -19.053 -12.141  1.00  0.00    -0.480 OA
ATOM     12  H   UNL     1      26.318 -18.566 -12.623  1.00  0.00     0.297 HD
ENDBRANCH   3  11
ENDBRANCH   1   2
BRANCH   1  13
ATOM     13  C   UNL     1      21.909 -18.030  -8.494  1.00  0.00     0.008 C 
BRANCH  13  14
ATOM     14  C   UNL     1      21.172 -19.297  -8.941  1.00  0.00    -0.003 C 
ATOM     15  C   UNL     1      21.985 -20.547  -8.627  1.00  0.00     0.004 C 
ENDBRANCH  13  14
ENDBRANCH   1  13
TORSDOF 4
ENDMDL
MODEL 2
REMARK VINA RESULT:    -5.504      1.902      3.819
REMARK INTER + INTRA:          -7.051
REMARK INTER:                  -6.725
REMARK INTRA:                  -0.326
REMARK UNBOUND:                -0.421
REMARK SMILES CCCCc1oc(O)c2ccccc12
REMARK SMILES IDX 4 1 5 2 7 3 6 4 9 5 14 6 10 7 13 8 11 9 12 10 8 11 3 13 2 14
REMARK SMILES IDX 1 15
REMARK H PARENT 8 12
REMARK Flexibility Score: inf
ROOT
ATOM      1  C   UNL     1      25.563 -19.299 -11.943  1.00  0.00     0.076 C 
ENDROOT
BRANCH   1   2
ATOM      2  C   UNL     1      24.239 -18.627 -11.742  1.00  0.00     0.116 A 
ATOM      3  C   UNL     1      22.522 -17.827 -10.737  1.00  0.00     0.290 A 
ATOM      4  O   UNL     1      23.692 -18.409 -10.560  1.00  0.00    -0.430 OA
ATOM      5  C   UNL     1      22.286 -17.660 -12.086  1.00  0.00     0.066 A 
ATOM      6  C   UNL     1      23.381 -18.172 -12.729  1.00  0.00     0.027 A 
ATOM      7  C   UNL     1      21.210 -17.112 -12.784  1.00  0.00     0.016 A 
ATOM      8  C   UNL     1      23.479 -18.180 -14.120  1.00  0.00     0.012 A 
ATOM      9  C   UNL     1      21.281 -17.103 -14.190  1.00  0.00     0.001 A 
ATOM     10  C   UNL     1      22.410 -17.634 -14.855  1.00  0.00     0.001 A 
BRANCH   3  11
ATOM     11  O   UNL     1      21.676 -17.454  -9.697  1.00  0.00    -0.480 OA
ATOM     12  H   UNL     1      20.673 -17.415  -9.823  1.00  0.00     0.297 HD
ENDBRANCH   3  11
ENDBRANCH   1   2
BRANCH   1  13
ATOM     13  C   UNL     1      25.371 -20.794 -12.212  1.00  0.00     0.008 C 
BRANCH  13  14
ATOM     14  C   UNL     1      25.434 -21.094 -13.714  1.00  0.00    -0.003 C 
ATOM     15  C   UNL     1      25.597 -22.588 -13.971  1.00  0.00     0.004 C 
ENDBRANCH  13  14
ENDBRANCH   1  13
TORSDOF 4
ENDMDL
MODEL 3
REMARK VINA RESULT:    -5.411     15.053     17.114
REMARK INTER + INTRA:          -6.939
REMARK INTER:                  -6.502
REMARK INTRA:                  -0.437
REMARK UNBOUND:                -0.421
REMARK SMILES CCCCc1oc(O)c2ccccc12
REMARK SMILES IDX 4 1 5 2 7 3 6 4 9 5 14 6 10 7 13 8 11 9 12 10 8 11 3 13 2 14
REMARK SMILES IDX 1 15
REMARK H PARENT 8 12
REMARK Flexibility Score: inf
ROOT
ATOM      1  C   UNL     1      18.814  -4.636 -20.355  1.00  0.00     0.076 C 
ENDROOT
BRANCH   1   2
ATOM      2  C   UNL     1      17.345  -4.926 -20.408  1.00  0.00     0.116 A 
ATOM      3  C   UNL     1      15.329  -5.232 -19.739  1.00  0.00     0.290 A 
ATOM      4  O   UNL     1      16.548  -4.908 -19.354  1.00  0.00    -0.430 OA
ATOM      5  C   UNL     1      15.323  -5.479 -21.097  1.00  0.00     0.066 A 
ATOM      6  C   UNL     1      16.609  -5.285 -21.524  1.00  0.00     0.027 A 
ATOM      7  C   UNL     1      14.304  -5.856 -21.972  1.00  0.00     0.016 A 
ATOM      8  C   UNL     1      16.975  -5.461 -22.858  1.00  0.00     0.012 A 
ATOM      9  C   UNL     1      14.642  -6.039 -23.326  1.00  0.00     0.001 A 
ATOM     10  C   UNL     1      15.970  -5.842 -23.767  1.00  0.00     0.001 A 
BRANCH   3  11
ATOM     11  O   UNL     1      14.238  -5.308 -18.880  1.00  0.00    -0.480 OA
ATOM     12  H   UNL     1      13.474  -5.948 -19.055  1.00  0.00     0.297 HD
ENDBRANCH   3  11
ENDBRANCH   1   2
BRANCH   1  13
ATOM     13  C   UNL     1      19.509  -5.570 -19.361  1.00  0.00     0.008 C 
BRANCH  13  14
ATOM     14  C   UNL     1      20.212  -6.721 -20.089  1.00  0.00    -0.003 C 
ATOM     15  C   UNL     1      20.536  -6.344 -21.531  1.00  0.00     0.004 C 
ENDBRANCH  13  14
ENDBRANCH   1  13
TORSDOF 4
ENDMDL
MODEL 4
REMARK VINA RESULT:    -5.343      1.379      1.791
REMARK INTER + INTRA:          -6.858
REMARK INTER:                  -6.584
REMARK INTRA:                  -0.274
REMARK UNBOUND:                -0.421
REMARK SMILES CCCCc1oc(O)c2ccccc12
REMARK SMILES IDX 4 1 5 2 7 3 6 4 9 5 14 6 10 7 13 8 11 9 12 10 8 11 3 13 2 14
REMARK SMILES IDX 1 15
REMARK H PARENT 8 12
REMARK Flexibility Score: inf
ROOT
ATOM      1  C   UNL     1      22.507 -17.133 -10.406  1.00  0.00     0.076 C 
ENDROOT
BRANCH   1   2
ATOM      2  C   UNL     1      23.156 -17.793 -11.584  1.00  0.00     0.116 A 
ATOM      3  C   UNL     1      24.600 -18.886 -12.735  1.00  0.00     0.290 A 
ATOM      4  O   UNL     1      24.297 -18.457 -11.525  1.00  0.00    -0.430 OA
ATOM      5  C   UNL     1      23.626 -18.484 -13.626  1.00  0.00     0.066 A 
ATOM      6  C   UNL     1      22.705 -17.785 -12.892  1.00  0.00     0.027 A 
ATOM      7  C   UNL     1      23.485 -18.673 -15.000  1.00  0.00     0.016 A 
ATOM      8  C   UNL     1      21.576 -17.216 -13.481  1.00  0.00     0.012 A 
ATOM      9  C   UNL     1      22.353 -18.112 -15.623  1.00  0.00     0.001 A 
ATOM     10  C   UNL     1      21.403 -17.388 -14.868  1.00  0.00     0.001 A 
BRANCH   3  11
ATOM     11  O   UNL     1      25.740 -19.625 -13.033  1.00  0.00    -0.480 OA
ATOM     12  H   UNL     1      26.630 -19.415 -12.601  1.00  0.00     0.297 HD
ENDBRANCH   3  11
ENDBRANCH   1   2
BRANCH   1  13
ATOM     13  C   UNL     1      22.931 -17.822  -9.105  1.00  0.00     0.008 C 
BRANCH  13  14
ATOM     14  C   UNL     1      23.867 -16.923  -8.289  1.00  0.00    -0.003 C 
ATOM     15  C   UNL     1      25.299 -17.445  -8.323  1.00  0.00     0.004 C 
ENDBRANCH  13  14
ENDBRANCH   1  13
TORSDOF 4
ENDMDL
MODEL 5
REMARK VINA RESULT:    -5.334     17.700     19.916
REMARK INTER + INTRA:          -6.846
REMARK INTER:                  -6.347
REMARK INTRA:                  -0.499
REMARK UNBOUND:                -0.421
REMARK SMILES CCCCc1oc(O)c2ccccc12
REMARK SMILES IDX 4 1 5 2 7 3 6 4 9 5 14 6 10 7 13 8 11 9 12 10 8 11 3 13 2 14
REMARK SMILES IDX 1 15
REMARK H PARENT 8 12
REMARK Flexibility Score: inf
ROOT
ATOM      1  C   UNL     1       7.454  -9.521 -23.379  1.00  0.00     0.076 C 
ENDROOT
BRANCH   1   2
ATOM      2  C   UNL     1       8.693  -9.377 -22.551  1.00  0.00     0.116 A 
ATOM      3  C   UNL     1      10.280  -9.885 -21.199  1.00  0.00     0.290 A 
ATOM      4  O   UNL     1       9.213 -10.348 -21.821  1.00  0.00    -0.430 OA
ATOM      5  C   UNL     1      10.467  -8.558 -21.525  1.00  0.00     0.066 A 
ATOM      6  C   UNL     1       9.454  -8.232 -22.386  1.00  0.00     0.027 A 
ATOM      7  C   UNL     1      11.430  -7.628 -21.134  1.00  0.00     0.016 A 
ATOM      8  C   UNL     1       9.324  -6.949 -22.916  1.00  0.00     0.012 A 
ATOM      9  C   UNL     1      11.327  -6.324 -21.654  1.00  0.00     0.001 A 
ATOM     10  C   UNL     1      10.280  -5.986 -22.540  1.00  0.00     0.001 A 
BRANCH   3  11
ATOM     11  O   UNL     1      11.072 -10.647 -20.346  1.00  0.00    -0.480 OA
ATOM     12  H   UNL     1      11.389 -10.283 -19.457  1.00  0.00     0.297 HD
ENDBRANCH   3  11
ENDBRANCH   1   2
BRANCH   1  13
ATOM     13  C   UNL     1       7.633 -10.626 -24.425  1.00  0.00     0.008 C 
BRANCH  13  14
ATOM     14  C   UNL     1       8.779 -10.290 -25.386  1.00  0.00    -0.003 C 
ATOM     15  C   UNL     1       8.519  -8.978 -26.117  1.00  0.00     0.004 C 
ENDBRANCH  13  14
ENDBRANCH   1  13
TORSDOF 4
ENDMDL
MODEL 6
REMARK VINA RESULT:    -5.262     15.136     17.282
REMARK INTER + INTRA:          -6.760
REMARK INTER:                  -6.367
REMARK INTRA:                  -0.393
REMARK UNBOUND:                -0.421
REMARK SMILES CCCCc1oc(O)c2ccccc12
REMARK SMILES IDX 4 1 5 2 7 3 6 4 9 5 14 6 10 7 13 8 11 9 12 10 8 11 3 13 2 14
REMARK SMILES IDX 1 15
REMARK H PARENT 8 12
REMARK Flexibility Score: inf
ROOT
ATOM      1  C   UNL     1      18.980  -4.360 -21.456  1.00  0.00     0.076 C 
ENDROOT
BRANCH   1   2
ATOM      2  C   UNL     1      17.901  -5.080 -22.205  1.00  0.00     0.116 A 
ATOM      3  C   UNL     1      16.880  -6.053 -23.822  1.00  0.00     0.290 A 
ATOM      4  O   UNL     1      18.011  -5.479 -23.460  1.00  0.00    -0.430 OA
ATOM      5  C   UNL     1      15.989  -6.026 -22.769  1.00  0.00     0.066 A 
ATOM      6  C   UNL     1      16.640  -5.404 -21.737  1.00  0.00     0.027 A 
ATOM      7  C   UNL     1      14.679  -6.489 -22.643  1.00  0.00     0.016 A 
ATOM      8  C   UNL     1      16.026  -5.192 -20.503  1.00  0.00     0.012 A 
ATOM      9  C   UNL     1      14.033  -6.292 -21.408  1.00  0.00     0.001 A 
ATOM     10  C   UNL     1      14.703  -5.647 -20.343  1.00  0.00     0.001 A 
BRANCH   3  11
ATOM     11  O   UNL     1      16.652  -6.590 -25.085  1.00  0.00    -0.480 OA
ATOM     12  H   UNL     1      16.022  -6.145 -25.740  1.00  0.00     0.297 HD
ENDBRANCH   3  11
ENDBRANCH   1   2
BRANCH   1  13
ATOM     13  C   UNL     1      20.121  -5.319 -21.106  1.00  0.00     0.008 C 
BRANCH  13  14
ATOM     14  C   UNL     1      19.792  -6.125 -19.845  1.00  0.00    -0.003 C 
ATOM     15  C   UNL     1      20.549  -7.449 -19.824  1.00  0.00     0.004 C 
ENDBRANCH  13  14
ENDBRANCH   1  13
TORSDOF 4
ENDMDL
MODEL 7
REMARK VINA RESULT:    -5.149      1.123      4.252
REMARK INTER + INTRA:          -6.624
REMARK INTER:                  -6.260
REMARK INTRA:                  -0.363
REMARK UNBOUND:                -0.421
REMARK SMILES CCCCc1oc(O)c2ccccc12
REMARK SMILES IDX 4 1 5 2 7 3 6 4 9 5 14 6 10 7 13 8 11 9 12 10 8 11 3 13 2 14
REMARK SMILES IDX 1 15
REMARK H PARENT 8 12
REMARK Flexibility Score: inf
ROOT
ATOM      1  C   UNL     1      21.624 -16.762 -11.522  1.00  0.00     0.076 C 
ENDROOT
BRANCH   1   2
ATOM      2  C   UNL     1      22.726 -17.713 -11.168  1.00  0.00     0.116 A 
ATOM      3  C   UNL     1      24.648 -18.666 -11.198  1.00  0.00     0.290 A 
ATOM      4  O   UNL     1      23.932 -17.682 -11.707  1.00  0.00    -0.430 OA
ATOM      5  C   UNL     1      23.885 -19.376 -10.295  1.00  0.00     0.066 A 
ATOM      6  C   UNL     1      22.657 -18.770 -10.277  1.00  0.00     0.027 A 
ATOM      7  C   UNL     1      24.168 -20.491  -9.507  1.00  0.00     0.016 A 
ATOM      8  C   UNL     1      21.618 -19.237  -9.472  1.00  0.00     0.012 A 
ATOM      9  C   UNL     1      23.140 -20.985  -8.681  1.00  0.00     0.001 A 
ATOM     10  C   UNL     1      21.872 -20.362  -8.664  1.00  0.00     0.001 A 
BRANCH   3  11
ATOM     11  O   UNL     1      25.970 -18.923 -11.546  1.00  0.00    -0.480 OA
ATOM     12  H   UNL     1      26.232 -19.777 -12.021  1.00  0.00     0.297 HD
ENDBRANCH   3  11
ENDBRANCH   1   2
BRANCH   1  13
ATOM     13  C   UNL     1      20.790 -17.315 -12.681  1.00  0.00     0.008 C 
BRANCH  13  14
ATOM     14  C   UNL     1      21.247 -16.722 -14.018  1.00  0.00    -0.003 C 
ATOM     15  C   UNL     1      21.905 -17.783 -14.894  1.00  0.00     0.004 C 
ENDBRANCH  13  14
ENDBRANCH   1  13
TORSDOF 4
ENDMDL
MODEL 8
REMARK VINA RESULT:    -5.043     18.473     20.039
REMARK INTER + INTRA:          -6.496
REMARK INTER:                  -6.155
REMARK INTRA:                  -0.340
REMARK UNBOUND:                -0.421
REMARK SMILES CCCCc1oc(O)c2ccccc12
REMARK SMILES IDX 4 1 5 2 7 3 6 4 9 5 14 6 10 7 13 8 11 9 12 10 8 11 3 13 2 14
REMARK SMILES IDX 1 15
REMARK H PARENT 8 12
REMARK Flexibility Score: inf
ROOT
ATOM      1  C   UNL     1       9.763  -8.307 -21.644  1.00  0.00     0.076 C 
ENDROOT
BRANCH   1   2
ATOM      2  C   UNL     1       9.114  -9.497 -22.281  1.00  0.00     0.116 A 
ATOM      3  C   UNL     1       8.277 -11.462 -22.488  1.00  0.00     0.290 A 
ATOM      4  O   UNL     1       8.809 -10.608 -21.634  1.00  0.00    -0.430 OA
ATOM      5  C   UNL     1       8.236 -10.895 -23.745  1.00  0.00     0.066 A 
ATOM      6  C   UNL     1       8.772  -9.641 -23.614  1.00  0.00     0.027 A 
ATOM      7  C   UNL     1       7.782 -11.378 -24.972  1.00  0.00     0.016 A 
ATOM      8  C   UNL     1       8.899  -8.779 -24.703  1.00  0.00     0.012 A 
ATOM      9  C   UNL     1       7.894 -10.530 -26.090  1.00  0.00     0.001 A 
ATOM     10  C   UNL     1       8.449  -9.237 -25.956  1.00  0.00     0.001 A 
BRANCH   3  11
ATOM     11  O   UNL     1       7.839 -12.735 -22.140  1.00  0.00    -0.480 OA
ATOM     12  H   UNL     1       7.451 -12.926 -21.225  1.00  0.00     0.297 HD
ENDBRANCH   3  11
ENDBRANCH   1   2
BRANCH   1  13
ATOM     13  C   UNL     1      11.280  -8.349 -21.849  1.00  0.00     0.008 C 
BRANCH  13  14
ATOM     14  C   UNL     1      11.908  -6.977 -21.583  1.00  0.00    -0.003 C 
ATOM     15  C   UNL     1      10.931  -5.851 -21.905  1.00  0.00     0.004 C 
ENDBRANCH  13  14
ENDBRANCH   1  13
TORSDOF 4
ENDMDL
MODEL 9
REMARK VINA RESULT:    -4.995     17.969     19.432
REMARK INTER + INTRA:          -6.438
REMARK INTER:                  -5.963
REMARK INTRA:                  -0.475
REMARK UNBOUND:                -0.421
REMARK SMILES CCCCc1oc(O)c2ccccc12
REMARK SMILES IDX 4 1 5 2 7 3 6 4 9 5 14 6 10 7 13 8 11 9 12 10 8 11 3 13 2 14
REMARK SMILES IDX 1 15
REMARK H PARENT 8 12
REMARK Flexibility Score: inf
ROOT
ATOM      1  C   UNL     1      11.552  -7.689 -21.215  1.00  0.00     0.076 C 
ENDROOT
BRANCH   1   2
ATOM      2  C   UNL     1      10.741  -8.850 -21.703  1.00  0.00     0.116 A 
ATOM      3  C   UNL     1      10.204 -10.874 -22.170  1.00  0.00     0.290 A 
ATOM      4  O   UNL     1      11.135 -10.109 -21.633  1.00  0.00    -0.430 OA
ATOM      5  C   UNL     1       9.160 -10.090 -22.617  1.00  0.00     0.066 A 
ATOM      6  C   UNL     1       9.503  -8.797 -22.320  1.00  0.00     0.027 A 
ATOM      7  C   UNL     1       7.961 -10.407 -23.253  1.00  0.00     0.016 A 
ATOM      8  C   UNL     1       8.673  -7.724 -22.644  1.00  0.00     0.012 A 
ATOM      9  C   UNL     1       7.100  -9.345 -23.591  1.00  0.00     0.001 A 
ATOM     10  C   UNL     1       7.454  -8.011 -23.288  1.00  0.00     0.001 A 
BRANCH   3  11
ATOM     11  O   UNL     1      10.295 -12.259 -22.261  1.00  0.00    -0.480 OA
ATOM     12  H   UNL     1      10.028 -12.750 -23.105  1.00  0.00     0.297 HD
ENDBRANCH   3  11
ENDBRANCH   1   2
BRANCH   1  13
ATOM     13  C   UNL     1      12.533  -7.228 -22.297  1.00  0.00     0.008 C 
BRANCH  13  14
ATOM     14  C   UNL     1      12.371  -5.731 -22.583  1.00  0.00    -0.003 C 
ATOM     15  C   UNL     1      11.300  -5.112 -21.690  1.00  0.00     0.004 C 
ENDBRANCH  13  14
ENDBRANCH   1  13
TORSDOF 4
ENDMDL
