MODEL 1
REMARK VINA RESULT:    -5.422      0.000      0.000
REMARK INTER + INTRA:          -6.592
REMARK INTER:                  -6.373
REMARK INTRA:                  -0.219
REMARK UNBOUND:                -0.219
REMARK SMILES CCCC[C@@H]1OC(=O)C2=C1CCC=C2
REMARK SMILES IDX 3 1 2 2 1 3 4 4 5 5 10 6 6 7 9 8 11 9 7 10 14 11 12 12 8 13
REMARK SMILES IDX 13 14
REMARK H PARENT
REMARK Flexibility Score: inf
ROOT
ATOM      1  C   UNL     1     -22.630  32.508  -2.336  1.00  0.00     0.004 C 
ENDROOT
BRANCH   1   2
ATOM      2  C   UNL     1     -22.667  33.755  -1.438  1.00  0.00    -0.003 C 
ATOM      3  C   UNL     1     -23.901  33.797  -0.538  1.00  0.00     0.004 C 
ENDBRANCH   1   2
BRANCH   1   4
ATOM      4  C   UNL     1     -21.343  31.686  -2.149  1.00  0.00     0.050 C 
BRANCH   4   5
ATOM      5  C   UNL     1     -20.080  32.474  -2.540  1.00  0.00     0.204 C 
ATOM      6  C   UNL     1     -18.835  31.612  -2.593  1.00  0.00    -0.015 C 
ATOM      7  O   UNL     1     -20.207  32.929  -3.891  1.00  0.00    -0.454 OA
ATOM      8  C   UNL     1     -18.358  31.556  -3.825  1.00  0.00     0.062 C 
ATOM      9  C   UNL     1     -18.213  30.814  -1.478  1.00  0.00     0.040 C 
ATOM     10  C   UNL     1     -19.198  32.375  -4.658  1.00  0.00     0.338 C 
ATOM     11  C   UNL     1     -17.166  30.778  -4.185  1.00  0.00     0.011 C 
ATOM     12  C   UNL     1     -16.715  30.546  -1.752  1.00  0.00     0.032 C 
ATOM     13  O   UNL     1     -19.051  32.574  -5.892  1.00  0.00    -0.246 OA
ATOM     14  C   UNL     1     -16.430  30.233  -3.208  1.00  0.00    -0.026 C 
ENDBRANCH   4   5
ENDBRANCH   1   4
TORSDOF 3
ENDMDL
MODEL 2
REMARK VINA RESULT:    -5.259      2.104      5.556
REMARK INTER + INTRA:          -6.400
REMARK INTER:                  -6.014
REMARK INTRA:                  -0.386
REMARK UNBOUND:                -0.219
REMARK SMILES CCCC[C@@H]1OC(=O)C2=C1CCC=C2
REMARK SMILES IDX 3 1 2 2 1 3 4 4 5 5 10 6 6 7 9 8 11 9 7 10 14 11 12 12 8 13
REMARK SMILES IDX 13 14
REMARK H PARENT
REMARK Flexibility Score: inf
ROOT
ATOM      1  C   UNL     1     -18.570  31.772  -3.566  1.00  0.00     0.004 C 
ENDROOT
BRANCH   1   2
ATOM      2  C   UNL     1     -17.914  31.772  -2.177  1.00  0.00    -0.003 C 
ATOM      3  C   UNL     1     -16.874  30.664  -2.016  1.00  0.00     0.004 C 
ENDBRANCH   1   2
BRANCH   1   4
ATOM      4  C   UNL     1     -19.936  31.064  -3.572  1.00  0.00     0.050 C 
BRANCH   4   5
ATOM      5  C   UNL     1     -20.559  30.978  -2.167  1.00  0.00     0.204 C 
ATOM      6  C   UNL     1     -21.655  31.999  -1.940  1.00  0.00    -0.015 C 
ATOM      7  O   UNL     1     -21.256  29.734  -2.036  1.00  0.00    -0.454 OA
ATOM      8  C   UNL     1     -22.820  31.402  -1.753  1.00  0.00     0.062 C 
ATOM      9  C   UNL     1     -21.548  33.500  -1.998  1.00  0.00     0.040 C 
ATOM     10  C   UNL     1     -22.598  29.981  -1.806  1.00  0.00     0.338 C 
ATOM     11  C   UNL     1     -24.068  32.140  -1.527  1.00  0.00     0.011 C 
ATOM     12  C   UNL     1     -22.679  34.172  -1.186  1.00  0.00     0.032 C 
ATOM     13  O   UNL     1     -23.471  29.088  -1.662  1.00  0.00    -0.246 OA
ATOM     14  C   UNL     1     -24.011  33.464  -1.336  1.00  0.00    -0.026 C 
ENDBRANCH   4   5
ENDBRANCH   1   4
TORSDOF 3
ENDMDL
MODEL 3
REMARK VINA RESULT:    -5.147      2.274      5.656
REMARK INTER + INTRA:          -6.269
REMARK INTER:                  -6.030
REMARK INTRA:                  -0.239
REMARK UNBOUND:                -0.219
REMARK SMILES CCCC[C@@H]1OC(=O)C2=C1CCC=C2
REMARK SMILES IDX 3 1 2 2 1 3 4 4 5 5 10 6 6 7 9 8 11 9 7 10 14 11 12 12 8 13
REMARK SMILES IDX 13 14
REMARK H PARENT
REMARK Flexibility Score: inf
ROOT
ATOM      1  C   UNL     1     -19.056  32.487  -3.530  1.00  0.00     0.004 C 
ENDROOT
BRANCH   1   2
ATOM      2  C   UNL     1     -17.707  31.885  -3.109  1.00  0.00    -0.003 C 
ATOM      3  C   UNL     1     -17.562  31.764  -1.592  1.00  0.00     0.004 C 
ENDBRANCH   1   2
BRANCH   1   4
ATOM      4  C   UNL     1     -20.074  32.513  -2.377  1.00  0.00     0.050 C 
BRANCH   4   5
ATOM      5  C   UNL     1     -21.413  33.152  -2.788  1.00  0.00     0.204 C 
ATOM      6  C   UNL     1     -22.510  32.133  -3.019  1.00  0.00    -0.015 C 
ATOM      7  O   UNL     1     -21.923  33.923  -1.695  1.00  0.00    -0.454 OA
ATOM      8  C   UNL     1     -23.484  32.288  -2.137  1.00  0.00     0.062 C 
ATOM      9  C   UNL     1     -22.533  31.007  -4.018  1.00  0.00     0.040 C 
ATOM     10  C   UNL     1     -23.142  33.404  -1.297  1.00  0.00     0.338 C 
ATOM     11  C   UNL     1     -24.675  31.429  -2.106  1.00  0.00     0.011 C 
ATOM     12  C   UNL     1     -23.982  30.567  -4.331  1.00  0.00     0.032 C 
ATOM     13  O   UNL     1     -23.833  33.858  -0.348  1.00  0.00    -0.246 OA
ATOM     14  C   UNL     1     -24.872  30.559  -3.103  1.00  0.00    -0.026 C 
ENDBRANCH   4   5
ENDBRANCH   1   4
TORSDOF 3
ENDMDL
MODEL 4
REMARK VINA RESULT:    -5.108      1.670      4.792
REMARK INTER + INTRA:          -6.223
REMARK INTER:                  -5.829
REMARK INTRA:                  -0.394
REMARK UNBOUND:                -0.219
REMARK SMILES CCCC[C@@H]1OC(=O)C2=C1CCC=C2
REMARK SMILES IDX 3 1 2 2 1 3 4 4 5 5 10 6 6 7 9 8 11 9 7 10 14 11 12 12 8 13
REMARK SMILES IDX 13 14
REMARK H PARENT
REMARK Flexibility Score: inf
ROOT
ATOM      1  C   UNL     1     -18.072  31.883  -2.076  1.00  0.00     0.004 C 
ENDROOT
BRANCH   1   2
ATOM      2  C   UNL     1     -17.234  30.618  -1.833  1.00  0.00    -0.003 C 
ATOM      3  C   UNL     1     -16.685  30.017  -3.126  1.00  0.00     0.004 C 
ENDBRANCH   1   2
BRANCH   1   4
ATOM      4  C   UNL     1     -18.394  32.098  -3.564  1.00  0.00     0.050 C 
BRANCH   4   5
ATOM      5  C   UNL     1     -19.905  32.233  -3.826  1.00  0.00     0.204 C 
ATOM      6  C   UNL     1     -20.726  31.175  -3.117  1.00  0.00    -0.015 C 
ATOM      7  O   UNL     1     -20.379  33.448  -3.236  1.00  0.00    -0.454 OA
ATOM      8  C   UNL     1     -21.522  31.727  -2.217  1.00  0.00     0.062 C 
ATOM      9  C   UNL     1     -20.647  29.680  -3.278  1.00  0.00     0.040 C 
ATOM     10  C   UNL     1     -21.326  33.151  -2.272  1.00  0.00     0.338 C 
ATOM     11  C   UNL     1     -22.423  30.944  -1.362  1.00  0.00     0.011 C 
ATOM     12  C   UNL     1     -21.967  29.001  -2.842  1.00  0.00     0.032 C 
ATOM     13  O   UNL     1     -21.917  34.010  -1.568  1.00  0.00    -0.246 OA
ATOM     14  C   UNL     1     -22.575  29.637  -1.607  1.00  0.00    -0.026 C 
ENDBRANCH   4   5
ENDBRANCH   1   4
TORSDOF 3
ENDMDL
MODEL 5
REMARK VINA RESULT:    -5.103      1.786      2.692
REMARK INTER + INTRA:          -6.217
REMARK INTER:                  -5.962
REMARK INTRA:                  -0.255
REMARK UNBOUND:                -0.219
REMARK SMILES CCCC[C@@H]1OC(=O)C2=C1CCC=C2
REMARK SMILES IDX 3 1 2 2 1 3 4 4 5 5 10 6 6 7 9 8 11 9 7 10 14 11 12 12 8 13
REMARK SMILES IDX 13 14
REMARK H PARENT
REMARK Flexibility Score: inf
ROOT
ATOM      1  C   UNL     1     -21.602  33.681  -1.973  1.00  0.00     0.004 C 
ENDROOT
BRANCH   1   2
ATOM      2  C   UNL     1     -22.902  34.103  -1.270  1.00  0.00    -0.003 C 
ATOM      3  C   UNL     1     -23.966  33.006  -1.289  1.00  0.00     0.004 C 
ENDBRANCH   1   2
BRANCH   1   4
ATOM      4  C   UNL     1     -21.852  33.109  -3.378  1.00  0.00     0.050 C 
BRANCH   4   5
ATOM      5  C   UNL     1     -21.178  31.741  -3.585  1.00  0.00     0.204 C 
ATOM      6  C   UNL     1     -19.712  31.738  -3.201  1.00  0.00    -0.015 C 
ATOM      7  O   UNL     1     -21.743  30.793  -2.674  1.00  0.00    -0.454 OA
ATOM      8  C   UNL     1     -19.498  30.928  -2.178  1.00  0.00     0.062 C 
ATOM      9  C   UNL     1     -18.602  32.576  -3.778  1.00  0.00     0.040 C 
ATOM     10  C   UNL     1     -20.755  30.321  -1.829  1.00  0.00     0.338 C 
ATOM     11  C   UNL     1     -18.173  30.736  -1.576  1.00  0.00     0.011 C 
ATOM     12  C   UNL     1     -17.224  31.914  -3.547  1.00  0.00     0.032 C 
ATOM     13  O   UNL     1     -20.945  29.485  -0.908  1.00  0.00    -0.246 OA
ATOM     14  C   UNL     1     -17.104  31.268  -2.180  1.00  0.00    -0.026 C 
ENDBRANCH   4   5
ENDBRANCH   1   4
TORSDOF 3
ENDMDL
MODEL 6
REMARK VINA RESULT:    -4.927      1.752      2.790
REMARK INTER + INTRA:          -6.010
REMARK INTER:                  -5.790
REMARK INTRA:                  -0.221
REMARK UNBOUND:                -0.219
REMARK SMILES CCCC[C@@H]1OC(=O)C2=C1CCC=C2
REMARK SMILES IDX 3 1 2 2 1 3 4 4 5 5 10 6 6 7 9 8 11 9 7 10 14 11 12 12 8 13
REMARK SMILES IDX 13 14
REMARK H PARENT
REMARK Flexibility Score: inf
ROOT
ATOM      1  C   UNL     1     -21.598  33.414  -2.135  1.00  0.00     0.004 C 
ENDROOT
BRANCH   1   2
ATOM      2  C   UNL     1     -22.867  32.761  -1.565  1.00  0.00    -0.003 C 
ATOM      3  C   UNL     1     -23.731  33.743  -0.773  1.00  0.00     0.004 C 
ENDBRANCH   1   2
BRANCH   1   4
ATOM      4  C   UNL     1     -21.263  32.913  -3.550  1.00  0.00     0.050 C 
BRANCH   4   5
ATOM      5  C   UNL     1     -20.244  31.758  -3.539  1.00  0.00     0.204 C 
ATOM      6  C   UNL     1     -19.099  31.969  -4.508  1.00  0.00    -0.015 C 
ATOM      7  O   UNL     1     -19.582  31.725  -2.270  1.00  0.00    -0.454 OA
ATOM      8  C   UNL     1     -17.952  32.084  -3.858  1.00  0.00     0.062 C 
ATOM      9  C   UNL     1     -19.169  32.135  -6.003  1.00  0.00     0.040 C 
ATOM     10  C   UNL     1     -18.227  31.933  -2.454  1.00  0.00     0.338 C 
ATOM     11  C   UNL     1     -16.671  32.314  -4.536  1.00  0.00     0.011 C 
ATOM     12  C   UNL     1     -17.822  31.767  -6.669  1.00  0.00     0.032 C 
ATOM     13  O   UNL     1     -17.381  31.973  -1.524  1.00  0.00    -0.246 OA
ATOM     14  C   UNL     1     -16.623  32.242  -5.872  1.00  0.00    -0.026 C 
ENDBRANCH   4   5
ENDBRANCH   1   4
TORSDOF 3
ENDMDL
MODEL 7
REMARK VINA RESULT:    -4.779      2.861      5.367
REMARK INTER + INTRA:          -5.836
REMARK INTER:                  -5.267
REMARK INTRA:                  -0.569
REMARK UNBOUND:                -0.219
REMARK SMILES CCCC[C@@H]1OC(=O)C2=C1CCC=C2
REMARK SMILES IDX 3 1 2 2 1 3 4 4 5 5 10 6 6 7 9 8 11 9 7 10 14 11 12 12 8 13
REMARK SMILES IDX 13 14
REMARK H PARENT
REMARK Flexibility Score: inf
ROOT
ATOM      1  C   UNL     1     -20.796  29.080  -4.495  1.00  0.00     0.004 C 
ENDROOT
BRANCH   1   2
ATOM      2  C   UNL     1     -21.649  29.450  -5.719  1.00  0.00    -0.003 C 
ATOM      3  C   UNL     1     -22.779  30.421  -5.378  1.00  0.00     0.004 C 
ENDBRANCH   1   2
BRANCH   1   4
ATOM      4  C   UNL     1     -20.171  30.312  -3.819  1.00  0.00     0.050 C 
BRANCH   4   5
ATOM      5  C   UNL     1     -20.608  30.464  -2.351  1.00  0.00     0.204 C 
ATOM      6  C   UNL     1     -21.445  31.703  -2.106  1.00  0.00    -0.015 C 
ATOM      7  O   UNL     1     -21.509  29.403  -2.016  1.00  0.00    -0.454 OA
ATOM      8  C   UNL     1     -22.669  31.373  -1.727  1.00  0.00     0.062 C 
ATOM      9  C   UNL     1     -21.057  33.140  -2.328  1.00  0.00     0.040 C 
ATOM     10  C   UNL     1     -22.735  29.938  -1.661  1.00  0.00     0.338 C 
ATOM     11  C   UNL     1     -23.709  32.367  -1.436  1.00  0.00     0.011 C 
ATOM     12  C   UNL     1     -21.919  34.091  -1.465  1.00  0.00     0.032 C 
ATOM     13  O   UNL     1     -23.739  29.256  -1.328  1.00  0.00    -0.246 OA
ATOM     14  C   UNL     1     -23.371  33.662  -1.389  1.00  0.00    -0.026 C 
ENDBRANCH   4   5
ENDBRANCH   1   4
TORSDOF 3
ENDMDL
MODEL 8
REMARK VINA RESULT:    -4.734      2.024      4.723
REMARK INTER + INTRA:          -5.783
REMARK INTER:                  -5.161
REMARK INTRA:                  -0.622
REMARK UNBOUND:                -0.219
REMARK SMILES CCCC[C@@H]1OC(=O)C2=C1CCC=C2
REMARK SMILES IDX 3 1 2 2 1 3 4 4 5 5 10 6 6 7 9 8 11 9 7 10 14 11 12 12 8 13
REMARK SMILES IDX 13 14
REMARK H PARENT
REMARK Flexibility Score: inf
ROOT
ATOM      1  C   UNL     1     -18.450  31.065  -5.644  1.00  0.00     0.004 C 
ENDROOT
BRANCH   1   2
ATOM      2  C   UNL     1     -19.490  30.011  -6.056  1.00  0.00    -0.003 C 
ATOM      3  C   UNL     1     -19.615  28.877  -5.039  1.00  0.00     0.004 C 
ENDBRANCH   1   2
BRANCH   1   4
ATOM      4  C   UNL     1     -19.094  32.411  -5.269  1.00  0.00     0.050 C 
BRANCH   4   5
ATOM      5  C   UNL     1     -19.044  32.686  -3.755  1.00  0.00     0.204 C 
ATOM      6  C   UNL     1     -20.206  32.070  -3.002  1.00  0.00    -0.015 C 
ATOM      7  O   UNL     1     -17.912  32.015  -3.191  1.00  0.00    -0.454 OA
ATOM      8  C   UNL     1     -19.779  31.144  -2.160  1.00  0.00     0.062 C 
ATOM      9  C   UNL     1     -21.675  32.340  -3.187  1.00  0.00     0.040 C 
ATOM     10  C   UNL     1     -18.344  31.090  -2.258  1.00  0.00     0.338 C 
ATOM     11  C   UNL     1     -20.683  30.363  -1.307  1.00  0.00     0.011 C 
ATOM     12  C   UNL     1     -22.474  31.976  -1.913  1.00  0.00     0.032 C 
ATOM     13  O   UNL     1     -17.583  30.334  -1.601  1.00  0.00    -0.246 OA
ATOM     14  C   UNL     1     -21.975  30.707  -1.249  1.00  0.00    -0.026 C 
ENDBRANCH   4   5
ENDBRANCH   1   4
TORSDOF 3
ENDMDL
MODEL 9
REMARK VINA RESULT:    -4.691      2.420      3.898
REMARK INTER + INTRA:          -5.733
REMARK INTER:                  -5.123
REMARK INTRA:                  -0.610
REMARK UNBOUND:                -0.219
REMARK SMILES CCCC[C@@H]1OC(=O)C2=C1CCC=C2
REMARK SMILES IDX 3 1 2 2 1 3 4 4 5 5 10 6 6 7 9 8 11 9 7 10 14 11 12 12 8 13
REMARK SMILES IDX 13 14
REMARK H PARENT
REMARK Flexibility Score: inf
ROOT
ATOM      1  C   UNL     1     -23.522  29.376  -2.542  1.00  0.00     0.004 C 
ENDROOT
BRANCH   1   2
ATOM      2  C   UNL     1     -23.394  29.161  -4.058  1.00  0.00    -0.003 C 
ATOM      3  C   UNL     1     -23.559  30.456  -4.853  1.00  0.00     0.004 C 
ENDBRANCH   1   2
BRANCH   1   4
ATOM      4  C   UNL     1     -22.221  29.049  -1.790  1.00  0.00     0.050 C 
BRANCH   4   5
ATOM      5  C   UNL     1     -21.508  30.310  -1.270  1.00  0.00     0.204 C 
ATOM      6  C   UNL     1     -20.669  30.996  -2.330  1.00  0.00    -0.015 C 
ATOM      7  O   UNL     1     -22.484  31.306  -0.948  1.00  0.00    -0.454 OA
ATOM      8  C   UNL     1     -21.146  32.201  -2.596  1.00  0.00     0.062 C 
ATOM      9  C   UNL     1     -19.502  30.431  -3.096  1.00  0.00     0.040 C 
ATOM     10  C   UNL     1     -22.283  32.420  -1.742  1.00  0.00     0.338 C 
ATOM     11  C   UNL     1     -20.547  33.093  -3.596  1.00  0.00     0.011 C 
ATOM     12  C   UNL     1     -18.593  31.558  -3.639  1.00  0.00     0.032 C 
ATOM     13  O   UNL     1     -22.992  33.459  -1.703  1.00  0.00    -0.246 OA
ATOM     14  C   UNL     1     -19.376  32.752  -4.149  1.00  0.00    -0.026 C 
ENDBRANCH   4   5
ENDBRANCH   1   4
TORSDOF 3
ENDMDL
