MODEL 1
REMARK VINA RESULT:    25.923      0.000      0.000
REMARK INTER + INTRA:          39.444
REMARK INTER:                  39.561
REMARK INTRA:                  -0.118
REMARK UNBOUND:                -0.118
REMARK SMILES COc1cc(C=CCOC(=O)C=Cc2ccc(O)c(OC)c2)ccc1O
REMARK SMILES IDX 9 1 8 2 7 3 6 4 5 5 3 6 25 7 4 8 24 9 23 10 2 11 1 12 26 13
REMARK SMILES IDX 10 15 11 16 12 17 13 18 14 19 22 20 15 21 19 22 16 23 17 24
REMARK SMILES IDX 20 25 21 26 18 27
REMARK H PARENT 26 14 18 28
REMARK Flexibility Score: inf
ROOT
ATOM      1  O   UNL     1       4.626   0.493  27.237  1.00  0.00    -0.458 OA
ENDROOT
BRANCH   1   2
ATOM      2  C   UNL     1       4.365   1.137  25.992  1.00  0.00     0.261 C 
BRANCH   2   3
ATOM      3  C   UNL     1       3.104   0.608  25.364  1.00  0.00     0.015 C 
ATOM      4  C   UNL     1       2.419   1.237  24.398  1.00  0.00     0.007 C 
BRANCH   4   5
ATOM      5  C   UNL     1       2.786   2.553  23.843  1.00  0.00    -0.022 A 
ATOM      6  C   UNL     1       2.170   4.780  23.051  1.00  0.00     0.161 A 
ATOM      7  C   UNL     1       3.511   5.020  22.714  1.00  0.00     0.157 A 
ATOM      8  C   UNL     1       1.811   3.536  23.606  1.00  0.00     0.058 A 
ATOM      9  C   UNL     1       4.477   4.027  22.922  1.00  0.00     0.051 A 
ATOM     10  C   UNL     1       4.114   2.797  23.476  1.00  0.00     0.012 A 
BRANCH   6  11
ATOM     11  O   UNL     1       1.230   5.796  22.819  1.00  0.00    -0.493 OA
ATOM     12  C   UNL     1       0.443   5.909  21.637  1.00  0.00     0.278 C 
ENDBRANCH   6  11
BRANCH   7  13
ATOM     13  O   UNL     1       3.874   6.249  22.165  1.00  0.00    -0.504 OA
ATOM     14  H   UNL     1       4.705   6.351  21.596  1.00  0.00     0.293 HD
ENDBRANCH   7  13
ENDBRANCH   4   5
ENDBRANCH   2   3
ENDBRANCH   1   2
BRANCH   1  15
ATOM     15  C   UNL     1       4.688   1.170  28.459  1.00  0.00     0.331 C 
ATOM     16  O   UNL     1       5.619   1.991  28.689  1.00  0.00    -0.247 OA
BRANCH  15  17
ATOM     17  C   UNL     1       3.650   0.902  29.468  1.00  0.00     0.094 C 
ATOM     18  C   UNL     1       3.478   1.681  30.545  1.00  0.00     0.016 C 
BRANCH  18  19
ATOM     19  C   UNL     1       2.458   1.424  31.592  1.00  0.00    -0.021 A 
ATOM     20  C   UNL     1       2.006   2.503  32.371  1.00  0.00     0.058 A 
ATOM     21  C   UNL     1       1.906   0.148  31.813  1.00  0.00     0.012 A 
ATOM     22  C   UNL     1       1.035   2.315  33.374  1.00  0.00     0.161 A 
ATOM     23  C   UNL     1       0.944  -0.043  32.807  1.00  0.00     0.051 A 
ATOM     24  C   UNL     1       0.508   1.034  33.588  1.00  0.00     0.157 A 
BRANCH  22  25
ATOM     25  O   UNL     1       0.570   3.371  34.173  1.00  0.00    -0.493 OA
ATOM     26  C   UNL     1       1.377   4.109  35.085  1.00  0.00     0.278 C 
ENDBRANCH  22  25
BRANCH  24  27
ATOM     27  O   UNL     1      -0.451   0.841  34.580  1.00  0.00    -0.504 OA
ATOM     28  H   UNL     1      -0.720  -0.088  34.884  1.00  0.00     0.293 HD
ENDBRANCH  24  27
ENDBRANCH  18  19
ENDBRANCH  15  17
ENDBRANCH   1  15
TORSDOF 10
ENDMDL
MODEL 2
REMARK VINA RESULT:    26.172      0.850      9.512
REMARK INTER + INTRA:          39.824
REMARK INTER:                  39.338
REMARK INTRA:                   0.486
REMARK UNBOUND:                -0.118
REMARK SMILES COc1cc(C=CCOC(=O)C=Cc2ccc(O)c(OC)c2)ccc1O
REMARK SMILES IDX 9 1 8 2 7 3 6 4 5 5 3 6 25 7 4 8 24 9 23 10 2 11 1 12 26 13
REMARK SMILES IDX 10 15 11 16 12 17 13 18 14 19 22 20 15 21 19 22 16 23 17 24
REMARK SMILES IDX 20 25 21 26 18 27
REMARK H PARENT 26 14 18 28
REMARK Flexibility Score: inf
ROOT
ATOM      1  O   UNL     1       4.311  -0.397  27.685  1.00  0.00    -0.458 OA
ENDROOT
BRANCH   1   2
ATOM      2  C   UNL     1       3.919  -0.114  29.026  1.00  0.00     0.261 C 
BRANCH   2   3
ATOM      3  C   UNL     1       4.471   1.209  29.483  1.00  0.00     0.015 C 
ATOM      4  C   UNL     1       4.008   1.899  30.535  1.00  0.00     0.007 C 
BRANCH   4   5
ATOM      5  C   UNL     1       2.868   1.474  31.370  1.00  0.00    -0.022 A 
ATOM      6  C   UNL     1       1.227   1.918  33.123  1.00  0.00     0.161 A 
ATOM      7  C   UNL     1       0.749   0.605  32.994  1.00  0.00     0.157 A 
ATOM      8  C   UNL     1       2.299   2.343  32.314  1.00  0.00     0.058 A 
ATOM      9  C   UNL     1       1.338  -0.271  32.074  1.00  0.00     0.051 A 
ATOM     10  C   UNL     1       2.398   0.159  31.272  1.00  0.00     0.012 A 
BRANCH   6  11
ATOM     11  O   UNL     1       0.617   2.763  34.063  1.00  0.00    -0.493 OA
ATOM     12  C   UNL     1       1.194   3.968  34.556  1.00  0.00     0.278 C 
ENDBRANCH   6  11
BRANCH   7  13
ATOM     13  O   UNL     1      -0.312   0.177  33.791  1.00  0.00    -0.504 OA
ATOM     14  H   UNL     1      -0.339   0.368  34.785  1.00  0.00     0.293 HD
ENDBRANCH   7  13
ENDBRANCH   4   5
ENDBRANCH   2   3
ENDBRANCH   1   2
BRANCH   1  15
ATOM     15  C   UNL     1       3.504  -0.137  26.573  1.00  0.00     0.331 C 
ATOM     16  O   UNL     1       2.638  -0.978  26.201  1.00  0.00    -0.247 OA
BRANCH  15  17
ATOM     17  C   UNL     1       3.687   1.130  25.848  1.00  0.00     0.094 C 
ATOM     18  C   UNL     1       3.028   1.410  24.715  1.00  0.00     0.016 C 
BRANCH  18  19
ATOM     19  C   UNL     1       3.210   2.668  23.947  1.00  0.00    -0.021 A 
ATOM     20  C   UNL     1       2.100   3.510  23.763  1.00  0.00     0.058 A 
ATOM     21  C   UNL     1       4.457   3.062  23.424  1.00  0.00     0.012 A 
ATOM     22  C   UNL     1       2.219   4.718  23.047  1.00  0.00     0.161 A 
ATOM     23  C   UNL     1       4.579   4.257  22.714  1.00  0.00     0.051 A 
ATOM     24  C   UNL     1       3.466   5.085  22.522  1.00  0.00     0.157 A 
BRANCH  22  25
ATOM     25  O   UNL     1       1.128   5.576  22.839  1.00  0.00    -0.493 OA
ATOM     26  C   UNL     1       0.492   5.782  21.583  1.00  0.00     0.278 C 
ENDBRANCH  22  25
BRANCH  24  27
ATOM     27  O   UNL     1       3.590   6.277  21.812  1.00  0.00    -0.504 OA
ATOM     28  H   UNL     1       4.489   6.602  21.474  1.00  0.00     0.293 HD
ENDBRANCH  24  27
ENDBRANCH  18  19
ENDBRANCH  15  17
ENDBRANCH   1  15
TORSDOF 10
ENDMDL
MODEL 3
REMARK VINA RESULT:    26.538      0.745      1.885
REMARK INTER + INTRA:          40.382
REMARK INTER:                  40.484
REMARK INTRA:                  -0.101
REMARK UNBOUND:                -0.118
REMARK SMILES COc1cc(C=CCOC(=O)C=Cc2ccc(O)c(OC)c2)ccc1O
REMARK SMILES IDX 9 1 8 2 7 3 6 4 5 5 3 6 25 7 4 8 24 9 23 10 2 11 1 12 26 13
REMARK SMILES IDX 10 15 11 16 12 17 13 18 14 19 22 20 15 21 19 22 16 23 17 24
REMARK SMILES IDX 20 25 21 26 18 27
REMARK H PARENT 26 14 18 28
REMARK Flexibility Score: inf
ROOT
ATOM      1  O   UNL     1       4.555   0.449  27.202  1.00  0.00    -0.458 OA
ENDROOT
BRANCH   1   2
ATOM      2  C   UNL     1       4.318   1.082  25.946  1.00  0.00     0.261 C 
BRANCH   2   3
ATOM      3  C   UNL     1       3.053   0.570  25.313  1.00  0.00     0.015 C 
ATOM      4  C   UNL     1       2.375   1.213  24.352  1.00  0.00     0.007 C 
BRANCH   4   5
ATOM      5  C   UNL     1       2.755   2.530  23.807  1.00  0.00    -0.022 A 
ATOM      6  C   UNL     1       2.161   4.767  23.025  1.00  0.00     0.161 A 
ATOM      7  C   UNL     1       3.506   4.998  22.697  1.00  0.00     0.157 A 
ATOM      8  C   UNL     1       1.790   3.522  23.571  1.00  0.00     0.058 A 
ATOM      9  C   UNL     1       4.463   3.997  22.905  1.00  0.00     0.051 A 
ATOM     10  C   UNL     1       4.087   2.766  23.449  1.00  0.00     0.012 A 
BRANCH   6  11
ATOM     11  O   UNL     1       1.230   5.791  22.794  1.00  0.00    -0.493 OA
ATOM     12  C   UNL     1       0.448   5.916  21.610  1.00  0.00     0.278 C 
ENDBRANCH   6  11
BRANCH   7  13
ATOM     13  O   UNL     1       3.881   6.228  22.158  1.00  0.00    -0.504 OA
ATOM     14  H   UNL     1       4.153   7.004  22.749  1.00  0.00     0.293 HD
ENDBRANCH   7  13
ENDBRANCH   4   5
ENDBRANCH   2   3
ENDBRANCH   1   2
BRANCH   1  15
ATOM     15  C   UNL     1       4.666   1.145  28.409  1.00  0.00     0.331 C 
ATOM     16  O   UNL     1       5.643   1.917  28.616  1.00  0.00    -0.247 OA
BRANCH  15  17
ATOM     17  C   UNL     1       3.623   0.957  29.431  1.00  0.00     0.094 C 
ATOM     18  C   UNL     1       3.534   1.737  30.518  1.00  0.00     0.016 C 
BRANCH  18  19
ATOM     19  C   UNL     1       2.511   1.558  31.578  1.00  0.00    -0.021 A 
ATOM     20  C   UNL     1       2.211   0.254  32.010  1.00  0.00     0.058 A 
ATOM     21  C   UNL     1       1.855   2.644  32.188  1.00  0.00     0.012 A 
ATOM     22  C   UNL     1       1.253   0.029  33.018  1.00  0.00     0.161 A 
ATOM     23  C   UNL     1       0.905   2.425  33.187  1.00  0.00     0.051 A 
ATOM     24  C   UNL     1       0.600   1.123  33.602  1.00  0.00     0.157 A 
BRANCH  22  25
ATOM     25  O   UNL     1       0.925  -1.261  33.464  1.00  0.00    -0.493 OA
ATOM     26  C   UNL     1       1.632  -2.443  33.104  1.00  0.00     0.278 C 
ENDBRANCH  22  25
BRANCH  24  27
ATOM     27  O   UNL     1      -0.350   0.907  34.598  1.00  0.00    -0.504 OA
ATOM     28  H   UNL     1      -1.343   0.960  34.405  1.00  0.00     0.293 HD
ENDBRANCH  24  27
ENDBRANCH  18  19
ENDBRANCH  15  17
ENDBRANCH   1  15
TORSDOF 10
ENDMDL
MODEL 4
REMARK VINA RESULT:    26.974      1.082      2.495
REMARK INTER + INTRA:          41.049
REMARK INTER:                  41.343
REMARK INTRA:                  -0.293
REMARK UNBOUND:                -0.118
REMARK SMILES COc1cc(C=CCOC(=O)C=Cc2ccc(O)c(OC)c2)ccc1O
REMARK SMILES IDX 9 1 8 2 7 3 6 4 5 5 3 6 25 7 4 8 24 9 23 10 2 11 1 12 26 13
REMARK SMILES IDX 10 15 11 16 12 17 13 18 14 19 22 20 15 21 19 22 16 23 17 24
REMARK SMILES IDX 20 25 21 26 18 27
REMARK H PARENT 26 14 18 28
REMARK Flexibility Score: inf
ROOT
ATOM      1  O   UNL     1       4.906   0.593  27.505  1.00  0.00    -0.458 OA
ENDROOT
BRANCH   1   2
ATOM      2  C   UNL     1       4.241   0.981  26.305  1.00  0.00     0.261 C 
BRANCH   2   3
ATOM      3  C   UNL     1       5.101   0.714  25.100  1.00  0.00     0.015 C 
ATOM      4  C   UNL     1       4.978   1.351  23.927  1.00  0.00     0.007 C 
BRANCH   4   5
ATOM      5  C   UNL     1       3.958   2.379  23.644  1.00  0.00    -0.022 A 
ATOM      6  C   UNL     1       3.342   4.675  23.082  1.00  0.00     0.161 A 
ATOM      7  C   UNL     1       1.987   4.326  23.185  1.00  0.00     0.157 A 
ATOM      8  C   UNL     1       4.326   3.696  23.326  1.00  0.00     0.058 A 
ATOM      9  C   UNL     1       1.622   3.019  23.532  1.00  0.00     0.051 A 
ATOM     10  C   UNL     1       2.603   2.053  23.769  1.00  0.00     0.012 A 
BRANCH   6  11
ATOM     11  O   UNL     1       3.669   5.997  22.741  1.00  0.00    -0.493 OA
ATOM     12  C   UNL     1       4.161   6.401  21.467  1.00  0.00     0.278 C 
ENDBRANCH   6  11
BRANCH   7  13
ATOM     13  O   UNL     1       1.008   5.289  22.944  1.00  0.00    -0.504 OA
ATOM     14  H   UNL     1       0.051   5.160  23.250  1.00  0.00     0.293 HD
ENDBRANCH   7  13
ENDBRANCH   4   5
ENDBRANCH   2   3
ENDBRANCH   1   2
BRANCH   1  15
ATOM     15  C   UNL     1       4.850   1.329  28.693  1.00  0.00     0.331 C 
ATOM     16  O   UNL     1       5.731   2.196  28.951  1.00  0.00    -0.247 OA
BRANCH  15  17
ATOM     17  C   UNL     1       3.747   1.071  29.633  1.00  0.00     0.094 C 
ATOM     18  C   UNL     1       3.592   1.769  30.766  1.00  0.00     0.016 C 
BRANCH  18  19
ATOM     19  C   UNL     1       2.506   1.515  31.746  1.00  0.00    -0.021 A 
ATOM     20  C   UNL     1       2.260   0.192  32.151  1.00  0.00     0.058 A 
ATOM     21  C   UNL     1       1.737   2.553  32.308  1.00  0.00     0.012 A 
ATOM     22  C   UNL     1       1.245  -0.102  33.084  1.00  0.00     0.161 A 
ATOM     23  C   UNL     1       0.731   2.265  33.232  1.00  0.00     0.051 A 
ATOM     24  C   UNL     1       0.481   0.943  33.620  1.00  0.00     0.157 A 
BRANCH  22  25
ATOM     25  O   UNL     1       0.970  -1.414  33.501  1.00  0.00    -0.493 OA
ATOM     26  C   UNL     1       1.622  -2.574  32.997  1.00  0.00     0.278 C 
ENDBRANCH  22  25
BRANCH  24  27
ATOM     27  O   UNL     1      -0.525   0.658  34.541  1.00  0.00    -0.504 OA
ATOM     28  H   UNL     1      -1.244  -0.029  34.347  1.00  0.00     0.293 HD
ENDBRANCH  24  27
ENDBRANCH  18  19
ENDBRANCH  15  17
ENDBRANCH   1  15
TORSDOF 10
ENDMDL
MODEL 5
REMARK VINA RESULT:    27.531      1.312      9.632
REMARK INTER + INTRA:          41.898
REMARK INTER:                  42.007
REMARK INTRA:                  -0.109
REMARK UNBOUND:                -0.118
REMARK SMILES COc1cc(C=CCOC(=O)C=Cc2ccc(O)c(OC)c2)ccc1O
REMARK SMILES IDX 9 1 8 2 7 3 6 4 5 5 3 6 25 7 4 8 24 9 23 10 2 11 1 12 26 13
REMARK SMILES IDX 10 15 11 16 12 17 13 18 14 19 22 20 15 21 19 22 16 23 17 24
REMARK SMILES IDX 20 25 21 26 18 27
REMARK H PARENT 26 14 18 28
REMARK Flexibility Score: inf
ROOT
ATOM      1  O   UNL     1       3.967   0.078  28.526  1.00  0.00    -0.458 OA
ENDROOT
BRANCH   1   2
ATOM      2  C   UNL     1       3.519   1.320  29.061  1.00  0.00     0.261 C 
BRANCH   2   3
ATOM      3  C   UNL     1       4.483   1.845  30.091  1.00  0.00     0.015 C 
ATOM      4  C   UNL     1       4.229   1.899  31.406  1.00  0.00     0.007 C 
BRANCH   4   5
ATOM      5  C   UNL     1       2.954   1.488  32.023  1.00  0.00    -0.022 A 
ATOM      6  C   UNL     1       1.533  -0.212  33.052  1.00  0.00     0.161 A 
ATOM      7  C   UNL     1       0.487   0.720  33.123  1.00  0.00     0.157 A 
ATOM      8  C   UNL     1       2.765   0.176  32.487  1.00  0.00     0.058 A 
ATOM      9  C   UNL     1       0.668   2.019  32.632  1.00  0.00     0.051 A 
ATOM     10  C   UNL     1       1.893   2.398  32.077  1.00  0.00     0.012 A 
BRANCH   6  11
ATOM     11  O   UNL     1       1.311  -1.507  33.545  1.00  0.00    -0.493 OA
ATOM     12  C   UNL     1       1.688  -2.703  32.868  1.00  0.00     0.278 C 
ENDBRANCH   6  11
BRANCH   7  13
ATOM     13  O   UNL     1      -0.733   0.343  33.682  1.00  0.00    -0.504 OA
ATOM     14  H   UNL     1      -1.590   0.357  33.142  1.00  0.00     0.293 HD
ENDBRANCH   7  13
ENDBRANCH   4   5
ENDBRANCH   2   3
ENDBRANCH   1   2
BRANCH   1  15
ATOM     15  C   UNL     1       4.229  -0.129  27.167  1.00  0.00     0.331 C 
ATOM     16  O   UNL     1       4.407  -1.296  26.720  1.00  0.00    -0.247 OA
BRANCH  15  17
ATOM     17  C   UNL     1       4.293   1.040  26.275  1.00  0.00     0.094 C 
ATOM     18  C   UNL     1       3.452   1.203  25.244  1.00  0.00     0.016 C 
BRANCH  18  19
ATOM     19  C   UNL     1       3.508   2.357  24.312  1.00  0.00    -0.021 A 
ATOM     20  C   UNL     1       2.366   3.165  24.172  1.00  0.00     0.058 A 
ATOM     21  C   UNL     1       4.669   2.689  23.588  1.00  0.00     0.012 A 
ATOM     22  C   UNL     1       2.368   4.276  23.305  1.00  0.00     0.161 A 
ATOM     23  C   UNL     1       4.674   3.789  22.727  1.00  0.00     0.051 A 
ATOM     24  C   UNL     1       3.529   4.581  22.582  1.00  0.00     0.157 A 
BRANCH  22  25
ATOM     25  O   UNL     1       1.241   5.096  23.137  1.00  0.00    -0.493 OA
ATOM     26  C   UNL     1       0.771   5.574  21.881  1.00  0.00     0.278 C 
ENDBRANCH  22  25
BRANCH  24  27
ATOM     27  O   UNL     1       3.536   5.677  21.721  1.00  0.00    -0.504 OA
ATOM     28  H   UNL     1       4.020   6.535  21.959  1.00  0.00     0.293 HD
ENDBRANCH  24  27
ENDBRANCH  18  19
ENDBRANCH  15  17
ENDBRANCH   1  15
TORSDOF 10
ENDMDL
