MODEL 1
REMARK VINA RESULT:    -3.253      0.000      0.000
REMARK INTER + INTRA:          -4.947
REMARK INTER:                  -4.585
REMARK INTRA:                  -0.363
REMARK UNBOUND:                -0.363
REMARK SMILES C=CCCCCCCC(=O)[O-]
REMARK SMILES IDX 6 1 7 2 8 3 9 4 10 5 11 6 5 7 4 8 3 9 2 10 1 11
REMARK H PARENT
REMARK Flexibility Score: inf
ROOT
ATOM      1  C   UNL     1      64.132  31.699  60.315  1.00  0.00     0.000 C 
ENDROOT
BRANCH   1   2
ATOM      2  C   UNL     1      64.007  30.234  59.885  1.00  0.00     0.006 C 
BRANCH   2   3
ATOM      3  C   UNL     1      63.409  29.380  61.007  1.00  0.00     0.053 C 
BRANCH   3   4
ATOM      4  C   UNL     1      62.147  28.722  60.549  1.00  0.00     0.041 C 
ATOM      5  O   UNL     1      62.091  27.469  60.433  1.00  0.00    -0.550 OA
ATOM      6  O   UNL     1      61.045  29.495  60.203  1.00  0.00    -0.550 OA
ENDBRANCH   3   4
ENDBRANCH   2   3
ENDBRANCH   1   2
BRANCH   1   7
ATOM      7  C   UNL     1      63.550  32.637  59.250  1.00  0.00     0.000 C 
BRANCH   7   8
ATOM      8  C   UNL     1      63.712  34.107  59.664  1.00  0.00     0.004 C 
BRANCH   8   9
ATOM      9  C   UNL     1      64.456  34.255  61.000  1.00  0.00     0.027 C 
BRANCH   9  10
ATOM     10  C   UNL     1      63.869  35.336  61.868  1.00  0.00    -0.035 C 
ATOM     11  C   UNL     1      62.744  35.974  61.533  1.00  0.00     0.004 C 
ENDBRANCH   9  10
ENDBRANCH   8   9
ENDBRANCH   7   8
ENDBRANCH   1   7
TORSDOF 7
ENDMDL
MODEL 2
REMARK VINA RESULT:    -3.191      3.450      5.659
REMARK INTER + INTRA:          -4.860
REMARK INTER:                  -4.434
REMARK INTRA:                  -0.426
REMARK UNBOUND:                -0.363
REMARK SMILES C=CCCCCCCC(=O)[O-]
REMARK SMILES IDX 6 1 7 2 8 3 9 4 10 5 11 6 5 7 4 8 3 9 2 10 1 11
REMARK H PARENT
REMARK Flexibility Score: inf
ROOT
ATOM      1  C   UNL     1      63.281  32.315  59.030  1.00  0.00     0.000 C 
ENDROOT
BRANCH   1   2
ATOM      2  C   UNL     1      64.136  32.980  60.114  1.00  0.00     0.006 C 
BRANCH   2   3
ATOM      3  C   UNL     1      63.681  34.420  60.366  1.00  0.00     0.053 C 
BRANCH   3   4
ATOM      4  C   UNL     1      64.587  35.093  61.347  1.00  0.00     0.041 C 
ATOM      5  O   UNL     1      65.783  35.340  61.040  1.00  0.00    -0.550 OA
ATOM      6  O   UNL     1      64.125  35.402  62.621  1.00  0.00    -0.550 OA
ENDBRANCH   3   4
ENDBRANCH   2   3
ENDBRANCH   1   2
BRANCH   1   7
ATOM      7  C   UNL     1      63.597  30.818  58.921  1.00  0.00     0.000 C 
BRANCH   7   8
ATOM      8  C   UNL     1      64.185  30.283  60.235  1.00  0.00     0.004 C 
BRANCH   8   9
ATOM      9  C   UNL     1      63.173  29.435  61.021  1.00  0.00     0.027 C 
BRANCH   9  10
ATOM     10  C   UNL     1      62.009  28.998  60.172  1.00  0.00    -0.035 C 
ATOM     11  C   UNL     1      60.750  29.061  60.616  1.00  0.00     0.004 C 
ENDBRANCH   9  10
ENDBRANCH   8   9
ENDBRANCH   7   8
ENDBRANCH   1   7
TORSDOF 7
ENDMDL
MODEL 3
REMARK VINA RESULT:    -3.174     12.516     13.177
REMARK INTER + INTRA:          -4.835
REMARK INTER:                  -4.547
REMARK INTRA:                  -0.288
REMARK UNBOUND:                -0.363
REMARK SMILES C=CCCCCCCC(=O)[O-]
REMARK SMILES IDX 6 1 7 2 8 3 9 4 10 5 11 6 5 7 4 8 3 9 2 10 1 11
REMARK H PARENT
REMARK Flexibility Score: inf
ROOT
ATOM      1  C   UNL     1      59.740  27.406  48.622  1.00  0.00     0.000 C 
ENDROOT
BRANCH   1   2
ATOM      2  C   UNL     1      59.272  26.005  49.033  1.00  0.00     0.006 C 
BRANCH   2   3
ATOM      3  C   UNL     1      60.463  25.106  49.375  1.00  0.00     0.053 C 
BRANCH   3   4
ATOM      4  C   UNL     1      59.991  23.774  49.863  1.00  0.00     0.041 C 
ATOM      5  O   UNL     1      60.406  22.716  49.321  1.00  0.00    -0.550 OA
ATOM      6  O   UNL     1      59.053  23.701  50.886  1.00  0.00    -0.550 OA
ENDBRANCH   3   4
ENDBRANCH   2   3
ENDBRANCH   1   2
BRANCH   1   7
ATOM      7  C   UNL     1      58.615  28.434  48.793  1.00  0.00     0.000 C 
BRANCH   7   8
ATOM      8  C   UNL     1      57.413  27.819  49.524  1.00  0.00     0.004 C 
BRANCH   8   9
ATOM      9  C   UNL     1      56.865  28.745  50.621  1.00  0.00     0.027 C 
BRANCH   9  10
ATOM     10  C   UNL     1      55.436  29.148  50.372  1.00  0.00    -0.035 C 
ATOM     11  C   UNL     1      55.123  30.312  49.796  1.00  0.00     0.004 C 
ENDBRANCH   9  10
ENDBRANCH   8   9
ENDBRANCH   7   8
ENDBRANCH   1   7
TORSDOF 7
ENDMDL
MODEL 4
REMARK VINA RESULT:    -3.162      8.174      9.561
REMARK INTER + INTRA:          -4.818
REMARK INTER:                  -4.242
REMARK INTRA:                  -0.576
REMARK UNBOUND:                -0.363
REMARK SMILES C=CCCCCCCC(=O)[O-]
REMARK SMILES IDX 6 1 7 2 8 3 9 4 10 5 11 6 5 7 4 8 3 9 2 10 1 11
REMARK H PARENT
REMARK Flexibility Score: inf
ROOT
ATOM      1  C   UNL     1      72.704  30.571  60.238  1.00  0.00     0.000 C 
ENDROOT
BRANCH   1   2
ATOM      2  C   UNL     1      71.563  31.593  60.204  1.00  0.00     0.006 C 
BRANCH   2   3
ATOM      3  C   UNL     1      70.904  31.637  58.822  1.00  0.00     0.053 C 
BRANCH   3   4
ATOM      4  C   UNL     1      70.767  33.049  58.351  1.00  0.00     0.041 C 
ATOM      5  O   UNL     1      71.016  33.345  57.152  1.00  0.00    -0.550 OA
ATOM      6  O   UNL     1      70.412  34.050  59.248  1.00  0.00    -0.550 OA
ENDBRANCH   3   4
ENDBRANCH   2   3
ENDBRANCH   1   2
BRANCH   1   7
ATOM      7  C   UNL     1      72.589  29.657  61.464  1.00  0.00     0.000 C 
BRANCH   7   8
ATOM      8  C   UNL     1      72.443  28.187  61.043  1.00  0.00     0.004 C 
BRANCH   8   9
ATOM      9  C   UNL     1      71.078  27.901  60.398  1.00  0.00     0.027 C 
BRANCH   9  10
ATOM     10  C   UNL     1      69.931  28.386  61.244  1.00  0.00    -0.035 C 
ATOM     11  C   UNL     1      68.662  28.268  60.843  1.00  0.00     0.004 C 
ENDBRANCH   9  10
ENDBRANCH   8   9
ENDBRANCH   7   8
ENDBRANCH   1   7
TORSDOF 7
ENDMDL
MODEL 5
REMARK VINA RESULT:    -3.150      7.726      8.388
REMARK INTER + INTRA:          -4.802
REMARK INTER:                  -4.306
REMARK INTRA:                  -0.495
REMARK UNBOUND:                -0.363
REMARK SMILES C=CCCCCCCC(=O)[O-]
REMARK SMILES IDX 6 1 7 2 8 3 9 4 10 5 11 6 5 7 4 8 3 9 2 10 1 11
REMARK H PARENT
REMARK Flexibility Score: inf
ROOT
ATOM      1  C   UNL     1      72.406  30.360  59.249  1.00  0.00     0.000 C 
ENDROOT
BRANCH   1   2
ATOM      2  C   UNL     1      72.732  30.277  60.745  1.00  0.00     0.006 C 
BRANCH   2   3
ATOM      3  C   UNL     1      72.478  28.866  61.285  1.00  0.00     0.053 C 
BRANCH   3   4
ATOM      4  C   UNL     1      71.075  28.438  60.995  1.00  0.00     0.041 C 
ATOM      5  O   UNL     1      70.105  29.055  61.508  1.00  0.00    -0.550 OA
ATOM      6  O   UNL     1      70.839  27.325  60.197  1.00  0.00    -0.550 OA
ENDBRANCH   3   4
ENDBRANCH   2   3
ENDBRANCH   1   2
BRANCH   1   7
ATOM      7  C   UNL     1      71.432  31.509  58.961  1.00  0.00     0.000 C 
BRANCH   7   8
ATOM      8  C   UNL     1      71.310  32.444  60.173  1.00  0.00     0.004 C 
BRANCH   8   9
ATOM      9  C   UNL     1      70.852  33.855  59.773  1.00  0.00     0.027 C 
BRANCH   9  10
ATOM     10  C   UNL     1      70.250  33.894  58.394  1.00  0.00    -0.035 C 
ATOM     11  C   UNL     1      70.282  34.998  57.642  1.00  0.00     0.004 C 
ENDBRANCH   9  10
ENDBRANCH   8   9
ENDBRANCH   7   8
ENDBRANCH   1   7
TORSDOF 7
ENDMDL
MODEL 6
REMARK VINA RESULT:    -3.131      1.668      2.151
REMARK INTER + INTRA:          -4.775
REMARK INTER:                  -4.354
REMARK INTRA:                  -0.421
REMARK UNBOUND:                -0.363
REMARK SMILES C=CCCCCCCC(=O)[O-]
REMARK SMILES IDX 6 1 7 2 8 3 9 4 10 5 11 6 5 7 4 8 3 9 2 10 1 11
REMARK H PARENT
REMARK Flexibility Score: inf
ROOT
ATOM      1  C   UNL     1      63.169  31.701  58.743  1.00  0.00     0.000 C 
ENDROOT
BRANCH   1   2
ATOM      2  C   UNL     1      64.166  31.508  59.892  1.00  0.00     0.006 C 
BRANCH   2   3
ATOM      3  C   UNL     1      63.829  30.257  60.708  1.00  0.00     0.053 C 
BRANCH   3   4
ATOM      4  C   UNL     1      64.586  29.075  60.193  1.00  0.00     0.041 C 
ATOM      5  O   UNL     1      64.027  27.950  60.111  1.00  0.00    -0.550 OA
ATOM      6  O   UNL     1      65.926  29.204  59.848  1.00  0.00    -0.550 OA
ENDBRANCH   3   4
ENDBRANCH   2   3
ENDBRANCH   1   2
BRANCH   1   7
ATOM      7  C   UNL     1      62.558  33.107  58.774  1.00  0.00     0.000 C 
BRANCH   7   8
ATOM      8  C   UNL     1      63.452  34.078  59.560  1.00  0.00     0.004 C 
BRANCH   8   9
ATOM      9  C   UNL     1      62.657  35.259  60.138  1.00  0.00     0.027 C 
BRANCH   9  10
ATOM     10  C   UNL     1      63.167  35.689  61.488  1.00  0.00    -0.035 C 
ATOM     11  C   UNL     1      64.320  35.230  61.983  1.00  0.00     0.004 C 
ENDBRANCH   9  10
ENDBRANCH   8   9
ENDBRANCH   7   8
ENDBRANCH   1   7
TORSDOF 7
ENDMDL
MODEL 7
REMARK VINA RESULT:    -3.129     12.037     13.486
REMARK INTER + INTRA:          -4.773
REMARK INTER:                  -4.073
REMARK INTRA:                  -0.700
REMARK UNBOUND:                -0.363
REMARK SMILES C=CCCCCCCC(=O)[O-]
REMARK SMILES IDX 6 1 7 2 8 3 9 4 10 5 11 6 5 7 4 8 3 9 2 10 1 11
REMARK H PARENT
REMARK Flexibility Score: inf
ROOT
ATOM      1  C   UNL     1      59.002  28.713  50.370  1.00  0.00     0.000 C 
ENDROOT
BRANCH   1   2
ATOM      2  C   UNL     1      57.596  28.832  50.968  1.00  0.00     0.006 C 
BRANCH   2   3
ATOM      3  C   UNL     1      56.524  28.549  49.911  1.00  0.00     0.053 C 
BRANCH   3   4
ATOM      4  C   UNL     1      55.356  29.466  50.090  1.00  0.00     0.041 C 
ATOM      5  O   UNL     1      55.298  30.550  49.453  1.00  0.00    -0.550 OA
ATOM      6  O   UNL     1      54.355  29.146  50.999  1.00  0.00    -0.550 OA
ENDBRANCH   3   4
ENDBRANCH   2   3
ENDBRANCH   1   2
BRANCH   1   7
ATOM      7  C   UNL     1      58.943  28.239  48.913  1.00  0.00     0.000 C 
BRANCH   7   8
ATOM      8  C   UNL     1      60.086  27.261  48.605  1.00  0.00     0.004 C 
BRANCH   8   9
ATOM      9  C   UNL     1      59.939  25.937  49.371  1.00  0.00     0.027 C 
BRANCH   9  10
ATOM     10  C   UNL     1      58.556  25.355  49.250  1.00  0.00    -0.035 C 
ATOM     11  C   UNL     1      57.827  25.043  50.326  1.00  0.00     0.004 C 
ENDBRANCH   9  10
ENDBRANCH   8   9
ENDBRANCH   7   8
ENDBRANCH   1   7
TORSDOF 7
ENDMDL
MODEL 8
REMARK VINA RESULT:    -3.077     17.164     18.229
REMARK INTER + INTRA:          -4.699
REMARK INTER:                  -4.071
REMARK INTRA:                  -0.628
REMARK UNBOUND:                -0.363
REMARK SMILES C=CCCCCCCC(=O)[O-]
REMARK SMILES IDX 6 1 7 2 8 3 9 4 10 5 11 6 5 7 4 8 3 9 2 10 1 11
REMARK H PARENT
REMARK Flexibility Score: inf
ROOT
ATOM      1  C   UNL     1      57.419  17.134  49.708  1.00  0.00     0.000 C 
ENDROOT
BRANCH   1   2
ATOM      2  C   UNL     1      56.348  18.180  50.036  1.00  0.00     0.006 C 
BRANCH   2   3
ATOM      3  C   UNL     1      56.144  18.303  51.549  1.00  0.00     0.053 C 
BRANCH   3   4
ATOM      4  C   UNL     1      55.110  19.339  51.857  1.00  0.00     0.041 C 
ATOM      5  O   UNL     1      54.071  19.426  51.150  1.00  0.00    -0.550 OA
ATOM      6  O   UNL     1      55.315  20.240  52.894  1.00  0.00    -0.550 OA
ENDBRANCH   3   4
ENDBRANCH   2   3
ENDBRANCH   1   2
BRANCH   1   7
ATOM      7  C   UNL     1      58.806  17.780  49.607  1.00  0.00     0.000 C 
BRANCH   7   8
ATOM      8  C   UNL     1      59.797  17.111  50.571  1.00  0.00     0.004 C 
BRANCH   8   9
ATOM      9  C   UNL     1      59.194  15.875  51.256  1.00  0.00     0.027 C 
BRANCH   9  10
ATOM     10  C   UNL     1      59.419  15.877  52.745  1.00  0.00    -0.035 C 
ATOM     11  C   UNL     1      58.683  16.630  53.567  1.00  0.00     0.004 C 
ENDBRANCH   9  10
ENDBRANCH   8   9
ENDBRANCH   7   8
ENDBRANCH   1   7
TORSDOF 7
ENDMDL
MODEL 9
REMARK VINA RESULT:    -3.058      7.796      8.866
REMARK INTER + INTRA:          -4.672
REMARK INTER:                  -3.895
REMARK INTRA:                  -0.777
REMARK UNBOUND:                -0.363
REMARK SMILES C=CCCCCCCC(=O)[O-]
REMARK SMILES IDX 6 1 7 2 8 3 9 4 10 5 11 6 5 7 4 8 3 9 2 10 1 11
REMARK H PARENT
REMARK Flexibility Score: inf
ROOT
ATOM      1  C   UNL     1      72.613  30.656  59.945  1.00  0.00     0.000 C 
ENDROOT
BRANCH   1   2
ATOM      2  C   UNL     1      72.761  30.117  61.372  1.00  0.00     0.006 C 
BRANCH   2   3
ATOM      3  C   UNL     1      72.561  28.599  61.410  1.00  0.00     0.053 C 
BRANCH   3   4
ATOM      4  C   UNL     1      71.241  28.229  60.813  1.00  0.00     0.041 C 
ATOM      5  O   UNL     1      70.171  28.634  61.341  1.00  0.00    -0.550 OA
ATOM      6  O   UNL     1      71.189  27.396  59.703  1.00  0.00    -0.550 OA
ENDBRANCH   3   4
ENDBRANCH   2   3
ENDBRANCH   1   2
BRANCH   1   7
ATOM      7  C   UNL     1      71.598  31.804  59.893  1.00  0.00     0.000 C 
BRANCH   7   8
ATOM      8  C   UNL     1      70.885  31.848  58.533  1.00  0.00     0.004 C 
BRANCH   8   9
ATOM      9  C   UNL     1      71.200  30.614  57.674  1.00  0.00     0.027 C 
BRANCH   9  10
ATOM     10  C   UNL     1      69.969  29.809  57.351  1.00  0.00    -0.035 C 
ATOM     11  C   UNL     1      68.937  29.733  58.196  1.00  0.00     0.004 C 
ENDBRANCH   9  10
ENDBRANCH   8   9
ENDBRANCH   7   8
ENDBRANCH   1   7
TORSDOF 7
ENDMDL
