MODEL 1
REMARK VINA RESULT:    -6.013      0.000      0.000
REMARK INTER + INTRA:          -8.241
REMARK INTER:                  -7.771
REMARK INTRA:                  -0.470
REMARK UNBOUND:                -0.470
REMARK SMILES CCO[C@H]1O[C@H](CO)[C@@H](O)[C@H](O)[C@H]1O
REMARK SMILES IDX 4 1 13 2 11 3 9 4 6 5 5 6 3 7 2 8 1 9 14 10 12 12 7 14 8 15
REMARK SMILES IDX 10 17
REMARK H PARENT 14 11 12 13 8 16 10 18
REMARK Flexibility Score: inf
ROOT
ATOM      1  C   UNL     1     -16.827 -10.662  -2.454  1.00  0.00     0.281 C 
ATOM      2  C   UNL     1     -18.165 -11.021  -1.776  1.00  0.00     0.202 C 
ATOM      3  C   UNL     1     -17.929 -11.525  -0.339  1.00  0.00     0.179 C 
ATOM      4  C   UNL     1     -16.874 -12.641  -0.347  1.00  0.00     0.177 C 
ATOM      5  C   UNL     1     -15.612 -12.165  -1.109  1.00  0.00     0.178 C 
ATOM      6  O   UNL     1     -15.946 -11.777  -2.435  1.00  0.00    -0.341 OA
ENDROOT
BRANCH   1   7
ATOM      7  O   UNL     1     -16.242  -9.528  -1.831  1.00  0.00    -0.350 OA
BRANCH   7   8
ATOM      8  C   UNL     1     -15.567  -8.740  -2.790  1.00  0.00     0.160 C 
ATOM      9  C   UNL     1     -16.535  -8.374  -3.904  1.00  0.00     0.035 C 
ENDBRANCH   7   8
ENDBRANCH   1   7
BRANCH   2  10
ATOM     10  O   UNL     1     -19.054  -9.931  -1.801  1.00  0.00    -0.385 OA
ATOM     11  H   UNL     1     -19.764 -10.132  -2.465  1.00  0.00     0.211 HD
ENDBRANCH   2  10
BRANCH   3  12
ATOM     12  O   UNL     1     -19.127 -12.025   0.198  1.00  0.00    -0.387 OA
ATOM     13  H   UNL     1     -18.894 -12.474   1.051  1.00  0.00     0.211 HD
ENDBRANCH   3  12
BRANCH   5  14
ATOM     14  C   UNL     1     -14.555 -13.277  -1.200  1.00  0.00     0.191 C 
BRANCH  14  15
ATOM     15  O   UNL     1     -13.827 -13.388  -0.005  1.00  0.00    -0.394 OA
ATOM     16  H   UNL     1     -14.400 -13.890   0.632  1.00  0.00     0.210 HD
ENDBRANCH  14  15
ENDBRANCH   5  14
BRANCH   4  17
ATOM     17  O   UNL     1     -16.551 -12.962   0.983  1.00  0.00    -0.387 OA
ATOM     18  H   UNL     1     -16.326 -13.929   1.006  1.00  0.00     0.211 HD
ENDBRANCH   4  17
TORSDOF 7
ENDMDL
MODEL 2
REMARK VINA RESULT:    -5.942      1.640      4.151
REMARK INTER + INTRA:          -8.149
REMARK INTER:                  -7.715
REMARK INTRA:                  -0.434
REMARK UNBOUND:                -0.470
REMARK SMILES CCO[C@H]1O[C@H](CO)[C@@H](O)[C@H](O)[C@H]1O
REMARK SMILES IDX 4 1 13 2 11 3 9 4 6 5 5 6 3 7 2 8 1 9 14 10 12 12 7 14 8 15
REMARK SMILES IDX 10 17
REMARK H PARENT 14 11 12 13 8 16 10 18
REMARK Flexibility Score: inf
ROOT
ATOM      1  C   UNL     1     -16.117 -10.970   0.140  1.00  0.00     0.281 C 
ATOM      2  C   UNL     1     -17.602 -10.608  -0.071  1.00  0.00     0.202 C 
ATOM      3  C   UNL     1     -17.899 -10.373  -1.564  1.00  0.00     0.179 C 
ATOM      4  C   UNL     1     -16.889  -9.371  -2.143  1.00  0.00     0.177 C 
ATOM      5  C   UNL     1     -15.446  -9.827  -1.806  1.00  0.00     0.178 C 
ATOM      6  O   UNL     1     -15.279  -9.957  -0.401  1.00  0.00    -0.341 OA
ENDROOT
BRANCH   1   7
ATOM      7  O   UNL     1     -15.829 -12.240  -0.427  1.00  0.00    -0.350 OA
BRANCH   7   8
ATOM      8  C   UNL     1     -14.878 -12.921   0.365  1.00  0.00     0.160 C 
ATOM      9  C   UNL     1     -15.605 -13.859   1.317  1.00  0.00     0.035 C 
ENDBRANCH   7   8
ENDBRANCH   1   7
BRANCH   2  10
ATOM     10  O   UNL     1     -18.445 -11.594   0.474  1.00  0.00    -0.385 OA
ATOM     11  H   UNL     1     -19.357 -11.452   0.109  1.00  0.00     0.211 HD
ENDBRANCH   2  10
BRANCH   3  12
ATOM     12  O   UNL     1     -19.198  -9.863  -1.721  1.00  0.00    -0.387 OA
ATOM     13  H   UNL     1     -19.432  -9.407  -0.871  1.00  0.00     0.211 HD
ENDBRANCH   3  12
BRANCH   5  14
ATOM     14  C   UNL     1     -14.404  -8.815  -2.310  1.00  0.00     0.191 C 
BRANCH  14  15
ATOM     15  O   UNL     1     -14.096  -9.030  -3.662  1.00  0.00    -0.394 OA
ATOM     16  H   UNL     1     -13.529  -9.844  -3.698  1.00  0.00     0.210 HD
ENDBRANCH  14  15
ENDBRANCH   5  14
BRANCH   4  17
ATOM     17  O   UNL     1     -17.069  -9.305  -3.535  1.00  0.00    -0.387 OA
ATOM     18  H   UNL     1     -17.409 -10.190  -3.830  1.00  0.00     0.211 HD
ENDBRANCH   4  17
TORSDOF 7
ENDMDL
MODEL 3
REMARK VINA RESULT:    -5.722      1.928      3.136
REMARK INTER + INTRA:          -7.864
REMARK INTER:                  -7.406
REMARK INTRA:                  -0.459
REMARK UNBOUND:                -0.470
REMARK SMILES CCO[C@H]1O[C@H](CO)[C@@H](O)[C@H](O)[C@H]1O
REMARK SMILES IDX 4 1 13 2 11 3 9 4 6 5 5 6 3 7 2 8 1 9 14 10 12 12 7 14 8 15
REMARK SMILES IDX 10 17
REMARK H PARENT 14 11 12 13 8 16 10 18
REMARK Flexibility Score: inf
ROOT
ATOM      1  C   UNL     1     -17.810 -12.403  -1.232  1.00  0.00     0.281 C 
ATOM      2  C   UNL     1     -17.987 -10.885  -1.019  1.00  0.00     0.202 C 
ATOM      3  C   UNL     1     -16.623 -10.201  -0.809  1.00  0.00     0.179 C 
ATOM      4  C   UNL     1     -15.839 -10.933   0.290  1.00  0.00     0.177 C 
ATOM      5  C   UNL     1     -15.791 -12.450  -0.021  1.00  0.00     0.178 C 
ATOM      6  O   UNL     1     -17.106 -12.977  -0.139  1.00  0.00    -0.341 OA
ENDROOT
BRANCH   1   7
ATOM      7  O   UNL     1     -17.154 -12.659  -2.465  1.00  0.00    -0.350 OA
BRANCH   7   8
ATOM      8  C   UNL     1     -17.595 -13.887  -3.005  1.00  0.00     0.160 C 
ATOM      9  C   UNL     1     -19.114 -13.932  -2.959  1.00  0.00     0.035 C 
ENDBRANCH   7   8
ENDBRANCH   1   7
BRANCH   2  10
ATOM     10  O   UNL     1     -18.698 -10.304  -2.086  1.00  0.00    -0.385 OA
ATOM     11  H   UNL     1     -18.050  -9.803  -2.647  1.00  0.00     0.211 HD
ENDBRANCH   2  10
BRANCH   3  12
ATOM     12  O   UNL     1     -16.810  -8.861  -0.430  1.00  0.00    -0.387 OA
ATOM     13  H   UNL     1     -17.432  -8.866   0.343  1.00  0.00     0.211 HD
ENDBRANCH   3  12
BRANCH   5  14
ATOM     14  C   UNL     1     -15.072 -13.231   1.092  1.00  0.00     0.191 C 
BRANCH  14  15
ATOM     15  O   UNL     1     -13.690 -12.989   1.072  1.00  0.00    -0.394 OA
ATOM     16  H   UNL     1     -13.375 -13.215   0.158  1.00  0.00     0.210 HD
ENDBRANCH  14  15
ENDBRANCH   5  14
BRANCH   4  17
ATOM     17  O   UNL     1     -14.539 -10.402   0.343  1.00  0.00    -0.387 OA
ATOM     18  H   UNL     1     -14.332 -10.222   1.297  1.00  0.00     0.211 HD
ENDBRANCH   4  17
TORSDOF 7
ENDMDL
MODEL 4
REMARK VINA RESULT:    -5.686      2.023      3.563
REMARK INTER + INTRA:          -7.819
REMARK INTER:                  -7.361
REMARK INTRA:                  -0.458
REMARK UNBOUND:                -0.470
REMARK SMILES CCO[C@H]1O[C@H](CO)[C@@H](O)[C@H](O)[C@H]1O
REMARK SMILES IDX 4 1 13 2 11 3 9 4 6 5 5 6 3 7 2 8 1 9 14 10 12 12 7 14 8 15
REMARK SMILES IDX 10 17
REMARK H PARENT 14 11 12 13 8 16 10 18
REMARK Flexibility Score: inf
ROOT
ATOM      1  C   UNL     1     -17.547  -9.678  -0.829  1.00  0.00     0.281 C 
ATOM      2  C   UNL     1     -17.942 -11.167  -0.905  1.00  0.00     0.202 C 
ATOM      3  C   UNL     1     -16.803 -12.002  -1.522  1.00  0.00     0.179 C 
ATOM      4  C   UNL     1     -16.357 -11.370  -2.849  1.00  0.00     0.177 C 
ATOM      5  C   UNL     1     -16.051  -9.866  -2.638  1.00  0.00     0.178 C 
ATOM      6  O   UNL     1     -17.190  -9.194  -2.117  1.00  0.00    -0.341 OA
ENDROOT
BRANCH   1   7
ATOM      7  O   UNL     1     -16.496  -9.488   0.107  1.00  0.00    -0.350 OA
BRANCH   7   8
ATOM      8  C   UNL     1     -16.686  -8.281   0.814  1.00  0.00     0.160 C 
ATOM      9  C   UNL     1     -18.132  -8.197   1.275  1.00  0.00     0.035 C 
ENDBRANCH   7   8
ENDBRANCH   1   7
BRANCH   2  10
ATOM     10  O   UNL     1     -18.314 -11.657   0.360  1.00  0.00    -0.385 OA
ATOM     11  H   UNL     1     -19.161 -12.164   0.254  1.00  0.00     0.211 HD
ENDBRANCH   2  10
BRANCH   3  12
ATOM     12  O   UNL     1     -17.244 -13.314  -1.760  1.00  0.00    -0.387 OA
ATOM     13  H   UNL     1     -16.914 -13.869  -1.005  1.00  0.00     0.211 HD
ENDBRANCH   3  12
BRANCH   5  14
ATOM     14  C   UNL     1     -15.665  -9.179  -3.958  1.00  0.00     0.191 C 
BRANCH  14  15
ATOM     15  O   UNL     1     -14.368  -9.535  -4.358  1.00  0.00    -0.394 OA
ATOM     16  H   UNL     1     -13.803  -8.727  -4.242  1.00  0.00     0.210 HD
ENDBRANCH  14  15
ENDBRANCH   5  14
BRANCH   4  17
ATOM     17  O   UNL     1     -15.210 -12.044  -3.303  1.00  0.00    -0.387 OA
ATOM     18  H   UNL     1     -15.372 -12.296  -4.250  1.00  0.00     0.211 HD
ENDBRANCH   4  17
TORSDOF 7
ENDMDL
MODEL 5
REMARK VINA RESULT:    -5.577      1.414      3.293
REMARK INTER + INTRA:          -7.678
REMARK INTER:                  -7.304
REMARK INTRA:                  -0.374
REMARK UNBOUND:                -0.470
REMARK SMILES CCO[C@H]1O[C@H](CO)[C@@H](O)[C@H](O)[C@H]1O
REMARK SMILES IDX 4 1 13 2 11 3 9 4 6 5 5 6 3 7 2 8 1 9 14 10 12 12 7 14 8 15
REMARK SMILES IDX 10 17
REMARK H PARENT 14 11 12 13 8 16 10 18
REMARK Flexibility Score: inf
ROOT
ATOM      1  C   UNL     1     -16.185  -9.304  -1.596  1.00  0.00     0.281 C 
ATOM      2  C   UNL     1     -14.972 -10.176  -1.209  1.00  0.00     0.202 C 
ATOM      3  C   UNL     1     -15.252 -11.661  -1.510  1.00  0.00     0.179 C 
ATOM      4  C   UNL     1     -16.589 -12.075  -0.879  1.00  0.00     0.177 C 
ATOM      5  C   UNL     1     -17.700 -11.082  -1.303  1.00  0.00     0.178 C 
ATOM      6  O   UNL     1     -17.354  -9.756  -0.927  1.00  0.00    -0.341 OA
ENDROOT
BRANCH   1   7
ATOM      7  O   UNL     1     -16.363  -9.296  -3.005  1.00  0.00    -0.350 OA
BRANCH   7   8
ATOM      8  C   UNL     1     -16.351  -7.970  -3.490  1.00  0.00     0.160 C 
ATOM      9  C   UNL     1     -16.664  -7.982  -4.978  1.00  0.00     0.035 C 
ENDBRANCH   7   8
ENDBRANCH   1   7
BRANCH   2  10
ATOM     10  O   UNL     1     -13.803  -9.731  -1.852  1.00  0.00    -0.385 OA
ATOM     11  H   UNL     1     -13.777 -10.138  -2.756  1.00  0.00     0.211 HD
ENDBRANCH   2  10
BRANCH   3  12
ATOM     12  O   UNL     1     -14.224 -12.460  -0.981  1.00  0.00    -0.387 OA
ATOM     13  H   UNL     1     -14.587 -12.891  -0.165  1.00  0.00     0.211 HD
ENDBRANCH   3  12
BRANCH   5  14
ATOM     14  C   UNL     1     -19.044 -11.421  -0.638  1.00  0.00     0.191 C 
BRANCH  14  15
ATOM     15  O   UNL     1     -18.856 -12.110   0.570  1.00  0.00    -0.394 OA
ATOM     16  H   UNL     1     -18.432 -12.978   0.339  1.00  0.00     0.210 HD
ENDBRANCH  14  15
ENDBRANCH   5  14
BRANCH   4  17
ATOM     17  O   UNL     1     -16.905 -13.375  -1.309  1.00  0.00    -0.387 OA
ATOM     18  H   UNL     1     -17.116 -13.322  -2.278  1.00  0.00     0.211 HD
ENDBRANCH   4  17
TORSDOF 7
ENDMDL
MODEL 6
REMARK VINA RESULT:    -5.454      1.939      2.525
REMARK INTER + INTRA:          -7.519
REMARK INTER:                  -7.117
REMARK INTRA:                  -0.402
REMARK UNBOUND:                -0.470
REMARK SMILES CCO[C@H]1O[C@H](CO)[C@@H](O)[C@H](O)[C@H]1O
REMARK SMILES IDX 4 1 13 2 11 3 9 4 6 5 5 6 3 7 2 8 1 9 14 10 12 12 7 14 8 15
REMARK SMILES IDX 10 17
REMARK H PARENT 14 11 12 13 8 16 10 18
REMARK Flexibility Score: inf
ROOT
ATOM      1  C   UNL     1     -17.858 -11.037  -1.660  1.00  0.00     0.281 C 
ATOM      2  C   UNL     1     -17.755 -11.588  -0.223  1.00  0.00     0.202 C 
ATOM      3  C   UNL     1     -16.603 -12.604  -0.110  1.00  0.00     0.179 C 
ATOM      4  C   UNL     1     -16.737 -13.665  -1.213  1.00  0.00     0.177 C 
ATOM      5  C   UNL     1     -16.890 -12.972  -2.591  1.00  0.00     0.178 C 
ATOM      6  O   UNL     1     -18.014 -12.102  -2.588  1.00  0.00    -0.341 OA
ENDROOT
BRANCH   1   7
ATOM      7  O   UNL     1     -16.723 -10.241  -1.970  1.00  0.00    -0.350 OA
BRANCH   7   8
ATOM      8  C   UNL     1     -17.132  -8.982  -2.464  1.00  0.00     0.160 C 
ATOM      9  C   UNL     1     -16.412  -8.705  -3.774  1.00  0.00     0.035 C 
ENDBRANCH   7   8
ENDBRANCH   1   7
BRANCH   2  10
ATOM     10  O   UNL     1     -17.616 -10.544   0.710  1.00  0.00    -0.385 OA
ATOM     11  H   UNL     1     -17.071 -10.882   1.468  1.00  0.00     0.211 HD
ENDBRANCH   2  10
BRANCH   3  12
ATOM     12  O   UNL     1     -16.641 -13.236   1.145  1.00  0.00    -0.387 OA
ATOM     13  H   UNL     1     -16.078 -14.050   1.074  1.00  0.00     0.211 HD
ENDBRANCH   3  12
BRANCH   5  14
ATOM     14  C   UNL     1     -17.095 -13.997  -3.717  1.00  0.00     0.191 C 
BRANCH  14  15
ATOM     15  O   UNL     1     -17.720 -15.160  -3.241  1.00  0.00    -0.394 OA
ATOM     16  H   UNL     1     -18.402 -15.413  -3.917  1.00  0.00     0.210 HD
ENDBRANCH  14  15
ENDBRANCH   5  14
BRANCH   4  17
ATOM     17  O   UNL     1     -15.588 -14.475  -1.198  1.00  0.00    -0.387 OA
ATOM     18  H   UNL     1     -15.158 -14.360  -0.311  1.00  0.00     0.211 HD
ENDBRANCH   4  17
TORSDOF 7
ENDMDL
MODEL 7
REMARK VINA RESULT:    -5.438      1.679      3.075
REMARK INTER + INTRA:          -7.498
REMARK INTER:                  -7.230
REMARK INTRA:                  -0.268
REMARK UNBOUND:                -0.470
REMARK SMILES CCO[C@H]1O[C@H](CO)[C@@H](O)[C@H](O)[C@H]1O
REMARK SMILES IDX 4 1 13 2 11 3 9 4 6 5 5 6 3 7 2 8 1 9 14 10 12 12 7 14 8 15
REMARK SMILES IDX 10 17
REMARK H PARENT 14 11 12 13 8 16 10 18
REMARK Flexibility Score: inf
ROOT
ATOM      1  C   UNL     1     -16.799 -10.709  -0.784  1.00  0.00     0.281 C 
ATOM      2  C   UNL     1     -16.145 -10.874  -2.171  1.00  0.00     0.202 C 
ATOM      3  C   UNL     1     -15.836 -12.357  -2.455  1.00  0.00     0.179 C 
ATOM      4  C   UNL     1     -15.050 -12.957  -1.281  1.00  0.00     0.177 C 
ATOM      5  C   UNL     1     -15.789 -12.666   0.050  1.00  0.00     0.178 C 
ATOM      6  O   UNL     1     -15.968 -11.267   0.225  1.00  0.00    -0.341 OA
ENDROOT
BRANCH   1   7
ATOM      7  O   UNL     1     -18.094 -11.292  -0.772  1.00  0.00    -0.350 OA
BRANCH   7   8
ATOM      8  C   UNL     1     -19.083 -10.284  -0.781  1.00  0.00     0.160 C 
ATOM      9  C   UNL     1     -18.587  -9.095   0.027  1.00  0.00     0.035 C 
ENDBRANCH   7   8
ENDBRANCH   1   7
BRANCH   2  10
ATOM     10  O   UNL     1     -16.949 -10.312  -3.180  1.00  0.00    -0.385 OA
ATOM     11  H   UNL     1     -16.476  -9.516  -3.539  1.00  0.00     0.211 HD
ENDBRANCH   2  10
BRANCH   3  12
ATOM     12  O   UNL     1     -15.074 -12.472  -3.629  1.00  0.00    -0.387 OA
ATOM     13  H   UNL     1     -15.588 -12.025  -4.351  1.00  0.00     0.211 HD
ENDBRANCH   3  12
BRANCH   5  14
ATOM     14  C   UNL     1     -15.000 -13.192   1.260  1.00  0.00     0.191 C 
BRANCH  14  15
ATOM     15  O   UNL     1     -13.617 -13.084   1.052  1.00  0.00    -0.394 OA
ATOM     16  H   UNL     1     -13.481 -12.326   0.426  1.00  0.00     0.210 HD
ENDBRANCH  14  15
ENDBRANCH   5  14
BRANCH   4  17
ATOM     17  O   UNL     1     -14.931 -14.342  -1.482  1.00  0.00    -0.387 OA
ATOM     18  H   UNL     1     -14.190 -14.662  -0.904  1.00  0.00     0.211 HD
ENDBRANCH   4  17
TORSDOF 7
ENDMDL
MODEL 8
REMARK VINA RESULT:    -5.413      1.870      2.238
REMARK INTER + INTRA:          -7.465
REMARK INTER:                  -7.076
REMARK INTRA:                  -0.389
REMARK UNBOUND:                -0.470
REMARK SMILES CCO[C@H]1O[C@H](CO)[C@@H](O)[C@H](O)[C@H]1O
REMARK SMILES IDX 4 1 13 2 11 3 9 4 6 5 5 6 3 7 2 8 1 9 14 10 12 12 7 14 8 15
REMARK SMILES IDX 10 17
REMARK H PARENT 14 11 12 13 8 16 10 18
REMARK Flexibility Score: inf
ROOT
ATOM      1  C   UNL     1     -17.380  -9.740  -1.968  1.00  0.00     0.281 C 
ATOM      2  C   UNL     1     -18.699 -10.242  -1.345  1.00  0.00     0.202 C 
ATOM      3  C   UNL     1     -18.490 -11.600  -0.649  1.00  0.00     0.179 C 
ATOM      4  C   UNL     1     -17.805 -12.578  -1.615  1.00  0.00     0.177 C 
ATOM      5  C   UNL     1     -16.532 -11.923  -2.208  1.00  0.00     0.178 C 
ATOM      6  O   UNL     1     -16.858 -10.708  -2.868  1.00  0.00    -0.341 OA
ENDROOT
BRANCH   1   7
ATOM      7  O   UNL     1     -16.442  -9.416  -0.953  1.00  0.00    -0.350 OA
BRANCH   7   8
ATOM      8  C   UNL     1     -16.145  -8.035  -0.987  1.00  0.00     0.160 C 
ATOM      9  C   UNL     1     -16.280  -7.463   0.416  1.00  0.00     0.035 C 
ENDBRANCH   7   8
ENDBRANCH   1   7
BRANCH   2  10
ATOM     10  O   UNL     1     -19.237  -9.287  -0.462  1.00  0.00    -0.385 OA
ATOM     11  H   UNL     1     -19.449  -8.471  -0.987  1.00  0.00     0.211 HD
ENDBRANCH   2  10
BRANCH   3  12
ATOM     12  O   UNL     1     -19.729 -12.133  -0.254  1.00  0.00    -0.387 OA
ATOM     13  H   UNL     1     -19.584 -13.100  -0.083  1.00  0.00     0.211 HD
ENDBRANCH   3  12
BRANCH   5  14
ATOM     14  C   UNL     1     -15.851 -12.844  -3.234  1.00  0.00     0.191 C 
BRANCH  14  15
ATOM     15  O   UNL     1     -16.729 -13.840  -3.688  1.00  0.00    -0.394 OA
ATOM     16  H   UNL     1     -17.630 -13.426  -3.729  1.00  0.00     0.210 HD
ENDBRANCH  14  15
ENDBRANCH   5  14
BRANCH   4  17
ATOM     17  O   UNL     1     -17.470 -13.746  -0.908  1.00  0.00    -0.387 OA
ATOM     18  H   UNL     1     -17.719 -14.518  -1.480  1.00  0.00     0.211 HD
ENDBRANCH   4  17
TORSDOF 7
ENDMDL
MODEL 9
REMARK VINA RESULT:    -5.363      2.295      4.400
REMARK INTER + INTRA:          -7.401
REMARK INTER:                  -7.002
REMARK INTRA:                  -0.399
REMARK UNBOUND:                -0.470
REMARK SMILES CCO[C@H]1O[C@H](CO)[C@@H](O)[C@H](O)[C@H]1O
REMARK SMILES IDX 4 1 13 2 11 3 9 4 6 5 5 6 3 7 2 8 1 9 14 10 12 12 7 14 8 15
REMARK SMILES IDX 10 17
REMARK H PARENT 14 11 12 13 8 16 10 18
REMARK Flexibility Score: inf
ROOT
ATOM      1  C   UNL     1     -17.288 -10.662  -2.230  1.00  0.00     0.281 C 
ATOM      2  C   UNL     1     -15.843 -10.254  -2.586  1.00  0.00     0.202 C 
ATOM      3  C   UNL     1     -14.991 -10.100  -1.311  1.00  0.00     0.179 C 
ATOM      4  C   UNL     1     -15.710  -9.178  -0.315  1.00  0.00     0.177 C 
ATOM      5  C   UNL     1     -17.163  -9.670  -0.099  1.00  0.00     0.178 C 
ATOM      6  O   UNL     1     -17.862  -9.720  -1.335  1.00  0.00    -0.341 OA
ENDROOT
BRANCH   1   7
ATOM      7  O   UNL     1     -17.316 -11.975  -1.691  1.00  0.00    -0.350 OA
BRANCH   7   8
ATOM      8  C   UNL     1     -18.268 -12.763  -2.375  1.00  0.00     0.160 C 
ATOM      9  C   UNL     1     -17.574 -13.980  -2.965  1.00  0.00     0.035 C 
ENDBRANCH   7   8
ENDBRANCH   1   7
BRANCH   2  10
ATOM     10  O   UNL     1     -15.265 -11.169  -3.485  1.00  0.00    -0.385 OA
ATOM     11  H   UNL     1     -15.964 -11.441  -4.135  1.00  0.00     0.211 HD
ENDBRANCH   2  10
BRANCH   3  12
ATOM     12  O   UNL     1     -13.740  -9.548  -1.632  1.00  0.00    -0.387 OA
ATOM     13  H   UNL     1     -13.866  -8.565  -1.686  1.00  0.00     0.211 HD
ENDBRANCH   3  12
BRANCH   5  14
ATOM     14  C   UNL     1     -17.941  -8.734   0.841  1.00  0.00     0.191 C 
BRANCH  14  15
ATOM     15  O   UNL     1     -17.181  -7.604   1.179  1.00  0.00    -0.394 OA
ATOM     16  H   UNL     1     -17.036  -7.642   2.160  1.00  0.00     0.210 HD
ENDBRANCH  14  15
ENDBRANCH   5  14
BRANCH   4  17
ATOM     17  O   UNL     1     -15.003  -9.191   0.899  1.00  0.00    -0.387 OA
ATOM     18  H   UNL     1     -14.705  -8.261   1.077  1.00  0.00     0.211 HD
ENDBRANCH   4  17
TORSDOF 7
ENDMDL
