MODEL 1
REMARK VINA RESULT:    -4.300      0.000      0.000
REMARK INTER + INTRA:          -7.067
REMARK INTER:                  -6.311
REMARK INTRA:                  -0.756
REMARK UNBOUND:                -0.756
REMARK SMILES O=C([O-])CCCCCCCC(=O)[O-]
REMARK SMILES IDX 7 1 6 2 5 3 4 4 2 5 1 6 3 7 8 8 9 9 10 10 11 11 12 12 13 13
REMARK H PARENT
REMARK Flexibility Score: inf
ROOT
ATOM      1  C   UNL     1      61.953  29.378  13.217  1.00  0.00     0.000 C 
ENDROOT
BRANCH   1   2
ATOM      2  C   UNL     1      62.226  30.747  13.869  1.00  0.00     0.000 C 
BRANCH   2   3
ATOM      3  C   UNL     1      61.935  31.972  12.979  1.00  0.00     0.006 C 
BRANCH   3   4
ATOM      4  C   UNL     1      60.453  32.391  12.957  1.00  0.00     0.053 C 
BRANCH   4   5
ATOM      5  C   UNL     1      59.845  32.435  14.325  1.00  0.00     0.041 C 
ATOM      6  O   UNL     1      58.915  31.642  14.632  1.00  0.00    -0.550 OA
ATOM      7  O   UNL     1      60.329  33.325  15.276  1.00  0.00    -0.550 OA
ENDBRANCH   4   5
ENDBRANCH   3   4
ENDBRANCH   2   3
ENDBRANCH   1   2
BRANCH   1   8
ATOM      8  C   UNL     1      60.733  28.616  13.770  1.00  0.00     0.000 C 
BRANCH   8   9
ATOM      9  C   UNL     1      59.737  28.109  12.709  1.00  0.00     0.006 C 
BRANCH   9  10
ATOM     10  C   UNL     1      59.489  29.103  11.559  1.00  0.00     0.053 C 
BRANCH  10  11
ATOM     11  C   UNL     1      59.840  28.527  10.221  1.00  0.00     0.041 C 
ATOM     12  O   UNL     1      58.935  28.275   9.382  1.00  0.00    -0.550 OA
ATOM     13  O   UNL     1      61.163  28.234   9.913  1.00  0.00    -0.550 OA
ENDBRANCH  10  11
ENDBRANCH   9  10
ENDBRANCH   8   9
ENDBRANCH   1   8
TORSDOF 8
ENDMDL
MODEL 2
REMARK VINA RESULT:    -4.281      0.843      4.994
REMARK INTER + INTRA:          -7.039
REMARK INTER:                  -6.339
REMARK INTRA:                  -0.700
REMARK UNBOUND:                -0.756
REMARK SMILES O=C([O-])CCCCCCCC(=O)[O-]
REMARK SMILES IDX 7 1 6 2 5 3 4 4 2 5 1 6 3 7 8 8 9 9 10 10 11 11 12 12 13 13
REMARK H PARENT
REMARK Flexibility Score: inf
ROOT
ATOM      1  C   UNL     1      62.376  28.894  13.293  1.00  0.00     0.000 C 
ENDROOT
BRANCH   1   2
ATOM      2  C   UNL     1      60.920  28.762  13.781  1.00  0.00     0.000 C 
BRANCH   2   3
ATOM      3  C   UNL     1      60.012  27.867  12.916  1.00  0.00     0.006 C 
BRANCH   3   4
ATOM      4  C   UNL     1      59.229  28.632  11.832  1.00  0.00     0.053 C 
BRANCH   4   5
ATOM      5  C   UNL     1      59.968  28.708  10.531  1.00  0.00     0.041 C 
ATOM      6  O   UNL     1      60.859  27.861  10.257  1.00  0.00    -0.550 OA
ATOM      7  O   UNL     1      59.645  29.689   9.602  1.00  0.00    -0.550 OA
ENDBRANCH   4   5
ENDBRANCH   3   4
ENDBRANCH   2   3
ENDBRANCH   1   2
BRANCH   1   8
ATOM      8  C   UNL     1      62.805  30.311  12.870  1.00  0.00     0.000 C 
BRANCH   8   9
ATOM      9  C   UNL     1      61.651  31.304  12.625  1.00  0.00     0.006 C 
BRANCH   9  10
ATOM     10  C   UNL     1      61.640  32.501  13.595  1.00  0.00     0.053 C 
BRANCH  10  11
ATOM     11  C   UNL     1      60.317  32.671  14.277  1.00  0.00     0.041 C 
ATOM     12  O   UNL     1      59.327  31.977  13.924  1.00  0.00    -0.550 OA
ATOM     13  O   UNL     1      60.165  33.625  15.276  1.00  0.00    -0.550 OA
ENDBRANCH  10  11
ENDBRANCH   9  10
ENDBRANCH   8   9
ENDBRANCH   1   8
TORSDOF 8
ENDMDL
MODEL 3
REMARK VINA RESULT:    -4.270     12.423     13.735
REMARK INTER + INTRA:          -7.023
REMARK INTER:                  -6.233
REMARK INTRA:                  -0.791
REMARK UNBOUND:                -0.756
REMARK SMILES O=C([O-])CCCCCCCC(=O)[O-]
REMARK SMILES IDX 7 1 6 2 5 3 4 4 2 5 1 6 3 7 8 8 9 9 10 10 11 11 12 12 13 13
REMARK H PARENT
REMARK Flexibility Score: inf
ROOT
ATOM      1  C   UNL     1      62.820  28.934  25.028  1.00  0.00     0.000 C 
ENDROOT
BRANCH   1   2
ATOM      2  C   UNL     1      61.572  28.272  24.414  1.00  0.00     0.000 C 
BRANCH   2   3
ATOM      3  C   UNL     1      60.631  27.579  25.418  1.00  0.00     0.006 C 
BRANCH   3   4
ATOM      4  C   UNL     1      61.357  26.942  26.618  1.00  0.00     0.053 C 
BRANCH   4   5
ATOM      5  C   UNL     1      60.914  27.514  27.931  1.00  0.00     0.041 C 
ATOM      6  O   UNL     1      60.749  26.761  28.927  1.00  0.00    -0.550 OA
ATOM      7  O   UNL     1      60.721  28.883  28.066  1.00  0.00    -0.550 OA
ENDBRANCH   4   5
ENDBRANCH   3   4
ENDBRANCH   2   3
ENDBRANCH   1   2
BRANCH   1   8
ATOM      8  C   UNL     1      64.143  28.666  24.284  1.00  0.00     0.000 C 
BRANCH   8   9
ATOM      9  C   UNL     1      65.164  27.800  25.047  1.00  0.00     0.006 C 
BRANCH   9  10
ATOM     10  C   UNL     1      64.718  26.340  25.251  1.00  0.00     0.053 C 
BRANCH  10  11
ATOM     11  C   UNL     1      64.418  25.649  23.956  1.00  0.00     0.041 C 
ATOM     12  O   UNL     1      63.252  25.241  23.709  1.00  0.00    -0.550 OA
ATOM     13  O   UNL     1      65.434  25.419  23.035  1.00  0.00    -0.550 OA
ENDBRANCH  10  11
ENDBRANCH   9  10
ENDBRANCH   8   9
ENDBRANCH   1   8
TORSDOF 8
ENDMDL
MODEL 4
REMARK VINA RESULT:    -4.269      0.792      5.126
REMARK INTER + INTRA:          -7.021
REMARK INTER:                  -6.290
REMARK INTRA:                  -0.731
REMARK UNBOUND:                -0.756
REMARK SMILES O=C([O-])CCCCCCCC(=O)[O-]
REMARK SMILES IDX 7 1 6 2 5 3 4 4 2 5 1 6 3 7 8 8 9 9 10 10 11 11 12 12 13 13
REMARK H PARENT
REMARK Flexibility Score: inf
ROOT
ATOM      1  C   UNL     1      60.963  28.745  13.744  1.00  0.00     0.000 C 
ENDROOT
BRANCH   1   2
ATOM      2  C   UNL     1      60.280  27.955  12.611  1.00  0.00     0.000 C 
BRANCH   2   3
ATOM      3  C   UNL     1      59.291  28.762  11.747  1.00  0.00     0.006 C 
BRANCH   3   4
ATOM      4  C   UNL     1      59.920  29.368  10.479  1.00  0.00     0.053 C 
BRANCH   4   5
ATOM      5  C   UNL     1      60.880  28.434   9.807  1.00  0.00     0.041 C 
ATOM      6  O   UNL     1      60.451  27.497   9.083  1.00  0.00    -0.550 OA
ATOM      7  O   UNL     1      62.249  28.621   9.947  1.00  0.00    -0.550 OA
ENDBRANCH   4   5
ENDBRANCH   3   4
ENDBRANCH   2   3
ENDBRANCH   1   2
BRANCH   1   8
ATOM      8  C   UNL     1      62.181  29.587  13.320  1.00  0.00     0.000 C 
BRANCH   8   9
ATOM      9  C   UNL     1      62.163  31.055  13.787  1.00  0.00     0.006 C 
BRANCH   9  10
ATOM     10  C   UNL     1      61.124  31.930  13.060  1.00  0.00     0.053 C 
BRANCH  10  11
ATOM     11  C   UNL     1      60.013  32.369  13.964  1.00  0.00     0.041 C 
ATOM     12  O   UNL     1      60.127  33.423  14.644  1.00  0.00    -0.550 OA
ATOM     13  O   UNL     1      58.866  31.595  14.087  1.00  0.00    -0.550 OA
ENDBRANCH  10  11
ENDBRANCH   9  10
ENDBRANCH   8   9
ENDBRANCH   1   8
TORSDOF 8
ENDMDL
MODEL 5
REMARK VINA RESULT:    -4.178     12.349     14.288
REMARK INTER + INTRA:          -6.888
REMARK INTER:                  -6.246
REMARK INTRA:                  -0.642
REMARK UNBOUND:                -0.756
REMARK SMILES O=C([O-])CCCCCCCC(=O)[O-]
REMARK SMILES IDX 7 1 6 2 5 3 4 4 2 5 1 6 3 7 8 8 9 9 10 10 11 11 12 12 13 13
REMARK H PARENT
REMARK Flexibility Score: inf
ROOT
ATOM      1  C   UNL     1      61.566  28.893  24.719  1.00  0.00     0.000 C 
ENDROOT
BRANCH   1   2
ATOM      2  C   UNL     1      62.234  28.224  23.503  1.00  0.00     0.000 C 
BRANCH   2   3
ATOM      3  C   UNL     1      63.772  28.306  23.466  1.00  0.00     0.006 C 
BRANCH   3   4
ATOM      4  C   UNL     1      64.468  26.939  23.328  1.00  0.00     0.053 C 
BRANCH   4   5
ATOM      5  C   UNL     1      63.992  25.943  24.342  1.00  0.00     0.041 C 
ATOM      6  O   UNL     1      63.153  25.060  24.019  1.00  0.00    -0.550 OA
ATOM      7  O   UNL     1      64.502  25.965  25.634  1.00  0.00    -0.550 OA
ENDBRANCH   4   5
ENDBRANCH   3   4
ENDBRANCH   2   3
ENDBRANCH   1   2
BRANCH   1   8
ATOM      8  C   UNL     1      60.510  28.038  25.446  1.00  0.00     0.000 C 
BRANCH   8   9
ATOM      9  C   UNL     1      61.058  27.102  26.541  1.00  0.00     0.006 C 
BRANCH   9  10
ATOM     10  C   UNL     1      62.056  27.780  27.499  1.00  0.00     0.053 C 
BRANCH  10  11
ATOM     11  C   UNL     1      61.415  28.852  28.327  1.00  0.00     0.041 C 
ATOM     12  O   UNL     1      60.397  28.593  29.022  1.00  0.00    -0.550 OA
ATOM     13  O   UNL     1      61.918  30.147  28.302  1.00  0.00    -0.550 OA
ENDBRANCH  10  11
ENDBRANCH   9  10
ENDBRANCH   8   9
ENDBRANCH   1   8
TORSDOF 8
ENDMDL
MODEL 6
REMARK VINA RESULT:    -4.149      1.611      2.242
REMARK INTER + INTRA:          -6.846
REMARK INTER:                  -6.160
REMARK INTRA:                  -0.686
REMARK UNBOUND:                -0.756
REMARK SMILES O=C([O-])CCCCCCCC(=O)[O-]
REMARK SMILES IDX 7 1 6 2 5 3 4 4 2 5 1 6 3 7 8 8 9 9 10 10 11 11 12 12 13 13
REMARK H PARENT
REMARK Flexibility Score: inf
ROOT
ATOM      1  C   UNL     1      62.872  31.057  12.277  1.00  0.00     0.000 C 
ENDROOT
BRANCH   1   2
ATOM      2  C   UNL     1      62.205  32.227  13.025  1.00  0.00     0.000 C 
BRANCH   2   3
ATOM      3  C   UNL     1      60.664  32.218  13.024  1.00  0.00     0.006 C 
BRANCH   3   4
ATOM      4  C   UNL     1      60.036  32.703  14.344  1.00  0.00     0.053 C 
BRANCH   4   5
ATOM      5  C   UNL     1      60.638  32.045  15.547  1.00  0.00     0.041 C 
ATOM      6  O   UNL     1      60.545  30.798  15.701  1.00  0.00    -0.550 OA
ATOM      7  O   UNL     1      61.336  32.801  16.481  1.00  0.00    -0.550 OA
ENDBRANCH   4   5
ENDBRANCH   3   4
ENDBRANCH   2   3
ENDBRANCH   1   2
BRANCH   1   8
ATOM      8  C   UNL     1      62.798  29.692  12.987  1.00  0.00     0.000 C 
BRANCH   8   9
ATOM      9  C   UNL     1      61.852  28.661  12.339  1.00  0.00     0.006 C 
BRANCH   9  10
ATOM     10  C   UNL     1      60.648  28.278  13.220  1.00  0.00     0.053 C 
BRANCH  10  11
ATOM     11  C   UNL     1      59.344  28.402  12.492  1.00  0.00     0.041 C 
ATOM     12  O   UNL     1      59.226  29.215  11.537  1.00  0.00    -0.550 OA
ATOM     13  O   UNL     1      58.247  27.649  12.892  1.00  0.00    -0.550 OA
ENDBRANCH  10  11
ENDBRANCH   9  10
ENDBRANCH   8   9
ENDBRANCH   1   8
TORSDOF 8
ENDMDL
MODEL 7
REMARK VINA RESULT:    -4.127     12.300     14.153
REMARK INTER + INTRA:          -6.814
REMARK INTER:                  -6.112
REMARK INTRA:                  -0.701
REMARK UNBOUND:                -0.756
REMARK SMILES O=C([O-])CCCCCCCC(=O)[O-]
REMARK SMILES IDX 7 1 6 2 5 3 4 4 2 5 1 6 3 7 8 8 9 9 10 10 11 11 12 12 13 13
REMARK H PARENT
REMARK Flexibility Score: inf
ROOT
ATOM      1  C   UNL     1      63.071  29.154  24.650  1.00  0.00     0.000 C 
ENDROOT
BRANCH   1   2
ATOM      2  C   UNL     1      64.371  28.718  23.947  1.00  0.00     0.000 C 
BRANCH   2   3
ATOM      3  C   UNL     1      65.344  27.892  24.811  1.00  0.00     0.006 C 
BRANCH   3   4
ATOM      4  C   UNL     1      64.841  26.473  25.136  1.00  0.00     0.053 C 
BRANCH   4   5
ATOM      5  C   UNL     1      64.540  25.671  23.907  1.00  0.00     0.041 C 
ATOM      6  O   UNL     1      65.466  25.350  23.116  1.00  0.00    -0.550 OA
ATOM      7  O   UNL     1      63.242  25.244  23.653  1.00  0.00    -0.550 OA
ENDBRANCH   4   5
ENDBRANCH   3   4
ENDBRANCH   2   3
ENDBRANCH   1   2
BRANCH   1   8
ATOM      8  C   UNL     1      61.809  28.367  24.249  1.00  0.00     0.000 C 
BRANCH   8   9
ATOM      9  C   UNL     1      60.861  28.006  25.409  1.00  0.00     0.006 C 
BRANCH   9  10
ATOM     10  C   UNL     1      61.450  26.987  26.403  1.00  0.00     0.053 C 
BRANCH  10  11
ATOM     11  C   UNL     1      61.247  27.397  27.830  1.00  0.00     0.041 C 
ATOM     12  O   UNL     1      61.510  26.594  28.764  1.00  0.00    -0.550 OA
ATOM     13  O   UNL     1      60.730  28.651  28.128  1.00  0.00    -0.550 OA
ENDBRANCH  10  11
ENDBRANCH   9  10
ENDBRANCH   8   9
ENDBRANCH   1   8
TORSDOF 8
ENDMDL
MODEL 8
REMARK VINA RESULT:    -4.124      1.139      1.589
REMARK INTER + INTRA:          -6.809
REMARK INTER:                  -6.166
REMARK INTRA:                  -0.642
REMARK UNBOUND:                -0.756
REMARK SMILES O=C([O-])CCCCCCCC(=O)[O-]
REMARK SMILES IDX 7 1 6 2 5 3 4 4 2 5 1 6 3 7 8 8 9 9 10 10 11 11 12 12 13 13
REMARK H PARENT
REMARK Flexibility Score: inf
ROOT
ATOM      1  C   UNL     1      61.661  29.053  13.609  1.00  0.00     0.000 C 
ENDROOT
BRANCH   1   2
ATOM      2  C   UNL     1      62.110  30.183  14.555  1.00  0.00     0.000 C 
BRANCH   2   3
ATOM      3  C   UNL     1      62.304  31.561  13.893  1.00  0.00     0.006 C 
BRANCH   3   4
ATOM      4  C   UNL     1      61.032  32.121  13.230  1.00  0.00     0.053 C 
BRANCH   4   5
ATOM      5  C   UNL     1      59.924  32.354  14.211  1.00  0.00     0.041 C 
ATOM      6  O   UNL     1      58.881  31.650  14.169  1.00  0.00    -0.550 OA
ATOM      7  O   UNL     1      60.058  33.323  15.197  1.00  0.00    -0.550 OA
ENDBRANCH   4   5
ENDBRANCH   3   4
ENDBRANCH   2   3
ENDBRANCH   1   2
BRANCH   1   8
ATOM      8  C   UNL     1      62.591  28.789  12.409  1.00  0.00     0.000 C 
BRANCH   8   9
ATOM      9  C   UNL     1      62.037  29.222  11.038  1.00  0.00     0.006 C 
BRANCH   9  10
ATOM     10  C   UNL     1      61.105  28.185  10.384  1.00  0.00     0.053 C 
BRANCH  10  11
ATOM     11  C   UNL     1      59.696  28.680  10.259  1.00  0.00     0.041 C 
ATOM     12  O   UNL     1      59.238  29.507  11.091  1.00  0.00    -0.550 OA
ATOM     13  O   UNL     1      58.876  28.199   9.246  1.00  0.00    -0.550 OA
ENDBRANCH  10  11
ENDBRANCH   9  10
ENDBRANCH   8   9
ENDBRANCH   1   8
TORSDOF 8
ENDMDL
MODEL 9
REMARK VINA RESULT:    -4.103      1.660      4.986
REMARK INTER + INTRA:          -6.779
REMARK INTER:                  -6.128
REMARK INTRA:                  -0.651
REMARK UNBOUND:                -0.756
REMARK SMILES O=C([O-])CCCCCCCC(=O)[O-]
REMARK SMILES IDX 7 1 6 2 5 3 4 4 2 5 1 6 3 7 8 8 9 9 10 10 11 11 12 12 13 13
REMARK H PARENT
REMARK Flexibility Score: inf
ROOT
ATOM      1  C   UNL     1      61.824  28.596  12.823  1.00  0.00     0.000 C 
ENDROOT
BRANCH   1   2
ATOM      2  C   UNL     1      62.462  29.562  11.807  1.00  0.00     0.000 C 
BRANCH   2   3
ATOM      3  C   UNL     1      62.939  28.916  10.491  1.00  0.00     0.006 C 
BRANCH   3   4
ATOM      4  C   UNL     1      62.134  29.353   9.253  1.00  0.00     0.053 C 
BRANCH   4   5
ATOM      5  C   UNL     1      60.754  28.770   9.225  1.00  0.00     0.041 C 
ATOM      6  O   UNL     1      60.594  27.521   9.231  1.00  0.00    -0.550 OA
ATOM      7  O   UNL     1      59.644  29.604   9.232  1.00  0.00    -0.550 OA
ENDBRANCH   4   5
ENDBRANCH   3   4
ENDBRANCH   2   3
ENDBRANCH   1   2
BRANCH   1   8
ATOM      8  C   UNL     1      60.421  28.993  13.319  1.00  0.00     0.000 C 
BRANCH   8   9
ATOM      9  C   UNL     1      59.836  30.273  12.691  1.00  0.00     0.006 C 
BRANCH   9  10
ATOM     10  C   UNL     1      59.338  31.304  13.722  1.00  0.00     0.053 C 
BRANCH  10  11
ATOM     11  C   UNL     1      60.293  32.445  13.897  1.00  0.00     0.041 C 
ATOM     12  O   UNL     1      61.299  32.551  13.146  1.00  0.00    -0.550 OA
ATOM     13  O   UNL     1      60.095  33.371  14.913  1.00  0.00    -0.550 OA
ENDBRANCH  10  11
ENDBRANCH   9  10
ENDBRANCH   8   9
ENDBRANCH   1   8
TORSDOF 8
ENDMDL
