MODEL 1
REMARK VINA RESULT:    -5.725      0.000      0.000
REMARK INTER + INTRA:          -7.239
REMARK INTER:                  -7.064
REMARK INTRA:                  -0.175
REMARK UNBOUND:                -0.175
REMARK SMILES O=c1c(O)c(-c2cc(O)c(O)c(O)c2)oc2cc(O)cc(O)c12
REMARK SMILES IDX 5 1 3 2 2 3 1 4 23 5 21 6 20 7 18 8 17 9 16 10 15 11 6 12
REMARK SMILES IDX 7 13 8 14 14 15 10 16 12 17 9 18 11 20 13 22 4 24 22 26
REMARK SMILES IDX 19 28
REMARK H PARENT 9 19 11 21 13 23 4 25 22 27 19 29
REMARK Flexibility Score: inf
ROOT
ATOM      1  C   UNL     1      31.141 -92.154  37.253  1.00  0.00     0.180 A 
ATOM      2  C   UNL     1      29.914 -92.768  36.949  1.00  0.00     0.208 A 
ATOM      3  C   UNL     1      29.799 -94.162  37.081  1.00  0.00     0.238 A 
ATOM      4  O   UNL     1      28.722 -94.713  36.736  1.00  0.00    -0.285 OA
ATOM      5  C   UNL     1      30.894 -94.917  37.568  1.00  0.00     0.111 A 
ATOM      6  C   UNL     1      30.876 -96.328  37.785  1.00  0.00     0.134 A 
ATOM      7  C   UNL     1      32.052 -96.983  38.169  1.00  0.00     0.093 A 
ATOM      8  C   UNL     1      33.228 -96.272  38.407  1.00  0.00     0.123 A 
ATOM      9  C   UNL     1      33.243 -94.886  38.252  1.00  0.00     0.094 A 
ATOM     10  C   UNL     1      32.096 -94.208  37.832  1.00  0.00     0.146 A 
ATOM     11  O   UNL     1      32.160 -92.891  37.677  1.00  0.00    -0.452 OA
ENDROOT
BRANCH   1  12
ATOM     12  C   UNL     1      31.343 -90.692  37.125  1.00  0.00     0.029 A 
ATOM     13  C   UNL     1      32.293 -90.160  36.241  1.00  0.00     0.062 A 
ATOM     14  C   UNL     1      32.487 -88.778  36.150  1.00  0.00     0.162 A 
ATOM     15  C   UNL     1      30.613 -89.822  37.947  1.00  0.00     0.062 A 
ATOM     16  C   UNL     1      31.738 -87.903  36.957  1.00  0.00     0.200 A 
ATOM     17  C   UNL     1      30.794 -88.436  37.869  1.00  0.00     0.162 A 
BRANCH  14  18
ATOM     18  O   UNL     1      33.438 -88.294  35.252  1.00  0.00    -0.504 OA
ATOM     19  H   UNL     1      33.330 -87.406  34.778  1.00  0.00     0.293 HD
ENDBRANCH  14  18
BRANCH  16  20
ATOM     20  O   UNL     1      31.957 -86.529  36.829  1.00  0.00    -0.502 OA
ATOM     21  H   UNL     1      32.758 -86.123  36.367  1.00  0.00     0.293 HD
ENDBRANCH  16  20
BRANCH  17  22
ATOM     22  O   UNL     1      30.022 -87.633  38.711  1.00  0.00    -0.504 OA
ATOM     23  H   UNL     1      30.400 -86.934  39.333  1.00  0.00     0.293 HD
ENDBRANCH  17  22
ENDBRANCH   1  12
BRANCH   2  24
ATOM     24  O   UNL     1      28.822 -91.997  36.543  1.00  0.00    -0.502 OA
ATOM     25  H   UNL     1      27.994 -92.404  36.125  1.00  0.00     0.293 HD
ENDBRANCH   2  24
BRANCH   6  26
ATOM     26  O   UNL     1      29.733 -97.124  37.662  1.00  0.00    -0.507 OA
ATOM     27  H   UNL     1      29.637 -97.904  37.029  1.00  0.00     0.293 HD
ENDBRANCH   6  26
BRANCH   8  28
ATOM     28  O   UNL     1      34.375 -96.955  38.805  1.00  0.00    -0.508 OA
ATOM     29  H   UNL     1      34.539 -97.193  39.776  1.00  0.00     0.293 HD
ENDBRANCH   8  28
TORSDOF 7
ENDMDL
MODEL 2
REMARK VINA RESULT:    -5.278     15.744     17.131
REMARK INTER + INTRA:          -6.687
REMARK INTER:                  -7.075
REMARK INTRA:                   0.388
REMARK UNBOUND:                -0.175
REMARK SMILES O=c1c(O)c(-c2cc(O)c(O)c(O)c2)oc2cc(O)cc(O)c12
REMARK SMILES IDX 5 1 3 2 2 3 1 4 23 5 21 6 20 7 18 8 17 9 16 10 15 11 6 12
REMARK SMILES IDX 7 13 8 14 14 15 10 16 12 17 9 18 11 20 13 22 4 24 22 26
REMARK SMILES IDX 19 28
REMARK H PARENT 9 19 11 21 13 23 4 25 22 27 19 29
REMARK Flexibility Score: inf
ROOT
ATOM      1  C   UNL     1      38.033 -77.626  34.112  1.00  0.00     0.180 A 
ATOM      2  C   UNL     1      36.628 -77.652  34.127  1.00  0.00     0.208 A 
ATOM      3  C   UNL     1      35.961 -77.701  35.363  1.00  0.00     0.238 A 
ATOM      4  O   UNL     1      34.707 -77.800  35.367  1.00  0.00    -0.285 OA
ATOM      5  C   UNL     1      36.705 -77.667  36.567  1.00  0.00     0.111 A 
ATOM      6  C   UNL     1      36.133 -77.667  37.875  1.00  0.00     0.134 A 
ATOM      7  C   UNL     1      36.970 -77.739  38.996  1.00  0.00     0.093 A 
ATOM      8  C   UNL     1      38.357 -77.747  38.859  1.00  0.00     0.123 A 
ATOM      9  C   UNL     1      38.929 -77.692  37.587  1.00  0.00     0.094 A 
ATOM     10  C   UNL     1      38.120 -77.659  36.449  1.00  0.00     0.146 A 
ATOM     11  O   UNL     1      38.705 -77.628  35.257  1.00  0.00    -0.452 OA
ENDROOT
BRANCH   1  12
ATOM     12  C   UNL     1      38.806 -77.588  32.850  1.00  0.00     0.029 A 
ATOM     13  C   UNL     1      38.201 -77.242  31.632  1.00  0.00     0.062 A 
ATOM     14  C   UNL     1      38.940 -77.234  30.446  1.00  0.00     0.162 A 
ATOM     15  C   UNL     1      40.156 -77.964  32.857  1.00  0.00     0.062 A 
ATOM     16  C   UNL     1      40.301 -77.588  30.456  1.00  0.00     0.200 A 
ATOM     17  C   UNL     1      40.911 -77.962  31.679  1.00  0.00     0.162 A 
BRANCH  14  18
ATOM     18  O   UNL     1      38.298 -76.876  29.260  1.00  0.00    -0.504 OA
ATOM     19  H   UNL     1      37.895 -77.563  28.635  1.00  0.00     0.293 HD
ENDBRANCH  14  18
BRANCH  16  20
ATOM     20  O   UNL     1      41.006 -77.559  29.250  1.00  0.00    -0.502 OA
ATOM     21  H   UNL     1      41.626 -78.292  28.937  1.00  0.00     0.293 HD
ENDBRANCH  16  20
BRANCH  17  22
ATOM     22  O   UNL     1      42.254 -78.337  31.768  1.00  0.00    -0.504 OA
ATOM     23  H   UNL     1      42.697 -78.659  32.616  1.00  0.00     0.293 HD
ENDBRANCH  17  22
ENDBRANCH   1  12
BRANCH   2  24
ATOM     24  O   UNL     1      35.910 -77.608  32.929  1.00  0.00    -0.502 OA
ATOM     25  H   UNL     1      34.930 -77.355  32.891  1.00  0.00     0.293 HD
ENDBRANCH   2  24
BRANCH   6  26
ATOM     26  O   UNL     1      34.761 -77.573  38.131  1.00  0.00    -0.507 OA
ATOM     27  H   UNL     1      34.163 -76.827  37.808  1.00  0.00     0.293 HD
ENDBRANCH   6  26
BRANCH   8  28
ATOM     28  O   UNL     1      39.160 -77.802  39.996  1.00  0.00    -0.508 OA
ATOM     29  H   UNL     1      38.770 -77.993  40.911  1.00  0.00     0.293 HD
ENDBRANCH   8  28
TORSDOF 7
ENDMDL
MODEL 3
REMARK VINA RESULT:    -5.268     15.323     17.220
REMARK INTER + INTRA:          -6.675
REMARK INTER:                  -7.109
REMARK INTRA:                   0.434
REMARK UNBOUND:                -0.175
REMARK SMILES O=c1c(O)c(-c2cc(O)c(O)c(O)c2)oc2cc(O)cc(O)c12
REMARK SMILES IDX 5 1 3 2 2 3 1 4 23 5 21 6 20 7 18 8 17 9 16 10 15 11 6 12
REMARK SMILES IDX 7 13 8 14 14 15 10 16 12 17 9 18 11 20 13 22 4 24 22 26
REMARK SMILES IDX 19 28
REMARK H PARENT 9 19 11 21 13 23 4 25 22 27 19 29
REMARK Flexibility Score: inf
ROOT
ATOM      1  C   UNL     1      37.879 -77.611  33.928  1.00  0.00     0.180 A 
ATOM      2  C   UNL     1      38.429 -77.613  35.222  1.00  0.00     0.208 A 
ATOM      3  C   UNL     1      37.564 -77.619  36.329  1.00  0.00     0.238 A 
ATOM      4  O   UNL     1      38.062 -77.545  37.482  1.00  0.00    -0.285 OA
ATOM      5  C   UNL     1      36.163 -77.678  36.130  1.00  0.00     0.111 A 
ATOM      6  C   UNL     1      35.195 -77.733  37.177  1.00  0.00     0.134 A 
ATOM      7  C   UNL     1      33.832 -77.681  36.862  1.00  0.00     0.093 A 
ATOM      8  C   UNL     1      33.400 -77.641  35.537  1.00  0.00     0.123 A 
ATOM      9  C   UNL     1      34.336 -77.643  34.503  1.00  0.00     0.094 A 
ATOM     10  C   UNL     1      35.704 -77.654  34.786  1.00  0.00     0.146 A 
ATOM     11  O   UNL     1      36.561 -77.633  33.772  1.00  0.00    -0.452 OA
ENDROOT
BRANCH   1  12
ATOM     12  C   UNL     1      38.725 -77.591  32.713  1.00  0.00     0.029 A 
ATOM     13  C   UNL     1      38.193 -77.263  31.457  1.00  0.00     0.062 A 
ATOM     14  C   UNL     1      39.002 -77.272  30.316  1.00  0.00     0.162 A 
ATOM     15  C   UNL     1      40.072 -77.967  32.806  1.00  0.00     0.062 A 
ATOM     16  C   UNL     1      40.360 -77.626  30.413  1.00  0.00     0.200 A 
ATOM     17  C   UNL     1      40.896 -77.983  31.675  1.00  0.00     0.162 A 
BRANCH  14  18
ATOM     18  O   UNL     1      38.432 -76.931  29.090  1.00  0.00    -0.504 OA
ATOM     19  H   UNL     1      37.547 -77.313  28.780  1.00  0.00     0.293 HD
ENDBRANCH  14  18
BRANCH  16  20
ATOM     20  O   UNL     1      41.135 -77.615  29.250  1.00  0.00    -0.502 OA
ATOM     21  H   UNL     1      40.912 -77.076  28.426  1.00  0.00     0.293 HD
ENDBRANCH  16  20
BRANCH  17  22
ATOM     22  O   UNL     1      42.230 -78.356  31.850  1.00  0.00    -0.504 OA
ATOM     23  H   UNL     1      42.749 -78.224  32.705  1.00  0.00     0.293 HD
ENDBRANCH  17  22
ENDBRANCH   1  12
BRANCH   2  24
ATOM     24  O   UNL     1      39.815 -77.632  35.397  1.00  0.00    -0.502 OA
ATOM     25  H   UNL     1      40.455 -77.862  34.647  1.00  0.00     0.293 HD
ENDBRANCH   2  24
BRANCH   6  26
ATOM     26  O   UNL     1      35.514 -77.863  38.533  1.00  0.00    -0.507 OA
ATOM     27  H   UNL     1      35.536 -78.735  39.040  1.00  0.00     0.293 HD
ENDBRANCH   6  26
BRANCH   8  28
ATOM     28  O   UNL     1      32.035 -77.608  35.260  1.00  0.00    -0.508 OA
ATOM     29  H   UNL     1      31.684 -77.280  34.368  1.00  0.00     0.293 HD
ENDBRANCH   8  28
TORSDOF 7
ENDMDL
MODEL 4
REMARK VINA RESULT:    -5.262      9.225     10.816
REMARK INTER + INTRA:          -6.668
REMARK INTER:                  -6.438
REMARK INTRA:                  -0.229
REMARK UNBOUND:                -0.175
REMARK SMILES O=c1c(O)c(-c2cc(O)c(O)c(O)c2)oc2cc(O)cc(O)c12
REMARK SMILES IDX 5 1 3 2 2 3 1 4 23 5 21 6 20 7 18 8 17 9 16 10 15 11 6 12
REMARK SMILES IDX 7 13 8 14 14 15 10 16 12 17 9 18 11 20 13 22 4 24 22 26
REMARK SMILES IDX 19 28
REMARK H PARENT 9 19 11 21 13 23 4 25 22 27 19 29
REMARK Flexibility Score: inf
ROOT
ATOM      1  C   UNL     1      36.929 -95.553  30.080  1.00  0.00     0.180 A 
ATOM      2  C   UNL     1      37.978 -96.003  29.259  1.00  0.00     0.208 A 
ATOM      3  C   UNL     1      39.289 -95.994  29.765  1.00  0.00     0.238 A 
ATOM      4  O   UNL     1      40.231 -96.327  29.000  1.00  0.00    -0.285 OA
ATOM      5  C   UNL     1      39.528 -95.588  31.100  1.00  0.00     0.111 A 
ATOM      6  C   UNL     1      40.808 -95.581  31.731  1.00  0.00     0.134 A 
ATOM      7  C   UNL     1      40.940 -95.057  33.022  1.00  0.00     0.093 A 
ATOM      8  C   UNL     1      39.830 -94.601  33.731  1.00  0.00     0.123 A 
ATOM      9  C   UNL     1      38.564 -94.654  33.146  1.00  0.00     0.094 A 
ATOM     10  C   UNL     1      38.406 -95.134  31.844  1.00  0.00     0.146 A 
ATOM     11  O   UNL     1      37.188 -95.147  31.317  1.00  0.00    -0.452 OA
ENDROOT
BRANCH   1  12
ATOM     12  C   UNL     1      35.524 -95.521  29.614  1.00  0.00     0.029 A 
ATOM     13  C   UNL     1      35.117 -94.664  28.580  1.00  0.00     0.062 A 
ATOM     14  C   UNL     1      33.781 -94.629  28.168  1.00  0.00     0.162 A 
ATOM     15  C   UNL     1      34.566 -96.316  30.257  1.00  0.00     0.062 A 
ATOM     16  C   UNL     1      32.824 -95.445  28.797  1.00  0.00     0.200 A 
ATOM     17  C   UNL     1      33.225 -96.293  29.858  1.00  0.00     0.162 A 
BRANCH  14  18
ATOM     18  O   UNL     1      33.423 -93.768  27.130  1.00  0.00    -0.504 OA
ATOM     19  H   UNL     1      34.106 -93.381  26.490  1.00  0.00     0.293 HD
ENDBRANCH  14  18
BRANCH  16  20
ATOM     20  O   UNL     1      31.501 -95.385  28.350  1.00  0.00    -0.502 OA
ATOM     21  H   UNL     1      31.182 -94.785  27.603  1.00  0.00     0.293 HD
ENDBRANCH  16  20
BRANCH  17  22
ATOM     22  O   UNL     1      32.332 -97.123  30.540  1.00  0.00    -0.504 OA
ATOM     23  H   UNL     1      31.545 -96.790  31.077  1.00  0.00     0.293 HD
ENDBRANCH  17  22
ENDBRANCH   1  12
BRANCH   2  24
ATOM     24  O   UNL     1      37.712 -96.472  27.970  1.00  0.00    -0.502 OA
ATOM     25  H   UNL     1      37.858 -97.438  27.702  1.00  0.00     0.293 HD
ENDBRANCH   2  24
BRANCH   6  26
ATOM     26  O   UNL     1      41.971 -96.094  31.148  1.00  0.00    -0.507 OA
ATOM     27  H   UNL     1      42.097 -97.051  30.854  1.00  0.00     0.293 HD
ENDBRANCH   6  26
BRANCH   8  28
ATOM     28  O   UNL     1      39.995 -94.103  35.022  1.00  0.00    -0.508 OA
ATOM     29  H   UNL     1      39.656 -93.185  35.283  1.00  0.00     0.293 HD
ENDBRANCH   8  28
TORSDOF 7
ENDMDL
MODEL 5
REMARK VINA RESULT:    -5.186      8.979     11.442
REMARK INTER + INTRA:          -6.575
REMARK INTER:                  -6.892
REMARK INTRA:                   0.318
REMARK UNBOUND:                -0.175
REMARK SMILES O=c1c(O)c(-c2cc(O)c(O)c(O)c2)oc2cc(O)cc(O)c12
REMARK SMILES IDX 5 1 3 2 2 3 1 4 23 5 21 6 20 7 18 8 17 9 16 10 15 11 6 12
REMARK SMILES IDX 7 13 8 14 14 15 10 16 12 17 9 18 11 20 13 22 4 24 22 26
REMARK SMILES IDX 19 28
REMARK H PARENT 9 19 11 21 13 23 4 25 22 27 19 29
REMARK Flexibility Score: inf
ROOT
ATOM      1  C   UNL     1      40.923 -95.290  35.466  1.00  0.00     0.180 A 
ATOM      2  C   UNL     1      42.045 -95.431  34.631  1.00  0.00     0.208 A 
ATOM      3  C   UNL     1      41.856 -95.474  33.240  1.00  0.00     0.238 A 
ATOM      4  O   UNL     1      42.856 -95.676  32.503  1.00  0.00    -0.285 OA
ATOM      5  C   UNL     1      40.557 -95.321  32.699  1.00  0.00     0.111 A 
ATOM      6  C   UNL     1      40.254 -95.304  31.304  1.00  0.00     0.134 A 
ATOM      7  C   UNL     1      38.919 -95.252  30.886  1.00  0.00     0.093 A 
ATOM      8  C   UNL     1      37.879 -95.152  31.810  1.00  0.00     0.123 A 
ATOM      9  C   UNL     1      38.166 -95.112  33.175  1.00  0.00     0.094 A 
ATOM     10  C   UNL     1      39.486 -95.201  33.624  1.00  0.00     0.146 A 
ATOM     11  O   UNL     1      39.713 -95.181  34.932  1.00  0.00    -0.452 OA
ENDROOT
BRANCH   1  12
ATOM     12  C   UNL     1      41.040 -95.250  36.942  1.00  0.00     0.029 A 
ATOM     13  C   UNL     1      42.154 -95.791  37.601  1.00  0.00     0.062 A 
ATOM     14  C   UNL     1      42.238 -95.766  38.997  1.00  0.00     0.162 A 
ATOM     15  C   UNL     1      39.991 -94.717  37.702  1.00  0.00     0.062 A 
ATOM     16  C   UNL     1      41.195 -95.209  39.759  1.00  0.00     0.200 A 
ATOM     17  C   UNL     1      40.057 -94.684  39.100  1.00  0.00     0.162 A 
BRANCH  14  18
ATOM     18  O   UNL     1      43.368 -96.308  39.609  1.00  0.00    -0.504 OA
ATOM     19  H   UNL     1      43.439 -97.293  39.836  1.00  0.00     0.293 HD
ENDBRANCH  14  18
BRANCH  16  20
ATOM     20  O   UNL     1      41.323 -95.196  41.151  1.00  0.00    -0.502 OA
ATOM     21  H   UNL     1      41.565 -96.005  41.705  1.00  0.00     0.293 HD
ENDBRANCH  16  20
BRANCH  17  22
ATOM     22  O   UNL     1      38.978 -94.125  39.787  1.00  0.00    -0.504 OA
ATOM     23  H   UNL     1      39.034 -93.287  40.347  1.00  0.00     0.293 HD
ENDBRANCH  17  22
ENDBRANCH   1  12
BRANCH   2  24
ATOM     24  O   UNL     1      43.327 -95.505  35.181  1.00  0.00    -0.502 OA
ATOM     25  H   UNL     1      44.140 -95.117  34.719  1.00  0.00     0.293 HD
ENDBRANCH   2  24
BRANCH   6  26
ATOM     26  O   UNL     1      41.220 -95.310  30.292  1.00  0.00    -0.507 OA
ATOM     27  H   UNL     1      41.086 -94.943  29.362  1.00  0.00     0.293 HD
ENDBRANCH   6  26
BRANCH   8  28
ATOM     28  O   UNL     1      36.562 -95.085  31.359  1.00  0.00    -0.508 OA
ATOM     29  H   UNL     1      35.786 -95.367  31.946  1.00  0.00     0.293 HD
ENDBRANCH   8  28
TORSDOF 7
ENDMDL
MODEL 6
REMARK VINA RESULT:    -5.053      9.097     10.992
REMARK INTER + INTRA:          -6.410
REMARK INTER:                  -6.398
REMARK INTRA:                  -0.012
REMARK UNBOUND:                -0.175
REMARK SMILES O=c1c(O)c(-c2cc(O)c(O)c(O)c2)oc2cc(O)cc(O)c12
REMARK SMILES IDX 5 1 3 2 2 3 1 4 23 5 21 6 20 7 18 8 17 9 16 10 15 11 6 12
REMARK SMILES IDX 7 13 8 14 14 15 10 16 12 17 9 18 11 20 13 22 4 24 22 26
REMARK SMILES IDX 19 28
REMARK H PARENT 9 19 11 21 13 23 4 25 22 27 19 29
REMARK Flexibility Score: inf
ROOT
ATOM      1  C   UNL     1      38.560 -95.568  31.607  1.00  0.00     0.180 A 
ATOM      2  C   UNL     1      39.295 -96.230  30.608  1.00  0.00     0.208 A 
ATOM      3  C   UNL     1      38.691 -96.466  29.362  1.00  0.00     0.238 A 
ATOM      4  O   UNL     1      39.328 -97.124  28.499  1.00  0.00    -0.285 OA
ATOM      5  C   UNL     1      37.381 -95.990  29.112  1.00  0.00     0.111 A 
ATOM      6  C   UNL     1      36.688 -96.133  27.872  1.00  0.00     0.134 A 
ATOM      7  C   UNL     1      35.355 -95.716  27.773  1.00  0.00     0.093 A 
ATOM      8  C   UNL     1      34.710 -95.104  28.848  1.00  0.00     0.123 A 
ATOM      9  C   UNL     1      35.395 -94.908  30.047  1.00  0.00     0.094 A 
ATOM     10  C   UNL     1      36.714 -95.349  30.189  1.00  0.00     0.146 A 
ATOM     11  O   UNL     1      37.322 -95.162  31.355  1.00  0.00    -0.452 OA
ENDROOT
BRANCH   1  12
ATOM     12  C   UNL     1      39.124 -95.295  32.949  1.00  0.00     0.029 A 
ATOM     13  C   UNL     1      40.384 -94.700  33.105  1.00  0.00     0.062 A 
ATOM     14  C   UNL     1      40.912 -94.471  34.379  1.00  0.00     0.162 A 
ATOM     15  C   UNL     1      38.413 -95.695  34.089  1.00  0.00     0.062 A 
ATOM     16  C   UNL     1      40.188 -94.850  35.525  1.00  0.00     0.200 A 
ATOM     17  C   UNL     1      38.926 -95.474  35.372  1.00  0.00     0.162 A 
BRANCH  14  18
ATOM     18  O   UNL     1      42.166 -93.869  34.486  1.00  0.00    -0.504 OA
ATOM     19  H   UNL     1      42.722 -93.630  33.674  1.00  0.00     0.293 HD
ENDBRANCH  14  18
BRANCH  16  20
ATOM     20  O   UNL     1      40.748 -94.596  36.780  1.00  0.00    -0.502 OA
ATOM     21  H   UNL     1      41.613 -94.095  36.924  1.00  0.00     0.293 HD
ENDBRANCH  16  20
BRANCH  17  22
ATOM     22  O   UNL     1      38.153 -95.888  36.459  1.00  0.00    -0.504 OA
ATOM     23  H   UNL     1      38.118 -95.409  37.347  1.00  0.00     0.293 HD
ENDBRANCH  17  22
ENDBRANCH   1  12
BRANCH   2  24
ATOM     24  O   UNL     1      40.614 -96.624  30.850  1.00  0.00    -0.502 OA
ATOM     25  H   UNL     1      41.288 -96.754  30.104  1.00  0.00     0.293 HD
ENDBRANCH   2  24
BRANCH   6  26
ATOM     26  O   UNL     1      37.264 -96.651  26.708  1.00  0.00    -0.507 OA
ATOM     27  H   UNL     1      38.138 -96.343  26.309  1.00  0.00     0.293 HD
ENDBRANCH   6  26
BRANCH   8  28
ATOM     28  O   UNL     1      33.389 -94.685  28.709  1.00  0.00    -0.508 OA
ATOM     29  H   UNL     1      33.077 -93.789  29.062  1.00  0.00     0.293 HD
ENDBRANCH   8  28
TORSDOF 7
ENDMDL
MODEL 7
REMARK VINA RESULT:    -5.030     15.003     17.223
REMARK INTER + INTRA:          -6.381
REMARK INTER:                  -6.901
REMARK INTRA:                   0.520
REMARK UNBOUND:                -0.175
REMARK SMILES O=c1c(O)c(-c2cc(O)c(O)c(O)c2)oc2cc(O)cc(O)c12
REMARK SMILES IDX 5 1 3 2 2 3 1 4 23 5 21 6 20 7 18 8 17 9 16 10 15 11 6 12
REMARK SMILES IDX 7 13 8 14 14 15 10 16 12 17 9 18 11 20 13 22 4 24 22 26
REMARK SMILES IDX 19 28
REMARK H PARENT 9 19 11 21 13 23 4 25 22 27 19 29
REMARK Flexibility Score: inf
ROOT
ATOM      1  C   UNL     1      36.760 -77.521  33.303  1.00  0.00     0.180 A 
ATOM      2  C   UNL     1      36.367 -77.289  31.973  1.00  0.00     0.208 A 
ATOM      3  C   UNL     1      37.357 -77.157  30.985  1.00  0.00     0.238 A 
ATOM      4  O   UNL     1      37.002 -76.875  29.811  1.00  0.00    -0.285 OA
ATOM      5  C   UNL     1      38.722 -77.312  31.327  1.00  0.00     0.111 A 
ATOM      6  C   UNL     1      39.806 -77.243  30.401  1.00  0.00     0.134 A 
ATOM      7  C   UNL     1      41.123 -77.306  30.871  1.00  0.00     0.093 A 
ATOM      8  C   UNL     1      41.395 -77.500  32.225  1.00  0.00     0.123 A 
ATOM      9  C   UNL     1      40.343 -77.625  33.133  1.00  0.00     0.094 A 
ATOM     10  C   UNL     1      39.019 -77.527  32.700  1.00  0.00     0.146 A 
ATOM     11  O   UNL     1      38.048 -77.630  33.600  1.00  0.00    -0.452 OA
ENDROOT
BRANCH   1  12
ATOM     12  C   UNL     1      35.776 -77.658  34.401  1.00  0.00     0.029 A 
ATOM     13  C   UNL     1      36.185 -77.852  35.729  1.00  0.00     0.062 A 
ATOM     14  C   UNL     1      35.243 -78.003  36.750  1.00  0.00     0.162 A 
ATOM     15  C   UNL     1      34.406 -77.657  34.103  1.00  0.00     0.062 A 
ATOM     16  C   UNL     1      33.867 -77.977  36.455  1.00  0.00     0.200 A 
ATOM     17  C   UNL     1      33.449 -77.807  35.113  1.00  0.00     0.162 A 
BRANCH  14  18
ATOM     18  O   UNL     1      35.695 -78.185  38.057  1.00  0.00    -0.504 OA
ATOM     19  H   UNL     1      35.717 -77.430  38.732  1.00  0.00     0.293 HD
ENDBRANCH  14  18
BRANCH  16  20
ATOM     20  O   UNL     1      32.959 -78.124  37.507  1.00  0.00    -0.502 OA
ATOM     21  H   UNL     1      32.636 -79.014  37.858  1.00  0.00     0.293 HD
ENDBRANCH  16  20
BRANCH  17  22
ATOM     22  O   UNL     1      32.104 -77.782  34.739  1.00  0.00    -0.504 OA
ATOM     23  H   UNL     1      31.378 -78.317  35.194  1.00  0.00     0.293 HD
ENDBRANCH  17  22
ENDBRANCH   1  12
BRANCH   2  24
ATOM     24  O   UNL     1      35.012 -77.215  31.642  1.00  0.00    -0.502 OA
ATOM     25  H   UNL     1      34.680 -77.289  30.687  1.00  0.00     0.293 HD
ENDBRANCH   2  24
BRANCH   6  26
ATOM     26  O   UNL     1      39.646 -77.138  29.015  1.00  0.00    -0.507 OA
ATOM     27  H   UNL     1      38.860 -77.498  28.495  1.00  0.00     0.293 HD
ENDBRANCH   6  26
BRANCH   8  28
ATOM     28  O   UNL     1      42.718 -77.576  32.656  1.00  0.00    -0.508 OA
ATOM     29  H   UNL     1      43.022 -77.130  33.513  1.00  0.00     0.293 HD
ENDBRANCH   8  28
TORSDOF 7
ENDMDL
