MODEL 1
REMARK VINA RESULT:    -2.786      0.000      0.000
REMARK INTER + INTRA:          -7.134
REMARK INTER:                  -5.067
REMARK INTRA:                  -2.067
REMARK UNBOUND:                -2.067
REMARK SMILES CCCCCCCCCCCCCC[C@@H](C)C(=O)[O-]
REMARK SMILES IDX 9 1 10 2 11 3 12 4 13 5 14 6 15 7 16 8 17 9 18 10 19 11 8 12
REMARK SMILES IDX 7 13 6 14 5 15 4 16 3 17 2 18 1 19
REMARK H PARENT
REMARK Flexibility Score: inf
ROOT
ATOM      1  C   UNL     1       6.471  22.998   7.514  1.00  0.00     0.000 C 
ENDROOT
BRANCH   1   2
ATOM      2  C   UNL     1       6.012  24.422   7.148  1.00  0.00     0.000 C 
BRANCH   2   3
ATOM      3  C   UNL     1       6.810  25.012   5.974  1.00  0.00     0.000 C 
BRANCH   3   4
ATOM      4  C   UNL     1       6.764  24.118   4.722  1.00  0.00     0.000 C 
BRANCH   4   5
ATOM      5  C   UNL     1       5.920  24.727   3.591  1.00  0.00     0.001 C 
BRANCH   5   6
ATOM      6  C   UNL     1       4.407  24.619   3.859  1.00  0.00     0.009 C 
BRANCH   6   7
ATOM      7  C   UNL     1       3.605  24.373   2.564  1.00  0.00     0.032 C 
ATOM      8  C   UNL     1       2.728  23.123   2.700  1.00  0.00     0.014 C 
BRANCH   7   9
ATOM      9  C   UNL     1       2.750  25.561   2.209  1.00  0.00     0.044 C 
ATOM     10  O   UNL     1       3.264  26.705   2.086  1.00  0.00    -0.550 OA
ATOM     11  O   UNL     1       1.385  25.400   2.016  1.00  0.00    -0.550 OA
ENDBRANCH   7   9
ENDBRANCH   6   7
ENDBRANCH   5   6
ENDBRANCH   4   5
ENDBRANCH   3   4
ENDBRANCH   2   3
ENDBRANCH   1   2
BRANCH   1  12
ATOM     12  C   UNL     1       5.296  22.019   7.674  1.00  0.00     0.000 C 
BRANCH  12  13
ATOM     13  C   UNL     1       4.730  21.551   6.322  1.00  0.00    -0.000 C 
BRANCH  13  14
ATOM     14  C   UNL     1       3.193  21.543   6.297  1.00  0.00    -0.000 C 
BRANCH  14  15
ATOM     15  C   UNL     1       2.589  22.952   6.437  1.00  0.00    -0.000 C 
BRANCH  15  16
ATOM     16  C   UNL     1       1.078  22.925   6.714  1.00  0.00    -0.000 C 
BRANCH  16  17
ATOM     17  C   UNL     1       0.275  22.323   5.547  1.00  0.00    -0.000 C 
BRANCH  17  18
ATOM     18  C   UNL     1      -0.454  23.395   4.721  1.00  0.00    -0.003 C 
ATOM     19  C   UNL     1      -1.049  22.844   3.426  1.00  0.00     0.004 C 
ENDBRANCH  17  18
ENDBRANCH  16  17
ENDBRANCH  15  16
ENDBRANCH  14  15
ENDBRANCH  13  14
ENDBRANCH  12  13
ENDBRANCH   1  12
TORSDOF 14
ENDMDL
MODEL 2
REMARK VINA RESULT:    -2.735      1.937      4.504
REMARK INTER + INTRA:          -7.041
REMARK INTER:                  -4.412
REMARK INTRA:                  -2.629
REMARK UNBOUND:                -2.067
REMARK SMILES CCCCCCCCCCCCCC[C@@H](C)C(=O)[O-]
REMARK SMILES IDX 9 1 10 2 11 3 12 4 13 5 14 6 15 7 16 8 17 9 18 10 19 11 8 12
REMARK SMILES IDX 7 13 6 14 5 15 4 16 3 17 2 18 1 19
REMARK H PARENT
REMARK Flexibility Score: inf
ROOT
ATOM      1  C   UNL     1       5.355  22.366   7.437  1.00  0.00     0.000 C 
ENDROOT
BRANCH   1   2
ATOM      2  C   UNL     1       6.367  21.491   6.674  1.00  0.00     0.000 C 
BRANCH   2   3
ATOM      3  C   UNL     1       5.791  20.935   5.362  1.00  0.00     0.000 C 
BRANCH   3   4
ATOM      4  C   UNL     1       4.251  20.918   5.356  1.00  0.00     0.000 C 
BRANCH   4   5
ATOM      5  C   UNL     1       3.656  21.701   4.175  1.00  0.00     0.001 C 
BRANCH   5   6
ATOM      6  C   UNL     1       2.723  22.838   4.629  1.00  0.00     0.009 C 
BRANCH   6   7
ATOM      7  C   UNL     1       1.608  22.333   5.569  1.00  0.00     0.032 C 
ATOM      8  C   UNL     1       1.607  23.125   6.881  1.00  0.00     0.014 C 
BRANCH   7   9
ATOM      9  C   UNL     1       0.253  22.422   4.917  1.00  0.00     0.044 C 
ATOM     10  O   UNL     1      -0.767  22.714   5.597  1.00  0.00    -0.550 OA
ATOM     11  O   UNL     1       0.122  22.178   3.557  1.00  0.00    -0.550 OA
ENDBRANCH   7   9
ENDBRANCH   6   7
ENDBRANCH   5   6
ENDBRANCH   4   5
ENDBRANCH   3   4
ENDBRANCH   2   3
ENDBRANCH   1   2
BRANCH   1  12
ATOM     12  C   UNL     1       5.518  23.865   7.130  1.00  0.00     0.000 C 
BRANCH  12  13
ATOM     13  C   UNL     1       6.963  24.236   6.752  1.00  0.00    -0.000 C 
BRANCH  13  14
ATOM     14  C   UNL     1       7.046  25.002   5.422  1.00  0.00    -0.000 C 
BRANCH  14  15
ATOM     15  C   UNL     1       5.804  24.793   4.538  1.00  0.00    -0.000 C 
BRANCH  15  16
ATOM     16  C   UNL     1       6.147  24.191   3.166  1.00  0.00    -0.000 C 
BRANCH  16  17
ATOM     17  C   UNL     1       5.355  24.846   2.020  1.00  0.00    -0.000 C 
BRANCH  17  18
ATOM     18  C   UNL     1       4.168  25.680   2.527  1.00  0.00    -0.003 C 
ATOM     19  C   UNL     1       2.842  25.281   1.882  1.00  0.00     0.004 C 
ENDBRANCH  17  18
ENDBRANCH  16  17
ENDBRANCH  15  16
ENDBRANCH  14  15
ENDBRANCH  13  14
ENDBRANCH  12  13
ENDBRANCH   1  12
TORSDOF 14
ENDMDL
MODEL 3
REMARK VINA RESULT:    -2.730      2.302      4.837
REMARK INTER + INTRA:          -7.032
REMARK INTER:                  -4.531
REMARK INTRA:                  -2.501
REMARK UNBOUND:                -2.067
REMARK SMILES CCCCCCCCCCCCCC[C@@H](C)C(=O)[O-]
REMARK SMILES IDX 9 1 10 2 11 3 12 4 13 5 14 6 15 7 16 8 17 9 18 10 19 11 8 12
REMARK SMILES IDX 7 13 6 14 5 15 4 16 3 17 2 18 1 19
REMARK H PARENT
REMARK Flexibility Score: inf
ROOT
ATOM      1  C   UNL     1       4.145  23.128   7.106  1.00  0.00     0.000 C 
ENDROOT
BRANCH   1   2
ATOM      2  C   UNL     1       3.359  23.191   5.783  1.00  0.00     0.000 C 
BRANCH   2   3
ATOM      3  C   UNL     1       3.422  21.871   4.999  1.00  0.00     0.000 C 
BRANCH   3   4
ATOM      4  C   UNL     1       3.020  22.043   3.523  1.00  0.00     0.000 C 
BRANCH   4   5
ATOM      5  C   UNL     1       1.697  21.339   3.184  1.00  0.00     0.001 C 
BRANCH   5   6
ATOM      6  C   UNL     1       0.602  22.322   2.734  1.00  0.00     0.009 C 
BRANCH   6   7
ATOM      7  C   UNL     1       0.139  23.242   3.883  1.00  0.00     0.032 C 
ATOM      8  C   UNL     1      -0.773  24.354   3.354  1.00  0.00     0.014 C 
BRANCH   7   9
ATOM      9  C   UNL     1      -0.573  22.466   4.960  1.00  0.00     0.044 C 
ATOM     10  O   UNL     1      -1.590  21.774   4.684  1.00  0.00    -0.550 OA
ATOM     11  O   UNL     1      -0.111  22.512   6.268  1.00  0.00    -0.550 OA
ENDBRANCH   7   9
ENDBRANCH   6   7
ENDBRANCH   5   6
ENDBRANCH   4   5
ENDBRANCH   3   4
ENDBRANCH   2   3
ENDBRANCH   1   2
BRANCH   1  12
ATOM     12  C   UNL     1       5.666  23.211   6.897  1.00  0.00     0.000 C 
BRANCH  12  13
ATOM     13  C   UNL     1       6.164  24.660   6.749  1.00  0.00    -0.000 C 
BRANCH  13  14
ATOM     14  C   UNL     1       6.823  24.921   5.386  1.00  0.00    -0.000 C 
BRANCH  14  15
ATOM     15  C   UNL     1       6.774  23.693   4.458  1.00  0.00    -0.000 C 
BRANCH  15  16
ATOM     16  C   UNL     1       6.226  24.027   3.062  1.00  0.00    -0.000 C 
BRANCH  16  17
ATOM     17  C   UNL     1       5.114  25.090   3.103  1.00  0.00    -0.000 C 
BRANCH  17  18
ATOM     18  C   UNL     1       4.191  25.024   1.876  1.00  0.00    -0.003 C 
ATOM     19  C   UNL     1       2.778  25.529   2.167  1.00  0.00     0.004 C 
ENDBRANCH  17  18
ENDBRANCH  16  17
ENDBRANCH  15  16
ENDBRANCH  14  15
ENDBRANCH  13  14
ENDBRANCH  12  13
ENDBRANCH   1  12
TORSDOF 14
ENDMDL
MODEL 4
REMARK VINA RESULT:    -2.671      1.742      4.551
REMARK INTER + INTRA:          -6.923
REMARK INTER:                  -4.308
REMARK INTRA:                  -2.615
REMARK UNBOUND:                -2.067
REMARK SMILES CCCCCCCCCCCCCC[C@@H](C)C(=O)[O-]
REMARK SMILES IDX 9 1 10 2 11 3 12 4 13 5 14 6 15 7 16 8 17 9 18 10 19 11 8 12
REMARK SMILES IDX 7 13 6 14 5 15 4 16 3 17 2 18 1 19
REMARK H PARENT
REMARK Flexibility Score: inf
ROOT
ATOM      1  C   UNL     1       5.100  21.644   6.605  1.00  0.00     0.000 C 
ENDROOT
BRANCH   1   2
ATOM      2  C   UNL     1       3.655  21.396   6.133  1.00  0.00     0.000 C 
BRANCH   2   3
ATOM      3  C   UNL     1       2.741  22.607   6.375  1.00  0.00     0.000 C 
BRANCH   3   4
ATOM      4  C   UNL     1       1.481  22.580   5.492  1.00  0.00     0.000 C 
BRANCH   4   5
ATOM      5  C   UNL     1       1.583  21.560   4.347  1.00  0.00     0.001 C 
BRANCH   5   6
ATOM      6  C   UNL     1       1.172  22.154   2.987  1.00  0.00     0.009 C 
BRANCH   6   7
ATOM      7  C   UNL     1       0.610  23.585   3.123  1.00  0.00     0.032 C 
ATOM      8  C   UNL     1       1.234  24.514   2.077  1.00  0.00     0.014 C 
BRANCH   7   9
ATOM      9  C   UNL     1      -0.890  23.604   2.994  1.00  0.00     0.044 C 
ATOM     10  O   UNL     1      -1.551  22.531   3.041  1.00  0.00    -0.550 OA
ATOM     11  O   UNL     1      -1.555  24.810   2.820  1.00  0.00    -0.550 OA
ENDBRANCH   7   9
ENDBRANCH   6   7
ENDBRANCH   5   6
ENDBRANCH   4   5
ENDBRANCH   3   4
ENDBRANCH   2   3
ENDBRANCH   1   2
BRANCH   1  12
ATOM     12  C   UNL     1       5.178  22.639   7.775  1.00  0.00     0.000 C 
BRANCH  12  13
ATOM     13  C   UNL     1       6.121  23.820   7.483  1.00  0.00    -0.000 C 
BRANCH  13  14
ATOM     14  C   UNL     1       6.855  23.670   6.141  1.00  0.00    -0.000 C 
BRANCH  14  15
ATOM     15  C   UNL     1       6.983  25.003   5.382  1.00  0.00    -0.000 C 
BRANCH  15  16
ATOM     16  C   UNL     1       6.347  24.953   3.984  1.00  0.00    -0.000 C 
BRANCH  16  17
ATOM     17  C   UNL     1       4.897  24.437   4.014  1.00  0.00    -0.000 C 
BRANCH  17  18
ATOM     18  C   UNL     1       4.593  23.470   2.859  1.00  0.00    -0.003 C 
ATOM     19  C   UNL     1       5.372  22.160   2.960  1.00  0.00     0.004 C 
ENDBRANCH  17  18
ENDBRANCH  16  17
ENDBRANCH  15  16
ENDBRANCH  14  15
ENDBRANCH  13  14
ENDBRANCH  12  13
ENDBRANCH   1  12
TORSDOF 14
ENDMDL
MODEL 5
REMARK VINA RESULT:    -2.651      1.184      4.709
REMARK INTER + INTRA:          -6.888
REMARK INTER:                  -4.875
REMARK INTRA:                  -2.012
REMARK UNBOUND:                -2.067
REMARK SMILES CCCCCCCCCCCCCC[C@@H](C)C(=O)[O-]
REMARK SMILES IDX 9 1 10 2 11 3 12 4 13 5 14 6 15 7 16 8 17 9 18 10 19 11 8 12
REMARK SMILES IDX 7 13 6 14 5 15 4 16 3 17 2 18 1 19
REMARK H PARENT
REMARK Flexibility Score: inf
ROOT
ATOM      1  C   UNL     1       3.310  21.675   6.131  1.00  0.00     0.000 C 
ENDROOT
BRANCH   1   2
ATOM      2  C   UNL     1       2.600  22.926   6.682  1.00  0.00     0.000 C 
BRANCH   2   3
ATOM      3  C   UNL     1       1.074  22.753   6.750  1.00  0.00     0.000 C 
BRANCH   3   4
ATOM      4  C   UNL     1       0.593  21.478   6.034  1.00  0.00     0.000 C 
BRANCH   4   5
ATOM      5  C   UNL     1      -0.297  21.781   4.819  1.00  0.00     0.001 C 
BRANCH   5   6
ATOM      6  C   UNL     1       0.517  22.104   3.553  1.00  0.00     0.009 C 
BRANCH   6   7
ATOM      7  C   UNL     1      -0.337  22.805   2.476  1.00  0.00     0.032 C 
ATOM      8  C   UNL     1      -1.780  22.293   2.511  1.00  0.00     0.014 C 
BRANCH   7   9
ATOM      9  C   UNL     1      -0.321  24.302   2.645  1.00  0.00     0.044 C 
ATOM     10  O   UNL     1       0.698  24.971   2.327  1.00  0.00    -0.550 OA
ATOM     11  O   UNL     1      -1.435  24.953   3.158  1.00  0.00    -0.550 OA
ENDBRANCH   7   9
ENDBRANCH   6   7
ENDBRANCH   5   6
ENDBRANCH   4   5
ENDBRANCH   3   4
ENDBRANCH   2   3
ENDBRANCH   1   2
BRANCH   1  12
ATOM     12  C   UNL     1       4.730  21.502   6.696  1.00  0.00     0.000 C 
BRANCH  12  13
ATOM     13  C   UNL     1       5.087  22.582   7.733  1.00  0.00    -0.000 C 
BRANCH  13  14
ATOM     14  C   UNL     1       6.370  23.347   7.369  1.00  0.00    -0.000 C 
BRANCH  14  15
ATOM     15  C   UNL     1       6.083  24.692   6.678  1.00  0.00    -0.000 C 
BRANCH  15  16
ATOM     16  C   UNL     1       6.923  24.898   5.408  1.00  0.00    -0.000 C 
BRANCH  16  17
ATOM     17  C   UNL     1       6.152  24.536   4.126  1.00  0.00    -0.000 C 
BRANCH  17  18
ATOM     18  C   UNL     1       4.632  24.695   4.289  1.00  0.00    -0.003 C 
ATOM     19  C   UNL     1       3.837  23.865   3.281  1.00  0.00     0.004 C 
ENDBRANCH  17  18
ENDBRANCH  16  17
ENDBRANCH  15  16
ENDBRANCH  14  15
ENDBRANCH  13  14
ENDBRANCH  12  13
ENDBRANCH   1  12
TORSDOF 14
ENDMDL
MODEL 6
REMARK VINA RESULT:    -2.636      1.423      5.355
REMARK INTER + INTRA:          -6.860
REMARK INTER:                  -4.842
REMARK INTRA:                  -2.018
REMARK UNBOUND:                -2.067
REMARK SMILES CCCCCCCCCCCCCC[C@@H](C)C(=O)[O-]
REMARK SMILES IDX 9 1 10 2 11 3 12 4 13 5 14 6 15 7 16 8 17 9 18 10 19 11 8 12
REMARK SMILES IDX 7 13 6 14 5 15 4 16 3 17 2 18 1 19
REMARK H PARENT
REMARK Flexibility Score: inf
ROOT
ATOM      1  C   UNL     1       2.927  23.056   6.448  1.00  0.00     0.000 C 
ENDROOT
BRANCH   1   2
ATOM      2  C   UNL     1       1.428  23.120   6.795  1.00  0.00     0.000 C 
BRANCH   2   3
ATOM      3  C   UNL     1       0.665  21.868   6.335  1.00  0.00     0.000 C 
BRANCH   3   4
ATOM      4  C   UNL     1      -0.760  22.192   5.849  1.00  0.00     0.000 C 
BRANCH   4   5
ATOM      5  C   UNL     1      -1.044  21.644   4.442  1.00  0.00     0.001 C 
BRANCH   5   6
ATOM      6  C   UNL     1       0.106  21.919   3.456  1.00  0.00     0.009 C 
BRANCH   6   7
ATOM      7  C   UNL     1      -0.335  22.827   2.288  1.00  0.00     0.032 C 
ATOM      8  C   UNL     1      -1.778  22.516   1.876  1.00  0.00     0.014 C 
BRANCH   7   9
ATOM      9  C   UNL     1      -0.208  24.285   2.643  1.00  0.00     0.044 C 
ATOM     10  O   UNL     1       0.812  24.941   2.300  1.00  0.00    -0.550 OA
ATOM     11  O   UNL     1      -1.219  24.915   3.357  1.00  0.00    -0.550 OA
ENDBRANCH   7   9
ENDBRANCH   6   7
ENDBRANCH   5   6
ENDBRANCH   4   5
ENDBRANCH   3   4
ENDBRANCH   2   3
ENDBRANCH   1   2
BRANCH   1  12
ATOM     12  C   UNL     1       3.290  21.817   5.612  1.00  0.00     0.000 C 
BRANCH  12  13
ATOM     13  C   UNL     1       3.702  22.176   4.173  1.00  0.00    -0.000 C 
BRANCH  13  14
ATOM     14  C   UNL     1       3.733  23.694   3.931  1.00  0.00    -0.000 C 
BRANCH  14  15
ATOM     15  C   UNL     1       4.908  24.128   3.036  1.00  0.00    -0.000 C 
BRANCH  15  16
ATOM     16  C   UNL     1       5.936  24.990   3.785  1.00  0.00    -0.000 C 
BRANCH  16  17
ATOM     17  C   UNL     1       6.619  24.227   4.935  1.00  0.00    -0.000 C 
BRANCH  17  18
ATOM     18  C   UNL     1       6.382  24.887   6.302  1.00  0.00    -0.003 C 
ATOM     19  C   UNL     1       6.282  23.874   7.442  1.00  0.00     0.004 C 
ENDBRANCH  17  18
ENDBRANCH  16  17
ENDBRANCH  15  16
ENDBRANCH  14  15
ENDBRANCH  13  14
ENDBRANCH  12  13
ENDBRANCH   1  12
TORSDOF 14
ENDMDL
MODEL 7
REMARK VINA RESULT:    -2.626      1.692      3.901
REMARK INTER + INTRA:          -6.843
REMARK INTER:                  -4.254
REMARK INTRA:                  -2.589
REMARK UNBOUND:                -2.067
REMARK SMILES CCCCCCCCCCCCCC[C@@H](C)C(=O)[O-]
REMARK SMILES IDX 9 1 10 2 11 3 12 4 13 5 14 6 15 7 16 8 17 9 18 10 19 11 8 12
REMARK SMILES IDX 7 13 6 14 5 15 4 16 3 17 2 18 1 19
REMARK H PARENT
REMARK Flexibility Score: inf
ROOT
ATOM      1  C   UNL     1       4.689  24.300   4.905  1.00  0.00     0.000 C 
ENDROOT
BRANCH   1   2
ATOM      2  C   UNL     1       4.956  23.757   3.489  1.00  0.00     0.000 C 
BRANCH   2   3
ATOM      3  C   UNL     1       5.171  22.235   3.474  1.00  0.00     0.000 C 
BRANCH   3   4
ATOM      4  C   UNL     1       4.170  21.508   2.558  1.00  0.00     0.000 C 
BRANCH   4   5
ATOM      5  C   UNL     1       2.758  21.440   3.161  1.00  0.00     0.001 C 
BRANCH   5   6
ATOM      6  C   UNL     1       1.717  22.198   2.317  1.00  0.00     0.009 C 
BRANCH   6   7
ATOM      7  C   UNL     1       1.286  23.524   2.980  1.00  0.00     0.032 C 
ATOM      8  C   UNL     1       1.571  24.710   2.053  1.00  0.00     0.014 C 
BRANCH   7   9
ATOM      9  C   UNL     1      -0.173  23.505   3.354  1.00  0.00     0.044 C 
ATOM     10  O   UNL     1      -0.760  22.415   3.589  1.00  0.00    -0.550 OA
ATOM     11  O   UNL     1      -0.880  24.697   3.440  1.00  0.00    -0.550 OA
ENDBRANCH   7   9
ENDBRANCH   6   7
ENDBRANCH   5   6
ENDBRANCH   4   5
ENDBRANCH   3   4
ENDBRANCH   2   3
ENDBRANCH   1   2
BRANCH   1  12
ATOM     12  C   UNL     1       5.983  24.615   5.673  1.00  0.00     0.000 C 
BRANCH  12  13
ATOM     13  C   UNL     1       5.890  24.244   7.164  1.00  0.00    -0.000 C 
BRANCH  13  14
ATOM     14  C   UNL     1       6.855  23.112   7.551  1.00  0.00    -0.000 C 
BRANCH  14  15
ATOM     15  C   UNL     1       6.257  21.714   7.311  1.00  0.00    -0.000 C 
BRANCH  15  16
ATOM     16  C   UNL     1       4.799  21.603   7.783  1.00  0.00    -0.000 C 
BRANCH  16  17
ATOM     17  C   UNL     1       3.856  21.104   6.674  1.00  0.00    -0.000 C 
BRANCH  17  18
ATOM     18  C   UNL     1       2.375  21.334   7.013  1.00  0.00    -0.003 C 
ATOM     19  C   UNL     1       1.871  22.709   6.575  1.00  0.00     0.004 C 
ENDBRANCH  17  18
ENDBRANCH  16  17
ENDBRANCH  15  16
ENDBRANCH  14  15
ENDBRANCH  13  14
ENDBRANCH  12  13
ENDBRANCH   1  12
TORSDOF 14
ENDMDL
MODEL 8
REMARK VINA RESULT:    -2.513      2.636      6.155
REMARK INTER + INTRA:          -6.637
REMARK INTER:                  -5.171
REMARK INTRA:                  -1.466
REMARK UNBOUND:                -2.067
REMARK SMILES CCCCCCCCCCCCCC[C@@H](C)C(=O)[O-]
REMARK SMILES IDX 9 1 10 2 11 3 12 4 13 5 14 6 15 7 16 8 17 9 18 10 19 11 8 12
REMARK SMILES IDX 7 13 6 14 5 15 4 16 3 17 2 18 1 19
REMARK H PARENT
REMARK Flexibility Score: inf
ROOT
ATOM      1  C   UNL     1       3.149  25.683   2.267  1.00  0.00     0.000 C 
ENDROOT
BRANCH   1   2
ATOM      2  C   UNL     1       1.785  25.032   1.974  1.00  0.00     0.000 C 
BRANCH   2   3
ATOM      3  C   UNL     1       1.826  23.501   2.094  1.00  0.00     0.000 C 
BRANCH   3   4
ATOM      4  C   UNL     1       0.491  22.912   2.586  1.00  0.00     0.000 C 
BRANCH   4   5
ATOM      5  C   UNL     1       0.640  22.123   3.896  1.00  0.00     0.001 C 
BRANCH   5   6
ATOM      6  C   UNL     1       0.235  22.947   5.132  1.00  0.00     0.009 C 
BRANCH   6   7
ATOM      7  C   UNL     1      -0.857  22.245   5.967  1.00  0.00     0.032 C 
ATOM      8  C   UNL     1      -1.479  21.087   5.180  1.00  0.00     0.014 C 
BRANCH   7   9
ATOM      9  C   UNL     1      -0.311  21.740   7.277  1.00  0.00     0.044 C 
ATOM     10  O   UNL     1      -1.067  21.608   8.276  1.00  0.00    -0.550 OA
ATOM     11  O   UNL     1       1.035  21.418   7.388  1.00  0.00    -0.550 OA
ENDBRANCH   7   9
ENDBRANCH   6   7
ENDBRANCH   5   6
ENDBRANCH   4   5
ENDBRANCH   3   4
ENDBRANCH   2   3
ENDBRANCH   1   2
BRANCH   1  12
ATOM     12  C   UNL     1       4.294  24.658   2.328  1.00  0.00     0.000 C 
BRANCH  12  13
ATOM     13  C   UNL     1       5.500  25.167   3.136  1.00  0.00    -0.000 C 
BRANCH  13  14
ATOM     14  C   UNL     1       6.537  24.065   3.406  1.00  0.00    -0.000 C 
BRANCH  14  15
ATOM     15  C   UNL     1       7.048  24.072   4.858  1.00  0.00    -0.000 C 
BRANCH  15  16
ATOM     16  C   UNL     1       6.092  24.796   5.819  1.00  0.00    -0.000 C 
BRANCH  16  17
ATOM     17  C   UNL     1       6.012  24.113   7.196  1.00  0.00    -0.000 C 
BRANCH  17  18
ATOM     18  C   UNL     1       4.752  23.247   7.351  1.00  0.00    -0.003 C 
ATOM     19  C   UNL     1       3.766  23.419   6.197  1.00  0.00     0.004 C 
ENDBRANCH  17  18
ENDBRANCH  16  17
ENDBRANCH  15  16
ENDBRANCH  14  15
ENDBRANCH  13  14
ENDBRANCH  12  13
ENDBRANCH   1  12
TORSDOF 14
ENDMDL
MODEL 9
REMARK VINA RESULT:    -2.475      1.169      2.444
REMARK INTER + INTRA:          -6.569
REMARK INTER:                  -4.576
REMARK INTRA:                  -1.992
REMARK UNBOUND:                -2.067
REMARK SMILES CCCCCCCCCCCCCC[C@@H](C)C(=O)[O-]
REMARK SMILES IDX 9 1 10 2 11 3 12 4 13 5 14 6 15 7 16 8 17 9 18 10 19 11 8 12
REMARK SMILES IDX 7 13 6 14 5 15 4 16 3 17 2 18 1 19
REMARK H PARENT
REMARK Flexibility Score: inf
ROOT
ATOM      1  C   UNL     1       3.683  21.619   6.714  1.00  0.00     0.000 C 
ENDROOT
BRANCH   1   2
ATOM      2  C   UNL     1       5.141  22.103   6.604  1.00  0.00     0.000 C 
BRANCH   2   3
ATOM      3  C   UNL     1       5.396  23.387   7.409  1.00  0.00     0.000 C 
BRANCH   3   4
ATOM      4  C   UNL     1       6.011  24.507   6.551  1.00  0.00     0.000 C 
BRANCH   4   5
ATOM      5  C   UNL     1       6.067  24.146   5.059  1.00  0.00     0.001 C 
BRANCH   5   6
ATOM      6  C   UNL     1       5.058  24.949   4.217  1.00  0.00     0.009 C 
BRANCH   6   7
ATOM      7  C   UNL     1       4.739  24.256   2.876  1.00  0.00     0.032 C 
ATOM      8  C   UNL     1       5.013  22.751   2.965  1.00  0.00     0.014 C 
BRANCH   7   9
ATOM      9  C   UNL     1       3.312  24.492   2.457  1.00  0.00     0.044 C 
ATOM     10  O   UNL     1       2.511  23.527   2.339  1.00  0.00    -0.550 OA
ATOM     11  O   UNL     1       2.872  25.783   2.195  1.00  0.00    -0.550 OA
ENDBRANCH   7   9
ENDBRANCH   6   7
ENDBRANCH   5   6
ENDBRANCH   4   5
ENDBRANCH   3   4
ENDBRANCH   2   3
ENDBRANCH   1   2
BRANCH   1  12
ATOM     12  C   UNL     1       2.710  22.477   5.888  1.00  0.00     0.000 C 
BRANCH  12  13
ATOM     13  C   UNL     1       1.598  23.103   6.748  1.00  0.00    -0.000 C 
BRANCH  13  14
ATOM     14  C   UNL     1       0.483  22.101   7.089  1.00  0.00    -0.000 C 
BRANCH  14  15
ATOM     15  C   UNL     1      -0.772  22.291   6.218  1.00  0.00    -0.000 C 
BRANCH  15  16
ATOM     16  C   UNL     1      -0.840  21.293   5.051  1.00  0.00    -0.000 C 
BRANCH  16  17
ATOM     17  C   UNL     1      -0.320  21.892   3.732  1.00  0.00    -0.000 C 
BRANCH  17  18
ATOM     18  C   UNL     1      -1.283  22.933   3.138  1.00  0.00    -0.003 C 
ATOM     19  C   UNL     1      -0.785  24.368   3.308  1.00  0.00     0.004 C 
ENDBRANCH  17  18
ENDBRANCH  16  17
ENDBRANCH  15  16
ENDBRANCH  14  15
ENDBRANCH  13  14
ENDBRANCH  12  13
ENDBRANCH   1  12
TORSDOF 14
ENDMDL
