MODEL 1
REMARK VINA RESULT:    -8.447      0.000      0.000
REMARK INTER + INTRA:         -10.198
REMARK INTER:                  -9.928
REMARK INTRA:                  -0.270
REMARK UNBOUND:                -0.270
REMARK SMILES O=c1cc(-c2ccc(O)c(O)c2)oc2cc(O)cc(O)c12
REMARK SMILES IDX 4 1 3 2 2 3 1 4 21 5 19 6 18 7 16 8 15 9 14 10 13 11 5 12
REMARK SMILES IDX 6 13 7 14 8 15 12 16 10 17 9 18 11 20 20 22 17 24
REMARK H PARENT 9 19 11 21 20 23 17 25
REMARK Flexibility Score: inf
ROOT
ATOM      1  C   UNL     1       2.384  45.604   2.443  1.00  0.00     0.138 A 
ATOM      2  C   UNL     1       2.109  45.071   1.177  1.00  0.00     0.100 A 
ATOM      3  C   UNL     1       0.795  44.760   0.828  1.00  0.00     0.197 A 
ATOM      4  O   UNL     1       0.588  44.231  -0.295  1.00  0.00    -0.289 OA
ATOM      5  C   UNL     1      -0.256  45.018   1.741  1.00  0.00     0.107 A 
ATOM      6  C   UNL     1      -1.639  44.774   1.483  1.00  0.00     0.134 A 
ATOM      7  C   UNL     1      -2.578  44.978   2.502  1.00  0.00     0.093 A 
ATOM      8  C   UNL     1      -2.191  45.473   3.750  1.00  0.00     0.123 A 
ATOM      9  C   UNL     1      -0.852  45.762   3.996  1.00  0.00     0.094 A 
ATOM     10  C   UNL     1       0.113  45.536   3.012  1.00  0.00     0.146 A 
ATOM     11  O   UNL     1       1.384  45.809   3.294  1.00  0.00    -0.456 OA
ENDROOT
BRANCH   1  12
ATOM     12  C   UNL     1       3.763  45.956   2.865  1.00  0.00     0.021 A 
ATOM     13  C   UNL     1       4.411  47.049   2.265  1.00  0.00     0.016 A 
ATOM     14  C   UNL     1       5.706  47.407   2.648  1.00  0.00     0.051 A 
ATOM     15  C   UNL     1       6.371  46.684   3.646  1.00  0.00     0.157 A 
ATOM     16  C   UNL     1       4.433  45.242   3.878  1.00  0.00     0.062 A 
ATOM     17  C   UNL     1       5.733  45.602   4.265  1.00  0.00     0.158 A 
BRANCH  15  18
ATOM     18  O   UNL     1       7.663  47.036   4.031  1.00  0.00    -0.504 OA
ATOM     19  H   UNL     1       7.833  47.773   4.705  1.00  0.00     0.293 HD
ENDBRANCH  15  18
BRANCH  17  20
ATOM     20  O   UNL     1       6.393  44.892   5.266  1.00  0.00    -0.504 OA
ATOM     21  H   UNL     1       6.284  43.890   5.366  1.00  0.00     0.293 HD
ENDBRANCH  17  20
ENDBRANCH   1  12
BRANCH   6  22
ATOM     22  O   UNL     1      -2.143  44.355   0.248  1.00  0.00    -0.507 OA
ATOM     23  H   UNL     1      -1.735  43.639  -0.333  1.00  0.00     0.293 HD
ENDBRANCH   6  22
BRANCH   8  24
ATOM     24  O   UNL     1      -3.135  45.686   4.753  1.00  0.00    -0.508 OA
ATOM     25  H   UNL     1      -4.118  45.805   4.539  1.00  0.00     0.293 HD
ENDBRANCH   8  24
TORSDOF 5
ENDMDL
MODEL 2
REMARK VINA RESULT:    -8.366      1.364      3.200
REMARK INTER + INTRA:         -10.103
REMARK INTER:                  -9.833
REMARK INTRA:                  -0.270
REMARK UNBOUND:                -0.270
REMARK SMILES O=c1cc(-c2ccc(O)c(O)c2)oc2cc(O)cc(O)c12
REMARK SMILES IDX 4 1 3 2 2 3 1 4 21 5 19 6 18 7 16 8 15 9 14 10 13 11 5 12
REMARK SMILES IDX 6 13 7 14 8 15 12 16 10 17 9 18 11 20 20 22 17 24
REMARK H PARENT 9 19 11 21 20 23 17 25
REMARK Flexibility Score: inf
ROOT
ATOM      1  C   UNL     1       2.353  45.561   2.956  1.00  0.00     0.138 A 
ATOM      2  C   UNL     1       1.231  45.925   3.713  1.00  0.00     0.100 A 
ATOM      3  C   UNL     1      -0.034  45.904   3.126  1.00  0.00     0.197 A 
ATOM      4  O   UNL     1      -1.014  46.290   3.815  1.00  0.00    -0.289 OA
ATOM      5  C   UNL     1      -0.181  45.482   1.783  1.00  0.00     0.107 A 
ATOM      6  C   UNL     1      -1.425  45.387   1.089  1.00  0.00     0.134 A 
ATOM      7  C   UNL     1      -1.434  45.051  -0.270  1.00  0.00     0.093 A 
ATOM      8  C   UNL     1      -0.249  44.748  -0.946  1.00  0.00     0.123 A 
ATOM      9  C   UNL     1       0.965  44.789  -0.266  1.00  0.00     0.094 A 
ATOM     10  C   UNL     1       1.011  45.155   1.081  1.00  0.00     0.146 A 
ATOM     11  O   UNL     1       2.193  45.198   1.688  1.00  0.00    -0.456 OA
ENDROOT
BRANCH   1  12
ATOM     12  C   UNL     1       3.722  45.562   3.530  1.00  0.00     0.021 A 
ATOM     13  C   UNL     1       4.063  44.607   4.503  1.00  0.00     0.016 A 
ATOM     14  C   UNL     1       5.346  44.581   5.055  1.00  0.00     0.051 A 
ATOM     15  C   UNL     1       6.314  45.503   4.636  1.00  0.00     0.157 A 
ATOM     16  C   UNL     1       4.704  46.478   3.104  1.00  0.00     0.062 A 
ATOM     17  C   UNL     1       5.994  46.450   3.656  1.00  0.00     0.158 A 
BRANCH  15  18
ATOM     18  O   UNL     1       7.595  45.481   5.184  1.00  0.00    -0.504 OA
ATOM     19  H   UNL     1       7.783  45.033   6.073  1.00  0.00     0.293 HD
ENDBRANCH  15  18
BRANCH  17  20
ATOM     20  O   UNL     1       6.962  47.359   3.233  1.00  0.00    -0.504 OA
ATOM     21  H   UNL     1       6.710  48.247   2.815  1.00  0.00     0.293 HD
ENDBRANCH  17  20
ENDBRANCH   1  12
BRANCH   6  22
ATOM     22  O   UNL     1      -2.673  45.590   1.687  1.00  0.00    -0.507 OA
ATOM     23  H   UNL     1      -3.255  44.863   2.074  1.00  0.00     0.293 HD
ENDBRANCH   6  22
BRANCH   8  24
ATOM     24  O   UNL     1      -0.270  44.400  -2.295  1.00  0.00    -0.508 OA
ATOM     25  H   UNL     1       0.270  43.620  -2.649  1.00  0.00     0.293 HD
ENDBRANCH   8  24
TORSDOF 5
ENDMDL
MODEL 3
REMARK VINA RESULT:    -8.301      3.898      6.688
REMARK INTER + INTRA:         -10.026
REMARK INTER:                  -9.723
REMARK INTRA:                  -0.304
REMARK UNBOUND:                -0.270
REMARK SMILES O=c1cc(-c2ccc(O)c(O)c2)oc2cc(O)cc(O)c12
REMARK SMILES IDX 4 1 3 2 2 3 1 4 21 5 19 6 18 7 16 8 15 9 14 10 13 11 5 12
REMARK SMILES IDX 6 13 7 14 8 15 12 16 10 17 9 18 11 20 20 22 17 24
REMARK H PARENT 9 19 11 21 20 23 17 25
REMARK Flexibility Score: inf
ROOT
ATOM      1  C   UNL     1      -1.195  45.013   1.663  1.00  0.00     0.138 A 
ATOM      2  C   UNL     1       0.188  44.840   1.519  1.00  0.00     0.100 A 
ATOM      3  C   UNL     1       0.735  44.682   0.244  1.00  0.00     0.197 A 
ATOM      4  O   UNL     1       1.972  44.473   0.152  1.00  0.00    -0.289 OA
ATOM      5  C   UNL     1      -0.104  44.735  -0.894  1.00  0.00     0.107 A 
ATOM      6  C   UNL     1       0.344  44.621  -2.244  1.00  0.00     0.134 A 
ATOM      7  C   UNL     1      -0.593  44.589  -3.284  1.00  0.00     0.093 A 
ATOM      8  C   UNL     1      -1.960  44.725  -3.026  1.00  0.00     0.123 A 
ATOM      9  C   UNL     1      -2.405  44.887  -1.717  1.00  0.00     0.094 A 
ATOM     10  C   UNL     1      -1.497  44.888  -0.655  1.00  0.00     0.146 A 
ATOM     11  O   UNL     1      -1.966  45.027   0.581  1.00  0.00    -0.456 OA
ENDROOT
BRANCH   1  12
ATOM     12  C   UNL     1      -1.830  45.188   2.994  1.00  0.00     0.021 A 
ATOM     13  C   UNL     1      -1.128  45.858   4.011  1.00  0.00     0.016 A 
ATOM     14  C   UNL     1      -1.704  46.042   5.270  1.00  0.00     0.051 A 
ATOM     15  C   UNL     1      -2.997  45.570   5.531  1.00  0.00     0.157 A 
ATOM     16  C   UNL     1      -3.134  44.726   3.259  1.00  0.00     0.062 A 
ATOM     17  C   UNL     1      -3.714  44.914   4.523  1.00  0.00     0.158 A 
BRANCH  15  18
ATOM     18  O   UNL     1      -3.575  45.751   6.785  1.00  0.00    -0.504 OA
ATOM     19  H   UNL     1      -3.177  45.332   7.617  1.00  0.00     0.293 HD
ENDBRANCH  15  18
BRANCH  17  20
ATOM     20  O   UNL     1      -5.004  44.455   4.782  1.00  0.00    -0.504 OA
ATOM     21  H   UNL     1      -5.173  43.527   5.152  1.00  0.00     0.293 HD
ENDBRANCH  17  20
ENDBRANCH   1  12
BRANCH   6  22
ATOM     22  O   UNL     1       1.690  44.560  -2.620  1.00  0.00    -0.507 OA
ATOM     23  H   UNL     1       2.075  43.916  -3.294  1.00  0.00     0.293 HD
ENDBRANCH   6  22
BRANCH   8  24
ATOM     24  O   UNL     1      -2.885  44.707  -4.068  1.00  0.00    -0.508 OA
ATOM     25  H   UNL     1      -3.578  43.973  -4.149  1.00  0.00     0.293 HD
ENDBRANCH   8  24
TORSDOF 5
ENDMDL
MODEL 4
REMARK VINA RESULT:    -7.897      1.439      6.950
REMARK INTER + INTRA:          -9.552
REMARK INTER:                  -9.281
REMARK INTRA:                  -0.271
REMARK UNBOUND:                -0.270
REMARK SMILES O=c1cc(-c2ccc(O)c(O)c2)oc2cc(O)cc(O)c12
REMARK SMILES IDX 4 1 3 2 2 3 1 4 21 5 19 6 18 7 16 8 15 9 14 10 13 11 5 12
REMARK SMILES IDX 6 13 7 14 8 15 12 16 10 17 9 18 11 20 20 22 17 24
REMARK H PARENT 9 19 11 21 20 23 17 25
REMARK Flexibility Score: inf
ROOT
ATOM      1  C   UNL     1       2.716  45.559   2.555  1.00  0.00     0.138 A 
ATOM      2  C   UNL     1       3.628  46.492   2.043  1.00  0.00     0.100 A 
ATOM      3  C   UNL     1       4.842  46.702   2.698  1.00  0.00     0.197 A 
ATOM      4  O   UNL     1       5.615  47.585   2.245  1.00  0.00    -0.289 OA
ATOM      5  C   UNL     1       5.159  45.949   3.854  1.00  0.00     0.107 A 
ATOM      6  C   UNL     1       6.380  46.053   4.586  1.00  0.00     0.134 A 
ATOM      7  C   UNL     1       6.539  45.325   5.772  1.00  0.00     0.093 A 
ATOM      8  C   UNL     1       5.544  44.453   6.221  1.00  0.00     0.123 A 
ATOM      9  C   UNL     1       4.370  44.306   5.488  1.00  0.00     0.094 A 
ATOM     10  C   UNL     1       4.167  45.044   4.319  1.00  0.00     0.146 A 
ATOM     11  O   UNL     1       3.023  44.886   3.659  1.00  0.00    -0.456 OA
ENDROOT
BRANCH   1  12
ATOM     12  C   UNL     1       1.412  45.292   1.898  1.00  0.00     0.021 A 
ATOM     13  C   UNL     1       1.389  44.667   0.640  1.00  0.00     0.016 A 
ATOM     14  C   UNL     1       0.176  44.398   0.001  1.00  0.00     0.051 A 
ATOM     15  C   UNL     1      -1.036  44.740   0.614  1.00  0.00     0.157 A 
ATOM     16  C   UNL     1       0.189  45.623   2.515  1.00  0.00     0.062 A 
ATOM     17  C   UNL     1      -1.029  45.350   1.875  1.00  0.00     0.158 A 
BRANCH  15  18
ATOM     18  O   UNL     1      -2.248  44.475  -0.019  1.00  0.00    -0.504 OA
ATOM     19  H   UNL     1      -2.343  43.717  -0.685  1.00  0.00     0.293 HD
ENDBRANCH  15  18
BRANCH  17  20
ATOM     20  O   UNL     1      -2.237  45.680   2.488  1.00  0.00    -0.504 OA
ATOM     21  H   UNL     1      -2.729  46.536   2.264  1.00  0.00     0.293 HD
ENDBRANCH  17  20
ENDBRANCH   1  12
BRANCH   6  22
ATOM     22  O   UNL     1       7.469  46.832   4.185  1.00  0.00    -0.507 OA
ATOM     23  H   UNL     1       7.964  47.485   4.774  1.00  0.00     0.293 HD
ENDBRANCH   6  22
BRANCH   8  24
ATOM     24  O   UNL     1       5.718  43.722   7.394  1.00  0.00    -0.508 OA
ATOM     25  H   UNL     1       5.127  42.929   7.617  1.00  0.00     0.293 HD
ENDBRANCH   8  24
TORSDOF 5
ENDMDL
MODEL 5
REMARK VINA RESULT:    -7.716      1.371      7.340
REMARK INTER + INTRA:          -9.339
REMARK INTER:                  -9.070
REMARK INTRA:                  -0.269
REMARK UNBOUND:                -0.270
REMARK SMILES O=c1cc(-c2ccc(O)c(O)c2)oc2cc(O)cc(O)c12
REMARK SMILES IDX 4 1 3 2 2 3 1 4 21 5 19 6 18 7 16 8 15 9 14 10 13 11 5 12
REMARK SMILES IDX 6 13 7 14 8 15 12 16 10 17 9 18 11 20 20 22 17 24
REMARK H PARENT 9 19 11 21 20 23 17 25
REMARK Flexibility Score: inf
ROOT
ATOM      1  C   UNL     1       2.522  45.716   3.073  1.00  0.00     0.138 A 
ATOM      2  C   UNL     1       3.103  44.983   4.117  1.00  0.00     0.100 A 
ATOM      3  C   UNL     1       4.469  45.108   4.371  1.00  0.00     0.197 A 
ATOM      4  O   UNL     1       4.971  44.395   5.278  1.00  0.00    -0.289 OA
ATOM      5  C   UNL     1       5.252  45.999   3.598  1.00  0.00     0.107 A 
ATOM      6  C   UNL     1       6.647  46.234   3.787  1.00  0.00     0.134 A 
ATOM      7  C   UNL     1       7.334  47.066   2.895  1.00  0.00     0.093 A 
ATOM      8  C   UNL     1       6.665  47.717   1.855  1.00  0.00     0.123 A 
ATOM      9  C   UNL     1       5.295  47.533   1.691  1.00  0.00     0.094 A 
ATOM     10  C   UNL     1       4.587  46.683   2.544  1.00  0.00     0.146 A 
ATOM     11  O   UNL     1       3.283  46.522   2.341  1.00  0.00    -0.456 OA
ENDROOT
BRANCH   1  12
ATOM     12  C   UNL     1       1.073  45.624   2.761  1.00  0.00     0.021 A 
ATOM     13  C   UNL     1       0.138  46.170   3.656  1.00  0.00     0.016 A 
ATOM     14  C   UNL     1      -1.230  46.104   3.384  1.00  0.00     0.051 A 
ATOM     15  C   UNL     1      -1.687  45.500   2.205  1.00  0.00     0.157 A 
ATOM     16  C   UNL     1       0.608  45.029   1.571  1.00  0.00     0.062 A 
ATOM     17  C   UNL     1      -0.766  44.965   1.296  1.00  0.00     0.158 A 
BRANCH  15  18
ATOM     18  O   UNL     1      -3.051  45.431   1.930  1.00  0.00    -0.504 OA
ATOM     19  H   UNL     1      -3.464  45.951   1.164  1.00  0.00     0.293 HD
ENDBRANCH  15  18
BRANCH  17  20
ATOM     20  O   UNL     1      -1.223  44.375   0.119  1.00  0.00    -0.504 OA
ATOM     21  H   UNL     1      -2.205  44.176  -0.029  1.00  0.00     0.293 HD
ENDBRANCH  17  20
ENDBRANCH   1  12
BRANCH   6  22
ATOM     22  O   UNL     1       7.395  45.699   4.840  1.00  0.00    -0.507 OA
ATOM     23  H   UNL     1       7.679  44.734   4.918  1.00  0.00     0.293 HD
ENDBRANCH   6  22
BRANCH   8  24
ATOM     24  O   UNL     1       7.355  48.554   0.981  1.00  0.00    -0.508 OA
ATOM     25  H   UNL     1       8.240  48.975   1.238  1.00  0.00     0.293 HD
ENDBRANCH   8  24
TORSDOF 5
ENDMDL
MODEL 6
REMARK VINA RESULT:    -7.389      8.263     10.552
REMARK INTER + INTRA:          -8.955
REMARK INTER:                  -8.686
REMARK INTRA:                  -0.269
REMARK UNBOUND:                -0.270
REMARK SMILES O=c1cc(-c2ccc(O)c(O)c2)oc2cc(O)cc(O)c12
REMARK SMILES IDX 4 1 3 2 2 3 1 4 21 5 19 6 18 7 16 8 15 9 14 10 13 11 5 12
REMARK SMILES IDX 6 13 7 14 8 15 12 16 10 17 9 18 11 20 20 22 17 24
REMARK H PARENT 9 19 11 21 20 23 17 25
REMARK Flexibility Score: inf
ROOT
ATOM      1  C   UNL     1       8.571  47.428  -2.085  1.00  0.00     0.138 A 
ATOM      2  C   UNL     1       8.505  48.815  -1.893  1.00  0.00     0.100 A 
ATOM      3  C   UNL     1       9.014  49.375  -0.721  1.00  0.00     0.197 A 
ATOM      4  O   UNL     1       8.890  50.616  -0.553  1.00  0.00    -0.289 OA
ATOM      5  C   UNL     1       9.626  48.544   0.249  1.00  0.00     0.107 A 
ATOM      6  C   UNL     1      10.211  49.006   1.466  1.00  0.00     0.134 A 
ATOM      7  C   UNL     1      10.698  48.078   2.394  1.00  0.00     0.093 A 
ATOM      8  C   UNL     1      10.676  46.707   2.123  1.00  0.00     0.123 A 
ATOM      9  C   UNL     1      10.153  46.249   0.916  1.00  0.00     0.094 A 
ATOM     10  C   UNL     1       9.627  47.148  -0.015  1.00  0.00     0.146 A 
ATOM     11  O   UNL     1       9.122  46.666  -1.146  1.00  0.00    -0.456 OA
ENDROOT
BRANCH   1  12
ATOM     12  C   UNL     1       8.048  46.780  -3.314  1.00  0.00     0.021 A 
ATOM     13  C   UNL     1       8.909  45.995  -4.100  1.00  0.00     0.016 A 
ATOM     14  C   UNL     1       8.441  45.368  -5.258  1.00  0.00     0.051 A 
ATOM     15  C   UNL     1       7.101  45.506  -5.643  1.00  0.00     0.157 A 
ATOM     16  C   UNL     1       6.698  46.904  -3.700  1.00  0.00     0.062 A 
ATOM     17  C   UNL     1       6.228  46.272  -4.861  1.00  0.00     0.158 A 
BRANCH  15  18
ATOM     18  O   UNL     1       6.631  44.883  -6.797  1.00  0.00    -0.504 OA
ATOM     19  H   UNL     1       7.156  44.147  -7.253  1.00  0.00     0.293 HD
ENDBRANCH  15  18
BRANCH  17  20
ATOM     20  O   UNL     1       4.893  46.398  -5.241  1.00  0.00    -0.504 OA
ATOM     21  H   UNL     1       4.373  45.617  -5.622  1.00  0.00     0.293 HD
ENDBRANCH  17  20
ENDBRANCH   1  12
BRANCH   6  22
ATOM     22  O   UNL     1      10.357  50.355   1.802  1.00  0.00    -0.507 OA
ATOM     23  H   UNL     1       9.607  51.029   1.841  1.00  0.00     0.293 HD
ENDBRANCH   6  22
BRANCH   8  24
ATOM     24  O   UNL     1      11.177  45.792   3.046  1.00  0.00    -0.508 OA
ATOM     25  H   UNL     1      10.592  45.397   3.773  1.00  0.00     0.293 HD
ENDBRANCH   8  24
TORSDOF 5
ENDMDL
MODEL 7
REMARK VINA RESULT:    -7.289      5.401      7.449
REMARK INTER + INTRA:          -8.838
REMARK INTER:                  -8.546
REMARK INTRA:                  -0.291
REMARK UNBOUND:                -0.270
REMARK SMILES O=c1cc(-c2ccc(O)c(O)c2)oc2cc(O)cc(O)c12
REMARK SMILES IDX 4 1 3 2 2 3 1 4 21 5 19 6 18 7 16 8 15 9 14 10 13 11 5 12
REMARK SMILES IDX 6 13 7 14 8 15 12 16 10 17 9 18 11 20 20 22 17 24
REMARK H PARENT 9 19 11 21 20 23 17 25
REMARK Flexibility Score: inf
ROOT
ATOM      1  C   UNL     1       7.161  46.363   3.828  1.00  0.00     0.138 A 
ATOM      2  C   UNL     1       8.514  46.360   3.464  1.00  0.00     0.100 A 
ATOM      3  C   UNL     1       8.901  46.909   2.242  1.00  0.00     0.197 A 
ATOM      4  O   UNL     1      10.116  46.841   1.919  1.00  0.00    -0.289 OA
ATOM      5  C   UNL     1       7.932  47.497   1.394  1.00  0.00     0.107 A 
ATOM      6  C   UNL     1       8.214  48.117   0.140  1.00  0.00     0.134 A 
ATOM      7  C   UNL     1       7.157  48.576  -0.656  1.00  0.00     0.093 A 
ATOM      8  C   UNL     1       5.833  48.490  -0.217  1.00  0.00     0.123 A 
ATOM      9  C   UNL     1       5.551  47.932   1.027  1.00  0.00     0.094 A 
ATOM     10  C   UNL     1       6.580  47.434   1.829  1.00  0.00     0.146 A 
ATOM     11  O   UNL     1       6.265  46.892   3.002  1.00  0.00    -0.456 OA
ENDROOT
BRANCH   1  12
ATOM     12  C   UNL     1       6.693  45.796   5.118  1.00  0.00     0.021 A 
ATOM     13  C   UNL     1       7.367  46.131   6.305  1.00  0.00     0.016 A 
ATOM     14  C   UNL     1       6.944  45.616   7.533  1.00  0.00     0.051 A 
ATOM     15  C   UNL     1       5.833  44.767   7.597  1.00  0.00     0.157 A 
ATOM     16  C   UNL     1       5.568  44.950   5.191  1.00  0.00     0.062 A 
ATOM     17  C   UNL     1       5.141  44.436   6.425  1.00  0.00     0.158 A 
BRANCH  15  18
ATOM     18  O   UNL     1       5.407  44.251   8.819  1.00  0.00    -0.504 OA
ATOM     19  H   UNL     1       5.636  44.706   9.695  1.00  0.00     0.293 HD
ENDBRANCH  15  18
BRANCH  17  20
ATOM     20  O   UNL     1       4.028  43.599   6.493  1.00  0.00    -0.504 OA
ATOM     21  H   UNL     1       3.085  43.966   6.453  1.00  0.00     0.293 HD
ENDBRANCH  17  20
ENDBRANCH   1  12
BRANCH   6  22
ATOM     22  O   UNL     1       9.503  48.327  -0.358  1.00  0.00    -0.507 OA
ATOM     23  H   UNL     1       9.802  49.142  -0.872  1.00  0.00     0.293 HD
ENDBRANCH   6  22
BRANCH   8  24
ATOM     24  O   UNL     1       4.790  48.964  -1.010  1.00  0.00    -0.508 OA
ATOM     25  H   UNL     1       4.871  49.828  -1.532  1.00  0.00     0.293 HD
ENDBRANCH   8  24
TORSDOF 5
ENDMDL
MODEL 8
REMARK VINA RESULT:    -7.269      5.360      7.218
REMARK INTER + INTRA:          -8.814
REMARK INTER:                  -8.523
REMARK INTRA:                  -0.291
REMARK UNBOUND:                -0.270
REMARK SMILES O=c1cc(-c2ccc(O)c(O)c2)oc2cc(O)cc(O)c12
REMARK SMILES IDX 4 1 3 2 2 3 1 4 21 5 19 6 18 7 16 8 15 9 14 10 13 11 5 12
REMARK SMILES IDX 6 13 7 14 8 15 12 16 10 17 9 18 11 20 20 22 17 24
REMARK H PARENT 9 19 11 21 20 23 17 25
REMARK Flexibility Score: inf
ROOT
ATOM      1  C   UNL     1       6.985  46.017   5.106  1.00  0.00     0.138 A 
ATOM      2  C   UNL     1       7.739  46.341   6.242  1.00  0.00     0.100 A 
ATOM      3  C   UNL     1       7.360  45.842   7.489  1.00  0.00     0.197 A 
ATOM      4  O   UNL     1       8.025  46.196   8.497  1.00  0.00    -0.289 OA
ATOM      5  C   UNL     1       6.239  44.984   7.593  1.00  0.00     0.107 A 
ATOM      6  C   UNL     1       5.778  44.387   8.805  1.00  0.00     0.134 A 
ATOM      7  C   UNL     1       4.598  43.635   8.800  1.00  0.00     0.093 A 
ATOM      8  C   UNL     1       3.893  43.408   7.614  1.00  0.00     0.123 A 
ATOM      9  C   UNL     1       4.361  43.944   6.417  1.00  0.00     0.094 A 
ATOM     10  C   UNL     1       5.516  44.728   6.396  1.00  0.00     0.146 A 
ATOM     11  O   UNL     1       5.918  45.235   5.235  1.00  0.00    -0.456 OA
ENDROOT
BRANCH   1  12
ATOM     12  C   UNL     1       7.344  46.517   3.755  1.00  0.00     0.021 A 
ATOM     13  C   UNL     1       8.674  46.415   3.313  1.00  0.00     0.016 A 
ATOM     14  C   UNL     1       9.038  46.872   2.044  1.00  0.00     0.051 A 
ATOM     15  C   UNL     1       8.077  47.428   1.191  1.00  0.00     0.157 A 
ATOM     16  C   UNL     1       6.379  47.066   2.888  1.00  0.00     0.062 A 
ATOM     17  C   UNL     1       6.745  47.522   1.612  1.00  0.00     0.158 A 
BRANCH  15  18
ATOM     18  O   UNL     1       8.436  47.886  -0.075  1.00  0.00    -0.504 OA
ATOM     19  H   UNL     1       8.141  48.794  -0.413  1.00  0.00     0.293 HD
ENDBRANCH  15  18
BRANCH  17  20
ATOM     20  O   UNL     1       5.788  48.066   0.757  1.00  0.00    -0.504 OA
ATOM     21  H   UNL     1       6.002  48.288  -0.208  1.00  0.00     0.293 HD
ENDBRANCH  17  20
ENDBRANCH   1  12
BRANCH   6  22
ATOM     22  O   UNL     1       6.448  44.483  10.029  1.00  0.00    -0.507 OA
ATOM     23  H   UNL     1       6.214  43.962  10.860  1.00  0.00     0.293 HD
ENDBRANCH   6  22
BRANCH   8  24
ATOM     24  O   UNL     1       2.727  42.645   7.616  1.00  0.00    -0.508 OA
ATOM     25  H   UNL     1       2.498  42.025   6.849  1.00  0.00     0.293 HD
ENDBRANCH   8  24
TORSDOF 5
ENDMDL
MODEL 9
REMARK VINA RESULT:    -7.171      7.890     11.253
REMARK INTER + INTRA:          -8.698
REMARK INTER:                  -8.410
REMARK INTRA:                  -0.288
REMARK UNBOUND:                -0.270
REMARK SMILES O=c1cc(-c2ccc(O)c(O)c2)oc2cc(O)cc(O)c12
REMARK SMILES IDX 4 1 3 2 2 3 1 4 21 5 19 6 18 7 16 8 15 9 14 10 13 11 5 12
REMARK SMILES IDX 6 13 7 14 8 15 12 16 10 17 9 18 11 20 20 22 17 24
REMARK H PARENT 9 19 11 21 20 23 17 25
REMARK Flexibility Score: inf
ROOT
ATOM      1  C   UNL     1       8.903  47.050  -2.127  1.00  0.00     0.138 A 
ATOM      2  C   UNL     1       8.135  47.086  -0.955  1.00  0.00     0.100 A 
ATOM      3  C   UNL     1       8.709  47.538   0.233  1.00  0.00     0.197 A 
ATOM      4  O   UNL     1       8.011  47.506   1.280  1.00  0.00    -0.289 OA
ATOM      5  C   UNL     1      10.050  47.992   0.240  1.00  0.00     0.107 A 
ATOM      6  C   UNL     1      10.731  48.507   1.384  1.00  0.00     0.134 A 
ATOM      7  C   UNL     1      12.089  48.833   1.290  1.00  0.00     0.093 A 
ATOM      8  C   UNL     1      12.777  48.718   0.079  1.00  0.00     0.123 A 
ATOM      9  C   UNL     1      12.109  48.264  -1.055  1.00  0.00     0.094 A 
ATOM     10  C   UNL     1      10.763  47.898  -0.986  1.00  0.00     0.146 A 
ATOM     11  O   UNL     1      10.169  47.452  -2.088  1.00  0.00    -0.456 OA
ENDROOT
BRANCH   1  12
ATOM     12  C   UNL     1       8.342  46.581  -3.419  1.00  0.00     0.021 A 
ATOM     13  C   UNL     1       9.194  45.986  -4.365  1.00  0.00     0.016 A 
ATOM     14  C   UNL     1       8.691  45.530  -5.587  1.00  0.00     0.051 A 
ATOM     15  C   UNL     1       7.327  45.652  -5.879  1.00  0.00     0.157 A 
ATOM     16  C   UNL     1       6.969  46.689  -3.714  1.00  0.00     0.062 A 
ATOM     17  C   UNL     1       6.464  46.228  -4.939  1.00  0.00     0.158 A 
BRANCH  15  18
ATOM     18  O   UNL     1       6.822  45.199  -7.096  1.00  0.00    -0.504 OA
ATOM     19  H   UNL     1       6.732  44.210  -7.297  1.00  0.00     0.293 HD
ENDBRANCH  15  18
BRANCH  17  20
ATOM     20  O   UNL     1       5.104  46.338  -5.228  1.00  0.00    -0.504 OA
ATOM     21  H   UNL     1       4.619  47.225  -5.166  1.00  0.00     0.293 HD
ENDBRANCH  17  20
ENDBRANCH   1  12
BRANCH   6  22
ATOM     22  O   UNL     1      10.121  48.738   2.621  1.00  0.00    -0.507 OA
ATOM     23  H   UNL     1      10.492  48.452   3.514  1.00  0.00     0.293 HD
ENDBRANCH   6  22
BRANCH   8  24
ATOM     24  O   UNL     1      14.125  49.059  -0.008  1.00  0.00    -0.508 OA
ATOM     25  H   UNL     1      14.517  49.814   0.542  1.00  0.00     0.293 HD
ENDBRANCH   8  24
TORSDOF 5
ENDMDL
