MODEL 1
REMARK VINA RESULT:    -5.904      0.000      0.000
REMARK INTER + INTRA:         -11.689
REMARK INTER:                 -10.391
REMARK INTRA:                  -1.297
REMARK UNBOUND:                -1.297
REMARK SMILES CCCCCCC=CCCCCCCCC(=O)[O-]
REMARK SMILES IDX 10 1 11 2 12 3 13 4 14 5 15 6 16 7 17 8 18 9 9 10 8 11 7 12
REMARK SMILES IDX 6 13 5 14 4 15 3 16 2 17 1 18
REMARK H PARENT
REMARK Flexibility Score: inf
ROOT
ATOM      1  C   UNL     1       1.386  44.596  -0.144  1.00  0.00     0.004 C 
ENDROOT
BRANCH   1   2
ATOM      2  C   UNL     1       2.584  44.866   0.783  1.00  0.00     0.000 C 
BRANCH   2   3
ATOM      3  C   UNL     1       2.216  44.787   2.275  1.00  0.00     0.000 C 
BRANCH   3   4
ATOM      4  C   UNL     1       2.557  46.076   3.039  1.00  0.00     0.000 C 
BRANCH   4   5
ATOM      5  C   UNL     1       3.960  46.035   3.669  1.00  0.00     0.006 C 
BRANCH   5   6
ATOM      6  C   UNL     1       4.294  44.656   4.250  1.00  0.00     0.053 C 
BRANCH   6   7
ATOM      7  C   UNL     1       4.526  44.718   5.729  1.00  0.00     0.041 C 
ATOM      8  O   UNL     1       5.697  44.813   6.184  1.00  0.00    -0.550 OA
ATOM      9  O   UNL     1       3.447  44.698   6.603  1.00  0.00    -0.550 OA
ENDBRANCH   6   7
ENDBRANCH   5   6
ENDBRANCH   4   5
ENDBRANCH   3   4
ENDBRANCH   2   3
ENDBRANCH   1   2
BRANCH   1  10
ATOM     10  C   UNL     1       0.066  44.337   0.610  1.00  0.00     0.027 C 
BRANCH  10  11
ATOM     11  C   UNL     1      -0.935  45.451   0.419  1.00  0.00    -0.031 C 
ATOM     12  C   UNL     1      -1.573  46.081   1.424  1.00  0.00    -0.031 C 
BRANCH  12  13
ATOM     13  C   UNL     1      -1.337  45.775   2.884  1.00  0.00     0.027 C 
BRANCH  13  14
ATOM     14  C   UNL     1      -2.393  44.800   3.423  1.00  0.00     0.004 C 
BRANCH  14  15
ATOM     15  C   UNL     1      -2.690  45.028   4.920  1.00  0.00     0.000 C 
BRANCH  15  16
ATOM     16  C   UNL     1      -1.671  45.944   5.619  1.00  0.00    -0.000 C 
BRANCH  16  17
ATOM     17  C   UNL     1      -2.215  46.563   6.914  1.00  0.00    -0.003 C 
ATOM     18  C   UNL     1      -3.502  45.872   7.356  1.00  0.00     0.004 C 
ENDBRANCH  16  17
ENDBRANCH  15  16
ENDBRANCH  14  15
ENDBRANCH  13  14
ENDBRANCH  12  13
ENDBRANCH  10  11
ENDBRANCH   1  10
TORSDOF 13
ENDMDL
MODEL 2
REMARK VINA RESULT:    -5.821      4.338      6.242
REMARK INTER + INTRA:         -11.542
REMARK INTER:                 -10.224
REMARK INTRA:                  -1.318
REMARK UNBOUND:                -1.297
REMARK SMILES CCCCCCC=CCCCCCCCC(=O)[O-]
REMARK SMILES IDX 10 1 11 2 12 3 13 4 14 5 15 6 16 7 17 8 18 9 9 10 8 11 7 12
REMARK SMILES IDX 6 13 5 14 4 15 3 16 2 17 1 18
REMARK H PARENT
REMARK Flexibility Score: inf
ROOT
ATOM      1  C   UNL     1      -0.141  44.896  -1.510  1.00  0.00     0.004 C 
ENDROOT
BRANCH   1   2
ATOM      2  C   UNL     1       0.193  45.060  -3.003  1.00  0.00     0.000 C 
BRANCH   2   3
ATOM      3  C   UNL     1       1.557  44.456  -3.380  1.00  0.00     0.000 C 
BRANCH   3   4
ATOM      4  C   UNL     1       2.430  44.151  -2.153  1.00  0.00     0.000 C 
BRANCH   4   5
ATOM      5  C   UNL     1       3.658  43.293  -2.501  1.00  0.00     0.006 C 
BRANCH   5   6
ATOM      6  C   UNL     1       4.948  44.120  -2.551  1.00  0.00     0.053 C 
BRANCH   6   7
ATOM      7  C   UNL     1       5.416  44.334  -3.959  1.00  0.00     0.041 C 
ATOM      8  O   UNL     1       6.415  43.704  -4.397  1.00  0.00    -0.550 OA
ATOM      9  O   UNL     1       4.733  45.208  -4.793  1.00  0.00    -0.550 OA
ENDBRANCH   6   7
ENDBRANCH   5   6
ENDBRANCH   4   5
ENDBRANCH   3   4
ENDBRANCH   2   3
ENDBRANCH   1   2
BRANCH   1  10
ATOM     10  C   UNL     1      -1.377  45.700  -1.061  1.00  0.00     0.027 C 
BRANCH  10  11
ATOM     11  C   UNL     1      -2.254  44.926  -0.106  1.00  0.00    -0.031 C 
ATOM     12  C   UNL     1      -2.346  45.176   1.214  1.00  0.00    -0.031 C 
BRANCH  12  13
ATOM     13  C   UNL     1      -1.608  46.297   1.905  1.00  0.00     0.027 C 
BRANCH  13  14
ATOM     14  C   UNL     1      -0.758  45.765   3.068  1.00  0.00     0.004 C 
BRANCH  14  15
ATOM     15  C   UNL     1       0.755  45.912   2.802  1.00  0.00     0.000 C 
BRANCH  15  16
ATOM     16  C   UNL     1       1.298  44.919   1.759  1.00  0.00    -0.000 C 
BRANCH  16  17
ATOM     17  C   UNL     1       2.831  44.877   1.716  1.00  0.00    -0.003 C 
ATOM     18  C   UNL     1       3.435  45.607   2.912  1.00  0.00     0.004 C 
ENDBRANCH  16  17
ENDBRANCH  15  16
ENDBRANCH  14  15
ENDBRANCH  13  14
ENDBRANCH  12  13
ENDBRANCH  10  11
ENDBRANCH   1  10
TORSDOF 13
ENDMDL
MODEL 3
REMARK VINA RESULT:    -5.753      2.468      5.547
REMARK INTER + INTRA:         -11.423
REMARK INTER:                 -10.402
REMARK INTRA:                  -1.020
REMARK UNBOUND:                -1.297
REMARK SMILES CCCCCCC=CCCCCCCCC(=O)[O-]
REMARK SMILES IDX 10 1 11 2 12 3 13 4 14 5 15 6 16 7 17 8 18 9 9 10 8 11 7 12
REMARK SMILES IDX 6 13 5 14 4 15 3 16 2 17 1 18
REMARK H PARENT
REMARK Flexibility Score: inf
ROOT
ATOM      1  C   UNL     1      -2.853  44.662   4.800  1.00  0.00     0.004 C 
ENDROOT
BRANCH   1   2
ATOM      2  C   UNL     1      -2.594  45.567   6.017  1.00  0.00     0.000 C 
BRANCH   2   3
ATOM      3  C   UNL     1      -1.277  46.354   5.908  1.00  0.00     0.000 C 
BRANCH   3   4
ATOM      4  C   UNL     1      -1.050  47.298   7.099  1.00  0.00     0.000 C 
BRANCH   4   5
ATOM      5  C   UNL     1       0.369  47.181   7.682  1.00  0.00     0.006 C 
BRANCH   5   6
ATOM      6  C   UNL     1       0.543  48.020   8.954  1.00  0.00     0.053 C 
BRANCH   6   7
ATOM      7  C   UNL     1       1.029  47.191  10.104  1.00  0.00     0.041 C 
ATOM      8  O   UNL     1       0.676  47.471  11.281  1.00  0.00    -0.550 OA
ATOM      9  O   UNL     1       1.847  46.094   9.873  1.00  0.00    -0.550 OA
ENDBRANCH   6   7
ENDBRANCH   5   6
ENDBRANCH   4   5
ENDBRANCH   3   4
ENDBRANCH   2   3
ENDBRANCH   1   2
BRANCH   1  10
ATOM     10  C   UNL     1      -2.039  45.055   3.552  1.00  0.00     0.027 C 
BRANCH  10  11
ATOM     11  C   UNL     1      -2.046  43.977   2.495  1.00  0.00    -0.031 C 
ATOM     12  C   UNL     1      -1.173  43.908   1.473  1.00  0.00    -0.031 C 
BRANCH  12  13
ATOM     13  C   UNL     1      -0.042  44.888   1.273  1.00  0.00     0.027 C 
BRANCH  13  14
ATOM     14  C   UNL     1       1.301  44.160   1.123  1.00  0.00     0.004 C 
BRANCH  14  15
ATOM     15  C   UNL     1       2.504  45.118   1.253  1.00  0.00     0.000 C 
BRANCH  15  16
ATOM     16  C   UNL     1       3.251  44.993   2.592  1.00  0.00    -0.000 C 
BRANCH  16  17
ATOM     17  C   UNL     1       3.295  46.312   3.376  1.00  0.00    -0.003 C 
ATOM     18  C   UNL     1       2.050  46.479   4.243  1.00  0.00     0.004 C 
ENDBRANCH  16  17
ENDBRANCH  15  16
ENDBRANCH  14  15
ENDBRANCH  13  14
ENDBRANCH  12  13
ENDBRANCH  10  11
ENDBRANCH   1  10
TORSDOF 13
ENDMDL
MODEL 4
REMARK VINA RESULT:    -5.749      3.060      6.214
REMARK INTER + INTRA:         -11.415
REMARK INTER:                 -10.709
REMARK INTRA:                  -0.706
REMARK UNBOUND:                -1.297
REMARK SMILES CCCCCCC=CCCCCCCCC(=O)[O-]
REMARK SMILES IDX 10 1 11 2 12 3 13 4 14 5 15 6 16 7 17 8 18 9 9 10 8 11 7 12
REMARK SMILES IDX 6 13 5 14 4 15 3 16 2 17 1 18
REMARK H PARENT
REMARK Flexibility Score: inf
ROOT
ATOM      1  C   UNL     1      -0.022  44.822  -0.994  1.00  0.00     0.004 C 
ENDROOT
BRANCH   1   2
ATOM      2  C   UNL     1      -1.519  45.170  -0.916  1.00  0.00     0.000 C 
BRANCH   2   3
ATOM      3  C   UNL     1      -1.923  45.774   0.440  1.00  0.00     0.000 C 
BRANCH   3   4
ATOM      4  C   UNL     1      -2.777  44.816   1.284  1.00  0.00     0.000 C 
BRANCH   4   5
ATOM      5  C   UNL     1      -1.995  44.209   2.462  1.00  0.00     0.006 C 
BRANCH   5   6
ATOM      6  C   UNL     1      -2.183  45.010   3.756  1.00  0.00     0.053 C 
BRANCH   6   7
ATOM      7  C   UNL     1      -3.160  44.349   4.681  1.00  0.00     0.041 C 
ATOM      8  O   UNL     1      -3.967  45.045   5.353  1.00  0.00    -0.550 OA
ATOM      9  O   UNL     1      -3.198  42.965   4.778  1.00  0.00    -0.550 OA
ENDBRANCH   6   7
ENDBRANCH   5   6
ENDBRANCH   4   5
ENDBRANCH   3   4
ENDBRANCH   2   3
ENDBRANCH   1   2
BRANCH   1  10
ATOM     10  C   UNL     1       0.607  44.486   0.372  1.00  0.00     0.027 C 
BRANCH  10  11
ATOM     11  C   UNL     1       2.116  44.504   0.333  1.00  0.00    -0.031 C 
ATOM     12  C   UNL     1       2.897  44.948   1.335  1.00  0.00    -0.031 C 
BRANCH  12  13
ATOM     13  C   UNL     1       2.360  45.452   2.653  1.00  0.00     0.027 C 
BRANCH  13  14
ATOM     14  C   UNL     1       3.486  46.020   3.529  1.00  0.00     0.004 C 
BRANCH  14  15
ATOM     15  C   UNL     1       4.333  44.909   4.185  1.00  0.00     0.000 C 
BRANCH  15  16
ATOM     16  C   UNL     1       4.043  44.715   5.684  1.00  0.00    -0.000 C 
BRANCH  16  17
ATOM     17  C   UNL     1       4.981  43.697   6.346  1.00  0.00    -0.003 C 
ATOM     18  C   UNL     1       6.433  43.948   5.951  1.00  0.00     0.004 C 
ENDBRANCH  16  17
ENDBRANCH  15  16
ENDBRANCH  14  15
ENDBRANCH  13  14
ENDBRANCH  12  13
ENDBRANCH  10  11
ENDBRANCH   1  10
TORSDOF 13
ENDMDL
MODEL 5
REMARK VINA RESULT:    -5.702      2.829      6.120
REMARK INTER + INTRA:         -11.333
REMARK INTER:                  -9.998
REMARK INTRA:                  -1.335
REMARK UNBOUND:                -1.297
REMARK SMILES CCCCCCC=CCCCCCCCC(=O)[O-]
REMARK SMILES IDX 10 1 11 2 12 3 13 4 14 5 15 6 16 7 17 8 18 9 9 10 8 11 7 12
REMARK SMILES IDX 6 13 5 14 4 15 3 16 2 17 1 18
REMARK H PARENT
REMARK Flexibility Score: inf
ROOT
ATOM      1  C   UNL     1       1.742  46.704   5.059  1.00  0.00     0.004 C 
ENDROOT
BRANCH   1   2
ATOM      2  C   UNL     1       1.453  46.674   6.571  1.00  0.00     0.000 C 
BRANCH   2   3
ATOM      3  C   UNL     1      -0.018  46.974   6.905  1.00  0.00     0.000 C 
BRANCH   3   4
ATOM      4  C   UNL     1      -0.997  46.265   5.956  1.00  0.00     0.000 C 
BRANCH   4   5
ATOM      5  C   UNL     1      -2.431  46.219   6.514  1.00  0.00     0.006 C 
BRANCH   5   6
ATOM      6  C   UNL     1      -3.005  44.798   6.518  1.00  0.00     0.053 C 
BRANCH   6   7
ATOM      7  C   UNL     1      -3.445  44.372   5.150  1.00  0.00     0.041 C 
ATOM      8  O   UNL     1      -4.416  44.946   4.588  1.00  0.00    -0.550 OA
ATOM      9  O   UNL     1      -2.764  43.361   4.485  1.00  0.00    -0.550 OA
ENDBRANCH   6   7
ENDBRANCH   5   6
ENDBRANCH   4   5
ENDBRANCH   3   4
ENDBRANCH   2   3
ENDBRANCH   1   2
BRANCH   1  10
ATOM     10  C   UNL     1       3.037  45.970   4.662  1.00  0.00     0.027 C 
BRANCH  10  11
ATOM     11  C   UNL     1       3.544  46.388   3.303  1.00  0.00    -0.031 C 
ATOM     12  C   UNL     1       3.150  45.835   2.141  1.00  0.00    -0.031 C 
BRANCH  12  13
ATOM     13  C   UNL     1       2.113  44.741   2.046  1.00  0.00     0.027 C 
BRANCH  13  14
ATOM     14  C   UNL     1       1.600  44.589   0.606  1.00  0.00     0.004 C 
BRANCH  14  15
ATOM     15  C   UNL     1       0.062  44.689   0.520  1.00  0.00     0.000 C 
BRANCH  15  16
ATOM     16  C   UNL     1      -0.637  44.644   1.889  1.00  0.00    -0.000 C 
BRANCH  16  17
ATOM     17  C   UNL     1      -1.559  45.848   2.129  1.00  0.00    -0.003 C 
ATOM     18  C   UNL     1      -1.845  46.590   0.827  1.00  0.00     0.004 C 
ENDBRANCH  16  17
ENDBRANCH  15  16
ENDBRANCH  14  15
ENDBRANCH  13  14
ENDBRANCH  12  13
ENDBRANCH  10  11
ENDBRANCH   1  10
TORSDOF 13
ENDMDL
MODEL 6
REMARK VINA RESULT:    -5.670      3.863      6.300
REMARK INTER + INTRA:         -11.276
REMARK INTER:                 -10.270
REMARK INTRA:                  -1.006
REMARK UNBOUND:                -1.297
REMARK SMILES CCCCCCC=CCCCCCCCC(=O)[O-]
REMARK SMILES IDX 10 1 11 2 12 3 13 4 14 5 15 6 16 7 17 8 18 9 9 10 8 11 7 12
REMARK SMILES IDX 6 13 5 14 4 15 3 16 2 17 1 18
REMARK H PARENT
REMARK Flexibility Score: inf
ROOT
ATOM      1  C   UNL     1      -1.265  45.567  -0.909  1.00  0.00     0.004 C 
ENDROOT
BRANCH   1   2
ATOM      2  C   UNL     1      -0.716  44.880  -2.172  1.00  0.00     0.000 C 
BRANCH   2   3
ATOM      3  C   UNL     1       0.820  44.802  -2.191  1.00  0.00     0.000 C 
BRANCH   3   4
ATOM      4  C   UNL     1       1.377  44.423  -3.572  1.00  0.00     0.000 C 
BRANCH   4   5
ATOM      5  C   UNL     1       2.913  44.490  -3.629  1.00  0.00     0.006 C 
BRANCH   5   6
ATOM      6  C   UNL     1       3.572  43.542  -2.619  1.00  0.00     0.053 C 
BRANCH   6   7
ATOM      7  C   UNL     1       5.062  43.516  -2.774  1.00  0.00     0.041 C 
ATOM      8  O   UNL     1       5.783  43.000  -1.878  1.00  0.00    -0.550 OA
ATOM      9  O   UNL     1       5.652  44.034  -3.919  1.00  0.00    -0.550 OA
ENDBRANCH   6   7
ENDBRANCH   5   6
ENDBRANCH   4   5
ENDBRANCH   3   4
ENDBRANCH   2   3
ENDBRANCH   1   2
BRANCH   1  10
ATOM     10  C   UNL     1      -1.435  44.614   0.290  1.00  0.00     0.027 C 
BRANCH  10  11
ATOM     11  C   UNL     1      -1.004  45.243   1.593  1.00  0.00    -0.031 C 
ATOM     12  C   UNL     1       0.260  45.245   2.055  1.00  0.00    -0.031 C 
BRANCH  12  13
ATOM     13  C   UNL     1       1.425  44.645   1.304  1.00  0.00     0.027 C 
BRANCH  13  14
ATOM     14  C   UNL     1       2.751  44.921   2.028  1.00  0.00     0.004 C 
BRANCH  14  15
ATOM     15  C   UNL     1       2.609  46.006   3.117  1.00  0.00     0.000 C 
BRANCH  15  16
ATOM     16  C   UNL     1       3.545  45.801   4.319  1.00  0.00    -0.000 C 
BRANCH  16  17
ATOM     17  C   UNL     1       4.526  44.637   4.121  1.00  0.00    -0.003 C 
ATOM     18  C   UNL     1       5.457  44.491   5.321  1.00  0.00     0.004 C 
ENDBRANCH  16  17
ENDBRANCH  15  16
ENDBRANCH  14  15
ENDBRANCH  13  14
ENDBRANCH  12  13
ENDBRANCH  10  11
ENDBRANCH   1  10
TORSDOF 13
ENDMDL
MODEL 7
REMARK VINA RESULT:    -5.634      2.825      6.255
REMARK INTER + INTRA:         -11.213
REMARK INTER:                 -10.102
REMARK INTRA:                  -1.111
REMARK UNBOUND:                -1.297
REMARK SMILES CCCCCCC=CCCCCCCCC(=O)[O-]
REMARK SMILES IDX 10 1 11 2 12 3 13 4 14 5 15 6 16 7 17 8 18 9 9 10 8 11 7 12
REMARK SMILES IDX 6 13 5 14 4 15 3 16 2 17 1 18
REMARK H PARENT
REMARK Flexibility Score: inf
ROOT
ATOM      1  C   UNL     1       1.499  44.530   0.641  1.00  0.00     0.004 C 
ENDROOT
BRANCH   1   2
ATOM      2  C   UNL     1       0.117  44.164   1.211  1.00  0.00     0.000 C 
BRANCH   2   3
ATOM      3  C   UNL     1      -0.953  45.231   0.919  1.00  0.00     0.000 C 
BRANCH   3   4
ATOM      4  C   UNL     1      -1.461  45.925   2.191  1.00  0.00     0.000 C 
BRANCH   4   5
ATOM      5  C   UNL     1      -1.854  44.926   3.293  1.00  0.00     0.006 C 
BRANCH   5   6
ATOM      6  C   UNL     1      -2.035  45.606   4.655  1.00  0.00     0.053 C 
BRANCH   6   7
ATOM      7  C   UNL     1      -3.015  44.870   5.518  1.00  0.00     0.041 C 
ATOM      8  O   UNL     1      -3.767  45.504   6.306  1.00  0.00    -0.550 OA
ATOM      9  O   UNL     1      -3.117  43.489   5.430  1.00  0.00    -0.550 OA
ENDBRANCH   6   7
ENDBRANCH   5   6
ENDBRANCH   4   5
ENDBRANCH   3   4
ENDBRANCH   2   3
ENDBRANCH   1   2
BRANCH   1  10
ATOM     10  C   UNL     1       2.583  44.720   1.720  1.00  0.00     0.027 C 
BRANCH  10  11
ATOM     11  C   UNL     1       2.137  45.639   2.831  1.00  0.00    -0.031 C 
ATOM     12  C   UNL     1       2.954  46.144   3.774  1.00  0.00    -0.031 C 
BRANCH  12  13
ATOM     13  C   UNL     1       4.440  45.883   3.818  1.00  0.00     0.027 C 
BRANCH  13  14
ATOM     14  C   UNL     1       4.772  44.738   4.787  1.00  0.00     0.004 C 
BRANCH  14  15
ATOM     15  C   UNL     1       3.820  44.703   6.000  1.00  0.00     0.000 C 
BRANCH  15  16
ATOM     16  C   UNL     1       4.166  43.611   7.027  1.00  0.00    -0.000 C 
BRANCH  16  17
ATOM     17  C   UNL     1       5.628  43.151   6.938  1.00  0.00    -0.003 C 
ATOM     18  C   UNL     1       6.038  42.378   8.189  1.00  0.00     0.004 C 
ENDBRANCH  16  17
ENDBRANCH  15  16
ENDBRANCH  14  15
ENDBRANCH  13  14
ENDBRANCH  12  13
ENDBRANCH  10  11
ENDBRANCH   1  10
TORSDOF 13
ENDMDL
MODEL 8
REMARK VINA RESULT:    -5.615      4.630      6.753
REMARK INTER + INTRA:         -11.179
REMARK INTER:                 -10.555
REMARK INTRA:                  -0.625
REMARK UNBOUND:                -1.297
REMARK SMILES CCCCCCC=CCCCCCCCC(=O)[O-]
REMARK SMILES IDX 10 1 11 2 12 3 13 4 14 5 15 6 16 7 17 8 18 9 9 10 8 11 7 12
REMARK SMILES IDX 6 13 5 14 4 15 3 16 2 17 1 18
REMARK H PARENT
REMARK Flexibility Score: inf
ROOT
ATOM      1  C   UNL     1      -2.715  43.997   3.876  1.00  0.00     0.004 C 
ENDROOT
BRANCH   1   2
ATOM      2  C   UNL     1      -2.212  43.791   2.436  1.00  0.00     0.000 C 
BRANCH   2   3
ATOM      3  C   UNL     1      -1.203  44.865   1.996  1.00  0.00     0.000 C 
BRANCH   3   4
ATOM      4  C   UNL     1      -1.801  45.867   0.995  1.00  0.00     0.000 C 
BRANCH   4   5
ATOM      5  C   UNL     1      -1.987  45.260  -0.406  1.00  0.00     0.006 C 
BRANCH   5   6
ATOM      6  C   UNL     1      -0.650  45.018  -1.116  1.00  0.00     0.053 C 
BRANCH   6   7
ATOM      7  C   UNL     1      -0.783  45.123  -2.605  1.00  0.00     0.041 C 
ATOM      8  O   UNL     1       0.090  45.732  -3.278  1.00  0.00    -0.550 OA
ATOM      9  O   UNL     1      -1.857  44.525  -3.250  1.00  0.00    -0.550 OA
ENDBRANCH   6   7
ENDBRANCH   5   6
ENDBRANCH   4   5
ENDBRANCH   3   4
ENDBRANCH   2   3
ENDBRANCH   1   2
BRANCH   1  10
ATOM     10  C   UNL     1      -2.161  45.268   4.549  1.00  0.00     0.027 C 
BRANCH  10  11
ATOM     11  C   UNL     1      -2.670  45.441   5.960  1.00  0.00    -0.031 C 
ATOM     12  C   UNL     1      -2.009  46.099   6.931  1.00  0.00    -0.031 C 
BRANCH  12  13
ATOM     13  C   UNL     1      -0.681  46.785   6.720  1.00  0.00     0.027 C 
BRANCH  13  14
ATOM     14  C   UNL     1      -0.393  47.792   7.843  1.00  0.00     0.004 C 
BRANCH  14  15
ATOM     15  C   UNL     1       1.111  47.885   8.175  1.00  0.00     0.000 C 
BRANCH  15  16
ATOM     16  C   UNL     1       1.527  47.045   9.395  1.00  0.00    -0.000 C 
BRANCH  16  17
ATOM     17  C   UNL     1       1.582  47.863  10.692  1.00  0.00    -0.003 C 
ATOM     18  C   UNL     1       1.996  49.306  10.416  1.00  0.00     0.004 C 
ENDBRANCH  16  17
ENDBRANCH  15  16
ENDBRANCH  14  15
ENDBRANCH  13  14
ENDBRANCH  12  13
ENDBRANCH  10  11
ENDBRANCH   1  10
TORSDOF 13
ENDMDL
MODEL 9
REMARK VINA RESULT:    -5.530      3.646      6.419
REMARK INTER + INTRA:         -11.031
REMARK INTER:                 -10.264
REMARK INTRA:                  -0.766
REMARK UNBOUND:                -1.297
REMARK SMILES CCCCCCC=CCCCCCCCC(=O)[O-]
REMARK SMILES IDX 10 1 11 2 12 3 13 4 14 5 15 6 16 7 17 8 18 9 9 10 8 11 7 12
REMARK SMILES IDX 6 13 5 14 4 15 3 16 2 17 1 18
REMARK H PARENT
REMARK Flexibility Score: inf
ROOT
ATOM      1  C   UNL     1      -0.499  47.820   7.557  1.00  0.00     0.004 C 
ENDROOT
BRANCH   1   2
ATOM      2  C   UNL     1       0.815  47.699   8.350  1.00  0.00     0.000 C 
BRANCH   2   3
ATOM      3  C   UNL     1       0.890  48.676   9.536  1.00  0.00     0.000 C 
BRANCH   3   4
ATOM      4  C   UNL     1       2.149  48.471  10.393  1.00  0.00     0.000 C 
BRANCH   4   5
ATOM      5  C   UNL     1       1.853  47.728  11.707  1.00  0.00     0.006 C 
BRANCH   5   6
ATOM      6  C   UNL     1       2.668  46.435  11.838  1.00  0.00     0.053 C 
BRANCH   6   7
ATOM      7  C   UNL     1       2.232  45.400  10.846  1.00  0.00     0.041 C 
ATOM      8  O   UNL     1       1.065  44.927  10.895  1.00  0.00    -0.550 OA
ATOM      9  O   UNL     1       3.103  44.981   9.850  1.00  0.00    -0.550 OA
ENDBRANCH   6   7
ENDBRANCH   5   6
ENDBRANCH   4   5
ENDBRANCH   3   4
ENDBRANCH   2   3
ENDBRANCH   1   2
BRANCH   1  10
ATOM     10  C   UNL     1      -0.695  46.706   6.511  1.00  0.00     0.027 C 
BRANCH  10  11
ATOM     11  C   UNL     1      -2.020  45.998   6.664  1.00  0.00    -0.031 C 
ATOM     12  C   UNL     1      -2.644  45.331   5.675  1.00  0.00    -0.031 C 
BRANCH  12  13
ATOM     13  C   UNL     1      -2.075  45.174   4.285  1.00  0.00     0.027 C 
BRANCH  13  14
ATOM     14  C   UNL     1      -2.592  43.890   3.618  1.00  0.00     0.004 C 
BRANCH  14  15
ATOM     15  C   UNL     1      -1.996  43.682   2.210  1.00  0.00     0.000 C 
BRANCH  15  16
ATOM     16  C   UNL     1      -2.820  44.335   1.087  1.00  0.00    -0.000 C 
BRANCH  16  17
ATOM     17  C   UNL     1      -1.978  45.237   0.175  1.00  0.00    -0.003 C 
ATOM     18  C   UNL     1      -0.530  44.760   0.115  1.00  0.00     0.004 C 
ENDBRANCH  16  17
ENDBRANCH  15  16
ENDBRANCH  14  15
ENDBRANCH  13  14
ENDBRANCH  12  13
ENDBRANCH  10  11
ENDBRANCH   1  10
TORSDOF 13
ENDMDL
