MODEL 1
REMARK VINA RESULT:    -4.719      0.000      0.000
REMARK INTER + INTRA:          -5.404
REMARK INTER:                  -5.409
REMARK INTRA:                   0.004
REMARK UNBOUND:                 0.004
REMARK SMILES CC(C)[C@H]([NH3+])C(=O)[O-]
REMARK SMILES IDX 4 1 5 2 6 6 7 7 8 8 2 9 1 10 3 11
REMARK H PARENT 5 3 5 4 5 5
REMARK Flexibility Score: inf
ROOT
ATOM      1  C   UNL     1     -18.365  12.497 -13.999  1.00  0.00     0.230 C 
ENDROOT
BRANCH   1   2
ATOM      2  N   UNL     1     -18.366  11.358 -13.066  1.00  0.00    -0.350 N 
ATOM      3  H   UNL     1     -18.171  11.679 -12.090  1.00  0.00     0.345 HD
ATOM      4  H   UNL     1     -19.288  10.868 -13.096  1.00  0.00     0.345 HD
ATOM      5  H   UNL     1     -17.637  10.663 -13.348  1.00  0.00     0.345 HD
ENDBRANCH   1   2
BRANCH   1   6
ATOM      6  C   UNL     1     -16.942  12.855 -14.351  1.00  0.00     0.099 C 
ATOM      7  O   UNL     1     -16.292  12.154 -15.172  1.00  0.00    -0.544 OA
ATOM      8  O   UNL     1     -16.338  13.960 -13.764  1.00  0.00    -0.544 OA
ENDBRANCH   1   6
BRANCH   1   9
ATOM      9  C   UNL     1     -19.120  13.729 -13.412  1.00  0.00     0.047 C 
ATOM     10  C   UNL     1     -19.111  13.729 -11.875  1.00  0.00     0.014 C 
ATOM     11  C   UNL     1     -20.576  13.776 -13.907  1.00  0.00     0.014 C 
ENDBRANCH   1   9
TORSDOF 3
ENDMDL
MODEL 2
REMARK VINA RESULT:    -4.305      2.704      3.404
REMARK INTER + INTRA:          -4.930
REMARK INTER:                  -4.966
REMARK INTRA:                   0.036
REMARK UNBOUND:                 0.004
REMARK SMILES CC(C)[C@H]([NH3+])C(=O)[O-]
REMARK SMILES IDX 4 1 5 2 6 6 7 7 8 8 2 9 1 10 3 11
REMARK H PARENT 5 3 5 4 5 5
REMARK Flexibility Score: inf
ROOT
ATOM      1  C   UNL     1     -18.810  13.605 -12.719  1.00  0.00     0.230 C 
ENDROOT
BRANCH   1   2
ATOM      2  N   UNL     1     -18.834  13.726 -11.252  1.00  0.00    -0.350 N 
ATOM      3  H   UNL     1     -18.024  13.218 -10.827  1.00  0.00     0.345 HD
ATOM      4  H   UNL     1     -18.804  14.732 -10.972  1.00  0.00     0.345 HD
ATOM      5  H   UNL     1     -19.723  13.326 -10.873  1.00  0.00     0.345 HD
ENDBRANCH   1   2
BRANCH   1   6
ATOM      6  C   UNL     1     -20.158  13.133 -13.206  1.00  0.00     0.099 C 
ATOM      7  O   UNL     1     -20.693  12.108 -12.706  1.00  0.00    -0.544 OA
ATOM      8  O   UNL     1     -20.813  13.825 -14.216  1.00  0.00    -0.544 OA
ENDBRANCH   1   6
BRANCH   1   9
ATOM      9  C   UNL     1     -17.677  12.651 -13.206  1.00  0.00     0.047 C 
ATOM     10  C   UNL     1     -16.296  13.324 -13.145  1.00  0.00     0.014 C 
ATOM     11  C   UNL     1     -17.938  12.166 -14.643  1.00  0.00     0.014 C 
ENDBRANCH   1   9
TORSDOF 3
ENDMDL
MODEL 3
REMARK VINA RESULT:    -4.275      2.974      3.595
REMARK INTER + INTRA:          -4.896
REMARK INTER:                  -4.846
REMARK INTRA:                  -0.050
REMARK UNBOUND:                 0.004
REMARK SMILES CC(C)[C@H]([NH3+])C(=O)[O-]
REMARK SMILES IDX 4 1 5 2 6 6 7 7 8 8 2 9 1 10 3 11
REMARK H PARENT 5 3 5 4 5 5
REMARK Flexibility Score: inf
ROOT
ATOM      1  C   UNL     1     -19.518  12.600 -13.485  1.00  0.00     0.230 C 
ENDROOT
BRANCH   1   2
ATOM      2  N   UNL     1     -18.817  12.533 -14.778  1.00  0.00    -0.350 N 
ATOM      3  H   UNL     1     -19.495  12.618 -15.571  1.00  0.00     0.345 HD
ATOM      4  H   UNL     1     -18.105  13.295 -14.843  1.00  0.00     0.345 HD
ATOM      5  H   UNL     1     -18.306  11.624 -14.864  1.00  0.00     0.345 HD
ENDBRANCH   1   2
BRANCH   1   6
ATOM      6  C   UNL     1     -20.943  13.040 -13.709  1.00  0.00     0.099 C 
ATOM      7  O   UNL     1     -21.191  14.106 -14.333  1.00  0.00    -0.544 OA
ATOM      8  O   UNL     1     -21.993  12.274 -13.217  1.00  0.00    -0.544 OA
ENDBRANCH   1   6
BRANCH   1   9
ATOM      9  C   UNL     1     -18.793  13.547 -12.480  1.00  0.00     0.047 C 
ATOM     10  C   UNL     1     -17.345  13.835 -12.907  1.00  0.00     0.014 C 
ATOM     11  C   UNL     1     -18.791  12.953 -11.060  1.00  0.00     0.014 C 
ENDBRANCH   1   9
TORSDOF 3
ENDMDL
MODEL 4
REMARK VINA RESULT:    -4.181      2.663      3.570
REMARK INTER + INTRA:          -4.788
REMARK INTER:                  -4.878
REMARK INTRA:                   0.090
REMARK UNBOUND:                 0.004
REMARK SMILES CC(C)[C@H]([NH3+])C(=O)[O-]
REMARK SMILES IDX 4 1 5 2 6 6 7 7 8 8 2 9 1 10 3 11
REMARK H PARENT 5 3 5 4 5 5
REMARK Flexibility Score: inf
ROOT
ATOM      1  C   UNL     1     -18.831  13.815 -12.660  1.00  0.00     0.230 C 
ENDROOT
BRANCH   1   2
ATOM      2  N   UNL     1     -18.566  13.321 -11.299  1.00  0.00    -0.350 N 
ATOM      3  H   UNL     1     -19.049  13.917 -10.588  1.00  0.00     0.345 HD
ATOM      4  H   UNL     1     -18.890  12.332 -11.205  1.00  0.00     0.345 HD
ATOM      5  H   UNL     1     -17.537  13.329 -11.108  1.00  0.00     0.345 HD
ENDBRANCH   1   2
BRANCH   1   6
ATOM      6  C   UNL     1     -20.143  13.256 -13.151  1.00  0.00     0.099 C 
ATOM      7  O   UNL     1     -20.779  13.833 -14.073  1.00  0.00    -0.544 OA
ATOM      8  O   UNL     1     -20.663  12.101 -12.579  1.00  0.00    -0.544 OA
ENDBRANCH   1   6
BRANCH   1   9
ATOM      9  C   UNL     1     -17.673  13.463 -13.643  1.00  0.00     0.047 C 
ATOM     10  C   UNL     1     -17.921  12.128 -14.364  1.00  0.00     0.014 C 
ATOM     11  C   UNL     1     -16.322  13.395 -12.910  1.00  0.00     0.014 C 
ENDBRANCH   1   9
TORSDOF 3
ENDMDL
MODEL 5
REMARK VINA RESULT:    -4.149     18.910     19.643
REMARK INTER + INTRA:          -4.751
REMARK INTER:                  -4.784
REMARK INTRA:                   0.032
REMARK UNBOUND:                 0.004
REMARK SMILES CC(C)[C@H]([NH3+])C(=O)[O-]
REMARK SMILES IDX 4 1 5 2 6 6 7 7 8 8 2 9 1 10 3 11
REMARK H PARENT 5 3 5 4 5 5
REMARK Flexibility Score: inf
ROOT
ATOM      1  C   UNL     1     -12.456  -3.971 -22.014  1.00  0.00     0.230 C 
ENDROOT
BRANCH   1   2
ATOM      2  N   UNL     1     -12.143  -5.407 -21.935  1.00  0.00    -0.350 N 
ATOM      3  H   UNL     1     -11.695  -5.737 -22.821  1.00  0.00     0.345 HD
ATOM      4  H   UNL     1     -11.504  -5.594 -21.129  1.00  0.00     0.345 HD
ATOM      5  H   UNL     1     -13.017  -5.958 -21.770  1.00  0.00     0.345 HD
ENDBRANCH   1   2
BRANCH   1   6
ATOM      6  C   UNL     1     -12.750  -3.445 -20.631  1.00  0.00     0.099 C 
ATOM      7  O   UNL     1     -11.814  -3.250 -19.810  1.00  0.00    -0.544 OA
ATOM      8  O   UNL     1     -14.060  -3.182 -20.251  1.00  0.00    -0.544 OA
ENDBRANCH   1   6
BRANCH   1   9
ATOM      9  C   UNL     1     -13.646  -3.688 -22.982  1.00  0.00     0.047 C 
ATOM     10  C   UNL     1     -14.628  -4.869 -23.043  1.00  0.00     0.014 C 
ATOM     11  C   UNL     1     -13.145  -3.376 -24.403  1.00  0.00     0.014 C 
ENDBRANCH   1   9
TORSDOF 3
ENDMDL
MODEL 6
REMARK VINA RESULT:    -4.041     19.135     20.067
REMARK INTER + INTRA:          -4.628
REMARK INTER:                  -4.584
REMARK INTRA:                  -0.044
REMARK UNBOUND:                 0.004
REMARK SMILES CC(C)[C@H]([NH3+])C(=O)[O-]
REMARK SMILES IDX 4 1 5 2 6 6 7 7 8 8 2 9 1 10 3 11
REMARK H PARENT 5 3 5 4 5 5
REMARK Flexibility Score: inf
ROOT
ATOM      1  C   UNL     1     -13.215  -4.759 -22.624  1.00  0.00     0.230 C 
ENDROOT
BRANCH   1   2
ATOM      2  N   UNL     1     -12.185  -5.027 -23.641  1.00  0.00    -0.350 N 
ATOM      3  H   UNL     1     -12.436  -5.870 -24.208  1.00  0.00     0.345 HD
ATOM      4  H   UNL     1     -12.077  -4.201 -24.272  1.00  0.00     0.345 HD
ATOM      5  H   UNL     1     -11.260  -5.189 -23.182  1.00  0.00     0.345 HD
ENDBRANCH   1   2
BRANCH   1   6
ATOM      6  C   UNL     1     -14.519  -4.426 -23.304  1.00  0.00     0.099 C 
ATOM      7  O   UNL     1     -14.568  -3.525 -24.184  1.00  0.00    -0.544 OA
ATOM      8  O   UNL     1     -15.678  -5.108 -22.957  1.00  0.00    -0.544 OA
ENDBRANCH   1   6
BRANCH   1   9
ATOM      9  C   UNL     1     -12.787  -3.618 -21.651  1.00  0.00     0.047 C 
ATOM     10  C   UNL     1     -11.535  -3.994 -20.841  1.00  0.00     0.014 C 
ATOM     11  C   UNL     1     -13.925  -3.260 -20.679  1.00  0.00     0.014 C 
ENDBRANCH   1   9
TORSDOF 3
ENDMDL
MODEL 7
REMARK VINA RESULT:    -4.031      2.545      3.455
REMARK INTER + INTRA:          -4.616
REMARK INTER:                  -4.776
REMARK INTRA:                   0.160
REMARK UNBOUND:                 0.004
REMARK SMILES CC(C)[C@H]([NH3+])C(=O)[O-]
REMARK SMILES IDX 4 1 5 2 6 6 7 7 8 8 2 9 1 10 3 11
REMARK H PARENT 5 3 5 4 5 5
REMARK Flexibility Score: inf
ROOT
ATOM      1  C   UNL     1     -18.500  12.531 -13.510  1.00  0.00     0.230 C 
ENDROOT
BRANCH   1   2
ATOM      2  N   UNL     1     -19.176  13.476 -14.414  1.00  0.00    -0.350 N 
ATOM      3  H   UNL     1     -19.068  13.176 -15.410  1.00  0.00     0.345 HD
ATOM      4  H   UNL     1     -20.192  13.539 -14.175  1.00  0.00     0.345 HD
ATOM      5  H   UNL     1     -18.771  14.434 -14.300  1.00  0.00     0.345 HD
ENDBRANCH   1   2
BRANCH   1   6
ATOM      6  C   UNL     1     -18.952  12.781 -12.093  1.00  0.00     0.099 C 
ATOM      7  O   UNL     1     -19.070  13.958 -11.659  1.00  0.00    -0.544 OA
ATOM      8  O   UNL     1     -19.233  11.710 -11.253  1.00  0.00    -0.544 OA
ENDBRANCH   1   6
BRANCH   1   9
ATOM      9  C   UNL     1     -16.948  12.626 -13.625  1.00  0.00     0.047 C 
ATOM     10  C   UNL     1     -16.439  14.050 -13.343  1.00  0.00     0.014 C 
ATOM     11  C   UNL     1     -16.464  12.186 -15.018  1.00  0.00     0.014 C 
ENDBRANCH   1   9
TORSDOF 3
ENDMDL
MODEL 8
REMARK VINA RESULT:    -4.005     18.898     19.513
REMARK INTER + INTRA:          -4.586
REMARK INTER:                  -4.696
REMARK INTRA:                   0.110
REMARK UNBOUND:                 0.004
REMARK SMILES CC(C)[C@H]([NH3+])C(=O)[O-]
REMARK SMILES IDX 4 1 5 2 6 6 7 7 8 8 2 9 1 10 3 11
REMARK H PARENT 5 3 5 4 5 5
REMARK Flexibility Score: inf
ROOT
ATOM      1  C   UNL     1     -13.247  -3.999 -21.055  1.00  0.00     0.230 C 
ENDROOT
BRANCH   1   2
ATOM      2  N   UNL     1     -14.005  -3.080 -20.191  1.00  0.00    -0.350 N 
ATOM      3  H   UNL     1     -14.594  -3.613 -19.511  1.00  0.00     0.345 HD
ATOM      4  H   UNL     1     -13.351  -2.452 -19.671  1.00  0.00     0.345 HD
ATOM      5  H   UNL     1     -14.624  -2.468 -20.772  1.00  0.00     0.345 HD
ENDBRANCH   1   2
BRANCH   1   6
ATOM      6  C   UNL     1     -11.794  -3.987 -20.650  1.00  0.00     0.099 C 
ATOM      7  O   UNL     1     -11.148  -5.065 -20.560  1.00  0.00    -0.544 OA
ATOM      8  O   UNL     1     -11.162  -2.783 -20.364  1.00  0.00    -0.544 OA
ENDBRANCH   1   6
BRANCH   1   9
ATOM      9  C   UNL     1     -13.406  -3.642 -22.565  1.00  0.00     0.047 C 
ATOM     10  C   UNL     1     -14.739  -4.154 -23.137  1.00  0.00     0.014 C 
ATOM     11  C   UNL     1     -12.247  -4.217 -23.398  1.00  0.00     0.014 C 
ENDBRANCH   1   9
TORSDOF 3
ENDMDL
MODEL 9
REMARK VINA RESULT:    -4.001      1.627      2.200
REMARK INTER + INTRA:          -4.581
REMARK INTER:                  -4.534
REMARK INTRA:                  -0.047
REMARK UNBOUND:                 0.004
REMARK SMILES CC(C)[C@H]([NH3+])C(=O)[O-]
REMARK SMILES IDX 4 1 5 2 6 6 7 7 8 8 2 9 1 10 3 11
REMARK H PARENT 5 3 5 4 5 5
REMARK Flexibility Score: inf
ROOT
ATOM      1  C   UNL     1     -17.815  12.744 -12.807  1.00  0.00     0.230 C 
ENDROOT
BRANCH   1   2
ATOM      2  N   UNL     1     -17.650  14.125 -12.324  1.00  0.00    -0.350 N 
ATOM      3  H   UNL     1     -16.659  14.301 -12.038  1.00  0.00     0.345 HD
ATOM      4  H   UNL     1     -17.926  14.804 -13.069  1.00  0.00     0.345 HD
ATOM      5  H   UNL     1     -18.275  14.295 -11.503  1.00  0.00     0.345 HD
ENDBRANCH   1   2
BRANCH   1   6
ATOM      6  C   UNL     1     -17.282  12.638 -14.214  1.00  0.00     0.099 C 
ATOM      7  O   UNL     1     -16.397  13.437 -14.624  1.00  0.00    -0.544 OA
ATOM      8  O   UNL     1     -17.773  11.662 -15.072  1.00  0.00    -0.544 OA
ENDBRANCH   1   6
BRANCH   1   9
ATOM      9  C   UNL     1     -19.301  12.278 -12.738  1.00  0.00     0.047 C 
ATOM     10  C   UNL     1     -20.261  13.335 -13.308  1.00  0.00     0.014 C 
ATOM     11  C   UNL     1     -19.715  11.950 -11.292  1.00  0.00     0.014 C 
ENDBRANCH   1   9
TORSDOF 3
ENDMDL
