MODEL 1
REMARK VINA RESULT:    -3.998      0.000      0.000
REMARK INTER + INTRA:          -9.820
REMARK INTER:                  -7.504
REMARK INTRA:                  -2.315
REMARK UNBOUND:                -2.315
REMARK SMILES O=C([O-])CCCCCCCCCCCCCCC(=O)[O-]
REMARK SMILES IDX 10 1 9 2 8 3 7 4 6 5 5 6 4 7 2 8 1 9 3 10 11 11 12 12 13 13
REMARK SMILES IDX 14 14 15 15 16 16 17 17 18 18 19 19 20 20
REMARK H PARENT
REMARK Flexibility Score: inf
ROOT
ATOM      1  C   UNL     1      97.759   3.116 -29.734  1.00  0.00     0.000 C 
ENDROOT
BRANCH   1   2
ATOM      2  C   UNL     1      98.343   4.517 -29.486  1.00  0.00     0.000 C 
BRANCH   2   3
ATOM      3  C   UNL     1      99.091   4.615 -28.145  1.00  0.00     0.000 C 
BRANCH   3   4
ATOM      4  C   UNL     1      98.141   4.638 -26.938  1.00  0.00     0.000 C 
BRANCH   4   5
ATOM      5  C   UNL     1      98.675   3.752 -25.803  1.00  0.00     0.000 C 
BRANCH   5   6
ATOM      6  C   UNL     1      97.554   3.046 -25.023  1.00  0.00     0.006 C 
BRANCH   6   7
ATOM      7  C   UNL     1      96.334   2.730 -25.897  1.00  0.00     0.053 C 
BRANCH   7   8
ATOM      8  C   UNL     1      95.094   3.306 -25.290  1.00  0.00     0.041 C 
ATOM      9  O   UNL     1      94.425   4.169 -25.916  1.00  0.00    -0.550 OA
ATOM     10  O   UNL     1      94.705   2.927 -24.013  1.00  0.00    -0.550 OA
ENDBRANCH   7   8
ENDBRANCH   6   7
ENDBRANCH   5   6
ENDBRANCH   4   5
ENDBRANCH   3   4
ENDBRANCH   2   3
ENDBRANCH   1   2
BRANCH   1  11
ATOM     11  C   UNL     1      98.824   2.094 -30.170  1.00  0.00     0.000 C 
BRANCH  11  12
ATOM     12  C   UNL     1      98.818   0.798 -29.332  1.00  0.00     0.000 C 
BRANCH  12  13
ATOM     13  C   UNL     1      99.555   0.971 -27.993  1.00  0.00     0.000 C 
BRANCH  13  14
ATOM     14  C   UNL     1      99.070  -0.016 -26.919  1.00  0.00     0.000 C 
BRANCH  14  15
ATOM     15  C   UNL     1      99.819   0.147 -25.586  1.00  0.00     0.000 C 
BRANCH  15  16
ATOM     16  C   UNL     1      99.335  -0.841 -24.508  1.00  0.00     0.006 C 
BRANCH  16  17
ATOM     17  C   UNL     1      97.843  -1.198 -24.605  1.00  0.00     0.053 C 
BRANCH  17  18
ATOM     18  C   UNL     1      97.005  -0.360 -23.689  1.00  0.00     0.041 C 
ATOM     19  O   UNL     1      97.536   0.249 -22.724  1.00  0.00    -0.550 OA
ATOM     20  O   UNL     1      95.632  -0.282 -23.882  1.00  0.00    -0.550 OA
ENDBRANCH  17  18
ENDBRANCH  16  17
ENDBRANCH  15  16
ENDBRANCH  14  15
ENDBRANCH  13  14
ENDBRANCH  12  13
ENDBRANCH  11  12
ENDBRANCH   1  11
TORSDOF 15
ENDMDL
MODEL 2
REMARK VINA RESULT:    -3.963      1.534      2.680
REMARK INTER + INTRA:          -9.754
REMARK INTER:                  -7.674
REMARK INTRA:                  -2.079
REMARK UNBOUND:                -2.315
REMARK SMILES O=C([O-])CCCCCCCCCCCCCCC(=O)[O-]
REMARK SMILES IDX 10 1 9 2 8 3 7 4 6 5 5 6 4 7 2 8 1 9 3 10 11 11 12 12 13 13
REMARK SMILES IDX 14 14 15 15 16 16 17 17 18 18 19 19 20 20
REMARK H PARENT
REMARK Flexibility Score: inf
ROOT
ATOM      1  C   UNL     1      98.258   4.929 -28.240  1.00  0.00     0.000 C 
ENDROOT
BRANCH   1   2
ATOM      2  C   UNL     1      99.131   4.587 -27.022  1.00  0.00     0.000 C 
BRANCH   2   3
ATOM      3  C   UNL     1      98.348   3.848 -25.923  1.00  0.00     0.000 C 
BRANCH   3   4
ATOM      4  C   UNL     1      97.018   3.270 -26.431  1.00  0.00     0.000 C 
BRANCH   4   5
ATOM      5  C   UNL     1      96.229   2.620 -25.285  1.00  0.00     0.000 C 
BRANCH   5   6
ATOM      6  C   UNL     1      94.847   3.259 -25.079  1.00  0.00     0.006 C 
BRANCH   6   7
ATOM      7  C   UNL     1      94.297   3.907 -26.357  1.00  0.00     0.053 C 
BRANCH   7   8
ATOM      8  C   UNL     1      93.565   2.895 -27.180  1.00  0.00     0.041 C 
ATOM      9  O   UNL     1      92.927   1.965 -26.620  1.00  0.00    -0.550 OA
ATOM     10  O   UNL     1      93.628   2.950 -28.566  1.00  0.00    -0.550 OA
ENDBRANCH   7   8
ENDBRANCH   6   7
ENDBRANCH   5   6
ENDBRANCH   4   5
ENDBRANCH   3   4
ENDBRANCH   2   3
ENDBRANCH   1   2
BRANCH   1  11
ATOM     11  C   UNL     1      98.686   4.177 -29.512  1.00  0.00     0.000 C 
BRANCH  11  12
ATOM     12  C   UNL     1     100.098   3.559 -29.420  1.00  0.00     0.000 C 
BRANCH  12  13
ATOM     13  C   UNL     1     100.112   2.081 -29.846  1.00  0.00     0.000 C 
BRANCH  13  14
ATOM     14  C   UNL     1      99.241   1.197 -28.940  1.00  0.00     0.000 C 
BRANCH  14  15
ATOM     15  C   UNL     1      99.878   0.956 -27.561  1.00  0.00     0.000 C 
BRANCH  15  16
ATOM     16  C   UNL     1      98.955   0.173 -26.608  1.00  0.00     0.006 C 
BRANCH  16  17
ATOM     17  C   UNL     1      99.651  -0.341 -25.339  1.00  0.00     0.053 C 
BRANCH  17  18
ATOM     18  C   UNL     1      99.151   0.348 -24.107  1.00  0.00     0.041 C 
ATOM     19  O   UNL     1      98.241  -0.175 -23.412  1.00  0.00    -0.550 OA
ATOM     20  O   UNL     1      99.668   1.586 -23.745  1.00  0.00    -0.550 OA
ENDBRANCH  17  18
ENDBRANCH  16  17
ENDBRANCH  15  16
ENDBRANCH  14  15
ENDBRANCH  13  14
ENDBRANCH  12  13
ENDBRANCH  11  12
ENDBRANCH   1  11
TORSDOF 15
ENDMDL
MODEL 3
REMARK VINA RESULT:    -3.946      1.421      4.864
REMARK INTER + INTRA:          -9.722
REMARK INTER:                  -7.343
REMARK INTRA:                  -2.379
REMARK UNBOUND:                -2.315
REMARK SMILES O=C([O-])CCCCCCCCCCCCCCC(=O)[O-]
REMARK SMILES IDX 10 1 9 2 8 3 7 4 6 5 5 6 4 7 2 8 1 9 3 10 11 11 12 12 13 13
REMARK SMILES IDX 14 14 15 15 16 16 17 17 18 18 19 19 20 20
REMARK H PARENT
REMARK Flexibility Score: inf
ROOT
ATOM      1  C   UNL     1      99.062   2.083 -28.942  1.00  0.00     0.000 C 
ENDROOT
BRANCH   1   2
ATOM      2  C   UNL     1      99.021   0.735 -28.204  1.00  0.00     0.000 C 
BRANCH   2   3
ATOM      3  C   UNL     1      99.820   0.758 -26.890  1.00  0.00     0.000 C 
BRANCH   3   4
ATOM      4  C   UNL     1      99.326  -0.287 -25.878  1.00  0.00     0.000 C 
BRANCH   4   5
ATOM      5  C   UNL     1      99.604   0.169 -24.438  1.00  0.00     0.000 C 
BRANCH   5   6
ATOM      6  C   UNL     1      98.412  -0.071 -23.499  1.00  0.00     0.006 C 
BRANCH   6   7
ATOM      7  C   UNL     1      97.259  -0.816 -24.184  1.00  0.00     0.053 C 
BRANCH   7   8
ATOM      8  C   UNL     1      97.116  -2.192 -23.616  1.00  0.00     0.041 C 
ATOM      9  O   UNL     1      97.680  -2.490 -22.530  1.00  0.00    -0.550 OA
ATOM     10  O   UNL     1      96.403  -3.160 -24.310  1.00  0.00    -0.550 OA
ENDBRANCH   7   8
ENDBRANCH   6   7
ENDBRANCH   5   6
ENDBRANCH   4   5
ENDBRANCH   3   4
ENDBRANCH   2   3
ENDBRANCH   1   2
BRANCH   1  11
ATOM     11  C   UNL     1     100.014   3.096 -28.282  1.00  0.00     0.000 C 
BRANCH  11  12
ATOM     12  C   UNL     1      99.391   4.496 -28.091  1.00  0.00     0.000 C 
BRANCH  12  13
ATOM     13  C   UNL     1      98.211   4.476 -27.105  1.00  0.00     0.000 C 
BRANCH  13  14
ATOM     14  C   UNL     1      98.642   4.111 -25.675  1.00  0.00     0.000 C 
BRANCH  14  15
ATOM     15  C   UNL     1      97.635   3.185 -24.972  1.00  0.00     0.000 C 
BRANCH  15  16
ATOM     16  C   UNL     1      96.618   2.564 -25.948  1.00  0.00     0.006 C 
BRANCH  16  17
ATOM     17  C   UNL     1      95.149   2.800 -25.562  1.00  0.00     0.053 C 
BRANCH  17  18
ATOM     18  C   UNL     1      94.454   3.708 -26.529  1.00  0.00     0.041 C 
ATOM     19  O   UNL     1      94.021   4.827 -26.149  1.00  0.00    -0.550 OA
ATOM     20  O   UNL     1      94.253   3.301 -27.842  1.00  0.00    -0.550 OA
ENDBRANCH  17  18
ENDBRANCH  16  17
ENDBRANCH  15  16
ENDBRANCH  14  15
ENDBRANCH  13  14
ENDBRANCH  12  13
ENDBRANCH  11  12
ENDBRANCH   1  11
TORSDOF 15
ENDMDL
MODEL 4
REMARK VINA RESULT:    -3.894      1.218      4.571
REMARK INTER + INTRA:          -9.623
REMARK INTER:                  -7.494
REMARK INTRA:                  -2.129
REMARK UNBOUND:                -2.315
REMARK SMILES O=C([O-])CCCCCCCCCCCCCCC(=O)[O-]
REMARK SMILES IDX 10 1 9 2 8 3 7 4 6 5 5 6 4 7 2 8 1 9 3 10 11 11 12 12 13 13
REMARK SMILES IDX 14 14 15 15 16 16 17 17 18 18 19 19 20 20
REMARK H PARENT
REMARK Flexibility Score: inf
ROOT
ATOM      1  C   UNL     1      99.502   1.697 -29.829  1.00  0.00     0.000 C 
ENDROOT
BRANCH   1   2
ATOM      2  C   UNL     1     100.113   1.230 -28.497  1.00  0.00     0.000 C 
BRANCH   2   3
ATOM      3  C   UNL     1      99.074   0.582 -27.567  1.00  0.00     0.000 C 
BRANCH   3   4
ATOM      4  C   UNL     1      99.647   0.249 -26.181  1.00  0.00     0.000 C 
BRANCH   4   5
ATOM      5  C   UNL     1      98.916  -0.951 -25.560  1.00  0.00     0.000 C 
BRANCH   5   6
ATOM      6  C   UNL     1      98.147  -0.582 -24.282  1.00  0.00     0.006 C 
BRANCH   6   7
ATOM      7  C   UNL     1      98.821   0.548 -23.491  1.00  0.00     0.053 C 
BRANCH   7   8
ATOM      8  C   UNL     1      98.861   0.213 -22.034  1.00  0.00     0.041 C 
ATOM      9  O   UNL     1      99.908   0.416 -21.366  1.00  0.00    -0.550 OA
ATOM     10  O   UNL     1      97.759  -0.372 -21.425  1.00  0.00    -0.550 OA
ENDBRANCH   7   8
ENDBRANCH   6   7
ENDBRANCH   5   6
ENDBRANCH   4   5
ENDBRANCH   3   4
ENDBRANCH   2   3
ENDBRANCH   1   2
BRANCH   1  11
ATOM     11  C   UNL     1      98.302   2.642 -29.636  1.00  0.00     0.000 C 
BRANCH  11  12
ATOM     12  C   UNL     1      98.704   4.109 -29.374  1.00  0.00     0.000 C 
BRANCH  12  13
ATOM     13  C   UNL     1      98.132   4.639 -28.049  1.00  0.00     0.000 C 
BRANCH  13  14
ATOM     14  C   UNL     1      99.060   4.368 -26.854  1.00  0.00     0.000 C 
BRANCH  14  15
ATOM     15  C   UNL     1      98.321   3.734 -25.664  1.00  0.00     0.000 C 
BRANCH  15  16
ATOM     16  C   UNL     1      97.026   3.013 -26.084  1.00  0.00     0.006 C 
BRANCH  16  17
ATOM     17  C   UNL     1      96.023   2.804 -24.939  1.00  0.00     0.053 C 
BRANCH  17  18
ATOM     18  C   UNL     1      94.719   3.491 -25.204  1.00  0.00     0.041 C 
ATOM     19  O   UNL     1      94.590   4.242 -26.207  1.00  0.00    -0.550 OA
ATOM     20  O   UNL     1      93.657   3.330 -24.324  1.00  0.00    -0.550 OA
ENDBRANCH  17  18
ENDBRANCH  16  17
ENDBRANCH  15  16
ENDBRANCH  14  15
ENDBRANCH  13  14
ENDBRANCH  12  13
ENDBRANCH  11  12
ENDBRANCH   1  11
TORSDOF 15
ENDMDL
MODEL 5
REMARK VINA RESULT:    -3.844      1.030      4.397
REMARK INTER + INTRA:          -9.531
REMARK INTER:                  -7.408
REMARK INTRA:                  -2.123
REMARK UNBOUND:                -2.315
REMARK SMILES O=C([O-])CCCCCCCCCCCCCCC(=O)[O-]
REMARK SMILES IDX 10 1 9 2 8 3 7 4 6 5 5 6 4 7 2 8 1 9 3 10 11 11 12 12 13 13
REMARK SMILES IDX 14 14 15 15 16 16 17 17 18 18 19 19 20 20
REMARK H PARENT
REMARK Flexibility Score: inf
ROOT
ATOM      1  C   UNL     1      99.754   1.308 -28.573  1.00  0.00     0.000 C 
ENDROOT
BRANCH   1   2
ATOM      2  C   UNL     1      99.232   0.525 -27.357  1.00  0.00     0.000 C 
BRANCH   2   3
ATOM      3  C   UNL     1     100.089   0.749 -26.100  1.00  0.00     0.000 C 
BRANCH   3   4
ATOM      4  C   UNL     1      99.916  -0.367 -25.058  1.00  0.00     0.000 C 
BRANCH   4   5
ATOM      5  C   UNL     1      98.625  -1.159 -25.312  1.00  0.00     0.000 C 
BRANCH   5   6
ATOM      6  C   UNL     1      97.636  -1.076 -24.138  1.00  0.00     0.006 C 
BRANCH   6   7
ATOM      7  C   UNL     1      97.057   0.333 -23.951  1.00  0.00     0.053 C 
BRANCH   7   8
ATOM      8  C   UNL     1      96.175   0.378 -22.744  1.00  0.00     0.041 C 
ATOM      9  O   UNL     1      94.932   0.528 -22.874  1.00  0.00    -0.550 OA
ATOM     10  O   UNL     1      96.731   0.305 -21.474  1.00  0.00    -0.550 OA
ENDBRANCH   7   8
ENDBRANCH   6   7
ENDBRANCH   5   6
ENDBRANCH   4   5
ENDBRANCH   3   4
ENDBRANCH   2   3
ENDBRANCH   1   2
BRANCH   1  11
ATOM     11  C   UNL     1      98.645   2.085 -29.304  1.00  0.00     0.000 C 
BRANCH  11  12
ATOM     12  C   UNL     1      99.035   3.537 -29.655  1.00  0.00     0.000 C 
BRANCH  12  13
ATOM     13  C   UNL     1      99.661   4.274 -28.459  1.00  0.00     0.000 C 
BRANCH  13  14
ATOM     14  C   UNL     1      98.605   4.828 -27.489  1.00  0.00     0.000 C 
BRANCH  14  15
ATOM     15  C   UNL     1      98.628   4.120 -26.124  1.00  0.00     0.000 C 
BRANCH  15  16
ATOM     16  C   UNL     1      97.315   3.376 -25.817  1.00  0.00     0.006 C 
BRANCH  16  17
ATOM     17  C   UNL     1      96.209   3.596 -26.860  1.00  0.00     0.053 C 
BRANCH  17  18
ATOM     18  C   UNL     1      94.842   3.500 -26.256  1.00  0.00     0.041 C 
ATOM     19  O   UNL     1      94.531   2.509 -25.544  1.00  0.00    -0.550 OA
ATOM     20  O   UNL     1      93.900   4.490 -26.508  1.00  0.00    -0.550 OA
ENDBRANCH  17  18
ENDBRANCH  16  17
ENDBRANCH  15  16
ENDBRANCH  14  15
ENDBRANCH  13  14
ENDBRANCH  12  13
ENDBRANCH  11  12
ENDBRANCH   1  11
TORSDOF 15
ENDMDL
MODEL 6
REMARK VINA RESULT:    -3.696      2.987      4.635
REMARK INTER + INTRA:          -9.253
REMARK INTER:                  -7.873
REMARK INTRA:                  -1.380
REMARK UNBOUND:                -2.315
REMARK SMILES O=C([O-])CCCCCCCCCCCCCCC(=O)[O-]
REMARK SMILES IDX 10 1 9 2 8 3 7 4 6 5 5 6 4 7 2 8 1 9 3 10 11 11 12 12 13 13
REMARK SMILES IDX 14 14 15 15 16 16 17 17 18 18 19 19 20 20
REMARK H PARENT
REMARK Flexibility Score: inf
ROOT
ATOM      1  C   UNL     1      97.272   3.075 -25.199  1.00  0.00     0.000 C 
ENDROOT
BRANCH   1   2
ATOM      2  C   UNL     1      96.159   3.360 -26.220  1.00  0.00     0.000 C 
BRANCH   2   3
ATOM      3  C   UNL     1      94.805   3.650 -25.551  1.00  0.00     0.000 C 
BRANCH   3   4
ATOM      4  C   UNL     1      93.804   4.321 -26.504  1.00  0.00     0.000 C 
BRANCH   4   5
ATOM      5  C   UNL     1      93.443   5.732 -26.016  1.00  0.00     0.000 C 
BRANCH   5   6
ATOM      6  C   UNL     1      92.344   6.390 -26.864  1.00  0.00     0.006 C 
BRANCH   6   7
ATOM      7  C   UNL     1      91.804   5.460 -27.959  1.00  0.00     0.053 C 
BRANCH   7   8
ATOM      8  C   UNL     1      91.016   6.240 -28.964  1.00  0.00     0.041 C 
ATOM      9  O   UNL     1      91.497   6.468 -30.105  1.00  0.00    -0.550 OA
ATOM     10  O   UNL     1      89.774   6.757 -28.623  1.00  0.00    -0.550 OA
ENDBRANCH   7   8
ENDBRANCH   6   7
ENDBRANCH   5   6
ENDBRANCH   4   5
ENDBRANCH   3   4
ENDBRANCH   2   3
ENDBRANCH   1   2
BRANCH   1  11
ATOM     11  C   UNL     1      98.610   3.735 -25.574  1.00  0.00     0.000 C 
BRANCH  11  12
ATOM     12  C   UNL     1      98.585   4.452 -26.941  1.00  0.00     0.000 C 
BRANCH  12  13
ATOM     13  C   UNL     1      99.602   3.853 -27.927  1.00  0.00     0.000 C 
BRANCH  13  14
ATOM     14  C   UNL     1      99.111   2.540 -28.556  1.00  0.00     0.000 C 
BRANCH  14  15
ATOM     15  C   UNL     1      99.960   1.329 -28.133  1.00  0.00     0.000 C 
BRANCH  15  16
ATOM     16  C   UNL     1      99.229   0.409 -27.137  1.00  0.00     0.006 C 
BRANCH  16  17
ATOM     17  C   UNL     1      99.927   0.275 -25.775  1.00  0.00     0.053 C 
BRANCH  17  18
ATOM     18  C   UNL     1      99.030  -0.336 -24.743  1.00  0.00     0.041 C 
ATOM     19  O   UNL     1      97.810  -0.523 -24.994  1.00  0.00    -0.550 OA
ATOM     20  O   UNL     1      99.534  -0.668 -23.492  1.00  0.00    -0.550 OA
ENDBRANCH  17  18
ENDBRANCH  16  17
ENDBRANCH  15  16
ENDBRANCH  14  15
ENDBRANCH  13  14
ENDBRANCH  12  13
ENDBRANCH  11  12
ENDBRANCH   1  11
TORSDOF 15
ENDMDL
MODEL 7
REMARK VINA RESULT:    -3.684      2.502      5.867
REMARK INTER + INTRA:          -9.230
REMARK INTER:                  -7.378
REMARK INTRA:                  -1.852
REMARK UNBOUND:                -2.315
REMARK SMILES O=C([O-])CCCCCCCCCCCCCCC(=O)[O-]
REMARK SMILES IDX 10 1 9 2 8 3 7 4 6 5 5 6 4 7 2 8 1 9 3 10 11 11 12 12 13 13
REMARK SMILES IDX 14 14 15 15 16 16 17 17 18 18 19 19 20 20
REMARK H PARENT
REMARK Flexibility Score: inf
ROOT
ATOM      1  C   UNL     1      98.587   4.933 -27.640  1.00  0.00     0.000 C 
ENDROOT
BRANCH   1   2
ATOM      2  C   UNL     1      99.664   4.628 -28.695  1.00  0.00     0.000 C 
BRANCH   2   3
ATOM      3  C   UNL     1     100.062   3.143 -28.717  1.00  0.00     0.000 C 
BRANCH   3   4
ATOM      4  C   UNL     1      99.084   2.280 -29.529  1.00  0.00     0.000 C 
BRANCH   4   5
ATOM      5  C   UNL     1      98.879   0.910 -28.865  1.00  0.00     0.000 C 
BRANCH   5   6
ATOM      6  C   UNL     1      99.642   0.774 -27.538  1.00  0.00     0.006 C 
BRANCH   6   7
ATOM      7  C   UNL     1      98.946  -0.172 -26.550  1.00  0.00     0.053 C 
BRANCH   7   8
ATOM      8  C   UNL     1      99.677  -0.193 -25.245  1.00  0.00     0.041 C 
ATOM      9  O   UNL     1      99.874  -1.283 -24.647  1.00  0.00    -0.550 OA
ATOM     10  O   UNL     1     100.097   0.997 -24.665  1.00  0.00    -0.550 OA
ENDBRANCH   7   8
ENDBRANCH   6   7
ENDBRANCH   5   6
ENDBRANCH   4   5
ENDBRANCH   3   4
ENDBRANCH   2   3
ENDBRANCH   1   2
BRANCH   1  11
ATOM     11  C   UNL     1      98.779   4.130 -26.342  1.00  0.00     0.000 C 
BRANCH  11  12
ATOM     12  C   UNL     1      97.531   3.321 -25.924  1.00  0.00     0.000 C 
BRANCH  12  13
ATOM     13  C   UNL     1      96.409   3.406 -26.973  1.00  0.00     0.000 C 
BRANCH  13  14
ATOM     14  C   UNL     1      95.023   3.109 -26.379  1.00  0.00     0.000 C 
BRANCH  14  15
ATOM     15  C   UNL     1      94.116   4.351 -26.347  1.00  0.00     0.000 C 
BRANCH  15  16
ATOM     16  C   UNL     1      92.708   4.074 -26.906  1.00  0.00     0.006 C 
BRANCH  16  17
ATOM     17  C   UNL     1      92.641   2.892 -27.885  1.00  0.00     0.053 C 
BRANCH  17  18
ATOM     18  C   UNL     1      92.408   3.343 -29.294  1.00  0.00     0.041 C 
ATOM     19  O   UNL     1      91.252   3.665 -29.674  1.00  0.00    -0.550 OA
ATOM     20  O   UNL     1      93.464   3.374 -30.196  1.00  0.00    -0.550 OA
ENDBRANCH  17  18
ENDBRANCH  16  17
ENDBRANCH  15  16
ENDBRANCH  14  15
ENDBRANCH  13  14
ENDBRANCH  12  13
ENDBRANCH  11  12
ENDBRANCH   1  11
TORSDOF 15
ENDMDL
MODEL 8
REMARK VINA RESULT:    -3.618      3.296      6.102
REMARK INTER + INTRA:          -9.106
REMARK INTER:                  -7.497
REMARK INTRA:                  -1.609
REMARK UNBOUND:                -2.315
REMARK SMILES O=C([O-])CCCCCCCCCCCCCCC(=O)[O-]
REMARK SMILES IDX 10 1 9 2 8 3 7 4 6 5 5 6 4 7 2 8 1 9 3 10 11 11 12 12 13 13
REMARK SMILES IDX 14 14 15 15 16 16 17 17 18 18 19 19 20 20
REMARK H PARENT
REMARK Flexibility Score: inf
ROOT
ATOM      1  C   UNL     1      94.098   2.682 -24.811  1.00  0.00     0.000 C 
ENDROOT
BRANCH   1   2
ATOM      2  C   UNL     1      93.723   3.760 -23.780  1.00  0.00     0.000 C 
BRANCH   2   3
ATOM      3  C   UNL     1      92.202   3.955 -23.659  1.00  0.00     0.000 C 
BRANCH   3   4
ATOM      4  C   UNL     1      91.665   5.032 -24.615  1.00  0.00     0.000 C 
BRANCH   4   5
ATOM      5  C   UNL     1      92.738   6.092 -24.906  1.00  0.00     0.000 C 
BRANCH   5   6
ATOM      6  C   UNL     1      92.855   6.424 -26.402  1.00  0.00     0.006 C 
BRANCH   6   7
ATOM      7  C   UNL     1      91.567   6.119 -27.178  1.00  0.00     0.053 C 
BRANCH   7   8
ATOM      8  C   UNL     1      91.851   5.192 -28.317  1.00  0.00     0.041 C 
ATOM      9  O   UNL     1      92.105   3.979 -28.097  1.00  0.00    -0.550 OA
ATOM     10  O   UNL     1      91.886   5.678 -29.617  1.00  0.00    -0.550 OA
ENDBRANCH   7   8
ENDBRANCH   6   7
ENDBRANCH   5   6
ENDBRANCH   4   5
ENDBRANCH   3   4
ENDBRANCH   2   3
ENDBRANCH   1   2
BRANCH   1  11
ATOM     11  C   UNL     1      94.855   3.253 -26.023  1.00  0.00     0.000 C 
BRANCH  11  12
ATOM     12  C   UNL     1      96.262   2.648 -26.216  1.00  0.00     0.000 C 
BRANCH  12  13
ATOM     13  C   UNL     1      97.215   3.019 -25.067  1.00  0.00     0.000 C 
BRANCH  13  14
ATOM     14  C   UNL     1      98.620   3.396 -25.563  1.00  0.00     0.000 C 
BRANCH  14  15
ATOM     15  C   UNL     1      98.597   4.552 -26.577  1.00  0.00     0.000 C 
BRANCH  15  16
ATOM     16  C   UNL     1      99.324   4.206 -27.889  1.00  0.00     0.006 C 
BRANCH  16  17
ATOM     17  C   UNL     1      98.469   4.394 -29.152  1.00  0.00     0.053 C 
BRANCH  17  18
ATOM     18  C   UNL     1      97.757   3.135 -29.539  1.00  0.00     0.041 C 
ATOM     19  O   UNL     1      98.180   2.018 -29.140  1.00  0.00    -0.550 OA
ATOM     20  O   UNL     1      96.646   3.193 -30.371  1.00  0.00    -0.550 OA
ENDBRANCH  17  18
ENDBRANCH  16  17
ENDBRANCH  15  16
ENDBRANCH  14  15
ENDBRANCH  13  14
ENDBRANCH  12  13
ENDBRANCH  11  12
ENDBRANCH   1  11
TORSDOF 15
ENDMDL
MODEL 9
REMARK VINA RESULT:    -3.602      1.756      2.681
REMARK INTER + INTRA:          -9.077
REMARK INTER:                  -6.897
REMARK INTRA:                  -2.180
REMARK UNBOUND:                -2.315
REMARK SMILES O=C([O-])CCCCCCCCCCCCCCC(=O)[O-]
REMARK SMILES IDX 10 1 9 2 8 3 7 4 6 5 5 6 4 7 2 8 1 9 3 10 11 11 12 12 13 13
REMARK SMILES IDX 14 14 15 15 16 16 17 17 18 18 19 19 20 20
REMARK H PARENT
REMARK Flexibility Score: inf
ROOT
ATOM      1  C   UNL     1      98.158   4.602 -27.668  1.00  0.00     0.000 C 
ENDROOT
BRANCH   1   2
ATOM      2  C   UNL     1      98.630   4.193 -26.263  1.00  0.00     0.000 C 
BRANCH   2   3
ATOM      3  C   UNL     1      97.555   3.418 -25.483  1.00  0.00     0.000 C 
BRANCH   3   4
ATOM      4  C   UNL     1      96.333   3.069 -26.347  1.00  0.00     0.000 C 
BRANCH   4   5
ATOM      5  C   UNL     1      95.118   2.735 -25.468  1.00  0.00     0.000 C 
BRANCH   5   6
ATOM      6  C   UNL     1      95.500   2.470 -24.003  1.00  0.00     0.006 C 
BRANCH   6   7
ATOM      7  C   UNL     1      94.980   1.119 -23.492  1.00  0.00     0.053 C 
BRANCH   7   8
ATOM      8  C   UNL     1      93.540   1.229 -23.101  1.00  0.00     0.041 C 
ATOM      9  O   UNL     1      92.753   0.269 -23.307  1.00  0.00    -0.550 OA
ATOM     10  O   UNL     1      93.057   2.411 -22.555  1.00  0.00    -0.550 OA
ENDBRANCH   7   8
ENDBRANCH   6   7
ENDBRANCH   5   6
ENDBRANCH   4   5
ENDBRANCH   3   4
ENDBRANCH   2   3
ENDBRANCH   1   2
BRANCH   1  11
ATOM     11  C   UNL     1      99.141   4.180 -28.775  1.00  0.00     0.000 C 
BRANCH  11  12
ATOM     12  C   UNL     1      99.808   2.811 -28.521  1.00  0.00     0.000 C 
BRANCH  12  13
ATOM     13  C   UNL     1      98.814   1.646 -28.673  1.00  0.00     0.000 C 
BRANCH  13  14
ATOM     14  C   UNL     1      99.124   0.478 -27.724  1.00  0.00     0.000 C 
BRANCH  14  15
ATOM     15  C   UNL     1     100.078   0.879 -26.586  1.00  0.00     0.000 C 
BRANCH  15  16
ATOM     16  C   UNL     1      99.721   0.208 -25.246  1.00  0.00     0.006 C 
BRANCH  16  17
ATOM     17  C   UNL     1      98.250  -0.219 -25.129  1.00  0.00     0.053 C 
BRANCH  17  18
ATOM     18  C   UNL     1      98.107  -1.573 -24.506  1.00  0.00     0.041 C 
ATOM     19  O   UNL     1      99.130  -2.249 -24.216  1.00  0.00    -0.550 OA
ATOM     20  O   UNL     1      96.844  -2.104 -24.279  1.00  0.00    -0.550 OA
ENDBRANCH  17  18
ENDBRANCH  16  17
ENDBRANCH  15  16
ENDBRANCH  14  15
ENDBRANCH  13  14
ENDBRANCH  12  13
ENDBRANCH  11  12
ENDBRANCH   1  11
TORSDOF 15
ENDMDL
