MODEL 1
REMARK VINA RESULT:    -5.194      0.000      0.000
REMARK INTER + INTRA:         -10.578
REMARK INTER:                  -9.749
REMARK INTRA:                  -0.829
REMARK UNBOUND:                -0.829
REMARK SMILES O=C([O-])CCCCCCCCCCCCCCC(=O)[O-]
REMARK SMILES IDX 10 1 9 2 8 3 7 4 6 5 5 6 4 7 2 8 1 9 3 10 11 11 12 12 13 13
REMARK SMILES IDX 14 14 15 15 16 16 17 17 18 18 19 19 20 20
REMARK H PARENT
REMARK Flexibility Score: inf
ROOT
ATOM      1  C   UNL     1      -8.712  -8.161  -4.991  1.00  0.00     0.000 C 
ENDROOT
BRANCH   1   2
ATOM      2  C   UNL     1      -9.799  -7.164  -5.434  1.00  0.00     0.000 C 
BRANCH   2   3
ATOM      3  C   UNL     1      -9.303  -6.189  -6.514  1.00  0.00     0.000 C 
BRANCH   3   4
ATOM      4  C   UNL     1     -10.180  -6.213  -7.778  1.00  0.00     0.000 C 
BRANCH   4   5
ATOM      5  C   UNL     1     -10.757  -4.830  -8.123  1.00  0.00     0.000 C 
BRANCH   5   6
ATOM      6  C   UNL     1     -11.228  -4.058  -6.877  1.00  0.00     0.006 C 
BRANCH   6   7
ATOM      7  C   UNL     1     -12.666  -4.423  -6.481  1.00  0.00     0.053 C 
BRANCH   7   8
ATOM      8  C   UNL     1     -12.708  -5.227  -5.217  1.00  0.00     0.041 C 
ATOM      9  O   UNL     1     -12.096  -4.829  -4.192  1.00  0.00    -0.550 OA
ATOM     10  O   UNL     1     -13.398  -6.431  -5.183  1.00  0.00    -0.550 OA
ENDBRANCH   7   8
ENDBRANCH   6   7
ENDBRANCH   5   6
ENDBRANCH   4   5
ENDBRANCH   3   4
ENDBRANCH   2   3
ENDBRANCH   1   2
BRANCH   1  11
ATOM     11  C   UNL     1      -9.252  -9.593  -4.845  1.00  0.00     0.000 C 
BRANCH  11  12
ATOM     12  C   UNL     1      -8.363 -10.633  -5.550  1.00  0.00     0.000 C 
BRANCH  12  13
ATOM     13  C   UNL     1      -6.878 -10.482  -5.189  1.00  0.00     0.000 C 
BRANCH  13  14
ATOM     14  C   UNL     1      -5.999 -10.173  -6.414  1.00  0.00     0.000 C 
BRANCH  14  15
ATOM     15  C   UNL     1      -4.921 -11.255  -6.644  1.00  0.00     0.000 C 
BRANCH  15  16
ATOM     16  C   UNL     1      -3.693 -11.104  -5.731  1.00  0.00     0.006 C 
BRANCH  16  17
ATOM     17  C   UNL     1      -2.777 -12.332  -5.756  1.00  0.00     0.053 C 
BRANCH  17  18
ATOM     18  C   UNL     1      -1.906 -12.360  -4.541  1.00  0.00     0.041 C 
ATOM     19  O   UNL     1      -2.377 -12.045  -3.416  1.00  0.00    -0.550 OA
ATOM     20  O   UNL     1      -0.561 -12.687  -4.657  1.00  0.00    -0.550 OA
ENDBRANCH  17  18
ENDBRANCH  16  17
ENDBRANCH  15  16
ENDBRANCH  14  15
ENDBRANCH  13  14
ENDBRANCH  12  13
ENDBRANCH  11  12
ENDBRANCH   1  11
TORSDOF 15
ENDMDL
MODEL 2
REMARK VINA RESULT:    -5.182      1.899      9.597
REMARK INTER + INTRA:         -10.555
REMARK INTER:                  -9.713
REMARK INTRA:                  -0.842
REMARK UNBOUND:                -0.829
REMARK SMILES O=C([O-])CCCCCCCCCCCCCCC(=O)[O-]
REMARK SMILES IDX 10 1 9 2 8 3 7 4 6 5 5 6 4 7 2 8 1 9 3 10 11 11 12 12 13 13
REMARK SMILES IDX 14 14 15 15 16 16 17 17 18 18 19 19 20 20
REMARK H PARENT
REMARK Flexibility Score: inf
ROOT
ATOM      1  C   UNL     1      -8.845  -8.589  -4.656  1.00  0.00     0.000 C 
ENDROOT
BRANCH   1   2
ATOM      2  C   UNL     1      -8.427  -9.845  -5.443  1.00  0.00     0.000 C 
BRANCH   2   3
ATOM      3  C   UNL     1      -7.021 -10.338  -5.067  1.00  0.00     0.000 C 
BRANCH   3   4
ATOM      4  C   UNL     1      -6.013 -10.182  -6.219  1.00  0.00     0.000 C 
BRANCH   4   5
ATOM      5  C   UNL     1      -5.727 -11.512  -6.936  1.00  0.00     0.000 C 
BRANCH   5   6
ATOM      6  C   UNL     1      -4.241 -11.910  -6.874  1.00  0.00     0.006 C 
BRANCH   6   7
ATOM      7  C   UNL     1      -3.477 -11.125  -5.799  1.00  0.00     0.053 C 
BRANCH   7   8
ATOM      8  C   UNL     1      -2.527 -12.001  -5.041  1.00  0.00     0.041 C 
ATOM      9  O   UNL     1      -1.731 -12.757  -5.658  1.00  0.00    -0.550 OA
ATOM     10  O   UNL     1      -2.542 -12.005  -3.653  1.00  0.00    -0.550 OA
ENDBRANCH   7   8
ENDBRANCH   6   7
ENDBRANCH   5   6
ENDBRANCH   4   5
ENDBRANCH   3   4
ENDBRANCH   2   3
ENDBRANCH   1   2
BRANCH   1  11
ATOM     11  C   UNL     1      -9.256  -7.428  -5.577  1.00  0.00     0.000 C 
BRANCH  11  12
ATOM     12  C   UNL     1     -10.779  -7.207  -5.603  1.00  0.00     0.000 C 
BRANCH  12  13
ATOM     13  C   UNL     1     -11.177  -5.793  -5.155  1.00  0.00     0.000 C 
BRANCH  13  14
ATOM     14  C   UNL     1     -12.405  -5.256  -5.912  1.00  0.00     0.000 C 
BRANCH  14  15
ATOM     15  C   UNL     1     -12.153  -3.854  -6.507  1.00  0.00     0.000 C 
BRANCH  15  16
ATOM     16  C   UNL     1     -10.936  -3.793  -7.446  1.00  0.00     0.006 C 
BRANCH  16  17
ATOM     17  C   UNL     1     -11.316  -3.913  -8.925  1.00  0.00     0.053 C 
BRANCH  17  18
ATOM     18  C   UNL     1     -11.023  -5.291  -9.429  1.00  0.00     0.041 C 
ATOM     19  O   UNL     1     -10.274  -6.060  -8.772  1.00  0.00    -0.550 OA
ATOM     20  O   UNL     1     -11.538  -5.709 -10.650  1.00  0.00    -0.550 OA
ENDBRANCH  17  18
ENDBRANCH  16  17
ENDBRANCH  15  16
ENDBRANCH  14  15
ENDBRANCH  13  14
ENDBRANCH  12  13
ENDBRANCH  11  12
ENDBRANCH   1  11
TORSDOF 15
ENDMDL
MODEL 3
REMARK VINA RESULT:    -5.179      1.736      2.344
REMARK INTER + INTRA:         -10.549
REMARK INTER:                  -9.530
REMARK INTRA:                  -1.019
REMARK UNBOUND:                -0.829
REMARK SMILES O=C([O-])CCCCCCCCCCCCCCC(=O)[O-]
REMARK SMILES IDX 10 1 9 2 8 3 7 4 6 5 5 6 4 7 2 8 1 9 3 10 11 11 12 12 13 13
REMARK SMILES IDX 14 14 15 15 16 16 17 17 18 18 19 19 20 20
REMARK H PARENT
REMARK Flexibility Score: inf
ROOT
ATOM      1  C   UNL     1      -8.846  -8.508  -4.792  1.00  0.00     0.000 C 
ENDROOT
BRANCH   1   2
ATOM      2  C   UNL     1      -9.633  -7.398  -5.512  1.00  0.00     0.000 C 
BRANCH   2   3
ATOM      3  C   UNL     1     -11.073  -7.818  -5.850  1.00  0.00     0.000 C 
BRANCH   3   4
ATOM      4  C   UNL     1     -12.105  -6.741  -5.476  1.00  0.00     0.000 C 
BRANCH   4   5
ATOM      5  C   UNL     1     -11.503  -5.326  -5.462  1.00  0.00     0.000 C 
BRANCH   5   6
ATOM      6  C   UNL     1     -12.107  -4.416  -6.547  1.00  0.00     0.006 C 
BRANCH   6   7
ATOM      7  C   UNL     1     -11.043  -3.893  -7.521  1.00  0.00     0.053 C 
BRANCH   7   8
ATOM      8  C   UNL     1     -10.922  -4.764  -8.734  1.00  0.00     0.041 C 
ATOM      9  O   UNL     1     -11.494  -4.440  -9.807  1.00  0.00    -0.550 OA
ATOM     10  O   UNL     1     -10.203  -5.950  -8.668  1.00  0.00    -0.550 OA
ENDBRANCH   7   8
ENDBRANCH   6   7
ENDBRANCH   5   6
ENDBRANCH   4   5
ENDBRANCH   3   4
ENDBRANCH   2   3
ENDBRANCH   1   2
BRANCH   1  11
ATOM     11  C   UNL     1      -9.369  -9.914  -5.130  1.00  0.00     0.000 C 
BRANCH  11  12
ATOM     12  C   UNL     1      -8.233 -10.916  -5.399  1.00  0.00     0.000 C 
BRANCH  12  13
ATOM     13  C   UNL     1      -6.840 -10.289  -5.234  1.00  0.00     0.000 C 
BRANCH  13  14
ATOM     14  C   UNL     1      -6.071 -10.194  -6.563  1.00  0.00     0.000 C 
BRANCH  14  15
ATOM     15  C   UNL     1      -4.989 -11.288  -6.689  1.00  0.00     0.000 C 
BRANCH  15  16
ATOM     16  C   UNL     1      -3.852 -11.150  -5.661  1.00  0.00     0.006 C 
BRANCH  16  17
ATOM     17  C   UNL     1      -2.831 -12.289  -5.745  1.00  0.00     0.053 C 
BRANCH  17  18
ATOM     18  C   UNL     1      -1.848 -12.193  -4.622  1.00  0.00     0.041 C 
ATOM     19  O   UNL     1      -0.612 -12.180  -4.861  1.00  0.00    -0.550 OA
ATOM     20  O   UNL     1      -2.295 -12.167  -3.307  1.00  0.00    -0.550 OA
ENDBRANCH  17  18
ENDBRANCH  16  17
ENDBRANCH  15  16
ENDBRANCH  14  15
ENDBRANCH  13  14
ENDBRANCH  12  13
ENDBRANCH  11  12
ENDBRANCH   1  11
TORSDOF 15
ENDMDL
MODEL 4
REMARK VINA RESULT:    -5.131      0.881      9.963
REMARK INTER + INTRA:         -10.460
REMARK INTER:                  -9.725
REMARK INTRA:                  -0.736
REMARK UNBOUND:                -0.829
REMARK SMILES O=C([O-])CCCCCCCCCCCCCCC(=O)[O-]
REMARK SMILES IDX 10 1 9 2 8 3 7 4 6 5 5 6 4 7 2 8 1 9 3 10 11 11 12 12 13 13
REMARK SMILES IDX 14 14 15 15 16 16 17 17 18 18 19 19 20 20
REMARK H PARENT
REMARK Flexibility Score: inf
ROOT
ATOM      1  C   UNL     1      -8.292  -8.782  -4.836  1.00  0.00     0.000 C 
ENDROOT
BRANCH   1   2
ATOM      2  C   UNL     1      -8.054 -10.226  -5.312  1.00  0.00     0.000 C 
BRANCH   2   3
ATOM      3  C   UNL     1      -6.604 -10.689  -5.100  1.00  0.00     0.000 C 
BRANCH   3   4
ATOM      4  C   UNL     1      -5.683 -10.298  -6.269  1.00  0.00     0.000 C 
BRANCH   4   5
ATOM      5  C   UNL     1      -4.569 -11.330  -6.514  1.00  0.00     0.000 C 
BRANCH   5   6
ATOM      6  C   UNL     1      -3.259 -10.968  -5.791  1.00  0.00     0.006 C 
BRANCH   6   7
ATOM      7  C   UNL     1      -2.777 -12.096  -4.869  1.00  0.00     0.053 C 
BRANCH   7   8
ATOM      8  C   UNL     1      -1.418 -12.593  -5.260  1.00  0.00     0.041 C 
ATOM      9  O   UNL     1      -1.302 -13.562  -6.055  1.00  0.00    -0.550 OA
ATOM     10  O   UNL     1      -0.282 -12.004  -4.721  1.00  0.00    -0.550 OA
ENDBRANCH   7   8
ENDBRANCH   6   7
ENDBRANCH   5   6
ENDBRANCH   4   5
ENDBRANCH   3   4
ENDBRANCH   2   3
ENDBRANCH   1   2
BRANCH   1  11
ATOM     11  C   UNL     1      -9.616  -8.201  -5.358  1.00  0.00     0.000 C 
BRANCH  11  12
ATOM     12  C   UNL     1      -9.600  -6.663  -5.422  1.00  0.00     0.000 C 
BRANCH  12  13
ATOM     13  C   UNL     1      -9.254  -6.134  -6.821  1.00  0.00     0.000 C 
BRANCH  13  14
ATOM     14  C   UNL     1     -10.498  -5.693  -7.613  1.00  0.00     0.000 C 
BRANCH  14  15
ATOM     15  C   UNL     1     -10.807  -4.193  -7.423  1.00  0.00     0.000 C 
BRANCH  15  16
ATOM     16  C   UNL     1     -11.624  -3.888  -6.155  1.00  0.00     0.006 C 
BRANCH  16  17
ATOM     17  C   UNL     1     -12.940  -4.670  -6.092  1.00  0.00     0.053 C 
BRANCH  17  18
ATOM     18  C   UNL     1     -12.964  -5.557  -4.889  1.00  0.00     0.041 C 
ATOM     19  O   UNL     1     -12.920  -5.059  -3.733  1.00  0.00    -0.550 OA
ATOM     20  O   UNL     1     -12.985  -6.938  -5.043  1.00  0.00    -0.550 OA
ENDBRANCH  17  18
ENDBRANCH  16  17
ENDBRANCH  15  16
ENDBRANCH  14  15
ENDBRANCH  13  14
ENDBRANCH  12  13
ENDBRANCH  11  12
ENDBRANCH   1  11
TORSDOF 15
ENDMDL
MODEL 5
REMARK VINA RESULT:    -5.036      2.129     10.166
REMARK INTER + INTRA:         -10.282
REMARK INTER:                  -9.594
REMARK INTRA:                  -0.688
REMARK UNBOUND:                -0.829
REMARK SMILES O=C([O-])CCCCCCCCCCCCCCC(=O)[O-]
REMARK SMILES IDX 10 1 9 2 8 3 7 4 6 5 5 6 4 7 2 8 1 9 3 10 11 11 12 12 13 13
REMARK SMILES IDX 14 14 15 15 16 16 17 17 18 18 19 19 20 20
REMARK H PARENT
REMARK Flexibility Score: inf
ROOT
ATOM      1  C   UNL     1      -6.694 -10.273  -5.187  1.00  0.00     0.000 C 
ENDROOT
BRANCH   1   2
ATOM      2  C   UNL     1      -6.019 -10.237  -6.570  1.00  0.00     0.000 C 
BRANCH   2   3
ATOM      3  C   UNL     1      -4.827 -11.203  -6.672  1.00  0.00     0.000 C 
BRANCH   3   4
ATOM      4  C   UNL     1      -3.686 -10.836  -5.708  1.00  0.00     0.000 C 
BRANCH   4   5
ATOM      5  C   UNL     1      -2.746 -12.021  -5.428  1.00  0.00     0.000 C 
BRANCH   5   6
ATOM      6  C   UNL     1      -2.407 -12.167  -3.933  1.00  0.00     0.006 C 
BRANCH   6   7
ATOM      7  C   UNL     1      -1.976 -13.596  -3.575  1.00  0.00     0.053 C 
BRANCH   7   8
ATOM      8  C   UNL     1      -0.682 -13.614  -2.819  1.00  0.00     0.041 C 
ATOM      9  O   UNL     1       0.392 -13.296  -3.393  1.00  0.00    -0.550 OA
ATOM     10  O   UNL     1      -0.661 -14.012  -1.489  1.00  0.00    -0.550 OA
ENDBRANCH   7   8
ENDBRANCH   6   7
ENDBRANCH   5   6
ENDBRANCH   4   5
ENDBRANCH   3   4
ENDBRANCH   2   3
ENDBRANCH   1   2
BRANCH   1  11
ATOM     11  C   UNL     1      -8.003 -11.079  -5.194  1.00  0.00     0.000 C 
BRANCH  11  12
ATOM     12  C   UNL     1      -9.250 -10.179  -5.271  1.00  0.00     0.000 C 
BRANCH  12  13
ATOM     13  C   UNL     1      -8.938  -8.711  -4.945  1.00  0.00     0.000 C 
BRANCH  13  14
ATOM     14  C   UNL     1      -9.996  -7.743  -5.503  1.00  0.00     0.000 C 
BRANCH  14  15
ATOM     15  C   UNL     1      -9.570  -6.266  -5.351  1.00  0.00     0.000 C 
BRANCH  15  16
ATOM     16  C   UNL     1      -9.789  -5.428  -6.622  1.00  0.00     0.006 C 
BRANCH  16  17
ATOM     17  C   UNL     1     -10.503  -6.205  -7.734  1.00  0.00     0.053 C 
BRANCH  17  18
ATOM     18  C   UNL     1     -10.810  -5.303  -8.887  1.00  0.00     0.041 C 
ATOM     19  O   UNL     1     -10.622  -4.062  -8.788  1.00  0.00    -0.550 OA
ATOM     20  O   UNL     1     -11.350  -5.827 -10.054  1.00  0.00    -0.550 OA
ENDBRANCH  17  18
ENDBRANCH  16  17
ENDBRANCH  15  16
ENDBRANCH  14  15
ENDBRANCH  13  14
ENDBRANCH  12  13
ENDBRANCH  11  12
ENDBRANCH   1  11
TORSDOF 15
ENDMDL
MODEL 6
REMARK VINA RESULT:    -4.898      2.150      8.994
REMARK INTER + INTRA:         -10.023
REMARK INTER:                  -8.774
REMARK INTRA:                  -1.248
REMARK UNBOUND:                -0.829
REMARK SMILES O=C([O-])CCCCCCCCCCCCCCC(=O)[O-]
REMARK SMILES IDX 10 1 9 2 8 3 7 4 6 5 5 6 4 7 2 8 1 9 3 10 11 11 12 12 13 13
REMARK SMILES IDX 14 14 15 15 16 16 17 17 18 18 19 19 20 20
REMARK H PARENT
REMARK Flexibility Score: inf
ROOT
ATOM      1  C   UNL     1      -9.907 -10.998  -5.139  1.00  0.00     0.000 C 
ENDROOT
BRANCH   1   2
ATOM      2  C   UNL     1      -8.433 -11.305  -5.462  1.00  0.00     0.000 C 
BRANCH   2   3
ATOM      3  C   UNL     1      -7.500 -10.124  -5.149  1.00  0.00     0.000 C 
BRANCH   3   4
ATOM      4  C   UNL     1      -6.288 -10.063  -6.093  1.00  0.00     0.000 C 
BRANCH   4   5
ATOM      5  C   UNL     1      -6.101 -11.360  -6.899  1.00  0.00     0.000 C 
BRANCH   5   6
ATOM      6  C   UNL     1      -4.628 -11.800  -6.979  1.00  0.00     0.006 C 
BRANCH   6   7
ATOM      7  C   UNL     1      -3.760 -11.108  -5.920  1.00  0.00     0.053 C 
BRANCH   7   8
ATOM      8  C   UNL     1      -2.657 -12.000  -5.435  1.00  0.00     0.041 C 
ATOM      9  O   UNL     1      -1.827 -11.579  -4.587  1.00  0.00    -0.550 OA
ATOM     10  O   UNL     1      -2.529 -13.285  -5.944  1.00  0.00    -0.550 OA
ENDBRANCH   7   8
ENDBRANCH   6   7
ENDBRANCH   5   6
ENDBRANCH   4   5
ENDBRANCH   3   4
ENDBRANCH   2   3
ENDBRANCH   1   2
BRANCH   1  11
ATOM     11  C   UNL     1     -10.854 -11.392  -6.284  1.00  0.00     0.000 C 
BRANCH  11  12
ATOM     12  C   UNL     1     -11.786 -10.239  -6.700  1.00  0.00     0.000 C 
BRANCH  12  13
ATOM     13  C   UNL     1     -11.879  -9.140  -5.631  1.00  0.00     0.000 C 
BRANCH  13  14
ATOM     14  C   UNL     1     -11.457  -7.759  -6.163  1.00  0.00     0.000 C 
BRANCH  14  15
ATOM     15  C   UNL     1     -10.048  -7.356  -5.678  1.00  0.00     0.000 C 
BRANCH  15  16
ATOM     16  C   UNL     1      -9.395  -6.253  -6.530  1.00  0.00     0.006 C 
BRANCH  16  17
ATOM     17  C   UNL     1     -10.325  -5.060  -6.775  1.00  0.00     0.053 C 
BRANCH  17  18
ATOM     18  C   UNL     1     -10.557  -4.871  -8.240  1.00  0.00     0.041 C 
ATOM     19  O   UNL     1     -10.393  -5.833  -9.037  1.00  0.00    -0.550 OA
ATOM     20  O   UNL     1     -10.905  -3.620  -8.734  1.00  0.00    -0.550 OA
ENDBRANCH  17  18
ENDBRANCH  16  17
ENDBRANCH  15  16
ENDBRANCH  14  15
ENDBRANCH  13  14
ENDBRANCH  12  13
ENDBRANCH  11  12
ENDBRANCH   1  11
TORSDOF 15
ENDMDL
MODEL 7
REMARK VINA RESULT:    -4.881      1.271     10.462
REMARK INTER + INTRA:          -9.991
REMARK INTER:                  -9.291
REMARK INTRA:                  -0.700
REMARK UNBOUND:                -0.829
REMARK SMILES O=C([O-])CCCCCCCCCCCCCCC(=O)[O-]
REMARK SMILES IDX 10 1 9 2 8 3 7 4 6 5 5 6 4 7 2 8 1 9 3 10 11 11 12 12 13 13
REMARK SMILES IDX 14 14 15 15 16 16 17 17 18 18 19 19 20 20
REMARK H PARENT
REMARK Flexibility Score: inf
ROOT
ATOM      1  C   UNL     1      -6.849 -10.020  -5.203  1.00  0.00     0.000 C 
ENDROOT
BRANCH   1   2
ATOM      2  C   UNL     1      -6.280 -10.244  -6.616  1.00  0.00     0.000 C 
BRANCH   2   3
ATOM      3  C   UNL     1      -5.218 -11.354  -6.657  1.00  0.00     0.000 C 
BRANCH   3   4
ATOM      4  C   UNL     1      -3.925 -10.960  -5.923  1.00  0.00     0.000 C 
BRANCH   4   5
ATOM      5  C   UNL     1      -2.976 -12.153  -5.717  1.00  0.00     0.000 C 
BRANCH   5   6
ATOM      6  C   UNL     1      -1.857 -11.851  -4.704  1.00  0.00     0.006 C 
BRANCH   6   7
ATOM      7  C   UNL     1      -1.286 -13.130  -4.075  1.00  0.00     0.053 C 
BRANCH   7   8
ATOM      8  C   UNL     1       0.199 -13.221  -4.253  1.00  0.00     0.041 C 
ATOM      9  O   UNL     1       0.959 -13.221  -3.250  1.00  0.00    -0.550 OA
ATOM     10  O   UNL     1       0.744 -13.275  -5.529  1.00  0.00    -0.550 OA
ENDBRANCH   7   8
ENDBRANCH   6   7
ENDBRANCH   5   6
ENDBRANCH   4   5
ENDBRANCH   3   4
ENDBRANCH   2   3
ENDBRANCH   1   2
BRANCH   1  11
ATOM     11  C   UNL     1      -8.346 -10.356  -5.112  1.00  0.00     0.000 C 
BRANCH  11  12
ATOM     12  C   UNL     1      -9.243  -9.163  -5.486  1.00  0.00     0.000 C 
BRANCH  12  13
ATOM     13  C   UNL     1      -8.885  -7.888  -4.707  1.00  0.00     0.000 C 
BRANCH  13  14
ATOM     14  C   UNL     1      -9.671  -6.657  -5.192  1.00  0.00     0.000 C 
BRANCH  14  15
ATOM     15  C   UNL     1      -9.272  -6.241  -6.625  1.00  0.00     0.000 C 
BRANCH  15  16
ATOM     16  C   UNL     1     -10.471  -6.072  -7.573  1.00  0.00     0.006 C 
BRANCH  16  17
ATOM     17  C   UNL     1     -10.842  -4.605  -7.812  1.00  0.00     0.053 C 
BRANCH  17  18
ATOM     18  C   UNL     1     -11.738  -4.108  -6.723  1.00  0.00     0.041 C 
ATOM     19  O   UNL     1     -11.531  -2.983  -6.195  1.00  0.00    -0.550 OA
ATOM     20  O   UNL     1     -12.773  -4.908  -6.255  1.00  0.00    -0.550 OA
ENDBRANCH  17  18
ENDBRANCH  16  17
ENDBRANCH  15  16
ENDBRANCH  14  15
ENDBRANCH  13  14
ENDBRANCH  12  13
ENDBRANCH  11  12
ENDBRANCH   1  11
TORSDOF 15
ENDMDL
MODEL 8
REMARK VINA RESULT:    -4.872      1.978     10.270
REMARK INTER + INTRA:          -9.973
REMARK INTER:                  -9.301
REMARK INTRA:                  -0.672
REMARK UNBOUND:                -0.829
REMARK SMILES O=C([O-])CCCCCCCCCCCCCCC(=O)[O-]
REMARK SMILES IDX 10 1 9 2 8 3 7 4 6 5 5 6 4 7 2 8 1 9 3 10 11 11 12 12 13 13
REMARK SMILES IDX 14 14 15 15 16 16 17 17 18 18 19 19 20 20
REMARK H PARENT
REMARK Flexibility Score: inf
ROOT
ATOM      1  C   UNL     1      -7.761  -9.282  -5.110  1.00  0.00     0.000 C 
ENDROOT
BRANCH   1   2
ATOM      2  C   UNL     1      -6.880 -10.513  -5.386  1.00  0.00     0.000 C 
BRANCH   2   3
ATOM      3  C   UNL     1      -5.965 -10.325  -6.608  1.00  0.00     0.000 C 
BRANCH   3   4
ATOM      4  C   UNL     1      -4.840 -11.371  -6.669  1.00  0.00     0.000 C 
BRANCH   4   5
ATOM      5  C   UNL     1      -3.726 -11.101  -5.643  1.00  0.00     0.000 C 
BRANCH   5   6
ATOM      6  C   UNL     1      -2.703 -12.249  -5.565  1.00  0.00     0.006 C 
BRANCH   6   7
ATOM      7  C   UNL     1      -1.413 -11.826  -4.849  1.00  0.00     0.053 C 
BRANCH   7   8
ATOM      8  C   UNL     1      -0.574 -13.008  -4.469  1.00  0.00     0.041 C 
ATOM      9  O   UNL     1      -0.016 -13.702  -5.359  1.00  0.00    -0.550 OA
ATOM     10  O   UNL     1      -0.435 -13.360  -3.133  1.00  0.00    -0.550 OA
ENDBRANCH   7   8
ENDBRANCH   6   7
ENDBRANCH   5   6
ENDBRANCH   4   5
ENDBRANCH   3   4
ENDBRANCH   2   3
ENDBRANCH   1   2
BRANCH   1  11
ATOM     11  C   UNL     1      -9.259  -9.626  -5.078  1.00  0.00     0.000 C 
BRANCH  11  12
ATOM     12  C   UNL     1     -10.148  -8.425  -5.445  1.00  0.00     0.000 C 
BRANCH  12  13
ATOM     13  C   UNL     1      -9.377  -7.097  -5.440  1.00  0.00     0.000 C 
BRANCH  13  14
ATOM     14  C   UNL     1     -10.300  -5.877  -5.273  1.00  0.00     0.000 C 
BRANCH  14  15
ATOM     15  C   UNL     1     -11.624  -6.038  -6.050  1.00  0.00     0.000 C 
BRANCH  15  16
ATOM     16  C   UNL     1     -12.160  -4.719  -6.634  1.00  0.00     0.006 C 
BRANCH  16  17
ATOM     17  C   UNL     1     -11.068  -3.873  -7.297  1.00  0.00     0.053 C 
BRANCH  17  18
ATOM     18  C   UNL     1     -10.991  -4.172  -8.760  1.00  0.00     0.041 C 
ATOM     19  O   UNL     1     -11.529  -3.396  -9.594  1.00  0.00    -0.550 OA
ATOM     20  O   UNL     1     -10.368  -5.332  -9.202  1.00  0.00    -0.550 OA
ENDBRANCH  17  18
ENDBRANCH  16  17
ENDBRANCH  15  16
ENDBRANCH  14  15
ENDBRANCH  13  14
ENDBRANCH  12  13
ENDBRANCH  11  12
ENDBRANCH   1  11
TORSDOF 15
ENDMDL
MODEL 9
REMARK VINA RESULT:    -4.786      4.145      5.411
REMARK INTER + INTRA:          -9.813
REMARK INTER:                  -8.341
REMARK INTRA:                  -1.472
REMARK UNBOUND:                -0.829
REMARK SMILES O=C([O-])CCCCCCCCCCCCCCC(=O)[O-]
REMARK SMILES IDX 10 1 9 2 8 3 7 4 6 5 5 6 4 7 2 8 1 9 3 10 11 11 12 12 13 13
REMARK SMILES IDX 14 14 15 15 16 16 17 17 18 18 19 19 20 20
REMARK H PARENT
REMARK Flexibility Score: inf
ROOT
ATOM      1  C   UNL     1      -9.542  -7.242  -5.576  1.00  0.00     0.000 C 
ENDROOT
BRANCH   1   2
ATOM      2  C   UNL     1     -11.011  -7.565  -5.904  1.00  0.00     0.000 C 
BRANCH   2   3
ATOM      3  C   UNL     1     -11.984  -6.501  -5.371  1.00  0.00     0.000 C 
BRANCH   3   4
ATOM      4  C   UNL     1     -11.361  -5.096  -5.336  1.00  0.00     0.000 C 
BRANCH   4   5
ATOM      5  C   UNL     1     -11.924  -4.172  -6.429  1.00  0.00     0.000 C 
BRANCH   5   6
ATOM      6  C   UNL     1     -10.865  -3.777  -7.473  1.00  0.00     0.006 C 
BRANCH   6   7
ATOM      7  C   UNL     1     -11.390  -3.910  -8.909  1.00  0.00     0.053 C 
BRANCH   7   8
ATOM      8  C   UNL     1     -11.010  -5.225  -9.520  1.00  0.00     0.041 C 
ATOM      9  O   UNL     1     -10.332  -6.057  -8.864  1.00  0.00    -0.550 OA
ATOM     10  O   UNL     1     -11.379  -5.515 -10.827  1.00  0.00    -0.550 OA
ENDBRANCH   7   8
ENDBRANCH   6   7
ENDBRANCH   5   6
ENDBRANCH   4   5
ENDBRANCH   3   4
ENDBRANCH   2   3
ENDBRANCH   1   2
BRANCH   1  11
ATOM     11  C   UNL     1      -8.857  -8.363  -4.779  1.00  0.00     0.000 C 
BRANCH  11  12
ATOM     12  C   UNL     1      -7.627  -8.937  -5.504  1.00  0.00     0.000 C 
BRANCH  12  13
ATOM     13  C   UNL     1      -7.392 -10.421  -5.186  1.00  0.00     0.000 C 
BRANCH  13  14
ATOM     14  C   UNL     1      -7.231 -11.281  -6.452  1.00  0.00     0.000 C 
BRANCH  14  15
ATOM     15  C   UNL     1      -8.416 -12.249  -6.651  1.00  0.00     0.000 C 
BRANCH  15  16
ATOM     16  C   UNL     1      -9.539 -12.070  -5.615  1.00  0.00     0.006 C 
BRANCH  16  17
ATOM     17  C   UNL     1     -10.743 -11.299  -6.167  1.00  0.00     0.053 C 
BRANCH  17  18
ATOM     18  C   UNL     1     -11.806 -11.173  -5.123  1.00  0.00     0.041 C 
ATOM     19  O   UNL     1     -11.581 -11.544  -3.941  1.00  0.00    -0.550 OA
ATOM     20  O   UNL     1     -13.063 -10.690  -5.465  1.00  0.00    -0.550 OA
ENDBRANCH  17  18
ENDBRANCH  16  17
ENDBRANCH  15  16
ENDBRANCH  14  15
ENDBRANCH  13  14
ENDBRANCH  12  13
ENDBRANCH  11  12
ENDBRANCH   1  11
TORSDOF 15
ENDMDL
