MODEL 1
REMARK VINA RESULT:    -3.243      0.000      0.000
REMARK INTER + INTRA:          -8.411
REMARK INTER:                  -6.088
REMARK INTRA:                  -2.323
REMARK UNBOUND:                -2.323
REMARK SMILES O=C([O-])CCCCCCCCCCCCCCC(=O)[O-]
REMARK SMILES IDX 10 1 9 2 8 3 7 4 6 5 5 6 4 7 2 8 1 9 3 10 11 11 12 12 13 13
REMARK SMILES IDX 14 14 15 15 16 16 17 17 18 18 19 19 20 20
REMARK H PARENT
REMARK Flexibility Score: inf
ROOT
ATOM      1  C   UNL     1      54.857  54.394  45.861  1.00  0.00     0.000 C 
ENDROOT
BRANCH   1   2
ATOM      2  C   UNL     1      55.482  54.520  47.262  1.00  0.00     0.000 C 
BRANCH   2   3
ATOM      3  C   UNL     1      54.794  53.632  48.309  1.00  0.00     0.000 C 
BRANCH   3   4
ATOM      4  C   UNL     1      53.643  52.833  47.680  1.00  0.00     0.000 C 
BRANCH   4   5
ATOM      5  C   UNL     1      52.319  52.978  48.453  1.00  0.00     0.000 C 
BRANCH   5   6
ATOM      6  C   UNL     1      52.467  53.454  49.909  1.00  0.00     0.006 C 
BRANCH   6   7
ATOM      7  C   UNL     1      51.945  52.434  50.928  1.00  0.00     0.053 C 
BRANCH   7   8
ATOM      8  C   UNL     1      52.887  51.278  51.040  1.00  0.00     0.041 C 
ATOM      9  O   UNL     1      52.486  50.107  50.805  1.00  0.00    -0.550 OA
ATOM     10  O   UNL     1      54.223  51.496  51.355  1.00  0.00    -0.550 OA
ENDBRANCH   7   8
ENDBRANCH   6   7
ENDBRANCH   5   6
ENDBRANCH   4   5
ENDBRANCH   3   4
ENDBRANCH   2   3
ENDBRANCH   1   2
BRANCH   1  11
ATOM     11  C   UNL     1      55.081  55.602  44.933  1.00  0.00     0.000 C 
BRANCH  11  12
ATOM     12  C   UNL     1      53.779  56.349  44.596  1.00  0.00     0.000 C 
BRANCH  12  13
ATOM     13  C   UNL     1      52.615  55.976  45.532  1.00  0.00     0.000 C 
BRANCH  13  14
ATOM     14  C   UNL     1      52.333  56.979  46.670  1.00  0.00     0.000 C 
BRANCH  14  15
ATOM     15  C   UNL     1      53.453  58.001  46.930  1.00  0.00     0.000 C 
BRANCH  15  16
ATOM     16  C   UNL     1      54.017  57.915  48.359  1.00  0.00     0.006 C 
BRANCH  16  17
ATOM     17  C   UNL     1      53.271  56.880  49.213  1.00  0.00     0.053 C 
BRANCH  17  18
ATOM     18  C   UNL     1      52.770  57.476  50.492  1.00  0.00     0.041 C 
ATOM     19  O   UNL     1      52.344  56.732  51.414  1.00  0.00    -0.550 OA
ATOM     20  O   UNL     1      52.805  58.852  50.679  1.00  0.00    -0.550 OA
ENDBRANCH  17  18
ENDBRANCH  16  17
ENDBRANCH  15  16
ENDBRANCH  14  15
ENDBRANCH  13  14
ENDBRANCH  12  13
ENDBRANCH  11  12
ENDBRANCH   1  11
TORSDOF 15
ENDMDL
MODEL 2
REMARK VINA RESULT:    -3.231      2.467      5.402
REMARK INTER + INTRA:          -8.387
REMARK INTER:                  -6.672
REMARK INTRA:                  -1.715
REMARK UNBOUND:                -2.323
REMARK SMILES O=C([O-])CCCCCCCCCCCCCCC(=O)[O-]
REMARK SMILES IDX 10 1 9 2 8 3 7 4 6 5 5 6 4 7 2 8 1 9 3 10 11 11 12 12 13 13
REMARK SMILES IDX 14 14 15 15 16 16 17 17 18 18 19 19 20 20
REMARK H PARENT
REMARK Flexibility Score: inf
ROOT
ATOM      1  C   UNL     1      53.442  53.293  47.314  1.00  0.00     0.000 C 
ENDROOT
BRANCH   1   2
ATOM      2  C   UNL     1      54.739  53.786  47.979  1.00  0.00     0.000 C 
BRANCH   2   3
ATOM      3  C   UNL     1      55.456  54.874  47.166  1.00  0.00     0.000 C 
BRANCH   3   4
ATOM      4  C   UNL     1      55.709  54.404  45.725  1.00  0.00     0.000 C 
BRANCH   4   5
ATOM      5  C   UNL     1      55.469  55.511  44.682  1.00  0.00     0.000 C 
BRANCH   5   6
ATOM      6  C   UNL     1      54.554  56.657  45.151  1.00  0.00     0.006 C 
BRANCH   6   7
ATOM      7  C   UNL     1      53.122  56.536  44.616  1.00  0.00     0.053 C 
BRANCH   7   8
ATOM      8  C   UNL     1      52.138  56.590  45.741  1.00  0.00     0.041 C 
ATOM      9  O   UNL     1      52.539  56.697  46.931  1.00  0.00    -0.550 OA
ATOM     10  O   UNL     1      50.775  56.573  45.475  1.00  0.00    -0.550 OA
ENDBRANCH   7   8
ENDBRANCH   6   7
ENDBRANCH   5   6
ENDBRANCH   4   5
ENDBRANCH   3   4
ENDBRANCH   2   3
ENDBRANCH   1   2
BRANCH   1  11
ATOM     11  C   UNL     1      52.648  52.249  48.121  1.00  0.00     0.000 C 
BRANCH  11  12
ATOM     12  C   UNL     1      53.518  51.484  49.132  1.00  0.00     0.000 C 
BRANCH  12  13
ATOM     13  C   UNL     1      52.810  51.252  50.479  1.00  0.00     0.000 C 
BRANCH  13  14
ATOM     14  C   UNL     1      51.931  52.419  50.974  1.00  0.00     0.000 C 
BRANCH  14  15
ATOM     15  C   UNL     1      52.582  53.319  52.040  1.00  0.00     0.000 C 
BRANCH  15  16
ATOM     16  C   UNL     1      53.477  54.412  51.430  1.00  0.00     0.006 C 
BRANCH  16  17
ATOM     17  C   UNL     1      53.334  55.752  52.165  1.00  0.00     0.053 C 
BRANCH  17  18
ATOM     18  C   UNL     1      52.423  56.689  51.433  1.00  0.00     0.041 C 
ATOM     19  O   UNL     1      52.758  57.152  50.311  1.00  0.00    -0.550 OA
ATOM     20  O   UNL     1      51.188  57.025  51.975  1.00  0.00    -0.550 OA
ENDBRANCH  17  18
ENDBRANCH  16  17
ENDBRANCH  15  16
ENDBRANCH  14  15
ENDBRANCH  13  14
ENDBRANCH  12  13
ENDBRANCH  11  12
ENDBRANCH   1  11
TORSDOF 15
ENDMDL
MODEL 3
REMARK VINA RESULT:    -3.175      3.091      8.211
REMARK INTER + INTRA:          -8.283
REMARK INTER:                  -7.071
REMARK INTRA:                  -1.212
REMARK UNBOUND:                -2.323
REMARK SMILES O=C([O-])CCCCCCCCCCCCCCC(=O)[O-]
REMARK SMILES IDX 10 1 9 2 8 3 7 4 6 5 5 6 4 7 2 8 1 9 3 10 11 11 12 12 13 13
REMARK SMILES IDX 14 14 15 15 16 16 17 17 18 18 19 19 20 20
REMARK H PARENT
REMARK Flexibility Score: inf
ROOT
ATOM      1  C   UNL     1      52.945  53.800  49.475  1.00  0.00     0.000 C 
ENDROOT
BRANCH   1   2
ATOM      2  C   UNL     1      52.376  53.078  48.240  1.00  0.00     0.000 C 
BRANCH   2   3
ATOM      3  C   UNL     1      53.466  52.479  47.339  1.00  0.00     0.000 C 
BRANCH   3   4
ATOM      4  C   UNL     1      54.728  53.356  47.347  1.00  0.00     0.000 C 
BRANCH   4   5
ATOM      5  C   UNL     1      55.004  54.023  45.988  1.00  0.00     0.000 C 
BRANCH   5   6
ATOM      6  C   UNL     1      54.746  55.541  45.946  1.00  0.00     0.006 C 
BRANCH   6   7
ATOM      7  C   UNL     1      53.625  55.931  44.975  1.00  0.00     0.053 C 
BRANCH   7   8
ATOM      8  C   UNL     1      52.386  56.297  45.728  1.00  0.00     0.041 C 
ATOM      9  O   UNL     1      52.449  56.583  46.953  1.00  0.00    -0.550 OA
ATOM     10  O   UNL     1      51.167  56.373  45.066  1.00  0.00    -0.550 OA
ENDBRANCH   7   8
ENDBRANCH   6   7
ENDBRANCH   5   6
ENDBRANCH   4   5
ENDBRANCH   3   4
ENDBRANCH   2   3
ENDBRANCH   1   2
BRANCH   1  11
ATOM     11  C   UNL     1      52.250  53.467  50.808  1.00  0.00     0.000 C 
BRANCH  11  12
ATOM     12  C   UNL     1      51.980  51.963  50.983  1.00  0.00     0.000 C 
BRANCH  12  13
ATOM     13  C   UNL     1      53.265  51.143  51.196  1.00  0.00     0.000 C 
BRANCH  13  14
ATOM     14  C   UNL     1      53.084  49.611  51.182  1.00  0.00     0.000 C 
BRANCH  14  15
ATOM     15  C   UNL     1      53.467  48.897  52.490  1.00  0.00     0.000 C 
BRANCH  15  16
ATOM     16  C   UNL     1      53.435  47.364  52.363  1.00  0.00     0.006 C 
BRANCH  16  17
ATOM     17  C   UNL     1      52.519  46.898  51.223  1.00  0.00     0.053 C 
BRANCH  17  18
ATOM     18  C   UNL     1      53.207  45.915  50.326  1.00  0.00     0.041 C 
ATOM     19  O   UNL     1      53.481  46.224  49.137  1.00  0.00    -0.550 OA
ATOM     20  O   UNL     1      53.578  44.668  50.816  1.00  0.00    -0.550 OA
ENDBRANCH  17  18
ENDBRANCH  16  17
ENDBRANCH  15  16
ENDBRANCH  14  15
ENDBRANCH  13  14
ENDBRANCH  12  13
ENDBRANCH  11  12
ENDBRANCH   1  11
TORSDOF 15
ENDMDL
MODEL 4
REMARK VINA RESULT:    -3.143      2.015      5.037
REMARK INTER + INTRA:          -8.222
REMARK INTER:                  -5.895
REMARK INTRA:                  -2.327
REMARK UNBOUND:                -2.323
REMARK SMILES O=C([O-])CCCCCCCCCCCCCCC(=O)[O-]
REMARK SMILES IDX 10 1 9 2 8 3 7 4 6 5 5 6 4 7 2 8 1 9 3 10 11 11 12 12 13 13
REMARK SMILES IDX 14 14 15 15 16 16 17 17 18 18 19 19 20 20
REMARK H PARENT
REMARK Flexibility Score: inf
ROOT
ATOM      1  C   UNL     1      55.790  54.466  47.049  1.00  0.00     0.000 C 
ENDROOT
BRANCH   1   2
ATOM      2  C   UNL     1      55.167  54.413  45.643  1.00  0.00     0.000 C 
BRANCH   2   3
ATOM      3  C   UNL     1      54.382  55.685  45.285  1.00  0.00     0.000 C 
BRANCH   3   4
ATOM      4  C   UNL     1      52.911  55.559  45.707  1.00  0.00     0.000 C 
BRANCH   4   5
ATOM      5  C   UNL     1      52.448  56.706  46.623  1.00  0.00     0.000 C 
BRANCH   5   6
ATOM      6  C   UNL     1      53.084  56.713  48.026  1.00  0.00     0.006 C 
BRANCH   6   7
ATOM      7  C   UNL     1      53.614  58.092  48.436  1.00  0.00     0.053 C 
BRANCH   7   8
ATOM      8  C   UNL     1      52.511  58.930  48.999  1.00  0.00     0.041 C 
ATOM      9  O   UNL     1      52.422  59.110  50.243  1.00  0.00    -0.550 OA
ATOM     10  O   UNL     1      51.609  59.556  48.148  1.00  0.00    -0.550 OA
ENDBRANCH   7   8
ENDBRANCH   6   7
ENDBRANCH   5   6
ENDBRANCH   4   5
ENDBRANCH   3   4
ENDBRANCH   2   3
ENDBRANCH   1   2
BRANCH   1  11
ATOM     11  C   UNL     1      55.114  53.564  48.099  1.00  0.00     0.000 C 
BRANCH  11  12
ATOM     12  C   UNL     1      54.416  52.342  47.479  1.00  0.00     0.000 C 
BRANCH  12  13
ATOM     13  C   UNL     1      52.890  52.358  47.680  1.00  0.00     0.000 C 
BRANCH  13  14
ATOM     14  C   UNL     1      52.388  53.200  48.872  1.00  0.00     0.000 C 
BRANCH  14  15
ATOM     15  C   UNL     1      52.289  52.445  50.209  1.00  0.00     0.000 C 
BRANCH  15  16
ATOM     16  C   UNL     1      52.170  53.389  51.419  1.00  0.00     0.006 C 
BRANCH  16  17
ATOM     17  C   UNL     1      53.397  54.299  51.564  1.00  0.00     0.053 C 
BRANCH  17  18
ATOM     18  C   UNL     1      53.006  55.735  51.724  1.00  0.00     0.041 C 
ATOM     19  O   UNL     1      51.819  56.097  51.508  1.00  0.00    -0.550 OA
ATOM     20  O   UNL     1      53.944  56.669  52.145  1.00  0.00    -0.550 OA
ENDBRANCH  17  18
ENDBRANCH  16  17
ENDBRANCH  15  16
ENDBRANCH  14  15
ENDBRANCH  13  14
ENDBRANCH  12  13
ENDBRANCH  11  12
ENDBRANCH   1  11
TORSDOF 15
ENDMDL
MODEL 5
REMARK VINA RESULT:    -3.115      1.038      5.845
REMARK INTER + INTRA:          -8.169
REMARK INTER:                  -5.899
REMARK INTRA:                  -2.270
REMARK UNBOUND:                -2.323
REMARK SMILES O=C([O-])CCCCCCCCCCCCCCC(=O)[O-]
REMARK SMILES IDX 10 1 9 2 8 3 7 4 6 5 5 6 4 7 2 8 1 9 3 10 11 11 12 12 13 13
REMARK SMILES IDX 14 14 15 15 16 16 17 17 18 18 19 19 20 20
REMARK H PARENT
REMARK Flexibility Score: inf
ROOT
ATOM      1  C   UNL     1      55.612  54.269  47.202  1.00  0.00     0.000 C 
ENDROOT
BRANCH   1   2
ATOM      2  C   UNL     1      55.020  54.298  45.781  1.00  0.00     0.000 C 
BRANCH   2   3
ATOM      3  C   UNL     1      54.926  55.716  45.198  1.00  0.00     0.000 C 
BRANCH   3   4
ATOM      4  C   UNL     1      53.481  56.051  44.801  1.00  0.00     0.000 C 
BRANCH   4   5
ATOM      5  C   UNL     1      52.501  55.986  45.987  1.00  0.00     0.000 C 
BRANCH   5   6
ATOM      6  C   UNL     1      52.546  57.201  46.932  1.00  0.00     0.006 C 
BRANCH   6   7
ATOM      7  C   UNL     1      53.153  56.872  48.301  1.00  0.00     0.053 C 
BRANCH   7   8
ATOM      8  C   UNL     1      53.039  58.047  49.220  1.00  0.00     0.041 C 
ATOM      9  O   UNL     1      53.064  59.219  48.757  1.00  0.00    -0.550 OA
ATOM     10  O   UNL     1      52.853  57.850  50.582  1.00  0.00    -0.550 OA
ENDBRANCH   7   8
ENDBRANCH   6   7
ENDBRANCH   5   6
ENDBRANCH   4   5
ENDBRANCH   3   4
ENDBRANCH   2   3
ENDBRANCH   1   2
BRANCH   1  11
ATOM     11  C   UNL     1      54.873  53.359  48.201  1.00  0.00     0.000 C 
BRANCH  11  12
ATOM     12  C   UNL     1      53.570  52.776  47.630  1.00  0.00     0.000 C 
BRANCH  12  13
ATOM     13  C   UNL     1      52.342  53.077  48.509  1.00  0.00     0.000 C 
BRANCH  13  14
ATOM     14  C   UNL     1      52.655  53.609  49.923  1.00  0.00     0.000 C 
BRANCH  14  15
ATOM     15  C   UNL     1      52.129  52.739  51.078  1.00  0.00     0.000 C 
BRANCH  15  16
ATOM     16  C   UNL     1      52.074  51.243  50.719  1.00  0.00     0.006 C 
BRANCH  16  17
ATOM     17  C   UNL     1      53.214  50.451  51.372  1.00  0.00     0.053 C 
BRANCH  17  18
ATOM     18  C   UNL     1      54.484  50.559  50.586  1.00  0.00     0.041 C 
ATOM     19  O   UNL     1      55.437  51.262  51.013  1.00  0.00    -0.550 OA
ATOM     20  O   UNL     1      54.628  49.856  49.396  1.00  0.00    -0.550 OA
ENDBRANCH  17  18
ENDBRANCH  16  17
ENDBRANCH  15  16
ENDBRANCH  14  15
ENDBRANCH  13  14
ENDBRANCH  12  13
ENDBRANCH  11  12
ENDBRANCH   1  11
TORSDOF 15
ENDMDL
MODEL 6
REMARK VINA RESULT:    -3.098      2.604      5.058
REMARK INTER + INTRA:          -8.137
REMARK INTER:                  -5.864
REMARK INTRA:                  -2.274
REMARK UNBOUND:                -2.323
REMARK SMILES O=C([O-])CCCCCCCCCCCCCCC(=O)[O-]
REMARK SMILES IDX 10 1 9 2 8 3 7 4 6 5 5 6 4 7 2 8 1 9 3 10 11 11 12 12 13 13
REMARK SMILES IDX 14 14 15 15 16 16 17 17 18 18 19 19 20 20
REMARK H PARENT
REMARK Flexibility Score: inf
ROOT
ATOM      1  C   UNL     1      55.488  50.702  50.613  1.00  0.00     0.000 C 
ENDROOT
BRANCH   1   2
ATOM      2  C   UNL     1      54.175  50.115  50.064  1.00  0.00     0.000 C 
BRANCH   2   3
ATOM      3  C   UNL     1      52.966  50.401  50.966  1.00  0.00     0.000 C 
BRANCH   3   4
ATOM      4  C   UNL     1      52.322  51.749  50.609  1.00  0.00     0.000 C 
BRANCH   4   5
ATOM      5  C   UNL     1      52.668  52.864  51.612  1.00  0.00     0.000 C 
BRANCH   5   6
ATOM      6  C   UNL     1      52.069  54.244  51.281  1.00  0.00     0.006 C 
BRANCH   6   7
ATOM      7  C   UNL     1      53.097  55.378  51.365  1.00  0.00     0.053 C 
BRANCH   7   8
ATOM      8  C   UNL     1      52.429  56.704  51.179  1.00  0.00     0.041 C 
ATOM      9  O   UNL     1      51.507  57.065  51.958  1.00  0.00    -0.550 OA
ATOM     10  O   UNL     1      52.857  57.563  50.175  1.00  0.00    -0.550 OA
ENDBRANCH   7   8
ENDBRANCH   6   7
ENDBRANCH   5   6
ENDBRANCH   4   5
ENDBRANCH   3   4
ENDBRANCH   2   3
ENDBRANCH   1   2
BRANCH   1  11
ATOM     11  C   UNL     1      56.221  51.668  49.663  1.00  0.00     0.000 C 
BRANCH  11  12
ATOM     12  C   UNL     1      55.926  53.147  49.966  1.00  0.00     0.000 C 
BRANCH  12  13
ATOM     13  C   UNL     1      55.259  53.878  48.787  1.00  0.00     0.000 C 
BRANCH  13  14
ATOM     14  C   UNL     1      54.457  52.982  47.820  1.00  0.00     0.000 C 
BRANCH  14  15
ATOM     15  C   UNL     1      53.472  53.730  46.904  1.00  0.00     0.000 C 
BRANCH  15  16
ATOM     16  C   UNL     1      52.852  54.965  47.580  1.00  0.00     0.006 C 
BRANCH  16  17
ATOM     17  C   UNL     1      53.130  56.254  46.795  1.00  0.00     0.053 C 
BRANCH  17  18
ATOM     18  C   UNL     1      52.275  56.352  45.569  1.00  0.00     0.041 C 
ATOM     19  O   UNL     1      52.776  56.166  44.429  1.00  0.00    -0.550 OA
ATOM     20  O   UNL     1      50.915  56.613  45.689  1.00  0.00    -0.550 OA
ENDBRANCH  17  18
ENDBRANCH  16  17
ENDBRANCH  15  16
ENDBRANCH  14  15
ENDBRANCH  13  14
ENDBRANCH  12  13
ENDBRANCH  11  12
ENDBRANCH   1  11
TORSDOF 15
ENDMDL
MODEL 7
REMARK VINA RESULT:    -3.091      1.958      3.041
REMARK INTER + INTRA:          -8.124
REMARK INTER:                  -5.841
REMARK INTRA:                  -2.284
REMARK UNBOUND:                -2.323
REMARK SMILES O=C([O-])CCCCCCCCCCCCCCC(=O)[O-]
REMARK SMILES IDX 10 1 9 2 8 3 7 4 6 5 5 6 4 7 2 8 1 9 3 10 11 11 12 12 13 13
REMARK SMILES IDX 14 14 15 15 16 16 17 17 18 18 19 19 20 20
REMARK H PARENT
REMARK Flexibility Score: inf
ROOT
ATOM      1  C   UNL     1      55.139  53.812  48.147  1.00  0.00     0.000 C 
ENDROOT
BRANCH   1   2
ATOM      2  C   UNL     1      54.571  52.424  47.802  1.00  0.00     0.000 C 
BRANCH   2   3
ATOM      3  C   UNL     1      53.040  52.415  47.680  1.00  0.00     0.000 C 
BRANCH   3   4
ATOM      4  C   UNL     1      52.395  53.239  48.804  1.00  0.00     0.000 C 
BRANCH   4   5
ATOM      5  C   UNL     1      52.321  52.477  50.140  1.00  0.00     0.000 C 
BRANCH   5   6
ATOM      6  C   UNL     1      51.985  53.348  51.365  1.00  0.00     0.006 C 
BRANCH   6   7
ATOM      7  C   UNL     1      52.360  54.822  51.173  1.00  0.00     0.053 C 
BRANCH   7   8
ATOM      8  C   UNL     1      53.672  55.118  51.827  1.00  0.00     0.041 C 
ATOM      9  O   UNL     1      53.887  54.747  53.012  1.00  0.00    -0.550 OA
ATOM     10  O   UNL     1      54.677  55.758  51.114  1.00  0.00    -0.550 OA
ENDBRANCH   7   8
ENDBRANCH   6   7
ENDBRANCH   5   6
ENDBRANCH   4   5
ENDBRANCH   3   4
ENDBRANCH   2   3
ENDBRANCH   1   2
BRANCH   1  11
ATOM     11  C   UNL     1      55.900  54.511  47.005  1.00  0.00     0.000 C 
BRANCH  11  12
ATOM     12  C   UNL     1      55.199  54.369  45.643  1.00  0.00     0.000 C 
BRANCH  12  13
ATOM     13  C   UNL     1      54.352  55.600  45.274  1.00  0.00     0.000 C 
BRANCH  13  14
ATOM     14  C   UNL     1      52.887  55.566  45.758  1.00  0.00     0.000 C 
BRANCH  14  15
ATOM     15  C   UNL     1      52.438  56.796  46.566  1.00  0.00     0.000 C 
BRANCH  15  16
ATOM     16  C   UNL     1      53.054  56.839  47.976  1.00  0.00     0.006 C 
BRANCH  16  17
ATOM     17  C   UNL     1      54.240  57.810  48.058  1.00  0.00     0.053 C 
BRANCH  17  18
ATOM     18  C   UNL     1      53.993  59.055  47.263  1.00  0.00     0.041 C 
ATOM     19  O   UNL     1      53.170  59.916  47.672  1.00  0.00    -0.550 OA
ATOM     20  O   UNL     1      54.697  59.280  46.086  1.00  0.00    -0.550 OA
ENDBRANCH  17  18
ENDBRANCH  16  17
ENDBRANCH  15  16
ENDBRANCH  14  15
ENDBRANCH  13  14
ENDBRANCH  12  13
ENDBRANCH  11  12
ENDBRANCH   1  11
TORSDOF 15
ENDMDL
MODEL 8
REMARK VINA RESULT:    -3.067      1.744      5.583
REMARK INTER + INTRA:          -8.080
REMARK INTER:                  -6.150
REMARK INTRA:                  -1.930
REMARK UNBOUND:                -2.323
REMARK SMILES O=C([O-])CCCCCCCCCCCCCCC(=O)[O-]
REMARK SMILES IDX 10 1 9 2 8 3 7 4 6 5 5 6 4 7 2 8 1 9 3 10 11 11 12 12 13 13
REMARK SMILES IDX 14 14 15 15 16 16 17 17 18 18 19 19 20 20
REMARK H PARENT
REMARK Flexibility Score: inf
ROOT
ATOM      1  C   UNL     1      52.968  56.542  45.066  1.00  0.00     0.000 C 
ENDROOT
BRANCH   1   2
ATOM      2  C   UNL     1      54.434  56.277  44.678  1.00  0.00     0.000 C 
BRANCH   2   3
ATOM      3  C   UNL     1      55.372  57.436  45.048  1.00  0.00     0.000 C 
BRANCH   3   4
ATOM      4  C   UNL     1      54.572  58.668  45.497  1.00  0.00     0.000 C 
BRANCH   4   5
ATOM      5  C   UNL     1      54.910  59.114  46.931  1.00  0.00     0.000 C 
BRANCH   5   6
ATOM      6  C   UNL     1      53.867  60.038  47.586  1.00  0.00     0.006 C 
BRANCH   6   7
ATOM      7  C   UNL     1      52.542  59.327  47.885  1.00  0.00     0.053 C 
BRANCH   7   8
ATOM      8  C   UNL     1      52.344  59.187  49.361  1.00  0.00     0.041 C 
ATOM      9  O   UNL     1      51.411  59.807  49.937  1.00  0.00    -0.550 OA
ATOM     10  O   UNL     1      53.158  58.333  50.094  1.00  0.00    -0.550 OA
ENDBRANCH   7   8
ENDBRANCH   6   7
ENDBRANCH   5   6
ENDBRANCH   4   5
ENDBRANCH   3   4
ENDBRANCH   2   3
ENDBRANCH   1   2
BRANCH   1  11
ATOM     11  C   UNL     1      52.407  55.627  46.170  1.00  0.00     0.000 C 
BRANCH  11  12
ATOM     12  C   UNL     1      53.137  55.792  47.514  1.00  0.00     0.000 C 
BRANCH  12  13
ATOM     13  C   UNL     1      54.016  54.580  47.871  1.00  0.00     0.000 C 
BRANCH  13  14
ATOM     14  C   UNL     1      53.551  53.230  47.286  1.00  0.00     0.000 C 
BRANCH  14  15
ATOM     15  C   UNL     1      52.546  52.454  48.154  1.00  0.00     0.000 C 
BRANCH  15  16
ATOM     16  C   UNL     1      53.042  52.242  49.595  1.00  0.00     0.006 C 
BRANCH  16  17
ATOM     17  C   UNL     1      51.993  52.658  50.635  1.00  0.00     0.053 C 
BRANCH  17  18
ATOM     18  C   UNL     1      52.465  53.810  51.468  1.00  0.00     0.041 C 
ATOM     19  O   UNL     1      53.023  53.605  52.577  1.00  0.00    -0.550 OA
ATOM     20  O   UNL     1      52.318  55.111  51.001  1.00  0.00    -0.550 OA
ENDBRANCH  17  18
ENDBRANCH  16  17
ENDBRANCH  15  16
ENDBRANCH  14  15
ENDBRANCH  13  14
ENDBRANCH  12  13
ENDBRANCH  11  12
ENDBRANCH   1  11
TORSDOF 15
ENDMDL
MODEL 9
REMARK VINA RESULT:    -3.065      2.567      5.160
REMARK INTER + INTRA:          -8.075
REMARK INTER:                  -6.187
REMARK INTRA:                  -1.888
REMARK UNBOUND:                -2.323
REMARK SMILES O=C([O-])CCCCCCCCCCCCCCC(=O)[O-]
REMARK SMILES IDX 10 1 9 2 8 3 7 4 6 5 5 6 4 7 2 8 1 9 3 10 11 11 12 12 13 13
REMARK SMILES IDX 14 14 15 15 16 16 17 17 18 18 19 19 20 20
REMARK H PARENT
REMARK Flexibility Score: inf
ROOT
ATOM      1  C   UNL     1      53.124  51.259  49.726  1.00  0.00     0.000 C 
ENDROOT
BRANCH   1   2
ATOM      2  C   UNL     1      52.248  51.406  50.983  1.00  0.00     0.000 C 
BRANCH   2   3
ATOM      3  C   UNL     1      51.987  52.870  51.366  1.00  0.00     0.000 C 
BRANCH   3   4
ATOM      4  C   UNL     1      53.182  53.458  52.132  1.00  0.00     0.000 C 
BRANCH   4   5
ATOM      5  C   UNL     1      53.728  54.748  51.494  1.00  0.00     0.000 C 
BRANCH   5   6
ATOM      6  C   UNL     1      52.724  55.510  50.609  1.00  0.00     0.006 C 
BRANCH   6   7
ATOM      7  C   UNL     1      53.183  56.933  50.271  1.00  0.00     0.053 C 
BRANCH   7   8
ATOM      8  C   UNL     1      52.340  57.938  50.989  1.00  0.00     0.041 C 
ATOM      9  O   UNL     1      51.731  57.618  52.045  1.00  0.00    -0.550 OA
ATOM     10  O   UNL     1      52.265  59.245  50.522  1.00  0.00    -0.550 OA
ENDBRANCH   7   8
ENDBRANCH   6   7
ENDBRANCH   5   6
ENDBRANCH   4   5
ENDBRANCH   3   4
ENDBRANCH   2   3
ENDBRANCH   1   2
BRANCH   1  11
ATOM     11  C   UNL     1      52.760  52.199  48.561  1.00  0.00     0.000 C 
BRANCH  11  12
ATOM     12  C   UNL     1      53.994  52.821  47.886  1.00  0.00     0.000 C 
BRANCH  12  13
ATOM     13  C   UNL     1      53.737  54.246  47.364  1.00  0.00     0.000 C 
BRANCH  13  14
ATOM     14  C   UNL     1      54.936  55.213  47.459  1.00  0.00     0.000 C 
BRANCH  14  15
ATOM     15  C   UNL     1      55.360  55.859  46.129  1.00  0.00     0.000 C 
BRANCH  15  16
ATOM     16  C   UNL     1      54.392  55.539  44.976  1.00  0.00     0.006 C 
BRANCH  16  17
ATOM     17  C   UNL     1      53.556  56.760  44.568  1.00  0.00     0.053 C 
BRANCH  17  18
ATOM     18  C   UNL     1      52.156  56.673  45.092  1.00  0.00     0.041 C 
ATOM     19  O   UNL     1      51.225  56.267  44.349  1.00  0.00    -0.550 OA
ATOM     20  O   UNL     1      51.886  57.009  46.413  1.00  0.00    -0.550 OA
ENDBRANCH  17  18
ENDBRANCH  16  17
ENDBRANCH  15  16
ENDBRANCH  14  15
ENDBRANCH  13  14
ENDBRANCH  12  13
ENDBRANCH  11  12
ENDBRANCH   1  11
TORSDOF 15
ENDMDL
