MODEL 1
REMARK VINA RESULT:    -4.960      0.000      0.000
REMARK INTER + INTRA:         -14.356
REMARK INTER:                 -10.759
REMARK INTRA:                  -3.597
REMARK UNBOUND:                -3.597
REMARK SMILES CCCCCCCCCCCCCCCCCCCCCC(=O)[O-]
REMARK SMILES IDX 12 1 11 2 10 3 9 4 8 5 7 6 6 7 5 8 4 9 3 10 2 11 1 12 13 13
REMARK SMILES IDX 14 14 15 15 16 16 17 17 18 18 19 19 20 20 21 21 22 22 23 23
REMARK SMILES IDX 24 24
REMARK H PARENT
REMARK Flexibility Score: inf
ROOT
ATOM      1  C   UNL     1      18.665  -2.784  32.918  1.00  0.00     0.000 C 
ENDROOT
BRANCH   1   2
ATOM      2  C   UNL     1      19.426  -3.157  31.627  1.00  0.00     0.000 C 
BRANCH   2   3
ATOM      3  C   UNL     1      18.833  -4.334  30.833  1.00  0.00     0.000 C 
BRANCH   3   4
ATOM      4  C   UNL     1      19.905  -5.269  30.257  1.00  0.00    -0.000 C 
BRANCH   4   5
ATOM      5  C   UNL     1      19.606  -6.730  30.624  1.00  0.00    -0.000 C 
BRANCH   5   6
ATOM      6  C   UNL     1      18.614  -6.865  31.794  1.00  0.00    -0.000 C 
BRANCH   6   7
ATOM      7  C   UNL     1      19.218  -7.396  33.111  1.00  0.00    -0.000 C 
BRANCH   7   8
ATOM      8  C   UNL     1      19.667  -6.314  34.107  1.00  0.00    -0.000 C 
BRANCH   8   9
ATOM      9  C   UNL     1      21.197  -6.242  34.261  1.00  0.00    -0.000 C 
BRANCH   9  10
ATOM     10  C   UNL     1      21.816  -5.096  33.448  1.00  0.00    -0.000 C 
BRANCH  10  11
ATOM     11  C   UNL     1      22.812  -5.595  32.389  1.00  0.00    -0.003 C 
ATOM     12  C   UNL     1      22.843  -7.120  32.339  1.00  0.00     0.004 C 
ENDBRANCH  10  11
ENDBRANCH   9  10
ENDBRANCH   8   9
ENDBRANCH   7   8
ENDBRANCH   6   7
ENDBRANCH   5   6
ENDBRANCH   4   5
ENDBRANCH   3   4
ENDBRANCH   2   3
ENDBRANCH   1   2
BRANCH   1  13
ATOM     13  C   UNL     1      19.545  -2.531  34.156  1.00  0.00     0.000 C 
BRANCH  13  14
ATOM     14  C   UNL     1      19.073  -1.328  34.990  1.00  0.00     0.000 C 
BRANCH  14  15
ATOM     15  C   UNL     1      20.236  -0.567  35.653  1.00  0.00     0.000 C 
BRANCH  15  16
ATOM     16  C   UNL     1      21.554  -0.560  34.858  1.00  0.00     0.000 C 
BRANCH  16  17
ATOM     17  C   UNL     1      22.787  -0.308  35.745  1.00  0.00     0.000 C 
BRANCH  17  18
ATOM     18  C   UNL     1      23.056  -1.467  36.719  1.00  0.00     0.000 C 
BRANCH  18  19
ATOM     19  C   UNL     1      23.154  -2.825  36.002  1.00  0.00     0.000 C 
BRANCH  19  20
ATOM     20  C   UNL     1      22.734  -4.007  36.893  1.00  0.00     0.006 C 
BRANCH  20  21
ATOM     21  C   UNL     1      23.799  -5.113  37.009  1.00  0.00     0.053 C 
BRANCH  21  22
ATOM     22  C   UNL     1      23.380  -6.222  37.926  1.00  0.00     0.041 C 
ATOM     23  O   UNL     1      23.954  -6.378  39.036  1.00  0.00    -0.550 OA
ATOM     24  O   UNL     1      22.331  -7.064  37.572  1.00  0.00    -0.550 OA
ENDBRANCH  21  22
ENDBRANCH  20  21
ENDBRANCH  19  20
ENDBRANCH  18  19
ENDBRANCH  17  18
ENDBRANCH  16  17
ENDBRANCH  15  16
ENDBRANCH  14  15
ENDBRANCH  13  14
ENDBRANCH   1  13
TORSDOF 20
ENDMDL
MODEL 2
REMARK VINA RESULT:    -4.881      1.628      4.379
REMARK INTER + INTRA:         -14.185
REMARK INTER:                 -10.914
REMARK INTRA:                  -3.271
REMARK UNBOUND:                -3.597
REMARK SMILES CCCCCCCCCCCCCCCCCCCCCC(=O)[O-]
REMARK SMILES IDX 12 1 11 2 10 3 9 4 8 5 7 6 6 7 5 8 4 9 3 10 2 11 1 12 13 13
REMARK SMILES IDX 14 14 15 15 16 16 17 17 18 18 19 19 20 20 21 21 22 22 23 23
REMARK SMILES IDX 24 24
REMARK H PARENT
REMARK Flexibility Score: inf
ROOT
ATOM      1  C   UNL     1      21.877  -6.810  33.285  1.00  0.00     0.000 C 
ENDROOT
BRANCH   1   2
ATOM      2  C   UNL     1      22.516  -5.827  32.280  1.00  0.00     0.000 C 
BRANCH   2   3
ATOM      3  C   UNL     1      21.832  -5.761  30.903  1.00  0.00     0.000 C 
BRANCH   3   4
ATOM      4  C   UNL     1      20.386  -6.274  30.927  1.00  0.00    -0.000 C 
BRANCH   4   5
ATOM      5  C   UNL     1      19.409  -5.166  30.508  1.00  0.00    -0.000 C 
BRANCH   5   6
ATOM      6  C   UNL     1      19.772  -3.790  31.094  1.00  0.00    -0.000 C 
BRANCH   6   7
ATOM      7  C   UNL     1      19.246  -3.522  32.520  1.00  0.00    -0.000 C 
BRANCH   7   8
ATOM      8  C   UNL     1      20.198  -2.726  33.429  1.00  0.00    -0.000 C 
BRANCH   8   9
ATOM      9  C   UNL     1      19.454  -1.809  34.416  1.00  0.00    -0.000 C 
BRANCH   9  10
ATOM     10  C   UNL     1      20.364  -1.297  35.542  1.00  0.00    -0.000 C 
BRANCH  10  11
ATOM     11  C   UNL     1      21.585  -0.531  35.011  1.00  0.00    -0.003 C 
ATOM     12  C   UNL     1      22.797  -0.729  35.918  1.00  0.00     0.004 C 
ENDBRANCH  10  11
ENDBRANCH   9  10
ENDBRANCH   8   9
ENDBRANCH   7   8
ENDBRANCH   6   7
ENDBRANCH   5   6
ENDBRANCH   4   5
ENDBRANCH   3   4
ENDBRANCH   2   3
ENDBRANCH   1   2
BRANCH   1  13
ATOM     13  C   UNL     1      21.286  -6.169  34.554  1.00  0.00     0.000 C 
BRANCH  13  14
ATOM     14  C   UNL     1      22.224  -5.131  35.193  1.00  0.00     0.000 C 
BRANCH  14  15
ATOM     15  C   UNL     1      21.645  -4.511  36.478  1.00  0.00     0.000 C 
BRANCH  15  16
ATOM     16  C   UNL     1      20.162  -4.825  36.747  1.00  0.00     0.000 C 
BRANCH  16  17
ATOM     17  C   UNL     1      19.929  -5.483  38.119  1.00  0.00     0.000 C 
BRANCH  17  18
ATOM     18  C   UNL     1      21.245  -5.776  38.861  1.00  0.00     0.000 C 
BRANCH  18  19
ATOM     19  C   UNL     1      21.586  -7.276  38.880  1.00  0.00     0.000 C 
BRANCH  19  20
ATOM     20  C   UNL     1      22.963  -7.587  38.266  1.00  0.00     0.006 C 
BRANCH  20  21
ATOM     21  C   UNL     1      24.032  -6.517  38.552  1.00  0.00     0.053 C 
BRANCH  21  22
ATOM     22  C   UNL     1      24.810  -6.799  39.802  1.00  0.00     0.041 C 
ATOM     23  O   UNL     1      25.197  -7.970  40.056  1.00  0.00    -0.550 OA
ATOM     24  O   UNL     1      25.139  -5.764  40.669  1.00  0.00    -0.550 OA
ENDBRANCH  21  22
ENDBRANCH  20  21
ENDBRANCH  19  20
ENDBRANCH  18  19
ENDBRANCH  17  18
ENDBRANCH  16  17
ENDBRANCH  15  16
ENDBRANCH  14  15
ENDBRANCH  13  14
ENDBRANCH   1  13
TORSDOF 20
ENDMDL
MODEL 3
REMARK VINA RESULT:    -4.869      3.027      5.101
REMARK INTER + INTRA:         -14.159
REMARK INTER:                 -10.877
REMARK INTRA:                  -3.281
REMARK UNBOUND:                -3.597
REMARK SMILES CCCCCCCCCCCCCCCCCCCCCC(=O)[O-]
REMARK SMILES IDX 12 1 11 2 10 3 9 4 8 5 7 6 6 7 5 8 4 9 3 10 2 11 1 12 13 13
REMARK SMILES IDX 14 14 15 15 16 16 17 17 18 18 19 19 20 20 21 21 22 22 23 23
REMARK SMILES IDX 24 24
REMARK H PARENT
REMARK Flexibility Score: inf
ROOT
ATOM      1  C   UNL     1      22.250  -5.877  31.247  1.00  0.00     0.000 C 
ENDROOT
BRANCH   1   2
ATOM      2  C   UNL     1      20.835  -6.362  30.864  1.00  0.00     0.000 C 
BRANCH   2   3
ATOM      3  C   UNL     1      20.000  -5.364  30.042  1.00  0.00     0.000 C 
BRANCH   3   4
ATOM      4  C   UNL     1      18.925  -4.653  30.876  1.00  0.00    -0.000 C 
BRANCH   4   5
ATOM      5  C   UNL     1      19.365  -3.224  31.224  1.00  0.00    -0.000 C 
BRANCH   5   6
ATOM      6  C   UNL     1      20.001  -3.114  32.622  1.00  0.00    -0.000 C 
BRANCH   6   7
ATOM      7  C   UNL     1      19.051  -2.643  33.743  1.00  0.00    -0.000 C 
BRANCH   7   8
ATOM      8  C   UNL     1      18.575  -3.746  34.703  1.00  0.00    -0.000 C 
BRANCH   8   9
ATOM      9  C   UNL     1      17.406  -4.569  34.134  1.00  0.00    -0.000 C 
BRANCH   9  10
ATOM     10  C   UNL     1      17.429  -6.029  34.609  1.00  0.00    -0.000 C 
BRANCH  10  11
ATOM     11  C   UNL     1      17.075  -7.019  33.489  1.00  0.00    -0.003 C 
ATOM     12  C   UNL     1      18.287  -7.858  33.091  1.00  0.00     0.004 C 
ENDBRANCH  10  11
ENDBRANCH   9  10
ENDBRANCH   8   9
ENDBRANCH   7   8
ENDBRANCH   6   7
ENDBRANCH   5   6
ENDBRANCH   4   5
ENDBRANCH   3   4
ENDBRANCH   2   3
ENDBRANCH   1   2
BRANCH   1  13
ATOM     13  C   UNL     1      22.641  -6.075  32.723  1.00  0.00     0.000 C 
BRANCH  13  14
ATOM     14  C   UNL     1      21.474  -6.580  33.588  1.00  0.00     0.000 C 
BRANCH  14  15
ATOM     15  C   UNL     1      21.370  -5.848  34.939  1.00  0.00     0.000 C 
BRANCH  15  16
ATOM     16  C   UNL     1      22.606  -5.019  35.333  1.00  0.00     0.000 C 
BRANCH  16  17
ATOM     17  C   UNL     1      22.402  -3.507  35.132  1.00  0.00     0.000 C 
BRANCH  17  18
ATOM     18  C   UNL     1      23.425  -2.667  35.916  1.00  0.00     0.000 C 
BRANCH  18  19
ATOM     19  C   UNL     1      22.755  -1.594  36.792  1.00  0.00     0.000 C 
BRANCH  19  20
ATOM     20  C   UNL     1      21.545  -0.931  36.110  1.00  0.00     0.006 C 
BRANCH  20  21
ATOM     21  C   UNL     1      21.914   0.240  35.181  1.00  0.00     0.053 C 
BRANCH  21  22
ATOM     22  C   UNL     1      21.371   1.551  35.662  1.00  0.00     0.041 C 
ATOM     23  O   UNL     1      21.384   2.558  34.906  1.00  0.00    -0.550 OA
ATOM     24  O   UNL     1      20.817   1.654  36.933  1.00  0.00    -0.550 OA
ENDBRANCH  21  22
ENDBRANCH  20  21
ENDBRANCH  19  20
ENDBRANCH  18  19
ENDBRANCH  17  18
ENDBRANCH  16  17
ENDBRANCH  15  16
ENDBRANCH  14  15
ENDBRANCH  13  14
ENDBRANCH   1  13
TORSDOF 20
ENDMDL
MODEL 4
REMARK VINA RESULT:    -4.824      3.538      7.241
REMARK INTER + INTRA:         -14.062
REMARK INTER:                 -11.636
REMARK INTRA:                  -2.426
REMARK UNBOUND:                -3.597
REMARK SMILES CCCCCCCCCCCCCCCCCCCCCC(=O)[O-]
REMARK SMILES IDX 12 1 11 2 10 3 9 4 8 5 7 6 6 7 5 8 4 9 3 10 2 11 1 12 13 13
REMARK SMILES IDX 14 14 15 15 16 16 17 17 18 18 19 19 20 20 21 21 22 22 23 23
REMARK SMILES IDX 24 24
REMARK H PARENT
REMARK Flexibility Score: inf
ROOT
ATOM      1  C   UNL     1      22.160  -5.762  30.955  1.00  0.00     0.000 C 
ENDROOT
BRANCH   1   2
ATOM      2  C   UNL     1      22.446  -6.443  32.311  1.00  0.00     0.000 C 
BRANCH   2   3
ATOM      3  C   UNL     1      21.997  -5.650  33.551  1.00  0.00     0.000 C 
BRANCH   3   4
ATOM      4  C   UNL     1      21.184  -4.397  33.198  1.00  0.00    -0.000 C 
BRANCH   4   5
ATOM      5  C   UNL     1      21.009  -3.498  34.431  1.00  0.00    -0.000 C 
BRANCH   5   6
ATOM      6  C   UNL     1      21.650  -4.087  35.701  1.00  0.00    -0.000 C 
BRANCH   6   7
ATOM      7  C   UNL     1      22.829  -3.277  36.280  1.00  0.00    -0.000 C 
BRANCH   7   8
ATOM      8  C   UNL     1      23.118  -1.944  35.568  1.00  0.00    -0.000 C 
BRANCH   8   9
ATOM      9  C   UNL     1      22.338  -0.763  36.172  1.00  0.00    -0.000 C 
BRANCH   9  10
ATOM     10  C   UNL     1      21.519  -0.001  35.119  1.00  0.00    -0.000 C 
BRANCH  10  11
ATOM     11  C   UNL     1      22.207   1.294  34.661  1.00  0.00    -0.003 C 
ATOM     12  C   UNL     1      21.553   2.519  35.295  1.00  0.00     0.004 C 
ENDBRANCH  10  11
ENDBRANCH   9  10
ENDBRANCH   8   9
ENDBRANCH   7   8
ENDBRANCH   6   7
ENDBRANCH   5   6
ENDBRANCH   4   5
ENDBRANCH   3   4
ENDBRANCH   2   3
ENDBRANCH   1   2
BRANCH   1  13
ATOM     13  C   UNL     1      21.150  -6.489  30.049  1.00  0.00     0.000 C 
BRANCH  13  14
ATOM     14  C   UNL     1      19.688  -6.169  30.405  1.00  0.00     0.000 C 
BRANCH  14  15
ATOM     15  C   UNL     1      19.130  -7.075  31.518  1.00  0.00     0.000 C 
BRANCH  15  16
ATOM     16  C   UNL     1      17.859  -6.553  32.213  1.00  0.00     0.000 C 
BRANCH  16  17
ATOM     17  C   UNL     1      17.928  -6.661  33.747  1.00  0.00     0.000 C 
BRANCH  17  18
ATOM     18  C   UNL     1      17.855  -5.288  34.436  1.00  0.00     0.000 C 
BRANCH  18  19
ATOM     19  C   UNL     1      17.098  -4.248  33.592  1.00  0.00     0.000 C 
BRANCH  19  20
ATOM     20  C   UNL     1      16.913  -2.903  34.318  1.00  0.00     0.006 C 
BRANCH  20  21
ATOM     21  C   UNL     1      17.114  -1.672  33.416  1.00  0.00     0.053 C 
BRANCH  21  22
ATOM     22  C   UNL     1      15.874  -0.839  33.294  1.00  0.00     0.041 C 
ATOM     23  O   UNL     1      15.848   0.147  32.511  1.00  0.00    -0.550 OA
ATOM     24  O   UNL     1      14.734  -1.171  34.017  1.00  0.00    -0.550 OA
ENDBRANCH  21  22
ENDBRANCH  20  21
ENDBRANCH  19  20
ENDBRANCH  18  19
ENDBRANCH  17  18
ENDBRANCH  16  17
ENDBRANCH  15  16
ENDBRANCH  14  15
ENDBRANCH  13  14
ENDBRANCH   1  13
TORSDOF 20
ENDMDL
MODEL 5
REMARK VINA RESULT:    -4.787      1.933      4.793
REMARK INTER + INTRA:         -13.981
REMARK INTER:                 -11.253
REMARK INTRA:                  -2.728
REMARK UNBOUND:                -3.597
REMARK SMILES CCCCCCCCCCCCCCCCCCCCCC(=O)[O-]
REMARK SMILES IDX 12 1 11 2 10 3 9 4 8 5 7 6 6 7 5 8 4 9 3 10 2 11 1 12 13 13
REMARK SMILES IDX 14 14 15 15 16 16 17 17 18 18 19 19 20 20 21 21 22 22 23 23
REMARK SMILES IDX 24 24
REMARK H PARENT
REMARK Flexibility Score: inf
ROOT
ATOM      1  C   UNL     1      22.997  -1.113  36.533  1.00  0.00     0.000 C 
ENDROOT
BRANCH   1   2
ATOM      2  C   UNL     1      21.958  -0.237  35.800  1.00  0.00     0.000 C 
BRANCH   2   3
ATOM      3  C   UNL     1      21.149  -0.957  34.706  1.00  0.00     0.000 C 
BRANCH   3   4
ATOM      4  C   UNL     1      19.823  -1.533  35.224  1.00  0.00    -0.000 C 
BRANCH   4   5
ATOM      5  C   UNL     1      19.461  -2.822  34.470  1.00  0.00    -0.000 C 
BRANCH   5   6
ATOM      6  C   UNL     1      20.487  -3.192  33.384  1.00  0.00    -0.000 C 
BRANCH   6   7
ATOM      7  C   UNL     1      20.072  -4.352  32.455  1.00  0.00    -0.000 C 
BRANCH   7   8
ATOM      8  C   UNL     1      21.211  -5.302  32.046  1.00  0.00    -0.000 C 
BRANCH   8   9
ATOM      9  C   UNL     1      21.185  -6.633  32.817  1.00  0.00    -0.000 C 
BRANCH   9  10
ATOM     10  C   UNL     1      19.850  -6.867  33.539  1.00  0.00    -0.000 C 
BRANCH  10  11
ATOM     11  C   UNL     1      18.940  -7.855  32.793  1.00  0.00    -0.003 C 
ATOM     12  C   UNL     1      17.620  -7.199  32.399  1.00  0.00     0.004 C 
ENDBRANCH  10  11
ENDBRANCH   9  10
ENDBRANCH   8   9
ENDBRANCH   7   8
ENDBRANCH   6   7
ENDBRANCH   5   6
ENDBRANCH   4   5
ENDBRANCH   3   4
ENDBRANCH   2   3
ENDBRANCH   1   2
BRANCH   1  13
ATOM     13  C   UNL     1      23.313  -2.464  35.865  1.00  0.00     0.000 C 
BRANCH  13  14
ATOM     14  C   UNL     1      22.831  -3.667  36.693  1.00  0.00     0.000 C 
BRANCH  14  15
ATOM     15  C   UNL     1      22.429  -4.872  35.821  1.00  0.00     0.000 C 
BRANCH  15  16
ATOM     16  C   UNL     1      21.913  -6.099  36.595  1.00  0.00     0.000 C 
BRANCH  16  17
ATOM     17  C   UNL     1      21.209  -5.724  37.911  1.00  0.00     0.000 C 
BRANCH  17  18
ATOM     18  C   UNL     1      21.764  -6.502  39.117  1.00  0.00     0.000 C 
BRANCH  18  19
ATOM     19  C   UNL     1      23.120  -7.162  38.814  1.00  0.00     0.000 C 
BRANCH  19  20
ATOM     20  C   UNL     1      24.308  -6.410  39.442  1.00  0.00     0.006 C 
BRANCH  20  21
ATOM     21  C   UNL     1      25.494  -7.316  39.818  1.00  0.00     0.053 C 
BRANCH  21  22
ATOM     22  C   UNL     1      26.692  -6.538  40.273  1.00  0.00     0.041 C 
ATOM     23  O   UNL     1      27.749  -6.546  39.589  1.00  0.00    -0.550 OA
ATOM     24  O   UNL     1      26.631  -5.775  41.433  1.00  0.00    -0.550 OA
ENDBRANCH  21  22
ENDBRANCH  20  21
ENDBRANCH  19  20
ENDBRANCH  18  19
ENDBRANCH  17  18
ENDBRANCH  16  17
ENDBRANCH  15  16
ENDBRANCH  14  15
ENDBRANCH  13  14
ENDBRANCH   1  13
TORSDOF 20
ENDMDL
MODEL 6
REMARK VINA RESULT:    -4.764      3.146      4.669
REMARK INTER + INTRA:         -13.931
REMARK INTER:                 -10.566
REMARK INTRA:                  -3.365
REMARK UNBOUND:                -3.597
REMARK SMILES CCCCCCCCCCCCCCCCCCCCCC(=O)[O-]
REMARK SMILES IDX 12 1 11 2 10 3 9 4 8 5 7 6 6 7 5 8 4 9 3 10 2 11 1 12 13 13
REMARK SMILES IDX 14 14 15 15 16 16 17 17 18 18 19 19 20 20 21 21 22 22 23 23
REMARK SMILES IDX 24 24
REMARK H PARENT
REMARK Flexibility Score: inf
ROOT
ATOM      1  C   UNL     1      20.917  -3.409  34.014  1.00  0.00     0.000 C 
ENDROOT
BRANCH   1   2
ATOM      2  C   UNL     1      19.690  -2.660  33.449  1.00  0.00     0.000 C 
BRANCH   2   3
ATOM      3  C   UNL     1      18.463  -2.618  34.376  1.00  0.00     0.000 C 
BRANCH   3   4
ATOM      4  C   UNL     1      17.223  -3.280  33.759  1.00  0.00    -0.000 C 
BRANCH   4   5
ATOM      5  C   UNL     1      17.613  -4.133  32.542  1.00  0.00    -0.000 C 
BRANCH   5   6
ATOM      6  C   UNL     1      17.420  -5.642  32.778  1.00  0.00    -0.000 C 
BRANCH   6   7
ATOM      7  C   UNL     1      18.616  -6.364  33.431  1.00  0.00    -0.000 C 
BRANCH   7   8
ATOM      8  C   UNL     1      19.427  -7.269  32.488  1.00  0.00    -0.000 C 
BRANCH   8   9
ATOM      9  C   UNL     1      19.570  -6.682  31.073  1.00  0.00    -0.000 C 
BRANCH   9  10
ATOM     10  C   UNL     1      20.650  -5.592  30.996  1.00  0.00    -0.000 C 
BRANCH  10  11
ATOM     11  C   UNL     1      22.068  -6.174  30.883  1.00  0.00    -0.003 C 
ATOM     12  C   UNL     1      22.830  -6.026  32.198  1.00  0.00     0.004 C 
ENDBRANCH  10  11
ENDBRANCH   9  10
ENDBRANCH   8   9
ENDBRANCH   7   8
ENDBRANCH   6   7
ENDBRANCH   5   6
ENDBRANCH   4   5
ENDBRANCH   3   4
ENDBRANCH   2   3
ENDBRANCH   1   2
BRANCH   1  13
ATOM     13  C   UNL     1      20.659  -4.237  35.287  1.00  0.00     0.000 C 
BRANCH  13  14
ATOM     14  C   UNL     1      21.720  -5.326  35.517  1.00  0.00     0.000 C 
BRANCH  14  15
ATOM     15  C   UNL     1      22.390  -5.226  36.901  1.00  0.00     0.000 C 
BRANCH  15  16
ATOM     16  C   UNL     1      23.520  -4.187  37.009  1.00  0.00     0.000 C 
BRANCH  16  17
ATOM     17  C   UNL     1      23.073  -2.887  37.701  1.00  0.00     0.000 C 
BRANCH  17  18
ATOM     18  C   UNL     1      22.975  -1.704  36.722  1.00  0.00     0.000 C 
BRANCH  18  19
ATOM     19  C   UNL     1      21.912  -0.677  37.147  1.00  0.00     0.000 C 
BRANCH  19  20
ATOM     20  C   UNL     1      21.064  -0.166  35.969  1.00  0.00     0.006 C 
BRANCH  20  21
ATOM     21  C   UNL     1      21.889   0.250  34.737  1.00  0.00     0.053 C 
BRANCH  21  22
ATOM     22  C   UNL     1      22.212   1.713  34.727  1.00  0.00     0.041 C 
ATOM     23  O   UNL     1      21.360   2.552  35.122  1.00  0.00    -0.550 OA
ATOM     24  O   UNL     1      23.466   2.150  34.316  1.00  0.00    -0.550 OA
ENDBRANCH  21  22
ENDBRANCH  20  21
ENDBRANCH  19  20
ENDBRANCH  18  19
ENDBRANCH  17  18
ENDBRANCH  16  17
ENDBRANCH  15  16
ENDBRANCH  14  15
ENDBRANCH  13  14
ENDBRANCH   1  13
TORSDOF 20
ENDMDL
MODEL 7
REMARK VINA RESULT:    -4.750      1.550      3.761
REMARK INTER + INTRA:         -13.901
REMARK INTER:                 -10.961
REMARK INTRA:                  -2.940
REMARK UNBOUND:                -3.597
REMARK SMILES CCCCCCCCCCCCCCCCCCCCCC(=O)[O-]
REMARK SMILES IDX 12 1 11 2 10 3 9 4 8 5 7 6 6 7 5 8 4 9 3 10 2 11 1 12 13 13
REMARK SMILES IDX 14 14 15 15 16 16 17 17 18 18 19 19 20 20 21 21 22 22 23 23
REMARK SMILES IDX 24 24
REMARK H PARENT
REMARK Flexibility Score: inf
ROOT
ATOM      1  C   UNL     1      21.914  -1.205  35.170  1.00  0.00     0.000 C 
ENDROOT
BRANCH   1   2
ATOM      2  C   UNL     1      20.425  -1.014  35.532  1.00  0.00     0.000 C 
BRANCH   2   3
ATOM      3  C   UNL     1      19.428  -1.733  34.606  1.00  0.00     0.000 C 
BRANCH   3   4
ATOM      4  C   UNL     1      20.112  -2.477  33.451  1.00  0.00    -0.000 C 
BRANCH   4   5
ATOM      5  C   UNL     1      19.133  -3.449  32.776  1.00  0.00    -0.000 C 
BRANCH   5   6
ATOM      6  C   UNL     1      18.279  -4.240  33.783  1.00  0.00    -0.000 C 
BRANCH   6   7
ATOM      7  C   UNL     1      18.149  -5.750  33.494  1.00  0.00    -0.000 C 
BRANCH   7   8
ATOM      8  C   UNL     1      19.366  -6.600  33.897  1.00  0.00    -0.000 C 
BRANCH   8   9
ATOM      9  C   UNL     1      20.323  -6.867  32.722  1.00  0.00    -0.000 C 
BRANCH   9  10
ATOM     10  C   UNL     1      21.797  -6.678  33.111  1.00  0.00    -0.000 C 
BRANCH  10  11
ATOM     11  C   UNL     1      22.535  -5.709  32.173  1.00  0.00    -0.003 C 
ATOM     12  C   UNL     1      22.096  -5.905  30.725  1.00  0.00     0.004 C 
ENDBRANCH  10  11
ENDBRANCH   9  10
ENDBRANCH   8   9
ENDBRANCH   7   8
ENDBRANCH   6   7
ENDBRANCH   5   6
ENDBRANCH   4   5
ENDBRANCH   3   4
ENDBRANCH   2   3
ENDBRANCH   1   2
BRANCH   1  13
ATOM     13  C   UNL     1      22.855  -1.475  36.358  1.00  0.00     0.000 C 
BRANCH  13  14
ATOM     14  C   UNL     1      23.399  -2.913  36.376  1.00  0.00     0.000 C 
BRANCH  14  15
ATOM     15  C   UNL     1      22.549  -3.885  35.536  1.00  0.00     0.000 C 
BRANCH  15  16
ATOM     16  C   UNL     1      21.388  -4.560  36.289  1.00  0.00     0.000 C 
BRANCH  16  17
ATOM     17  C   UNL     1      21.813  -5.853  37.009  1.00  0.00     0.000 C 
BRANCH  17  18
ATOM     18  C   UNL     1      21.112  -6.025  38.368  1.00  0.00     0.000 C 
BRANCH  18  19
ATOM     19  C   UNL     1      21.664  -7.219  39.165  1.00  0.00     0.000 C 
BRANCH  19  20
ATOM     20  C   UNL     1      23.135  -7.531  38.839  1.00  0.00     0.006 C 
BRANCH  20  21
ATOM     21  C   UNL     1      24.108  -7.245  39.998  1.00  0.00     0.053 C 
BRANCH  21  22
ATOM     22  C   UNL     1      24.827  -5.940  39.838  1.00  0.00     0.041 C 
ATOM     23  O   UNL     1      25.346  -5.376  40.837  1.00  0.00    -0.550 OA
ATOM     24  O   UNL     1      24.955  -5.363  38.580  1.00  0.00    -0.550 OA
ENDBRANCH  21  22
ENDBRANCH  20  21
ENDBRANCH  19  20
ENDBRANCH  18  19
ENDBRANCH  17  18
ENDBRANCH  16  17
ENDBRANCH  15  16
ENDBRANCH  14  15
ENDBRANCH  13  14
ENDBRANCH   1  13
TORSDOF 20
ENDMDL
MODEL 8
REMARK VINA RESULT:    -4.736      2.669      7.136
REMARK INTER + INTRA:         -13.870
REMARK INTER:                 -10.901
REMARK INTRA:                  -2.969
REMARK UNBOUND:                -3.597
REMARK SMILES CCCCCCCCCCCCCCCCCCCCCC(=O)[O-]
REMARK SMILES IDX 12 1 11 2 10 3 9 4 8 5 7 6 6 7 5 8 4 9 3 10 2 11 1 12 13 13
REMARK SMILES IDX 14 14 15 15 16 16 17 17 18 18 19 19 20 20 21 21 22 22 23 23
REMARK SMILES IDX 24 24
REMARK H PARENT
REMARK Flexibility Score: inf
ROOT
ATOM      1  C   UNL     1      20.211  -6.568  39.246  1.00  0.00     0.000 C 
ENDROOT
BRANCH   1   2
ATOM      2  C   UNL     1      21.250  -7.398  40.031  1.00  0.00     0.000 C 
BRANCH   2   3
ATOM      3  C   UNL     1      21.873  -8.572  39.256  1.00  0.00     0.000 C 
BRANCH   3   4
ATOM      4  C   UNL     1      23.350  -8.343  38.908  1.00  0.00    -0.000 C 
BRANCH   4   5
ATOM      5  C   UNL     1      24.030  -7.471  39.974  1.00  0.00    -0.000 C 
BRANCH   5   6
ATOM      6  C   UNL     1      24.850  -6.316  39.372  1.00  0.00    -0.000 C 
BRANCH   6   7
ATOM      7  C   UNL     1      24.053  -5.029  39.073  1.00  0.00    -0.000 C 
BRANCH   7   8
ATOM      8  C   UNL     1      24.138  -4.531  37.620  1.00  0.00    -0.000 C 
BRANCH   8   9
ATOM      9  C   UNL     1      23.355  -3.226  37.390  1.00  0.00    -0.000 C 
BRANCH   9  10
ATOM     10  C   UNL     1      23.373  -2.782  35.919  1.00  0.00    -0.000 C 
BRANCH  10  11
ATOM     11  C   UNL     1      22.784  -1.378  35.720  1.00  0.00    -0.003 C 
ATOM     12  C   UNL     1      21.390  -1.448  35.102  1.00  0.00     0.004 C 
ENDBRANCH  10  11
ENDBRANCH   9  10
ENDBRANCH   8   9
ENDBRANCH   7   8
ENDBRANCH   6   7
ENDBRANCH   5   6
ENDBRANCH   4   5
ENDBRANCH   3   4
ENDBRANCH   2   3
ENDBRANCH   1   2
BRANCH   1  13
ATOM     13  C   UNL     1      20.786  -5.653  38.150  1.00  0.00     0.000 C 
BRANCH  13  14
ATOM     14  C   UNL     1      19.728  -5.211  37.124  1.00  0.00     0.000 C 
BRANCH  14  15
ATOM     15  C   UNL     1      20.314  -4.993  35.717  1.00  0.00     0.000 C 
BRANCH  15  16
ATOM     16  C   UNL     1      21.485  -5.920  35.342  1.00  0.00     0.000 C 
BRANCH  16  17
ATOM     17  C   UNL     1      22.135  -5.550  33.997  1.00  0.00     0.000 C 
BRANCH  17  18
ATOM     18  C   UNL     1      21.930  -6.637  32.928  1.00  0.00     0.000 C 
BRANCH  18  19
ATOM     19  C   UNL     1      21.368  -6.069  31.613  1.00  0.00     0.000 C 
BRANCH  19  20
ATOM     20  C   UNL     1      19.958  -6.593  31.286  1.00  0.00     0.006 C 
BRANCH  20  21
ATOM     21  C   UNL     1      19.306  -7.391  32.430  1.00  0.00     0.053 C 
BRANCH  21  22
ATOM     22  C   UNL     1      18.110  -6.697  33.007  1.00  0.00     0.041 C 
ATOM     23  O   UNL     1      17.404  -5.945  32.284  1.00  0.00    -0.550 OA
ATOM     24  O   UNL     1      17.752  -6.907  34.334  1.00  0.00    -0.550 OA
ENDBRANCH  21  22
ENDBRANCH  20  21
ENDBRANCH  19  20
ENDBRANCH  18  19
ENDBRANCH  17  18
ENDBRANCH  16  17
ENDBRANCH  15  16
ENDBRANCH  14  15
ENDBRANCH  13  14
ENDBRANCH   1  13
TORSDOF 20
ENDMDL
MODEL 9
REMARK VINA RESULT:    -4.720     12.655     16.321
REMARK INTER + INTRA:         -13.836
REMARK INTER:                 -10.279
REMARK INTRA:                  -3.557
REMARK UNBOUND:                -3.597
REMARK SMILES CCCCCCCCCCCCCCCCCCCCCC(=O)[O-]
REMARK SMILES IDX 12 1 11 2 10 3 9 4 8 5 7 6 6 7 5 8 4 9 3 10 2 11 1 12 13 13
REMARK SMILES IDX 14 14 15 15 16 16 17 17 18 18 19 19 20 20 21 21 22 22 23 23
REMARK SMILES IDX 24 24
REMARK H PARENT
REMARK Flexibility Score: inf
ROOT
ATOM      1  C   UNL     1      28.855   4.619  41.914  1.00  0.00     0.000 C 
ENDROOT
BRANCH   1   2
ATOM      2  C   UNL     1      27.319   4.767  41.870  1.00  0.00     0.000 C 
BRANCH   2   3
ATOM      3  C   UNL     1      26.538   3.753  42.725  1.00  0.00     0.000 C 
BRANCH   3   4
ATOM      4  C   UNL     1      25.827   4.401  43.922  1.00  0.00    -0.000 C 
BRANCH   4   5
ATOM      5  C   UNL     1      26.763   4.466  45.138  1.00  0.00    -0.000 C 
BRANCH   5   6
ATOM      6  C   UNL     1      26.162   5.250  46.319  1.00  0.00    -0.000 C 
BRANCH   6   7
ATOM      7  C   UNL     1      24.859   6.016  46.005  1.00  0.00    -0.000 C 
BRANCH   7   8
ATOM      8  C   UNL     1      24.885   7.516  46.344  1.00  0.00    -0.000 C 
BRANCH   8   9
ATOM      9  C   UNL     1      23.690   8.282  45.751  1.00  0.00    -0.000 C 
BRANCH   9  10
ATOM     10  C   UNL     1      23.516   9.674  46.377  1.00  0.00    -0.000 C 
BRANCH  10  11
ATOM     11  C   UNL     1      22.042  10.026  46.633  1.00  0.00    -0.003 C 
ATOM     12  C   UNL     1      21.122   8.883  46.210  1.00  0.00     0.004 C 
ENDBRANCH  10  11
ENDBRANCH   9  10
ENDBRANCH   8   9
ENDBRANCH   7   8
ENDBRANCH   6   7
ENDBRANCH   5   6
ENDBRANCH   4   5
ENDBRANCH   3   4
ENDBRANCH   2   3
ENDBRANCH   1   2
BRANCH   1  13
ATOM     13  C   UNL     1      29.636   5.914  42.204  1.00  0.00     0.000 C 
BRANCH  13  14
ATOM     14  C   UNL     1      29.760   6.214  43.708  1.00  0.00     0.000 C 
BRANCH  14  15
ATOM     15  C   UNL     1      28.972   7.466  44.135  1.00  0.00     0.000 C 
BRANCH  15  16
ATOM     16  C   UNL     1      28.117   8.112  43.030  1.00  0.00     0.000 C 
BRANCH  16  17
ATOM     17  C   UNL     1      26.606   8.025  43.315  1.00  0.00     0.000 C 
BRANCH  17  18
ATOM     18  C   UNL     1      25.816   9.162  42.644  1.00  0.00     0.000 C 
BRANCH  18  19
ATOM     19  C   UNL     1      24.504   8.669  42.010  1.00  0.00     0.000 C 
BRANCH  19  20
ATOM     20  C   UNL     1      24.335   7.141  42.087  1.00  0.00     0.006 C 
BRANCH  20  21
ATOM     21  C   UNL     1      24.256   6.449  40.714  1.00  0.00     0.053 C 
BRANCH  21  22
ATOM     22  C   UNL     1      22.845   6.214  40.268  1.00  0.00     0.041 C 
ATOM     23  O   UNL     1      22.290   5.104  40.480  1.00  0.00    -0.550 OA
ATOM     24  O   UNL     1      22.129   7.233  39.649  1.00  0.00    -0.550 OA
ENDBRANCH  21  22
ENDBRANCH  20  21
ENDBRANCH  19  20
ENDBRANCH  18  19
ENDBRANCH  17  18
ENDBRANCH  16  17
ENDBRANCH  15  16
ENDBRANCH  14  15
ENDBRANCH  13  14
ENDBRANCH   1  13
TORSDOF 20
ENDMDL
