MODEL 1
REMARK VINA RESULT:    -5.058      0.000      0.000
REMARK INTER + INTRA:          -6.428
REMARK INTER:                  -6.093
REMARK INTRA:                  -0.334
REMARK UNBOUND:                -0.334
REMARK SMILES O=c1c(O)c(-c2ccc(O)c(O)c2)oc2cc(O)cc(O)c12
REMARK SMILES IDX 5 1 3 2 2 3 1 4 22 5 20 6 19 7 17 8 16 9 15 10 14 11 6 12
REMARK SMILES IDX 7 13 8 14 9 15 13 16 11 17 10 18 12 20 4 22 21 24 18 26
REMARK H PARENT 10 19 12 21 4 23 21 25 18 27
REMARK Flexibility Score: inf
ROOT
ATOM      1  C   UNL     1       0.701   7.163   8.610  1.00  0.00     0.180 A 
ATOM      2  C   UNL     1       1.446   6.215   7.889  1.00  0.00     0.208 A 
ATOM      3  C   UNL     1       2.616   5.690   8.461  1.00  0.00     0.238 A 
ATOM      4  O   UNL     1       3.308   4.881   7.789  1.00  0.00    -0.285 OA
ATOM      5  C   UNL     1       3.015   6.106   9.754  1.00  0.00     0.111 A 
ATOM      6  C   UNL     1       4.161   5.610  10.447  1.00  0.00     0.134 A 
ATOM      7  C   UNL     1       4.534   6.189  11.666  1.00  0.00     0.093 A 
ATOM      8  C   UNL     1       3.770   7.199  12.248  1.00  0.00     0.123 A 
ATOM      9  C   UNL     1       2.615   7.651  11.608  1.00  0.00     0.094 A 
ATOM     10  C   UNL     1       2.237   7.119  10.373  1.00  0.00     0.146 A 
ATOM     11  O   UNL     1       1.138   7.583   9.792  1.00  0.00    -0.452 OA
ENDROOT
BRANCH   1  12
ATOM     12  C   UNL     1      -0.556   7.744   8.084  1.00  0.00     0.025 A 
ATOM     13  C   UNL     1      -0.517   8.968   7.396  1.00  0.00     0.016 A 
ATOM     14  C   UNL     1      -1.693   9.543   6.909  1.00  0.00     0.051 A 
ATOM     15  C   UNL     1      -2.926   8.913   7.117  1.00  0.00     0.157 A 
ATOM     16  C   UNL     1      -1.799   7.124   8.307  1.00  0.00     0.062 A 
ATOM     17  C   UNL     1      -2.979   7.703   7.820  1.00  0.00     0.158 A 
BRANCH  15  18
ATOM     18  O   UNL     1      -4.102   9.483   6.631  1.00  0.00    -0.504 OA
ATOM     19  H   UNL     1      -4.863   9.737   7.251  1.00  0.00     0.293 HD
ENDBRANCH  15  18
BRANCH  17  20
ATOM     20  O   UNL     1      -4.210   7.085   8.036  1.00  0.00    -0.504 OA
ATOM     21  H   UNL     1      -5.037   7.354   7.516  1.00  0.00     0.293 HD
ENDBRANCH  17  20
ENDBRANCH   1  12
BRANCH   2  22
ATOM     22  O   UNL     1       1.045   5.834   6.605  1.00  0.00    -0.502 OA
ATOM     23  H   UNL     1       1.079   6.464   5.814  1.00  0.00     0.293 HD
ENDBRANCH   2  22
BRANCH   6  24
ATOM     24  O   UNL     1       4.941   4.541   9.999  1.00  0.00    -0.507 OA
ATOM     25  H   UNL     1       4.757   4.004   9.165  1.00  0.00     0.293 HD
ENDBRANCH   6  24
BRANCH   8  26
ATOM     26  O   UNL     1       4.163   7.742  13.470  1.00  0.00    -0.508 OA
ATOM     27  H   UNL     1       4.853   8.481  13.524  1.00  0.00     0.293 HD
ENDBRANCH   8  26
TORSDOF 6
ENDMDL
MODEL 2
REMARK VINA RESULT:    -4.973      1.714      2.400
REMARK INTER + INTRA:          -6.324
REMARK INTER:                  -6.140
REMARK INTRA:                  -0.184
REMARK UNBOUND:                -0.334
REMARK SMILES O=c1c(O)c(-c2ccc(O)c(O)c2)oc2cc(O)cc(O)c12
REMARK SMILES IDX 5 1 3 2 2 3 1 4 22 5 20 6 19 7 17 8 16 9 15 10 14 11 6 12
REMARK SMILES IDX 7 13 8 14 9 15 13 16 11 17 10 18 12 20 4 22 21 24 18 26
REMARK H PARENT 10 19 12 21 4 23 21 25 18 27
REMARK Flexibility Score: inf
ROOT
ATOM      1  C   UNL     1       1.825   6.367   9.051  1.00  0.00     0.180 A 
ATOM      2  C   UNL     1       2.282   5.628   7.946  1.00  0.00     0.208 A 
ATOM      3  C   UNL     1       3.474   4.895   8.063  1.00  0.00     0.238 A 
ATOM      4  O   UNL     1       3.907   4.278   7.054  1.00  0.00    -0.285 OA
ATOM      5  C   UNL     1       4.185   4.898   9.287  1.00  0.00     0.111 A 
ATOM      6  C   UNL     1       5.383   4.160   9.530  1.00  0.00     0.134 A 
ATOM      7  C   UNL     1       6.072   4.340  10.735  1.00  0.00     0.093 A 
ATOM      8  C   UNL     1       5.575   5.180  11.731  1.00  0.00     0.123 A 
ATOM      9  C   UNL     1       4.373   5.861  11.528  1.00  0.00     0.094 A 
ATOM     10  C   UNL     1       3.682   5.730  10.321  1.00  0.00     0.146 A 
ATOM     11  O   UNL     1       2.549   6.403  10.163  1.00  0.00    -0.452 OA
ENDROOT
BRANCH   1  12
ATOM     12  C   UNL     1       0.565   7.144   9.012  1.00  0.00     0.025 A 
ATOM     13  C   UNL     1      -0.535   6.717   9.771  1.00  0.00     0.016 A 
ATOM     14  C   UNL     1      -1.739   7.423   9.734  1.00  0.00     0.051 A 
ATOM     15  C   UNL     1      -1.867   8.558   8.923  1.00  0.00     0.157 A 
ATOM     16  C   UNL     1       0.427   8.273   8.183  1.00  0.00     0.062 A 
ATOM     17  C   UNL     1      -0.783   8.982   8.143  1.00  0.00     0.158 A 
BRANCH  15  18
ATOM     18  O   UNL     1      -3.066   9.267   8.883  1.00  0.00    -0.504 OA
ATOM     19  H   UNL     1      -3.792   9.044   8.210  1.00  0.00     0.293 HD
ENDBRANCH  15  18
BRANCH  17  20
ATOM     20  O   UNL     1      -0.917  10.104   7.327  1.00  0.00    -0.504 OA
ATOM     21  H   UNL     1      -0.278  10.887   7.394  1.00  0.00     0.293 HD
ENDBRANCH  17  20
ENDBRANCH   1  12
BRANCH   2  22
ATOM     22  O   UNL     1       1.576   5.656   6.740  1.00  0.00    -0.502 OA
ATOM     23  H   UNL     1       0.620   5.983   6.676  1.00  0.00     0.293 HD
ENDBRANCH   2  22
BRANCH   6  24
ATOM     24  O   UNL     1       5.916   3.224   8.640  1.00  0.00    -0.507 OA
ATOM     25  H   UNL     1       6.901   3.095   8.463  1.00  0.00     0.293 HD
ENDBRANCH   6  24
BRANCH   8  26
ATOM     26  O   UNL     1       6.280   5.324  12.925  1.00  0.00    -0.508 OA
ATOM     27  H   UNL     1       6.296   6.204  13.428  1.00  0.00     0.293 HD
ENDBRANCH   8  26
TORSDOF 6
ENDMDL
MODEL 3
REMARK VINA RESULT:    -4.928      1.849      7.102
REMARK INTER + INTRA:          -6.270
REMARK INTER:                  -5.953
REMARK INTRA:                  -0.317
REMARK UNBOUND:                -0.334
REMARK SMILES O=c1c(O)c(-c2ccc(O)c(O)c2)oc2cc(O)cc(O)c12
REMARK SMILES IDX 5 1 3 2 2 3 1 4 22 5 20 6 19 7 17 8 16 9 15 10 14 11 6 12
REMARK SMILES IDX 7 13 8 14 9 15 13 16 11 17 10 18 12 20 4 22 21 24 18 26
REMARK H PARENT 10 19 12 21 4 23 21 25 18 27
REMARK Flexibility Score: inf
ROOT
ATOM      1  C   UNL     1       2.167   6.679   9.793  1.00  0.00     0.180 A 
ATOM      2  C   UNL     1       1.967   7.706  10.732  1.00  0.00     0.208 A 
ATOM      3  C   UNL     1       0.723   8.354  10.778  1.00  0.00     0.238 A 
ATOM      4  O   UNL     1       0.567   9.309  11.584  1.00  0.00    -0.285 OA
ATOM      5  C   UNL     1      -0.311   7.958   9.896  1.00  0.00     0.111 A 
ATOM      6  C   UNL     1      -1.623   8.519   9.881  1.00  0.00     0.134 A 
ATOM      7  C   UNL     1      -2.525   8.141   8.878  1.00  0.00     0.093 A 
ATOM      8  C   UNL     1      -2.185   7.176   7.930  1.00  0.00     0.123 A 
ATOM      9  C   UNL     1      -0.924   6.577   7.971  1.00  0.00     0.094 A 
ATOM     10  C   UNL     1       0.009   6.961   8.937  1.00  0.00     0.146 A 
ATOM     11  O   UNL     1       1.201   6.376   8.935  1.00  0.00    -0.452 OA
ENDROOT
BRANCH   1  12
ATOM     12  C   UNL     1       3.443   5.933   9.701  1.00  0.00     0.025 A 
ATOM     13  C   UNL     1       4.483   6.437   8.905  1.00  0.00     0.016 A 
ATOM     14  C   UNL     1       5.687   5.739   8.788  1.00  0.00     0.051 A 
ATOM     15  C   UNL     1       5.862   4.517   9.451  1.00  0.00     0.157 A 
ATOM     16  C   UNL     1       3.615   4.696  10.349  1.00  0.00     0.062 A 
ATOM     17  C   UNL     1       4.823   3.993  10.230  1.00  0.00     0.158 A 
BRANCH  15  18
ATOM     18  O   UNL     1       7.063   3.818   9.338  1.00  0.00    -0.504 OA
ATOM     19  H   UNL     1       7.230   2.966   9.862  1.00  0.00     0.293 HD
ENDBRANCH  15  18
BRANCH  17  20
ATOM     20  O   UNL     1       4.996   2.771  10.878  1.00  0.00    -0.504 OA
ATOM     21  H   UNL     1       5.900   2.482  11.231  1.00  0.00     0.293 HD
ENDBRANCH  17  20
ENDBRANCH   1  12
BRANCH   2  22
ATOM     22  O   UNL     1       3.008   8.096  11.580  1.00  0.00    -0.502 OA
ATOM     23  H   UNL     1       3.168   7.663  12.480  1.00  0.00     0.293 HD
ENDBRANCH   2  22
BRANCH   6  24
ATOM     24  O   UNL     1      -2.097   9.421  10.837  1.00  0.00    -0.507 OA
ATOM     25  H   UNL     1      -2.373   9.173  11.775  1.00  0.00     0.293 HD
ENDBRANCH   6  24
BRANCH   8  26
ATOM     26  O   UNL     1      -3.112   6.813   6.956  1.00  0.00    -0.508 OA
ATOM     27  H   UNL     1      -2.844   6.267   6.146  1.00  0.00     0.293 HD
ENDBRANCH   8  26
TORSDOF 6
ENDMDL
MODEL 4
REMARK VINA RESULT:    -4.834      1.685      3.408
REMARK INTER + INTRA:          -6.157
REMARK INTER:                  -5.840
REMARK INTRA:                  -0.317
REMARK UNBOUND:                -0.334
REMARK SMILES O=c1c(O)c(-c2ccc(O)c(O)c2)oc2cc(O)cc(O)c12
REMARK SMILES IDX 5 1 3 2 2 3 1 4 22 5 20 6 19 7 17 8 16 9 15 10 14 11 6 12
REMARK SMILES IDX 7 13 8 14 9 15 13 16 11 17 10 18 12 20 4 22 21 24 18 26
REMARK H PARENT 10 19 12 21 4 23 21 25 18 27
REMARK Flexibility Score: inf
ROOT
ATOM      1  C   UNL     1      -0.961   8.026   8.660  1.00  0.00     0.180 A 
ATOM      2  C   UNL     1      -0.509   8.392   9.940  1.00  0.00     0.208 A 
ATOM      3  C   UNL     1       0.751   7.946  10.370  1.00  0.00     0.238 A 
ATOM      4  O   UNL     1       1.127   8.232  11.538  1.00  0.00    -0.285 OA
ATOM      5  C   UNL     1       1.549   7.155   9.510  1.00  0.00     0.111 A 
ATOM      6  C   UNL     1       2.858   6.682   9.828  1.00  0.00     0.134 A 
ATOM      7  C   UNL     1       3.503   5.797   8.954  1.00  0.00     0.093 A 
ATOM      8  C   UNL     1       2.917   5.421   7.747  1.00  0.00     0.123 A 
ATOM      9  C   UNL     1       1.662   5.925   7.398  1.00  0.00     0.094 A 
ATOM     10  C   UNL     1       0.978   6.780   8.266  1.00  0.00     0.146 A 
ATOM     11  O   UNL     1      -0.217   7.228   7.903  1.00  0.00    -0.452 OA
ENDROOT
BRANCH   1  12
ATOM     12  C   UNL     1      -2.267   8.477   8.127  1.00  0.00     0.025 A 
ATOM     13  C   UNL     1      -2.335   9.660   7.375  1.00  0.00     0.016 A 
ATOM     14  C   UNL     1      -3.559  10.115   6.879  1.00  0.00     0.051 A 
ATOM     15  C   UNL     1      -4.736   9.402   7.143  1.00  0.00     0.157 A 
ATOM     16  C   UNL     1      -3.453   7.774   8.406  1.00  0.00     0.062 A 
ATOM     17  C   UNL     1      -4.683   8.232   7.911  1.00  0.00     0.158 A 
BRANCH  15  18
ATOM     18  O   UNL     1      -5.960   9.851   6.650  1.00  0.00    -0.504 OA
ATOM     19  H   UNL     1      -6.081  10.801   6.317  1.00  0.00     0.293 HD
ENDBRANCH  15  18
BRANCH  17  20
ATOM     20  O   UNL     1      -5.858   7.532   8.183  1.00  0.00    -0.504 OA
ATOM     21  H   UNL     1      -5.840   6.606   8.594  1.00  0.00     0.293 HD
ENDBRANCH  17  20
ENDBRANCH   1  12
BRANCH   2  22
ATOM     22  O   UNL     1      -1.323   9.156  10.781  1.00  0.00    -0.502 OA
ATOM     23  H   UNL     1      -2.330   9.061  10.798  1.00  0.00     0.293 HD
ENDBRANCH   2  22
BRANCH   6  24
ATOM     24  O   UNL     1       3.574   7.069  10.964  1.00  0.00    -0.507 OA
ATOM     25  H   UNL     1       4.137   6.450  11.527  1.00  0.00     0.293 HD
ENDBRANCH   6  24
BRANCH   8  26
ATOM     26  O   UNL     1       3.594   4.551   6.894  1.00  0.00    -0.508 OA
ATOM     27  H   UNL     1       4.570   4.321   7.038  1.00  0.00     0.293 HD
ENDBRANCH   8  26
TORSDOF 6
ENDMDL
MODEL 5
REMARK VINA RESULT:    -4.818     17.213     18.870
REMARK INTER + INTRA:          -6.138
REMARK INTER:                  -6.679
REMARK INTRA:                   0.541
REMARK UNBOUND:                -0.334
REMARK SMILES O=c1c(O)c(-c2ccc(O)c(O)c2)oc2cc(O)cc(O)c12
REMARK SMILES IDX 5 1 3 2 2 3 1 4 22 5 20 6 19 7 17 8 16 9 15 10 14 11 6 12
REMARK SMILES IDX 7 13 8 14 9 15 13 16 11 17 10 18 12 20 4 22 21 24 18 26
REMARK H PARENT 10 19 12 21 4 23 21 25 18 27
REMARK Flexibility Score: inf
ROOT
ATOM      1  C   UNL     1      -3.022  -9.725  11.642  1.00  0.00     0.180 A 
ATOM      2  C   UNL     1      -4.220  -9.599  12.367  1.00  0.00     0.208 A 
ATOM      3  C   UNL     1      -5.439  -9.589  11.671  1.00  0.00     0.238 A 
ATOM      4  O   UNL     1      -6.505  -9.421  12.320  1.00  0.00    -0.285 OA
ATOM      5  C   UNL     1      -5.446  -9.722  10.262  1.00  0.00     0.111 A 
ATOM      6  C   UNL     1      -6.626  -9.765   9.458  1.00  0.00     0.134 A 
ATOM      7  C   UNL     1      -6.510  -9.767   8.062  1.00  0.00     0.093 A 
ATOM      8  C   UNL     1      -5.261  -9.794   7.443  1.00  0.00     0.123 A 
ATOM      9  C   UNL     1      -4.102  -9.812   8.220  1.00  0.00     0.094 A 
ATOM     10  C   UNL     1      -4.184  -9.773   9.614  1.00  0.00     0.146 A 
ATOM     11  O   UNL     1      -3.058  -9.781  10.316  1.00  0.00    -0.452 OA
ENDROOT
BRANCH   1  12
ATOM     12  C   UNL     1      -1.700  -9.768  12.307  1.00  0.00     0.025 A 
ATOM     13  C   UNL     1      -1.630  -9.769  13.709  1.00  0.00     0.016 A 
ATOM     14  C   UNL     1      -0.393  -9.789  14.357  1.00  0.00     0.051 A 
ATOM     15  C   UNL     1       0.793  -9.790  13.613  1.00  0.00     0.157 A 
ATOM     16  C   UNL     1      -0.505  -9.750  11.563  1.00  0.00     0.062 A 
ATOM     17  C   UNL     1       0.737  -9.767  12.213  1.00  0.00     0.158 A 
BRANCH  15  18
ATOM     18  O   UNL     1       2.031  -9.811  14.254  1.00  0.00    -0.504 OA
ATOM     19  H   UNL     1       2.219 -10.447  15.022  1.00  0.00     0.293 HD
ENDBRANCH  15  18
BRANCH  17  20
ATOM     20  O   UNL     1       1.920  -9.755  11.476  1.00  0.00    -0.504 OA
ATOM     21  H   UNL     1       1.912  -9.733  10.463  1.00  0.00     0.293 HD
ENDBRANCH  17  20
ENDBRANCH   1  12
BRANCH   2  22
ATOM     22  O   UNL     1      -4.189  -9.447  13.756  1.00  0.00    -0.502 OA
ATOM     23  H   UNL     1      -4.576  -8.637  14.224  1.00  0.00     0.293 HD
ENDBRANCH   2  22
BRANCH   6  24
ATOM     24  O   UNL     1      -7.921  -9.835   9.977  1.00  0.00    -0.507 OA
ATOM     25  H   UNL     1      -8.506 -10.656   9.954  1.00  0.00     0.293 HD
ENDBRANCH   6  24
BRANCH   8  26
ATOM     26  O   UNL     1      -5.184  -9.811   6.051  1.00  0.00    -0.508 OA
ATOM     27  H   UNL     1      -4.673  -9.101   5.540  1.00  0.00     0.293 HD
ENDBRANCH   8  26
TORSDOF 6
ENDMDL
MODEL 6
REMARK VINA RESULT:    -4.781     18.621     19.757
REMARK INTER + INTRA:          -6.093
REMARK INTER:                  -5.919
REMARK INTRA:                  -0.174
REMARK UNBOUND:                -0.334
REMARK SMILES O=c1c(O)c(-c2ccc(O)c(O)c2)oc2cc(O)cc(O)c12
REMARK SMILES IDX 5 1 3 2 2 3 1 4 22 5 20 6 19 7 17 8 16 9 15 10 14 11 6 12
REMARK SMILES IDX 7 13 8 14 9 15 13 16 11 17 10 18 12 20 4 22 21 24 18 26
REMARK H PARENT 10 19 12 21 4 23 21 25 18 27
REMARK Flexibility Score: inf
ROOT
ATOM      1  C   UNL     1      -7.174  -3.133  22.878  1.00  0.00     0.180 A 
ATOM      2  C   UNL     1      -7.778  -3.246  21.614  1.00  0.00     0.208 A 
ATOM      3  C   UNL     1      -7.722  -4.476  20.940  1.00  0.00     0.238 A 
ATOM      4  O   UNL     1      -8.217  -4.557  19.785  1.00  0.00    -0.285 OA
ATOM      5  C   UNL     1      -7.078  -5.582  21.545  1.00  0.00     0.111 A 
ATOM      6  C   UNL     1      -6.996  -6.886  20.971  1.00  0.00     0.134 A 
ATOM      7  C   UNL     1      -6.222  -7.870  21.599  1.00  0.00     0.093 A 
ATOM      8  C   UNL     1      -5.581  -7.618  22.811  1.00  0.00     0.123 A 
ATOM      9  C   UNL     1      -5.703  -6.364  23.412  1.00  0.00     0.094 A 
ATOM     10  C   UNL     1      -6.438  -5.351  22.791  1.00  0.00     0.146 A 
ATOM     11  O   UNL     1      -6.521  -4.169  23.390  1.00  0.00    -0.452 OA
ENDROOT
BRANCH   1  12
ATOM     12  C   UNL     1      -7.213  -1.876  23.660  1.00  0.00     0.025 A 
ATOM     13  C   UNL     1      -8.444  -1.387  24.124  1.00  0.00     0.016 A 
ATOM     14  C   UNL     1      -8.506  -0.193  24.846  1.00  0.00     0.051 A 
ATOM     15  C   UNL     1      -7.339   0.539  25.100  1.00  0.00     0.157 A 
ATOM     16  C   UNL     1      -6.046  -1.128  23.901  1.00  0.00     0.062 A 
ATOM     17  C   UNL     1      -6.107   0.073  24.623  1.00  0.00     0.158 A 
BRANCH  15  18
ATOM     18  O   UNL     1      -7.395   1.730  25.821  1.00  0.00    -0.504 OA
ATOM     19  H   UNL     1      -6.986   2.586  25.463  1.00  0.00     0.293 HD
ENDBRANCH  15  18
BRANCH  17  20
ATOM     20  O   UNL     1      -4.950   0.811  24.867  1.00  0.00    -0.504 OA
ATOM     21  H   UNL     1      -4.315   0.567  25.618  1.00  0.00     0.293 HD
ENDBRANCH  17  20
ENDBRANCH   1  12
BRANCH   2  22
ATOM     22  O   UNL     1      -8.390  -2.135  21.025  1.00  0.00    -0.502 OA
ATOM     23  H   UNL     1      -7.945  -1.228  20.982  1.00  0.00     0.293 HD
ENDBRANCH   2  22
BRANCH   6  24
ATOM     24  O   UNL     1      -7.674  -7.272  19.811  1.00  0.00    -0.507 OA
ATOM     25  H   UNL     1      -7.505  -6.889  18.893  1.00  0.00     0.293 HD
ENDBRANCH   6  24
BRANCH   8  26
ATOM     26  O   UNL     1      -4.831  -8.625  23.415  1.00  0.00    -0.508 OA
ATOM     27  H   UNL     1      -3.893  -8.454  23.757  1.00  0.00     0.293 HD
ENDBRANCH   8  26
TORSDOF 6
ENDMDL
MODEL 7
REMARK VINA RESULT:    -4.780     17.214     18.468
REMARK INTER + INTRA:          -6.091
REMARK INTER:                  -5.849
REMARK INTRA:                  -0.242
REMARK UNBOUND:                -0.334
REMARK SMILES O=c1c(O)c(-c2ccc(O)c(O)c2)oc2cc(O)cc(O)c12
REMARK SMILES IDX 5 1 3 2 2 3 1 4 22 5 20 6 19 7 17 8 16 9 15 10 14 11 6 12
REMARK SMILES IDX 7 13 8 14 9 15 13 16 11 17 10 18 12 20 4 22 21 24 18 26
REMARK H PARENT 10 19 12 21 4 23 21 25 18 27
REMARK Flexibility Score: inf
ROOT
ATOM      1  C   UNL     1      -5.996  -9.073  12.691  1.00  0.00     0.180 A 
ATOM      2  C   UNL     1      -4.663  -8.945  13.116  1.00  0.00     0.208 A 
ATOM      3  C   UNL     1      -3.635  -9.012  12.162  1.00  0.00     0.238 A 
ATOM      4  O   UNL     1      -2.440  -8.951  12.555  1.00  0.00    -0.285 OA
ATOM      5  C   UNL     1      -3.953  -9.189  10.794  1.00  0.00     0.111 A 
ATOM      6  C   UNL     1      -2.995  -9.231   9.738  1.00  0.00     0.134 A 
ATOM      7  C   UNL     1      -3.413  -9.542   8.438  1.00  0.00     0.093 A 
ATOM      8  C   UNL     1      -4.760  -9.748   8.144  1.00  0.00     0.123 A 
ATOM      9  C   UNL     1      -5.714  -9.651   9.159  1.00  0.00     0.094 A 
ATOM     10  C   UNL     1      -5.323  -9.378  10.473  1.00  0.00     0.146 A 
ATOM     11  O   UNL     1      -6.259  -9.305  11.411  1.00  0.00    -0.452 OA
ENDROOT
BRANCH   1  12
ATOM     12  C   UNL     1      -7.135  -8.989  13.634  1.00  0.00     0.025 A 
ATOM     13  C   UNL     1      -7.405 -10.068  14.490  1.00  0.00     0.016 A 
ATOM     14  C   UNL     1      -8.486 -10.018  15.373  1.00  0.00     0.051 A 
ATOM     15  C   UNL     1      -9.324  -8.896  15.400  1.00  0.00     0.157 A 
ATOM     16  C   UNL     1      -7.991  -7.872  13.650  1.00  0.00     0.062 A 
ATOM     17  C   UNL     1      -9.078  -7.822  14.535  1.00  0.00     0.158 A 
BRANCH  15  18
ATOM     18  O   UNL     1     -10.403  -8.841  16.280  1.00  0.00    -0.504 OA
ATOM     19  H   UNL     1     -11.314  -8.509  15.982  1.00  0.00     0.293 HD
ENDBRANCH  15  18
BRANCH  17  20
ATOM     20  O   UNL     1      -9.921  -6.712  14.555  1.00  0.00    -0.504 OA
ATOM     21  H   UNL     1     -10.300  -6.351  15.423  1.00  0.00     0.293 HD
ENDBRANCH  17  20
ENDBRANCH   1  12
BRANCH   2  22
ATOM     22  O   UNL     1      -4.369  -8.792  14.474  1.00  0.00    -0.502 OA
ATOM     23  H   UNL     1      -3.663  -9.345  14.944  1.00  0.00     0.293 HD
ENDBRANCH   2  22
BRANCH   6  24
ATOM     24  O   UNL     1      -1.636  -8.949   9.905  1.00  0.00    -0.507 OA
ATOM     25  H   UNL     1      -1.227  -8.568  10.745  1.00  0.00     0.293 HD
ENDBRANCH   6  24
BRANCH   8  26
ATOM     26  O   UNL     1      -5.143 -10.041   6.837  1.00  0.00    -0.508 OA
ATOM     27  H   UNL     1      -5.531  -9.331   6.227  1.00  0.00     0.293 HD
ENDBRANCH   8  26
TORSDOF 6
ENDMDL
MODEL 8
REMARK VINA RESULT:    -4.773      1.813      3.196
REMARK INTER + INTRA:          -6.084
REMARK INTER:                  -6.461
REMARK INTRA:                   0.377
REMARK UNBOUND:                -0.334
REMARK SMILES O=c1c(O)c(-c2ccc(O)c(O)c2)oc2cc(O)cc(O)c12
REMARK SMILES IDX 5 1 3 2 2 3 1 4 22 5 20 6 19 7 17 8 16 9 15 10 14 11 6 12
REMARK SMILES IDX 7 13 8 14 9 15 13 16 11 17 10 18 12 20 4 22 21 24 18 26
REMARK H PARENT 10 19 12 21 4 23 21 25 18 27
REMARK Flexibility Score: inf
ROOT
ATOM      1  C   UNL     1       0.661   7.387   9.985  1.00  0.00     0.180 A 
ATOM      2  C   UNL     1       1.182   8.386  10.824  1.00  0.00     0.208 A 
ATOM      3  C   UNL     1       2.524   8.302  11.230  1.00  0.00     0.238 A 
ATOM      4  O   UNL     1       2.971   9.170  12.026  1.00  0.00    -0.285 OA
ATOM      5  C   UNL     1       3.331   7.230  10.779  1.00  0.00     0.111 A 
ATOM      6  C   UNL     1       4.713   7.067  11.096  1.00  0.00     0.134 A 
ATOM      7  C   UNL     1       5.379   5.900  10.702  1.00  0.00     0.093 A 
ATOM      8  C   UNL     1       4.732   4.921   9.948  1.00  0.00     0.123 A 
ATOM      9  C   UNL     1       3.396   5.097   9.582  1.00  0.00     0.094 A 
ATOM     10  C   UNL     1       2.695   6.234   9.992  1.00  0.00     0.146 A 
ATOM     11  O   UNL     1       1.424   6.359   9.632  1.00  0.00    -0.452 OA
ENDROOT
BRANCH   1  12
ATOM     12  C   UNL     1      -0.736   7.420   9.495  1.00  0.00     0.025 A 
ATOM     13  C   UNL     1      -1.718   8.081  10.249  1.00  0.00     0.016 A 
ATOM     14  C   UNL     1      -3.046   8.107   9.816  1.00  0.00     0.051 A 
ATOM     15  C   UNL     1      -3.415   7.457   8.631  1.00  0.00     0.157 A 
ATOM     16  C   UNL     1      -1.114   6.751   8.315  1.00  0.00     0.062 A 
ATOM     17  C   UNL     1      -2.447   6.775   7.881  1.00  0.00     0.158 A 
BRANCH  15  18
ATOM     18  O   UNL     1      -4.738   7.481   8.194  1.00  0.00    -0.504 OA
ATOM     19  H   UNL     1      -5.204   6.641   7.867  1.00  0.00     0.293 HD
ENDBRANCH  15  18
BRANCH  17  20
ATOM     20  O   UNL     1      -2.820   6.118   6.709  1.00  0.00    -0.504 OA
ATOM     21  H   UNL     1      -2.500   6.433   5.801  1.00  0.00     0.293 HD
ENDBRANCH  17  20
ENDBRANCH   1  12
BRANCH   2  22
ATOM     22  O   UNL     1       0.362   9.424  11.276  1.00  0.00    -0.502 OA
ATOM     23  H   UNL     1       0.060   9.499  12.239  1.00  0.00     0.293 HD
ENDBRANCH   2  22
BRANCH   6  24
ATOM     24  O   UNL     1       5.479   8.027  11.764  1.00  0.00    -0.507 OA
ATOM     25  H   UNL     1       6.446   8.231  11.565  1.00  0.00     0.293 HD
ENDBRANCH   6  24
BRANCH   8  26
ATOM     26  O   UNL     1       5.429   3.779   9.561  1.00  0.00    -0.508 OA
ATOM     27  H   UNL     1       6.327   3.543   9.966  1.00  0.00     0.293 HD
ENDBRANCH   8  26
TORSDOF 6
ENDMDL
MODEL 9
REMARK VINA RESULT:    -4.741     16.851     17.560
REMARK INTER + INTRA:          -6.046
REMARK INTER:                  -6.209
REMARK INTRA:                   0.164
REMARK UNBOUND:                -0.334
REMARK SMILES O=c1c(O)c(-c2ccc(O)c(O)c2)oc2cc(O)cc(O)c12
REMARK SMILES IDX 5 1 3 2 2 3 1 4 22 5 20 6 19 7 17 8 16 9 15 10 14 11 6 12
REMARK SMILES IDX 7 13 8 14 9 15 13 16 11 17 10 18 12 20 4 22 21 24 18 26
REMARK H PARENT 10 19 12 21 4 23 21 25 18 27
REMARK Flexibility Score: inf
ROOT
ATOM      1  C   UNL     1      -3.861  -9.303  11.987  1.00  0.00     0.180 A 
ATOM      2  C   UNL     1      -3.486  -9.122  10.645  1.00  0.00     0.208 A 
ATOM      3  C   UNL     1      -2.130  -9.230  10.296  1.00  0.00     0.238 A 
ATOM      4  O   UNL     1      -1.794  -9.014   9.102  1.00  0.00    -0.285 OA
ATOM      5  C   UNL     1      -1.169  -9.532  11.290  1.00  0.00     0.111 A 
ATOM      6  C   UNL     1       0.226  -9.703  11.043  1.00  0.00     0.134 A 
ATOM      7  C   UNL     1       1.103  -9.870  12.122  1.00  0.00     0.093 A 
ATOM      8  C   UNL     1       0.630  -9.937  13.432  1.00  0.00     0.123 A 
ATOM      9  C   UNL     1      -0.740  -9.830  13.681  1.00  0.00     0.094 A 
ATOM     10  C   UNL     1      -1.636  -9.626  12.628  1.00  0.00     0.146 A 
ATOM     11  O   UNL     1      -2.929  -9.519  12.908  1.00  0.00    -0.452 OA
ENDROOT
BRANCH   1  12
ATOM     12  C   UNL     1      -5.273  -9.229  12.428  1.00  0.00     0.025 A 
ATOM     13  C   UNL     1      -5.575  -8.723  13.702  1.00  0.00     0.016 A 
ATOM     14  C   UNL     1      -6.898  -8.663  14.145  1.00  0.00     0.051 A 
ATOM     15  C   UNL     1      -7.937  -9.126  13.328  1.00  0.00     0.157 A 
ATOM     16  C   UNL     1      -6.318  -9.711  11.618  1.00  0.00     0.062 A 
ATOM     17  C   UNL     1      -7.646  -9.653  12.064  1.00  0.00     0.158 A 
BRANCH  15  18
ATOM     18  O   UNL     1      -9.259  -9.067  13.765  1.00  0.00    -0.504 OA
ATOM     19  H   UNL     1      -9.874  -8.308  13.494  1.00  0.00     0.293 HD
ENDBRANCH  15  18
BRANCH  17  20
ATOM     20  O   UNL     1      -8.682 -10.125  11.258  1.00  0.00    -0.504 OA
ATOM     21  H   UNL     1      -9.596 -10.337  11.641  1.00  0.00     0.293 HD
ENDBRANCH  17  20
ENDBRANCH   1  12
BRANCH   2  22
ATOM     22  O   UNL     1      -4.449  -8.804   9.682  1.00  0.00    -0.502 OA
ATOM     23  H   UNL     1      -5.224  -9.417   9.464  1.00  0.00     0.293 HD
ENDBRANCH   2  22
BRANCH   6  24
ATOM     24  O   UNL     1       0.793  -9.745   9.766  1.00  0.00    -0.507 OA
ATOM     25  H   UNL     1       1.631  -9.255   9.493  1.00  0.00     0.293 HD
ENDBRANCH   6  24
BRANCH   8  26
ATOM     26  O   UNL     1       1.529 -10.119  14.480  1.00  0.00    -0.508 OA
ATOM     27  H   UNL     1       1.243 -10.537  15.358  1.00  0.00     0.293 HD
ENDBRANCH   8  26
TORSDOF 6
ENDMDL
