MODEL 1
REMARK VINA RESULT:    -5.252      0.000      0.000
REMARK INTER + INTRA:          -5.866
REMARK INTER:                  -5.866
REMARK INTRA:                   0.000
REMARK UNBOUND:                 0.000
REMARK SMILES Oc1cc(O)c2c(c1)CCc1cc(O)c(O)cc1-2
REMARK SMILES IDX 10 1 9 2 7 3 6 4 18 5 17 6 15 7 13 8 12 9 11 10 4 11 3 12
REMARK SMILES IDX 2 13 8 14 14 15 5 17 1 19 16 21
REMARK H PARENT 14 16 5 18 1 20 16 22
REMARK Flexibility Score: inf
ROOT
ATOM      1  C   UNL     1     159.969 156.624 166.058  1.00  0.00     0.041 C 
ATOM      2  C   UNL     1     160.683 157.570 167.031  1.00  0.00     0.041 C 
ATOM      3  C   UNL     1     159.688 158.473 167.718  1.00  0.00    -0.032 A 
ATOM      4  C   UNL     1     158.405 157.983 168.060  1.00  0.00     0.027 A 
ATOM      5  C   UNL     1     158.090 156.551 167.746  1.00  0.00    -0.007 A 
ATOM      6  C   UNL     1     157.131 155.812 168.463  1.00  0.00     0.059 A 
ATOM      7  C   UNL     1     156.858 154.476 168.142  1.00  0.00     0.158 A 
ATOM      8  C   UNL     1     157.570 153.850 167.094  1.00  0.00     0.157 A 
ATOM      9  C   UNL     1     158.568 154.561 166.423  1.00  0.00     0.054 A 
ATOM     10  C   UNL     1     158.857 155.889 166.763  1.00  0.00    -0.036 A 
ATOM     11  C   UNL     1     157.458 158.882 168.611  1.00  0.00     0.127 A 
ATOM     12  C   UNL     1     157.841 160.194 168.927  1.00  0.00     0.093 A 
ATOM     13  C   UNL     1     159.134 160.643 168.659  1.00  0.00     0.119 A 
ATOM     14  C   UNL     1     160.054 159.785 168.048  1.00  0.00     0.050 A 
ENDROOT
BRANCH   8  15
ATOM     15  O   UNL     1     157.326 152.534 166.696  1.00  0.00    -0.504 OA
ATOM     16  H   UNL     1     156.818 152.282 165.861  1.00  0.00     0.293 HD
ENDBRANCH   8  15
BRANCH  11  17
ATOM     17  O   UNL     1     156.132 158.500 168.810  1.00  0.00    -0.507 OA
ATOM     18  H   UNL     1     155.499 158.343 168.033  1.00  0.00     0.293 HD
ENDBRANCH  11  17
BRANCH  13  19
ATOM     19  O   UNL     1     159.491 161.947 168.989  1.00  0.00    -0.508 OA
ATOM     20  H   UNL     1     159.715 162.212 169.942  1.00  0.00     0.293 HD
ENDBRANCH  13  19
BRANCH   7  21
ATOM     21  O   UNL     1     155.887 153.811 168.894  1.00  0.00    -0.504 OA
ATOM     22  H   UNL     1     155.921 153.712 169.899  1.00  0.00     0.293 HD
ENDBRANCH   7  21
TORSDOF 4
ENDMDL
MODEL 2
REMARK VINA RESULT:    -5.209      2.088      6.096
REMARK INTER + INTRA:          -5.818
REMARK INTER:                  -5.818
REMARK INTRA:                   0.000
REMARK UNBOUND:                 0.000
REMARK SMILES Oc1cc(O)c2c(c1)CCc1cc(O)c(O)cc1-2
REMARK SMILES IDX 10 1 9 2 7 3 6 4 18 5 17 6 15 7 13 8 12 9 11 10 4 11 3 12
REMARK SMILES IDX 2 13 8 14 14 15 5 17 1 19 16 21
REMARK H PARENT 14 16 5 18 1 20 16 22
REMARK Flexibility Score: inf
ROOT
ATOM      1  C   UNL     1     155.369 158.908 166.040  1.00  0.00     0.041 C 
ATOM      2  C   UNL     1     154.619 157.962 166.984  1.00  0.00     0.041 C 
ATOM      3  C   UNL     1     155.586 157.050 167.700  1.00  0.00    -0.032 A 
ATOM      4  C   UNL     1     156.860 157.532 168.084  1.00  0.00     0.027 A 
ATOM      5  C   UNL     1     157.193 158.963 167.788  1.00  0.00    -0.007 A 
ATOM      6  C   UNL     1     158.133 159.694 168.539  1.00  0.00     0.059 A 
ATOM      7  C   UNL     1     158.423 161.029 168.233  1.00  0.00     0.158 A 
ATOM      8  C   UNL     1     157.749 161.664 167.165  1.00  0.00     0.157 A 
ATOM      9  C   UNL     1     156.770 160.962 166.459  1.00  0.00     0.054 A 
ATOM     10  C   UNL     1     156.462 159.634 166.783  1.00  0.00    -0.036 A 
ATOM     11  C   UNL     1     157.784 156.625 168.662  1.00  0.00     0.127 A 
ATOM     12  C   UNL     1     157.383 155.314 168.959  1.00  0.00     0.093 A 
ATOM     13  C   UNL     1     156.097 154.874 168.648  1.00  0.00     0.119 A 
ATOM     14  C   UNL     1     155.202 155.739 168.012  1.00  0.00     0.050 A 
ENDROOT
BRANCH   8  15
ATOM     15  O   UNL     1     158.013 162.980 166.781  1.00  0.00    -0.504 OA
ATOM     16  H   UNL     1     157.673 163.792 167.277  1.00  0.00     0.293 HD
ENDBRANCH   8  15
BRANCH  11  17
ATOM     17  O   UNL     1     159.105 156.999 168.905  1.00  0.00    -0.507 OA
ATOM     18  H   UNL     1     159.877 156.360 168.753  1.00  0.00     0.293 HD
ENDBRANCH  11  17
BRANCH  13  19
ATOM     19  O   UNL     1     155.722 153.570 168.961  1.00  0.00    -0.508 OA
ATOM     20  H   UNL     1     156.398 152.885 169.281  1.00  0.00     0.293 HD
ENDBRANCH  13  19
BRANCH   7  21
ATOM     21  O   UNL     1     159.373 161.686 169.019  1.00  0.00    -0.504 OA
ATOM     22  H   UNL     1     160.165 161.228 169.447  1.00  0.00     0.293 HD
ENDBRANCH   7  21
TORSDOF 4
ENDMDL
MODEL 3
REMARK VINA RESULT:    -5.192      2.733      4.294
REMARK INTER + INTRA:          -5.799
REMARK INTER:                  -5.799
REMARK INTRA:                   0.000
REMARK UNBOUND:                 0.000
REMARK SMILES Oc1cc(O)c2c(c1)CCc1cc(O)c(O)cc1-2
REMARK SMILES IDX 10 1 9 2 7 3 6 4 18 5 17 6 15 7 13 8 12 9 11 10 4 11 3 12
REMARK SMILES IDX 2 13 8 14 14 15 5 17 1 19 16 21
REMARK H PARENT 14 16 5 18 1 20 16 22
REMARK Flexibility Score: inf
ROOT
ATOM      1  C   UNL     1     158.525 159.840 165.925  1.00  0.00     0.041 C 
ATOM      2  C   UNL     1     157.573 160.590 166.864  1.00  0.00     0.041 C 
ATOM      3  C   UNL     1     156.701 159.618 167.621  1.00  0.00    -0.032 A 
ATOM      4  C   UNL     1     157.225 158.370 168.034  1.00  0.00     0.027 A 
ATOM      5  C   UNL     1     158.660 158.070 167.722  1.00  0.00    -0.007 A 
ATOM      6  C   UNL     1     159.430 157.172 168.487  1.00  0.00     0.059 A 
ATOM      7  C   UNL     1     160.768 156.911 168.167  1.00  0.00     0.158 A 
ATOM      8  C   UNL     1     161.366 157.572 167.070  1.00  0.00     0.157 A 
ATOM      9  C   UNL     1     160.625 158.511 166.349  1.00  0.00     0.054 A 
ATOM     10  C   UNL     1     159.294 158.790 166.686  1.00  0.00    -0.036 A 
ATOM     11  C   UNL     1     156.354 157.438 168.652  1.00  0.00     0.127 A 
ATOM     12  C   UNL     1     155.037 157.809 168.960  1.00  0.00     0.093 A 
ATOM     13  C   UNL     1     154.555 159.073 168.620  1.00  0.00     0.119 A 
ATOM     14  C   UNL     1     155.385 159.973 167.945  1.00  0.00     0.050 A 
ENDROOT
BRANCH   8  15
ATOM     15  O   UNL     1     162.683 157.335 166.672  1.00  0.00    -0.504 OA
ATOM     16  H   UNL     1     163.325 158.059 166.385  1.00  0.00     0.293 HD
ENDBRANCH   8  15
BRANCH  11  17
ATOM     17  O   UNL     1     156.770 156.135 168.925  1.00  0.00    -0.507 OA
ATOM     18  H   UNL     1     156.116 155.361 168.954  1.00  0.00     0.293 HD
ENDBRANCH  11  17
BRANCH  13  19
ATOM     19  O   UNL     1     153.246 159.420 168.944  1.00  0.00    -0.508 OA
ATOM     20  H   UNL     1     153.041 160.094 169.672  1.00  0.00     0.293 HD
ENDBRANCH  13  19
BRANCH   7  21
ATOM     21  O   UNL     1     161.464 156.003 168.968  1.00  0.00    -0.504 OA
ATOM     22  H   UNL     1     161.058 155.521 169.758  1.00  0.00     0.293 HD
ENDBRANCH   7  21
TORSDOF 4
ENDMDL
MODEL 4
REMARK VINA RESULT:    -5.167      2.852      4.489
REMARK INTER + INTRA:          -5.772
REMARK INTER:                  -5.772
REMARK INTRA:                   0.000
REMARK UNBOUND:                 0.000
REMARK SMILES Oc1cc(O)c2c(c1)CCc1cc(O)c(O)cc1-2
REMARK SMILES IDX 10 1 9 2 7 3 6 4 18 5 17 6 15 7 13 8 12 9 11 10 4 11 3 12
REMARK SMILES IDX 2 13 8 14 14 15 5 17 1 19 16 21
REMARK H PARENT 14 16 5 18 1 20 16 22
REMARK Flexibility Score: inf
ROOT
ATOM      1  C   UNL     1     157.688 155.755 170.125  1.00  0.00     0.041 C 
ATOM      2  C   UNL     1     156.335 155.825 169.408  1.00  0.00     0.041 C 
ATOM      3  C   UNL     1     156.022 157.244 169.002  1.00  0.00    -0.032 A 
ATOM      4  C   UNL     1     157.064 158.106 168.582  1.00  0.00     0.027 A 
ATOM      5  C   UNL     1     158.456 157.555 168.527  1.00  0.00    -0.007 A 
ATOM      6  C   UNL     1     159.445 158.077 167.672  1.00  0.00     0.059 A 
ATOM      7  C   UNL     1     160.739 157.542 167.647  1.00  0.00     0.158 A 
ATOM      8  C   UNL     1     161.056 156.445 168.481  1.00  0.00     0.157 A 
ATOM      9  C   UNL     1     160.061 155.883 169.284  1.00  0.00     0.054 A 
ATOM     10  C   UNL     1     158.760 156.405 169.287  1.00  0.00    -0.036 A 
ATOM     11  C   UNL     1     156.754 159.461 168.306  1.00  0.00     0.127 A 
ATOM     12  C   UNL     1     155.419 159.892 168.325  1.00  0.00     0.093 A 
ATOM     13  C   UNL     1     154.392 159.012 168.663  1.00  0.00     0.119 A 
ATOM     14  C   UNL     1     154.694 157.691 169.009  1.00  0.00     0.050 A 
ENDROOT
BRANCH   8  15
ATOM     15  O   UNL     1     162.333 155.883 168.535  1.00  0.00    -0.504 OA
ATOM     16  H   UNL     1     163.185 156.422 168.600  1.00  0.00     0.293 HD
ENDBRANCH   8  15
BRANCH  11  17
ATOM     17  O   UNL     1     157.760 160.392 168.052  1.00  0.00    -0.507 OA
ATOM     18  H   UNL     1     157.739 160.993 167.235  1.00  0.00     0.293 HD
ENDBRANCH  11  17
BRANCH  13  19
ATOM     19  O   UNL     1     153.074 159.463 168.668  1.00  0.00    -0.508 OA
ATOM     20  H   UNL     1     152.666 159.918 167.859  1.00  0.00     0.293 HD
ENDBRANCH  13  19
BRANCH   7  21
ATOM     21  O   UNL     1     161.666 158.119 166.777  1.00  0.00    -0.504 OA
ATOM     22  H   UNL     1     162.652 158.207 166.980  1.00  0.00     0.293 HD
ENDBRANCH   7  21
TORSDOF 4
ENDMDL
MODEL 5
REMARK VINA RESULT:    -5.086      2.797      4.320
REMARK INTER + INTRA:          -5.681
REMARK INTER:                  -5.681
REMARK INTRA:                   0.000
REMARK UNBOUND:                 0.000
REMARK SMILES Oc1cc(O)c2c(c1)CCc1cc(O)c(O)cc1-2
REMARK SMILES IDX 10 1 9 2 7 3 6 4 18 5 17 6 15 7 13 8 12 9 11 10 4 11 3 12
REMARK SMILES IDX 2 13 8 14 14 15 5 17 1 19 16 21
REMARK H PARENT 14 16 5 18 1 20 16 22
REMARK Flexibility Score: inf
ROOT
ATOM      1  C   UNL     1     156.404 155.532 165.899  1.00  0.00     0.041 C 
ATOM      2  C   UNL     1     157.374 154.801 166.834  1.00  0.00     0.041 C 
ATOM      3  C   UNL     1     158.261 155.787 167.553  1.00  0.00    -0.032 A 
ATOM      4  C   UNL     1     157.747 157.045 167.949  1.00  0.00     0.027 A 
ATOM      5  C   UNL     1     156.306 157.341 167.660  1.00  0.00    -0.007 A 
ATOM      6  C   UNL     1     155.553 158.255 168.420  1.00  0.00     0.059 A 
ATOM      7  C   UNL     1     154.209 158.512 168.122  1.00  0.00     0.158 A 
ATOM      8  C   UNL     1     153.589 157.828 167.051  1.00  0.00     0.157 A 
ATOM      9  C   UNL     1     154.314 156.873 166.335  1.00  0.00     0.054 A 
ATOM     10  C   UNL     1     155.652 156.599 166.653  1.00  0.00    -0.036 A 
ATOM     11  C   UNL     1     158.631 157.989 168.529  1.00  0.00     0.127 A 
ATOM     12  C   UNL     1     159.953 157.622 168.819  1.00  0.00     0.093 A 
ATOM     13  C   UNL     1     160.427 156.351 168.497  1.00  0.00     0.119 A 
ATOM     14  C   UNL     1     159.584 155.437 167.858  1.00  0.00     0.050 A 
ENDROOT
BRANCH   8  15
ATOM     15  O   UNL     1     152.264 158.059 166.674  1.00  0.00    -0.504 OA
ATOM     16  H   UNL     1     151.622 157.332 166.394  1.00  0.00     0.293 HD
ENDBRANCH   8  15
BRANCH  11  17
ATOM     17  O   UNL     1     158.222 159.297 168.783  1.00  0.00    -0.507 OA
ATOM     18  H   UNL     1     158.651 159.859 169.510  1.00  0.00     0.293 HD
ENDBRANCH  11  17
BRANCH  13  19
ATOM     19  O   UNL     1     161.742 156.009 168.802  1.00  0.00    -0.508 OA
ATOM     20  H   UNL     1     162.248 155.314 168.266  1.00  0.00     0.293 HD
ENDBRANCH  13  19
BRANCH   7  21
ATOM     21  O   UNL     1     153.531 159.437 168.917  1.00  0.00    -0.504 OA
ATOM     22  H   UNL     1     153.020 160.229 168.551  1.00  0.00     0.293 HD
ENDBRANCH   7  21
TORSDOF 4
ENDMDL
MODEL 6
REMARK VINA RESULT:    -5.025      2.654      4.708
REMARK INTER + INTRA:          -5.612
REMARK INTER:                  -5.612
REMARK INTRA:                   0.000
REMARK UNBOUND:                 0.000
REMARK SMILES Oc1cc(O)c2c(c1)CCc1cc(O)c(O)cc1-2
REMARK SMILES IDX 10 1 9 2 7 3 6 4 18 5 17 6 15 7 13 8 12 9 11 10 4 11 3 12
REMARK SMILES IDX 2 13 8 14 14 15 5 17 1 19 16 21
REMARK H PARENT 14 16 5 18 1 20 16 22
REMARK Flexibility Score: inf
ROOT
ATOM      1  C   UNL     1     157.209 159.627 170.125  1.00  0.00     0.041 C 
ATOM      2  C   UNL     1     158.574 159.611 169.428  1.00  0.00     0.041 C 
ATOM      3  C   UNL     1     158.925 158.213 168.982  1.00  0.00    -0.032 A 
ATOM      4  C   UNL     1     157.910 157.341 168.519  1.00  0.00     0.027 A 
ATOM      5  C   UNL     1     156.506 157.863 168.459  1.00  0.00    -0.007 A 
ATOM      6  C   UNL     1     155.543 157.346 167.572  1.00  0.00     0.059 A 
ATOM      7  C   UNL     1     154.238 157.853 167.544  1.00  0.00     0.158 A 
ATOM      8  C   UNL     1     153.883 158.915 168.406  1.00  0.00     0.157 A 
ATOM      9  C   UNL     1     154.853 159.473 169.242  1.00  0.00     0.054 A 
ATOM     10  C   UNL     1     156.165 158.981 169.250  1.00  0.00    -0.036 A 
ATOM     11  C   UNL     1     158.255 156.003 168.205  1.00  0.00     0.127 A 
ATOM     12  C   UNL     1     159.599 155.602 168.232  1.00  0.00     0.093 A 
ATOM     13  C   UNL     1     160.601 156.493 168.615  1.00  0.00     0.119 A 
ATOM     14  C   UNL     1     160.263 157.795 168.996  1.00  0.00     0.050 A 
ENDROOT
BRANCH   8  15
ATOM     15  O   UNL     1     152.593 159.447 168.457  1.00  0.00    -0.504 OA
ATOM     16  H   UNL     1     152.365 160.335 168.879  1.00  0.00     0.293 HD
ENDBRANCH   8  15
BRANCH  11  17
ATOM     17  O   UNL     1     157.274 155.058 167.906  1.00  0.00    -0.507 OA
ATOM     18  H   UNL     1     156.350 155.099 168.320  1.00  0.00     0.293 HD
ENDBRANCH  11  17
BRANCH  13  19
ATOM     19  O   UNL     1     161.928 156.072 168.626  1.00  0.00    -0.508 OA
ATOM     20  H   UNL     1     162.688 156.706 168.408  1.00  0.00     0.293 HD
ENDBRANCH  13  19
BRANCH   7  21
ATOM     21  O   UNL     1     153.338 157.284 166.641  1.00  0.00    -0.504 OA
ATOM     22  H   UNL     1     152.984 156.340 166.715  1.00  0.00     0.293 HD
ENDBRANCH   7  21
TORSDOF 4
ENDMDL
MODEL 7
REMARK VINA RESULT:    -4.995      2.538      4.175
REMARK INTER + INTRA:          -5.579
REMARK INTER:                  -5.579
REMARK INTRA:                   0.000
REMARK UNBOUND:                 0.000
REMARK SMILES Oc1cc(O)c2c(c1)CCc1cc(O)c(O)cc1-2
REMARK SMILES IDX 10 1 9 2 7 3 6 4 18 5 17 6 15 7 13 8 12 9 11 10 4 11 3 12
REMARK SMILES IDX 2 13 8 14 14 15 5 17 1 19 16 21
REMARK H PARENT 14 16 5 18 1 20 16 22
REMARK Flexibility Score: inf
ROOT
ATOM      1  C   UNL     1     158.331 160.032 167.293  1.00  0.00     0.041 C 
ATOM      2  C   UNL     1     159.102 159.595 166.043  1.00  0.00     0.041 C 
ATOM      3  C   UNL     1     160.229 158.662 166.415  1.00  0.00    -0.032 A 
ATOM      4  C   UNL     1     160.063 157.738 167.474  1.00  0.00     0.027 A 
ATOM      5  C   UNL     1     158.740 157.701 168.177  1.00  0.00    -0.007 A 
ATOM      6  C   UNL     1     158.263 156.552 168.836  1.00  0.00     0.059 A 
ATOM      7  C   UNL     1     157.023 156.552 169.487  1.00  0.00     0.158 A 
ATOM      8  C   UNL     1     156.225 157.718 169.468  1.00  0.00     0.157 A 
ATOM      9  C   UNL     1     156.665 158.839 168.762  1.00  0.00     0.054 A 
ATOM     10  C   UNL     1     157.895 158.828 168.089  1.00  0.00    -0.036 A 
ATOM     11  C   UNL     1     161.172 156.947 167.867  1.00  0.00     0.127 A 
ATOM     12  C   UNL     1     162.363 156.996 167.127  1.00  0.00     0.093 A 
ATOM     13  C   UNL     1     162.488 157.854 166.034  1.00  0.00     0.119 A 
ATOM     14  C   UNL     1     161.424 158.691 165.684  1.00  0.00     0.050 A 
ENDROOT
BRANCH   8  15
ATOM     15  O   UNL     1     154.995 157.801 170.125  1.00  0.00    -0.504 OA
ATOM     16  H   UNL     1     154.639 157.092 170.749  1.00  0.00     0.293 HD
ENDBRANCH   8  15
BRANCH  11  17
ATOM     17  O   UNL     1     161.118 156.145 169.006  1.00  0.00    -0.507 OA
ATOM     18  H   UNL     1     160.397 155.443 169.131  1.00  0.00     0.293 HD
ENDBRANCH  11  17
BRANCH  13  19
ATOM     19  O   UNL     1     163.678 157.878 165.312  1.00  0.00    -0.508 OA
ATOM     20  H   UNL     1     164.408 157.193 165.469  1.00  0.00     0.293 HD
ENDBRANCH  13  19
BRANCH   7  21
ATOM     21  O   UNL     1     156.622 155.376 170.124  1.00  0.00    -0.504 OA
ATOM     22  H   UNL     1     157.005 155.049 171.001  1.00  0.00     0.293 HD
ENDBRANCH   7  21
TORSDOF 4
ENDMDL
MODEL 8
REMARK VINA RESULT:    -4.970      3.168      5.235
REMARK INTER + INTRA:          -5.552
REMARK INTER:                  -5.552
REMARK INTRA:                   0.000
REMARK UNBOUND:                 0.000
REMARK SMILES Oc1cc(O)c2c(c1)CCc1cc(O)c(O)cc1-2
REMARK SMILES IDX 10 1 9 2 7 3 6 4 18 5 17 6 15 7 13 8 12 9 11 10 4 11 3 12
REMARK SMILES IDX 2 13 8 14 14 15 5 17 1 19 16 21
REMARK H PARENT 14 16 5 18 1 20 16 22
REMARK Flexibility Score: inf
ROOT
ATOM      1  C   UNL     1     156.841 155.170 167.356  1.00  0.00     0.041 C 
ATOM      2  C   UNL     1     156.069 155.604 166.104  1.00  0.00     0.041 C 
ATOM      3  C   UNL     1     154.966 156.567 166.469  1.00  0.00    -0.032 A 
ATOM      4  C   UNL     1     155.160 157.504 167.511  1.00  0.00     0.027 A 
ATOM      5  C   UNL     1     156.489 157.524 168.204  1.00  0.00    -0.007 A 
ATOM      6  C   UNL     1     156.996 158.673 168.840  1.00  0.00     0.059 A 
ATOM      7  C   UNL     1     158.240 158.657 169.481  1.00  0.00     0.158 A 
ATOM      8  C   UNL     1     159.013 157.474 169.476  1.00  0.00     0.157 A 
ATOM      9  C   UNL     1     158.543 156.350 168.792  1.00  0.00     0.054 A 
ATOM     10  C   UNL     1     157.309 156.377 168.128  1.00  0.00    -0.036 A 
ATOM     11  C   UNL     1     154.072 158.325 167.899  1.00  0.00     0.127 A 
ATOM     12  C   UNL     1     152.875 158.290 167.169  1.00  0.00     0.093 A 
ATOM     13  C   UNL     1     152.723 157.417 166.091  1.00  0.00     0.119 A 
ATOM     14  C   UNL     1     153.765 156.552 165.747  1.00  0.00     0.050 A 
ENDROOT
BRANCH   8  15
ATOM     15  O   UNL     1     160.246 157.374 170.125  1.00  0.00    -0.504 OA
ATOM     16  H   UNL     1     161.116 157.708 169.738  1.00  0.00     0.293 HD
ENDBRANCH   8  15
BRANCH  11  17
ATOM     17  O   UNL     1     154.152 159.145 169.024  1.00  0.00    -0.507 OA
ATOM     18  H   UNL     1     153.659 158.924 169.881  1.00  0.00     0.293 HD
ENDBRANCH  11  17
BRANCH  13  19
ATOM     19  O   UNL     1     151.527 157.407 165.378  1.00  0.00    -0.508 OA
ATOM     20  H   UNL     1     151.161 156.556 164.967  1.00  0.00     0.293 HD
ENDBRANCH  13  19
BRANCH   7  21
ATOM     21  O   UNL     1     158.672 159.834 170.096  1.00  0.00    -0.504 OA
ATOM     22  H   UNL     1     158.056 160.488 170.560  1.00  0.00     0.293 HD
ENDBRANCH   7  21
TORSDOF 4
ENDMDL
