MODEL 1
REMARK VINA RESULT:    -6.402      0.000      0.000
REMARK INTER + INTRA:         -13.666
REMARK INTER:                 -12.015
REMARK INTRA:                  -1.651
REMARK UNBOUND:                -1.651
REMARK SMILES CCCCCCCCC=CCCCCCCCC(=O)[O-]
REMARK SMILES IDX 10 1 9 2 11 3 12 4 13 5 14 6 15 7 16 8 17 9 18 10 19 11
REMARK SMILES IDX 20 12 8 13 7 14 6 15 5 16 4 17 3 18 2 19 1 20
REMARK H PARENT
REMARK Flexibility Score: inf
ROOT
ATOM      1  C   UNL     1     -41.425 -41.000 106.508  1.00  0.00    -0.031 C 
ATOM      2  C   UNL     1     -40.935 -40.435 105.395  1.00  0.00    -0.031 C 
ENDROOT
BRANCH   1   3
ATOM      3  C   UNL     1     -41.310 -40.328 107.850  1.00  0.00     0.027 C 
BRANCH   3   4
ATOM      4  C   UNL     1     -42.611 -39.626 108.274  1.00  0.00     0.004 C 
BRANCH   4   5
ATOM      5  C   UNL     1     -43.872 -40.110 107.529  1.00  0.00     0.000 C 
BRANCH   5   6
ATOM      6  C   UNL     1     -44.707 -38.996 106.873  1.00  0.00     0.000 C 
BRANCH   6   7
ATOM      7  C   UNL     1     -44.285 -38.706 105.425  1.00  0.00     0.000 C 
BRANCH   7   8
ATOM      8  C   UNL     1     -43.331 -37.507 105.362  1.00  0.00     0.006 C 
BRANCH   8   9
ATOM      9  C   UNL     1     -43.922 -36.294 106.085  1.00  0.00     0.053 C 
BRANCH   9  10
ATOM     10  C   UNL     1     -42.849 -35.534 106.796  1.00  0.00     0.041 C 
ATOM     11  O   UNL     1     -41.639 -35.844 106.636  1.00  0.00    -0.550 OA
ATOM     12  O   UNL     1     -43.187 -34.514 107.677  1.00  0.00    -0.550 OA
ENDBRANCH   9  10
ENDBRANCH   8   9
ENDBRANCH   7   8
ENDBRANCH   6   7
ENDBRANCH   5   6
ENDBRANCH   4   5
ENDBRANCH   3   4
ENDBRANCH   1   3
BRANCH   2  13
ATOM     13  C   UNL     1     -41.051 -41.106 104.053  1.00  0.00     0.027 C 
BRANCH  13  14
ATOM     14  C   UNL     1     -40.433 -40.270 102.919  1.00  0.00     0.004 C 
BRANCH  14  15
ATOM     15  C   UNL     1     -39.424 -41.033 102.036  1.00  0.00     0.000 C 
BRANCH  15  16
ATOM     16  C   UNL     1     -38.097 -41.397 102.724  1.00  0.00     0.000 C 
BRANCH  16  17
ATOM     17  C   UNL     1     -37.670 -42.853 102.466  1.00  0.00    -0.000 C 
BRANCH  17  18
ATOM     18  C   UNL     1     -38.547 -43.866 103.219  1.00  0.00    -0.000 C 
BRANCH  18  19
ATOM     19  C   UNL     1     -38.456 -45.281 102.630  1.00  0.00    -0.003 C 
ATOM     20  C   UNL     1     -39.827 -45.948 102.586  1.00  0.00     0.004 C 
ENDBRANCH  18  19
ENDBRANCH  17  18
ENDBRANCH  16  17
ENDBRANCH  15  16
ENDBRANCH  14  15
ENDBRANCH  13  14
ENDBRANCH   2  13
TORSDOF 15
ENDMDL
MODEL 2
REMARK VINA RESULT:    -6.401      3.286      6.918
REMARK INTER + INTRA:         -13.664
REMARK INTER:                 -11.217
REMARK INTRA:                  -2.448
REMARK UNBOUND:                -1.651
REMARK SMILES CCCCCCCCC=CCCCCCCCC(=O)[O-]
REMARK SMILES IDX 10 1 9 2 11 3 12 4 13 5 14 6 15 7 16 8 17 9 18 10 19 11
REMARK SMILES IDX 20 12 8 13 7 14 6 15 5 16 4 17 3 18 2 19 1 20
REMARK H PARENT
REMARK Flexibility Score: inf
ROOT
ATOM      1  C   UNL     1     -41.313 -40.266 109.757  1.00  0.00    -0.031 C 
ATOM      2  C   UNL     1     -42.212 -39.879 108.840  1.00  0.00    -0.031 C 
ENDROOT
BRANCH   1   3
ATOM      3  C   UNL     1     -40.256 -41.289 109.441  1.00  0.00     0.027 C 
BRANCH   3   4
ATOM      4  C   UNL     1     -39.208 -40.770 108.442  1.00  0.00     0.004 C 
BRANCH   4   5
ATOM      5  C   UNL     1     -38.977 -41.688 107.223  1.00  0.00     0.000 C 
BRANCH   5   6
ATOM      6  C   UNL     1     -39.903 -41.420 106.023  1.00  0.00     0.000 C 
BRANCH   6   7
ATOM      7  C   UNL     1     -40.095 -39.924 105.738  1.00  0.00     0.000 C 
BRANCH   7   8
ATOM      8  C   UNL     1     -41.277 -39.693 104.789  1.00  0.00     0.006 C 
BRANCH   8   9
ATOM      9  C   UNL     1     -41.046 -40.387 103.444  1.00  0.00     0.053 C 
BRANCH   9  10
ATOM     10  C   UNL     1     -42.243 -41.196 103.058  1.00  0.00     0.041 C 
ATOM     11  O   UNL     1     -42.105 -42.384 102.664  1.00  0.00    -0.550 OA
ATOM     12  O   UNL     1     -43.508 -40.622 103.085  1.00  0.00    -0.550 OA
ENDBRANCH   9  10
ENDBRANCH   8   9
ENDBRANCH   7   8
ENDBRANCH   6   7
ENDBRANCH   5   6
ENDBRANCH   4   5
ENDBRANCH   3   4
ENDBRANCH   1   3
BRANCH   2  13
ATOM     13  C   UNL     1     -43.269 -38.855 109.155  1.00  0.00     0.027 C 
BRANCH  13  14
ATOM     14  C   UNL     1     -44.523 -39.010 108.277  1.00  0.00     0.004 C 
BRANCH  14  15
ATOM     15  C   UNL     1     -44.238 -39.447 106.826  1.00  0.00     0.000 C 
BRANCH  15  16
ATOM     16  C   UNL     1     -44.728 -38.473 105.740  1.00  0.00     0.000 C 
BRANCH  16  17
ATOM     17  C   UNL     1     -44.383 -37.007 106.054  1.00  0.00    -0.000 C 
BRANCH  17  18
ATOM     18  C   UNL     1     -42.920 -36.664 105.733  1.00  0.00    -0.000 C 
BRANCH  18  19
ATOM     19  C   UNL     1     -42.219 -35.923 106.881  1.00  0.00    -0.003 C 
ATOM     20  C   UNL     1     -43.234 -35.342 107.861  1.00  0.00     0.004 C 
ENDBRANCH  18  19
ENDBRANCH  17  18
ENDBRANCH  16  17
ENDBRANCH  15  16
ENDBRANCH  14  15
ENDBRANCH  13  14
ENDBRANCH   2  13
TORSDOF 15
ENDMDL
MODEL 3
REMARK VINA RESULT:    -6.332      1.660      3.471
REMARK INTER + INTRA:         -13.535
REMARK INTER:                 -11.271
REMARK INTRA:                  -2.264
REMARK UNBOUND:                -1.651
REMARK SMILES CCCCCCCCC=CCCCCCCCC(=O)[O-]
REMARK SMILES IDX 10 1 9 2 11 3 12 4 13 5 14 6 15 7 16 8 17 9 18 10 19 11
REMARK SMILES IDX 20 12 8 13 7 14 6 15 5 16 4 17 3 18 2 19 1 20
REMARK H PARENT
REMARK Flexibility Score: inf
ROOT
ATOM      1  C   UNL     1     -41.775 -42.615 102.618  1.00  0.00    -0.031 C 
ATOM      2  C   UNL     1     -41.135 -43.334 103.551  1.00  0.00    -0.031 C 
ENDROOT
BRANCH   1   3
ATOM      3  C   UNL     1     -42.383 -41.275 102.935  1.00  0.00     0.027 C 
BRANCH   3   4
ATOM      4  C   UNL     1     -41.467 -40.400 103.808  1.00  0.00     0.004 C 
BRANCH   4   5
ATOM      5  C   UNL     1     -42.053 -40.040 105.188  1.00  0.00     0.000 C 
BRANCH   5   6
ATOM      6  C   UNL     1     -43.073 -41.049 105.745  1.00  0.00     0.000 C 
BRANCH   6   7
ATOM      7  C   UNL     1     -44.513 -40.516 105.726  1.00  0.00     0.000 C 
BRANCH   7   8
ATOM      8  C   UNL     1     -44.692 -39.383 106.744  1.00  0.00     0.006 C 
BRANCH   8   9
ATOM      9  C   UNL     1     -44.803 -38.026 106.042  1.00  0.00     0.053 C 
BRANCH   9  10
ATOM     10  C   UNL     1     -44.117 -36.965 106.843  1.00  0.00     0.041 C 
ATOM     11  O   UNL     1     -44.576 -35.792 106.866  1.00  0.00    -0.550 OA
ATOM     12  O   UNL     1     -42.943 -37.258 107.524  1.00  0.00    -0.550 OA
ENDBRANCH   9  10
ENDBRANCH   8   9
ENDBRANCH   7   8
ENDBRANCH   6   7
ENDBRANCH   5   6
ENDBRANCH   4   5
ENDBRANCH   3   4
ENDBRANCH   1   3
BRANCH   2  13
ATOM     13  C   UNL     1     -40.526 -44.674 103.234  1.00  0.00     0.027 C 
BRANCH  13  14
ATOM     14  C   UNL     1     -39.442 -44.588 102.145  1.00  0.00     0.004 C 
BRANCH  14  15
ATOM     15  C   UNL     1     -38.159 -43.848 102.575  1.00  0.00     0.000 C 
BRANCH  15  16
ATOM     16  C   UNL     1     -37.919 -42.495 101.882  1.00  0.00     0.000 C 
BRANCH  16  17
ATOM     17  C   UNL     1     -38.110 -41.297 102.829  1.00  0.00    -0.000 C 
BRANCH  17  18
ATOM     18  C   UNL     1     -37.209 -41.379 104.072  1.00  0.00    -0.000 C 
BRANCH  18  19
ATOM     19  C   UNL     1     -37.913 -40.893 105.347  1.00  0.00    -0.003 C 
ATOM     20  C   UNL     1     -38.849 -41.963 105.900  1.00  0.00     0.004 C 
ENDBRANCH  18  19
ENDBRANCH  17  18
ENDBRANCH  16  17
ENDBRANCH  15  16
ENDBRANCH  14  15
ENDBRANCH  13  14
ENDBRANCH   2  13
TORSDOF 15
ENDMDL
MODEL 4
REMARK VINA RESULT:    -6.329      1.497      2.180
REMARK INTER + INTRA:         -13.530
REMARK INTER:                 -11.773
REMARK INTRA:                  -1.758
REMARK UNBOUND:                -1.651
REMARK SMILES CCCCCCCCC=CCCCCCCCC(=O)[O-]
REMARK SMILES IDX 10 1 9 2 11 3 12 4 13 5 14 6 15 7 16 8 17 9 18 10 19 11
REMARK SMILES IDX 20 12 8 13 7 14 6 15 5 16 4 17 3 18 2 19 1 20
REMARK H PARENT
REMARK Flexibility Score: inf
ROOT
ATOM      1  C   UNL     1     -40.734 -40.907 105.064  1.00  0.00    -0.031 C 
ATOM      2  C   UNL     1     -39.482 -41.206 105.442  1.00  0.00    -0.031 C 
ENDROOT
BRANCH   1   3
ATOM      3  C   UNL     1     -41.925 -41.328 105.881  1.00  0.00     0.027 C 
BRANCH   3   4
ATOM      4  C   UNL     1     -43.256 -40.844 105.281  1.00  0.00     0.004 C 
BRANCH   4   5
ATOM      5  C   UNL     1     -44.473 -40.996 106.217  1.00  0.00     0.000 C 
BRANCH   5   6
ATOM      6  C   UNL     1     -44.976 -39.684 106.846  1.00  0.00     0.000 C 
BRANCH   6   7
ATOM      7  C   UNL     1     -44.340 -39.394 108.214  1.00  0.00     0.000 C 
BRANCH   7   8
ATOM      8  C   UNL     1     -43.172 -38.411 108.078  1.00  0.00     0.006 C 
BRANCH   8   9
ATOM      9  C   UNL     1     -43.673 -36.965 108.023  1.00  0.00     0.053 C 
BRANCH   9  10
ATOM     10  C   UNL     1     -43.208 -36.296 106.769  1.00  0.00     0.041 C 
ATOM     11  O   UNL     1     -43.750 -36.570 105.666  1.00  0.00    -0.550 OA
ATOM     12  O   UNL     1     -42.141 -35.407 106.810  1.00  0.00    -0.550 OA
ENDBRANCH   9  10
ENDBRANCH   8   9
ENDBRANCH   7   8
ENDBRANCH   6   7
ENDBRANCH   5   6
ENDBRANCH   4   5
ENDBRANCH   3   4
ENDBRANCH   1   3
BRANCH   2  13
ATOM     13  C   UNL     1     -38.290 -40.784 104.626  1.00  0.00     0.027 C 
BRANCH  13  14
ATOM     14  C   UNL     1     -37.745 -41.921 103.745  1.00  0.00     0.004 C 
BRANCH  14  15
ATOM     15  C   UNL     1     -38.090 -41.792 102.247  1.00  0.00     0.000 C 
BRANCH  15  16
ATOM     16  C   UNL     1     -39.540 -42.151 101.875  1.00  0.00     0.000 C 
BRANCH  16  17
ATOM     17  C   UNL     1     -39.812 -43.664 101.925  1.00  0.00    -0.000 C 
BRANCH  17  18
ATOM     18  C   UNL     1     -40.749 -44.057 103.078  1.00  0.00    -0.000 C 
BRANCH  18  19
ATOM     19  C   UNL     1     -40.174 -45.181 103.953  1.00  0.00    -0.003 C 
ATOM     20  C   UNL     1     -39.280 -46.110 103.137  1.00  0.00     0.004 C 
ENDBRANCH  18  19
ENDBRANCH  17  18
ENDBRANCH  16  17
ENDBRANCH  15  16
ENDBRANCH  14  15
ENDBRANCH  13  14
ENDBRANCH   2  13
TORSDOF 15
ENDMDL
MODEL 5
REMARK VINA RESULT:    -6.304      1.393      2.863
REMARK INTER + INTRA:         -13.484
REMARK INTER:                 -11.438
REMARK INTRA:                  -2.045
REMARK UNBOUND:                -1.651
REMARK SMILES CCCCCCCCC=CCCCCCCCC(=O)[O-]
REMARK SMILES IDX 10 1 9 2 11 3 12 4 13 5 14 6 15 7 16 8 17 9 18 10 19 11
REMARK SMILES IDX 20 12 8 13 7 14 6 15 5 16 4 17 3 18 2 19 1 20
REMARK H PARENT
REMARK Flexibility Score: inf
ROOT
ATOM      1  C   UNL     1     -41.572 -41.100 103.257  1.00  0.00    -0.031 C 
ATOM      2  C   UNL     1     -41.459 -42.430 103.394  1.00  0.00    -0.031 C 
ENDROOT
BRANCH   1   3
ATOM      3  C   UNL     1     -41.815 -40.204 104.441  1.00  0.00     0.027 C 
BRANCH   3   4
ATOM      4  C   UNL     1     -42.199 -40.987 105.708  1.00  0.00     0.004 C 
BRANCH   4   5
ATOM      5  C   UNL     1     -43.666 -40.807 106.151  1.00  0.00     0.000 C 
BRANCH   5   6
ATOM      6  C   UNL     1     -43.985 -39.453 106.809  1.00  0.00     0.000 C 
BRANCH   6   7
ATOM      7  C   UNL     1     -44.711 -38.485 105.864  1.00  0.00     0.000 C 
BRANCH   7   8
ATOM      8  C   UNL     1     -43.877 -37.220 105.627  1.00  0.00     0.006 C 
BRANCH   8   9
ATOM      9  C   UNL     1     -44.257 -36.117 106.620  1.00  0.00     0.053 C 
BRANCH   9  10
ATOM     10  C   UNL     1     -43.032 -35.428 107.132  1.00  0.00     0.041 C 
ATOM     11  O   UNL     1     -43.137 -34.451 107.920  1.00  0.00    -0.550 OA
ATOM     12  O   UNL     1     -41.775 -35.833 106.701  1.00  0.00    -0.550 OA
ENDBRANCH   9  10
ENDBRANCH   8   9
ENDBRANCH   7   8
ENDBRANCH   6   7
ENDBRANCH   5   6
ENDBRANCH   4   5
ENDBRANCH   3   4
ENDBRANCH   1   3
BRANCH   2  13
ATOM     13  C   UNL     1     -41.216 -43.327 102.210  1.00  0.00     0.027 C 
BRANCH  13  14
ATOM     14  C   UNL     1     -40.147 -44.398 102.490  1.00  0.00     0.004 C 
BRANCH  14  15
ATOM     15  C   UNL     1     -38.837 -43.853 103.095  1.00  0.00     0.000 C 
BRANCH  15  16
ATOM     16  C   UNL     1     -38.045 -42.895 102.187  1.00  0.00     0.000 C 
BRANCH  16  17
ATOM     17  C   UNL     1     -37.967 -41.466 102.751  1.00  0.00    -0.000 C 
BRANCH  17  18
ATOM     18  C   UNL     1     -37.305 -41.415 104.137  1.00  0.00    -0.000 C 
BRANCH  18  19
ATOM     19  C   UNL     1     -38.168 -40.689 105.180  1.00  0.00    -0.003 C 
ATOM     20  C   UNL     1     -38.610 -41.642 106.287  1.00  0.00     0.004 C 
ENDBRANCH  18  19
ENDBRANCH  17  18
ENDBRANCH  16  17
ENDBRANCH  15  16
ENDBRANCH  14  15
ENDBRANCH  13  14
ENDBRANCH   2  13
TORSDOF 15
ENDMDL
MODEL 6
REMARK VINA RESULT:    -6.252      3.476      7.618
REMARK INTER + INTRA:         -13.386
REMARK INTER:                 -11.590
REMARK INTRA:                  -1.796
REMARK UNBOUND:                -1.651
REMARK SMILES CCCCCCCCC=CCCCCCCCC(=O)[O-]
REMARK SMILES IDX 10 1 9 2 11 3 12 4 13 5 14 6 15 7 16 8 17 9 18 10 19 11
REMARK SMILES IDX 20 12 8 13 7 14 6 15 5 16 4 17 3 18 2 19 1 20
REMARK H PARENT
REMARK Flexibility Score: inf
ROOT
ATOM      1  C   UNL     1     -41.761 -40.492 108.185  1.00  0.00    -0.031 C 
ATOM      2  C   UNL     1     -42.416 -39.322 108.157  1.00  0.00    -0.031 C 
ENDROOT
BRANCH   1   3
ATOM      3  C   UNL     1     -40.352 -40.619 107.674  1.00  0.00     0.027 C 
BRANCH   3   4
ATOM      4  C   UNL     1     -40.293 -41.024 106.191  1.00  0.00     0.004 C 
BRANCH   4   5
ATOM      5  C   UNL     1     -40.476 -39.855 105.201  1.00  0.00     0.000 C 
BRANCH   5   6
ATOM      6  C   UNL     1     -40.515 -40.261 103.717  1.00  0.00     0.000 C 
BRANCH   6   7
ATOM      7  C   UNL     1     -40.915 -41.730 103.509  1.00  0.00     0.000 C 
BRANCH   7   8
ATOM      8  C   UNL     1     -40.446 -42.238 102.140  1.00  0.00     0.006 C 
BRANCH   8   9
ATOM      9  C   UNL     1     -38.983 -41.863 101.886  1.00  0.00     0.053 C 
BRANCH   9  10
ATOM     10  C   UNL     1     -38.071 -42.921 102.419  1.00  0.00     0.041 C 
ATOM     11  O   UNL     1     -36.926 -42.616 102.847  1.00  0.00    -0.550 OA
ATOM     12  O   UNL     1     -38.464 -44.254 102.397  1.00  0.00    -0.550 OA
ENDBRANCH   9  10
ENDBRANCH   8   9
ENDBRANCH   7   8
ENDBRANCH   6   7
ENDBRANCH   5   6
ENDBRANCH   4   5
ENDBRANCH   3   4
ENDBRANCH   1   3
BRANCH   2  13
ATOM     13  C   UNL     1     -43.826 -39.195 108.669  1.00  0.00     0.027 C 
BRANCH  13  14
ATOM     14  C   UNL     1     -44.875 -39.334 107.553  1.00  0.00     0.004 C 
BRANCH  14  15
ATOM     15  C   UNL     1     -44.336 -39.935 106.238  1.00  0.00     0.000 C 
BRANCH  15  16
ATOM     16  C   UNL     1     -44.136 -38.928 105.092  1.00  0.00     0.000 C 
BRANCH  16  17
ATOM     17  C   UNL     1     -44.534 -37.494 105.480  1.00  0.00    -0.000 C 
BRANCH  17  18
ATOM     18  C   UNL     1     -43.316 -36.589 105.724  1.00  0.00    -0.000 C 
BRANCH  18  19
ATOM     19  C   UNL     1     -43.669 -35.319 106.511  1.00  0.00    -0.003 C 
ATOM     20  C   UNL     1     -43.253 -35.446 107.974  1.00  0.00     0.004 C 
ENDBRANCH  18  19
ENDBRANCH  17  18
ENDBRANCH  16  17
ENDBRANCH  15  16
ENDBRANCH  14  15
ENDBRANCH  13  14
ENDBRANCH   2  13
TORSDOF 15
ENDMDL
MODEL 7
REMARK VINA RESULT:    -6.182      3.872      8.206
REMARK INTER + INTRA:         -13.255
REMARK INTER:                 -11.478
REMARK INTRA:                  -1.777
REMARK UNBOUND:                -1.651
REMARK SMILES CCCCCCCCC=CCCCCCCCC(=O)[O-]
REMARK SMILES IDX 10 1 9 2 11 3 12 4 13 5 14 6 15 7 16 8 17 9 18 10 19 11
REMARK SMILES IDX 20 12 8 13 7 14 6 15 5 16 4 17 3 18 2 19 1 20
REMARK H PARENT
REMARK Flexibility Score: inf
ROOT
ATOM      1  C   UNL     1     -40.412 -40.314 106.469  1.00  0.00    -0.031 C 
ATOM      2  C   UNL     1     -40.952 -39.648 105.437  1.00  0.00    -0.031 C 
ENDROOT
BRANCH   1   3
ATOM      3  C   UNL     1     -38.985 -40.091 106.890  1.00  0.00     0.027 C 
BRANCH   3   4
ATOM      4  C   UNL     1     -38.015 -41.102 106.255  1.00  0.00     0.004 C 
BRANCH   4   5
ATOM      5  C   UNL     1     -37.258 -40.573 105.019  1.00  0.00     0.000 C 
BRANCH   5   6
ATOM      6  C   UNL     1     -37.275 -41.509 103.797  1.00  0.00     0.000 C 
BRANCH   6   7
ATOM      7  C   UNL     1     -38.565 -41.391 102.972  1.00  0.00     0.000 C 
BRANCH   7   8
ATOM      8  C   UNL     1     -38.800 -42.656 102.138  1.00  0.00     0.006 C 
BRANCH   8   9
ATOM      9  C   UNL     1     -37.927 -43.812 102.633  1.00  0.00     0.053 C 
BRANCH   9  10
ATOM     10  C   UNL     1     -38.700 -45.092 102.627  1.00  0.00     0.041 C 
ATOM     11  O   UNL     1     -39.861 -45.130 102.143  1.00  0.00    -0.550 OA
ATOM     12  O   UNL     1     -38.157 -46.235 103.203  1.00  0.00    -0.550 OA
ENDBRANCH   9  10
ENDBRANCH   8   9
ENDBRANCH   7   8
ENDBRANCH   6   7
ENDBRANCH   5   6
ENDBRANCH   4   5
ENDBRANCH   3   4
ENDBRANCH   1   3
BRANCH   2  13
ATOM     13  C   UNL     1     -42.380 -39.870 105.016  1.00  0.00     0.027 C 
BRANCH  13  14
ATOM     14  C   UNL     1     -43.018 -41.086 105.709  1.00  0.00     0.004 C 
BRANCH  14  15
ATOM     15  C   UNL     1     -44.465 -40.861 106.194  1.00  0.00     0.000 C 
BRANCH  15  16
ATOM     16  C   UNL     1     -44.788 -39.426 106.649  1.00  0.00     0.000 C 
BRANCH  16  17
ATOM     17  C   UNL     1     -44.692 -39.248 108.174  1.00  0.00    -0.000 C 
BRANCH  17  18
ATOM     18  C   UNL     1     -43.690 -38.155 108.578  1.00  0.00    -0.000 C 
BRANCH  18  19
ATOM     19  C   UNL     1     -43.327 -37.224 107.412  1.00  0.00    -0.003 C 
ATOM     20  C   UNL     1     -44.087 -35.904 107.505  1.00  0.00     0.004 C 
ENDBRANCH  18  19
ENDBRANCH  17  18
ENDBRANCH  16  17
ENDBRANCH  15  16
ENDBRANCH  14  15
ENDBRANCH  13  14
ENDBRANCH   2  13
TORSDOF 15
ENDMDL
MODEL 8
REMARK VINA RESULT:    -6.135      1.380      2.450
REMARK INTER + INTRA:         -13.165
REMARK INTER:                 -10.983
REMARK INTRA:                  -2.182
REMARK UNBOUND:                -1.651
REMARK SMILES CCCCCCCCC=CCCCCCCCC(=O)[O-]
REMARK SMILES IDX 10 1 9 2 11 3 12 4 13 5 14 6 15 7 16 8 17 9 18 10 19 11
REMARK SMILES IDX 20 12 8 13 7 14 6 15 5 16 4 17 3 18 2 19 1 20
REMARK H PARENT
REMARK Flexibility Score: inf
ROOT
ATOM      1  C   UNL     1     -39.903 -40.316 105.702  1.00  0.00    -0.031 C 
ATOM      2  C   UNL     1     -38.958 -41.135 105.217  1.00  0.00    -0.031 C 
ENDROOT
BRANCH   1   3
ATOM      3  C   UNL     1     -40.381 -40.420 107.126  1.00  0.00     0.027 C 
BRANCH   3   4
ATOM      4  C   UNL     1     -41.905 -40.602 107.228  1.00  0.00     0.004 C 
BRANCH   4   5
ATOM      5  C   UNL     1     -42.637 -40.637 105.871  1.00  0.00     0.000 C 
BRANCH   5   6
ATOM      6  C   UNL     1     -44.171 -40.733 105.962  1.00  0.00     0.000 C 
BRANCH   6   7
ATOM      7  C   UNL     1     -44.840 -39.374 106.215  1.00  0.00     0.000 C 
BRANCH   7   8
ATOM      8  C   UNL     1     -44.187 -38.274 105.370  1.00  0.00     0.006 C 
BRANCH   8   9
ATOM      9  C   UNL     1     -44.314 -36.908 106.052  1.00  0.00     0.053 C 
BRANCH   9  10
ATOM     10  C   UNL     1     -42.962 -36.347 106.358  1.00  0.00     0.041 C 
ATOM     11  O   UNL     1     -41.963 -37.109 106.439  1.00  0.00    -0.550 OA
ATOM     12  O   UNL     1     -42.813 -34.988 106.603  1.00  0.00    -0.550 OA
ENDBRANCH   9  10
ENDBRANCH   8   9
ENDBRANCH   7   8
ENDBRANCH   6   7
ENDBRANCH   5   6
ENDBRANCH   4   5
ENDBRANCH   3   4
ENDBRANCH   1   3
BRANCH   2  13
ATOM     13  C   UNL     1     -38.480 -41.030 103.793  1.00  0.00     0.027 C 
BRANCH  13  14
ATOM     14  C   UNL     1     -37.508 -42.161 103.412  1.00  0.00     0.004 C 
BRANCH  14  15
ATOM     15  C   UNL     1     -37.986 -43.050 102.247  1.00  0.00     0.000 C 
BRANCH  15  16
ATOM     16  C   UNL     1     -38.434 -44.468 102.646  1.00  0.00     0.000 C 
BRANCH  16  17
ATOM     17  C   UNL     1     -39.942 -44.556 102.941  1.00  0.00    -0.000 C 
BRANCH  17  18
ATOM     18  C   UNL     1     -40.771 -43.606 102.062  1.00  0.00    -0.000 C 
BRANCH  18  19
ATOM     19  C   UNL     1     -41.729 -42.727 102.880  1.00  0.00    -0.003 C 
ATOM     20  C   UNL     1     -41.800 -41.314 102.309  1.00  0.00     0.004 C 
ENDBRANCH  18  19
ENDBRANCH  17  18
ENDBRANCH  16  17
ENDBRANCH  15  16
ENDBRANCH  14  15
ENDBRANCH  13  14
ENDBRANCH   2  13
TORSDOF 15
ENDMDL
MODEL 9
REMARK VINA RESULT:    -6.121      1.157      2.297
REMARK INTER + INTRA:         -13.139
REMARK INTER:                 -11.394
REMARK INTRA:                  -1.745
REMARK UNBOUND:                -1.651
REMARK SMILES CCCCCCCCC=CCCCCCCCC(=O)[O-]
REMARK SMILES IDX 10 1 9 2 11 3 12 4 13 5 14 6 15 7 16 8 17 9 18 10 19 11
REMARK SMILES IDX 20 12 8 13 7 14 6 15 5 16 4 17 3 18 2 19 1 20
REMARK H PARENT
REMARK Flexibility Score: inf
ROOT
ATOM      1  C   UNL     1     -40.928 -39.522 105.382  1.00  0.00    -0.031 C 
ATOM      2  C   UNL     1     -40.828 -40.707 104.763  1.00  0.00    -0.031 C 
ENDROOT
BRANCH   1   3
ATOM      3  C   UNL     1     -40.605 -39.366 106.844  1.00  0.00     0.027 C 
BRANCH   3   4
ATOM      4  C   UNL     1     -41.318 -40.408 107.723  1.00  0.00     0.004 C 
BRANCH   4   5
ATOM      5  C   UNL     1     -42.445 -39.835 108.607  1.00  0.00     0.000 C 
BRANCH   5   6
ATOM      6  C   UNL     1     -43.838 -39.814 107.951  1.00  0.00     0.000 C 
BRANCH   6   7
ATOM      7  C   UNL     1     -44.422 -38.399 107.833  1.00  0.00     0.000 C 
BRANCH   7   8
ATOM      8  C   UNL     1     -43.953 -37.719 106.541  1.00  0.00     0.006 C 
BRANCH   8   9
ATOM      9  C   UNL     1     -44.212 -36.210 106.589  1.00  0.00     0.053 C 
BRANCH   9  10
ATOM     10  C   UNL     1     -43.011 -35.488 107.111  1.00  0.00     0.041 C 
ATOM     11  O   UNL     1     -43.145 -34.552 107.942  1.00  0.00    -0.550 OA
ATOM     12  O   UNL     1     -41.745 -35.815 106.641  1.00  0.00    -0.550 OA
ENDBRANCH   9  10
ENDBRANCH   8   9
ENDBRANCH   7   8
ENDBRANCH   6   7
ENDBRANCH   5   6
ENDBRANCH   4   5
ENDBRANCH   3   4
ENDBRANCH   1   3
BRANCH   2  13
ATOM     13  C   UNL     1     -41.150 -40.862 103.301  1.00  0.00     0.027 C 
BRANCH  13  14
ATOM     14  C   UNL     1     -42.037 -42.087 103.018  1.00  0.00     0.004 C 
BRANCH  14  15
ATOM     15  C   UNL     1     -41.331 -43.227 102.256  1.00  0.00     0.000 C 
BRANCH  15  16
ATOM     16  C   UNL     1     -40.606 -44.256 103.141  1.00  0.00     0.000 C 
BRANCH  16  17
ATOM     17  C   UNL     1     -39.122 -44.422 102.771  1.00  0.00    -0.000 C 
BRANCH  17  18
ATOM     18  C   UNL     1     -38.502 -43.127 102.225  1.00  0.00    -0.000 C 
BRANCH  18  19
ATOM     19  C   UNL     1     -37.211 -42.732 102.957  1.00  0.00    -0.003 C 
ATOM     20  C   UNL     1     -37.387 -41.417 103.710  1.00  0.00     0.004 C 
ENDBRANCH  18  19
ENDBRANCH  17  18
ENDBRANCH  16  17
ENDBRANCH  15  16
ENDBRANCH  14  15
ENDBRANCH  13  14
ENDBRANCH   2  13
TORSDOF 15
ENDMDL
