MODEL 1
REMARK VINA RESULT:    -3.096      0.000      0.000
REMARK INTER + INTRA:         -11.125
REMARK INTER:                  -7.078
REMARK INTRA:                  -4.047
REMARK UNBOUND:                -4.047
REMARK SMILES CCCCCCCCCCCCCCCCCCCCCCCC(=O)[O-]
REMARK SMILES IDX 13 1 14 2 15 3 16 4 17 5 18 6 19 7 20 8 21 9 22 10 23 11
REMARK SMILES IDX 24 12 25 13 26 14 12 15 11 16 10 17 9 18 8 19 7 20 6 21 5 22
REMARK SMILES IDX 4 23 3 24 2 25 1 26
REMARK H PARENT
REMARK Flexibility Score: inf
ROOT
ATOM      1  C   UNL     1      61.054  25.746  59.204  1.00  0.00     0.000 C 
ENDROOT
BRANCH   1   2
ATOM      2  C   UNL     1      62.500  25.361  59.569  1.00  0.00     0.000 C 
BRANCH   2   3
ATOM      3  C   UNL     1      62.644  24.362  60.733  1.00  0.00     0.000 C 
BRANCH   3   4
ATOM      4  C   UNL     1      63.195  25.010  62.015  1.00  0.00     0.000 C 
BRANCH   4   5
ATOM      5  C   UNL     1      62.085  25.438  62.988  1.00  0.00     0.000 C 
BRANCH   5   6
ATOM      6  C   UNL     1      61.477  24.258  63.760  1.00  0.00     0.000 C 
BRANCH   6   7
ATOM      7  C   UNL     1      60.039  23.979  63.297  1.00  0.00     0.000 C 
BRANCH   7   8
ATOM      8  C   UNL     1      59.421  25.152  62.515  1.00  0.00     0.000 C 
BRANCH   8   9
ATOM      9  C   UNL     1      58.234  24.776  61.609  1.00  0.00     0.000 C 
BRANCH   9  10
ATOM     10  C   UNL     1      57.510  26.000  61.030  1.00  0.00     0.006 C 
BRANCH  10  11
ATOM     11  C   UNL     1      57.396  27.113  62.078  1.00  0.00     0.053 C 
BRANCH  11  12
ATOM     12  C   UNL     1      55.961  27.375  62.409  1.00  0.00     0.041 C 
ATOM     13  O   UNL     1      55.424  26.809  63.397  1.00  0.00    -0.550 OA
ATOM     14  O   UNL     1      55.201  28.208  61.598  1.00  0.00    -0.550 OA
ENDBRANCH  11  12
ENDBRANCH  10  11
ENDBRANCH   9  10
ENDBRANCH   8   9
ENDBRANCH   7   8
ENDBRANCH   6   7
ENDBRANCH   5   6
ENDBRANCH   4   5
ENDBRANCH   3   4
ENDBRANCH   2   3
ENDBRANCH   1   2
BRANCH   1  15
ATOM     15  C   UNL     1      60.816  27.265  59.215  1.00  0.00     0.000 C 
BRANCH  15  16
ATOM     16  C   UNL     1      60.673  27.842  60.636  1.00  0.00     0.000 C 
BRANCH  16  17
ATOM     17  C   UNL     1      61.505  29.106  60.925  1.00  0.00     0.000 C 
BRANCH  17  18
ATOM     18  C   UNL     1      62.827  28.803  61.650  1.00  0.00    -0.000 C 
BRANCH  18  19
ATOM     19  C   UNL     1      63.965  28.451  60.679  1.00  0.00    -0.000 C 
BRANCH  19  20
ATOM     20  C   UNL     1      65.175  29.391  60.817  1.00  0.00    -0.000 C 
BRANCH  20  21
ATOM     21  C   UNL     1      64.791  30.759  61.420  1.00  0.00    -0.000 C 
BRANCH  21  22
ATOM     22  C   UNL     1      65.093  31.952  60.493  1.00  0.00    -0.000 C 
BRANCH  22  23
ATOM     23  C   UNL     1      64.524  31.830  59.066  1.00  0.00    -0.000 C 
BRANCH  23  24
ATOM     24  C   UNL     1      63.005  32.055  58.954  1.00  0.00    -0.000 C 
BRANCH  24  25
ATOM     25  C   UNL     1      62.308  31.002  58.081  1.00  0.00    -0.003 C 
ATOM     26  C   UNL     1      60.803  31.243  58.025  1.00  0.00     0.004 C 
ENDBRANCH  24  25
ENDBRANCH  23  24
ENDBRANCH  22  23
ENDBRANCH  21  22
ENDBRANCH  20  21
ENDBRANCH  19  20
ENDBRANCH  18  19
ENDBRANCH  17  18
ENDBRANCH  16  17
ENDBRANCH  15  16
ENDBRANCH   1  15
TORSDOF 22
ENDMDL
MODEL 2
REMARK VINA RESULT:    -2.964      3.969      7.765
REMARK INTER + INTRA:         -10.823
REMARK INTER:                  -5.820
REMARK INTRA:                  -5.003
REMARK UNBOUND:                -4.047
REMARK SMILES CCCCCCCCCCCCCCCCCCCCCCCC(=O)[O-]
REMARK SMILES IDX 13 1 14 2 15 3 16 4 17 5 18 6 19 7 20 8 21 9 22 10 23 11
REMARK SMILES IDX 24 12 25 13 26 14 12 15 11 16 10 17 9 18 8 19 7 20 6 21 5 22
REMARK SMILES IDX 4 23 3 24 2 25 1 26
REMARK H PARENT
REMARK Flexibility Score: inf
ROOT
ATOM      1  C   UNL     1      62.127  29.140  61.380  1.00  0.00     0.000 C 
ENDROOT
BRANCH   1   2
ATOM      2  C   UNL     1      63.633  28.874  61.195  1.00  0.00     0.000 C 
BRANCH   2   3
ATOM      3  C   UNL     1      64.562  30.041  61.580  1.00  0.00     0.000 C 
BRANCH   3   4
ATOM      4  C   UNL     1      65.180  30.743  60.358  1.00  0.00     0.000 C 
BRANCH   4   5
ATOM      5  C   UNL     1      64.167  31.616  59.599  1.00  0.00     0.000 C 
BRANCH   5   6
ATOM      6  C   UNL     1      63.843  31.075  58.199  1.00  0.00     0.000 C 
BRANCH   6   7
ATOM      7  C   UNL     1      64.816  29.954  57.803  1.00  0.00     0.000 C 
BRANCH   7   8
ATOM      8  C   UNL     1      64.110  28.616  57.520  1.00  0.00     0.000 C 
BRANCH   8   9
ATOM      9  C   UNL     1      64.843  27.369  58.047  1.00  0.00     0.000 C 
BRANCH   9  10
ATOM     10  C   UNL     1      66.247  27.683  58.586  1.00  0.00     0.006 C 
BRANCH  10  11
ATOM     11  C   UNL     1      66.430  27.115  59.997  1.00  0.00     0.053 C 
BRANCH  11  12
ATOM     12  C   UNL     1      67.753  27.527  60.561  1.00  0.00     0.041 C 
ATOM     13  O   UNL     1      68.816  27.019  60.118  1.00  0.00    -0.550 OA
ATOM     14  O   UNL     1      67.809  28.437  61.610  1.00  0.00    -0.550 OA
ENDBRANCH  11  12
ENDBRANCH  10  11
ENDBRANCH   9  10
ENDBRANCH   8   9
ENDBRANCH   7   8
ENDBRANCH   6   7
ENDBRANCH   5   6
ENDBRANCH   4   5
ENDBRANCH   3   4
ENDBRANCH   2   3
ENDBRANCH   1   2
BRANCH   1  15
ATOM     15  C   UNL     1      61.335  29.043  60.065  1.00  0.00     0.000 C 
BRANCH  15  16
ATOM     16  C   UNL     1      60.133  28.084  60.156  1.00  0.00     0.000 C 
BRANCH  16  17
ATOM     17  C   UNL     1      60.065  27.002  59.063  1.00  0.00     0.000 C 
BRANCH  17  18
ATOM     18  C   UNL     1      61.406  26.281  58.846  1.00  0.00    -0.000 C 
BRANCH  18  19
ATOM     19  C   UNL     1      61.282  24.754  58.971  1.00  0.00    -0.000 C 
BRANCH  19  20
ATOM     20  C   UNL     1      62.272  24.160  59.988  1.00  0.00    -0.000 C 
BRANCH  20  21
ATOM     21  C   UNL     1      63.234  25.222  60.562  1.00  0.00    -0.000 C 
BRANCH  21  22
ATOM     22  C   UNL     1      63.259  25.270  62.101  1.00  0.00    -0.000 C 
BRANCH  22  23
ATOM     23  C   UNL     1      61.965  25.788  62.759  1.00  0.00    -0.000 C 
BRANCH  23  24
ATOM     24  C   UNL     1      61.295  24.803  63.735  1.00  0.00    -0.000 C 
BRANCH  24  25
ATOM     25  C   UNL     1      60.096  24.072  63.115  1.00  0.00    -0.003 C 
ATOM     26  C   UNL     1      59.335  24.981  62.154  1.00  0.00     0.004 C 
ENDBRANCH  24  25
ENDBRANCH  23  24
ENDBRANCH  22  23
ENDBRANCH  21  22
ENDBRANCH  20  21
ENDBRANCH  19  20
ENDBRANCH  18  19
ENDBRANCH  17  18
ENDBRANCH  16  17
ENDBRANCH  15  16
ENDBRANCH   1  15
TORSDOF 22
ENDMDL
MODEL 3
REMARK VINA RESULT:    -2.879     10.295     14.001
REMARK INTER + INTRA:         -10.629
REMARK INTER:                  -7.553
REMARK INTRA:                  -3.076
REMARK UNBOUND:                -4.047
REMARK SMILES CCCCCCCCCCCCCCCCCCCCCCCC(=O)[O-]
REMARK SMILES IDX 13 1 14 2 15 3 16 4 17 5 18 6 19 7 20 8 21 9 22 10 23 11
REMARK SMILES IDX 24 12 25 13 26 14 12 15 11 16 10 17 9 18 8 19 7 20 6 21 5 22
REMARK SMILES IDX 4 23 3 24 2 25 1 26
REMARK H PARENT
REMARK Flexibility Score: inf
ROOT
ATOM      1  C   UNL     1      59.986  23.102  51.870  1.00  0.00     0.000 C 
ENDROOT
BRANCH   1   2
ATOM      2  C   UNL     1      60.219  23.553  50.415  1.00  0.00     0.000 C 
BRANCH   2   3
ATOM      3  C   UNL     1      59.815  25.006  50.102  1.00  0.00     0.000 C 
BRANCH   3   4
ATOM      4  C   UNL     1      58.291  25.209  50.057  1.00  0.00     0.000 C 
BRANCH   4   5
ATOM      5  C   UNL     1      57.781  26.128  51.180  1.00  0.00     0.000 C 
BRANCH   5   6
ATOM      6  C   UNL     1      58.918  26.780  51.981  1.00  0.00     0.000 C 
BRANCH   6   7
ATOM      7  C   UNL     1      58.784  28.310  51.978  1.00  0.00     0.000 C 
BRANCH   7   8
ATOM      8  C   UNL     1      60.098  29.029  51.623  1.00  0.00     0.000 C 
BRANCH   8   9
ATOM      9  C   UNL     1      60.741  28.590  50.295  1.00  0.00     0.000 C 
BRANCH   9  10
ATOM     10  C   UNL     1      62.134  27.970  50.478  1.00  0.00     0.006 C 
BRANCH  10  11
ATOM     11  C   UNL     1      62.603  27.288  49.189  1.00  0.00     0.053 C 
BRANCH  11  12
ATOM     12  C   UNL     1      63.643  26.255  49.491  1.00  0.00     0.041 C 
ATOM     13  O   UNL     1      63.345  25.235  50.166  1.00  0.00    -0.550 OA
ATOM     14  O   UNL     1      64.953  26.443  49.069  1.00  0.00    -0.550 OA
ENDBRANCH  11  12
ENDBRANCH  10  11
ENDBRANCH   9  10
ENDBRANCH   8   9
ENDBRANCH   7   8
ENDBRANCH   6   7
ENDBRANCH   5   6
ENDBRANCH   4   5
ENDBRANCH   3   4
ENDBRANCH   2   3
ENDBRANCH   1   2
BRANCH   1  15
ATOM     15  C   UNL     1      59.571  21.625  51.981  1.00  0.00     0.000 C 
BRANCH  15  16
ATOM     16  C   UNL     1      60.670  20.654  51.511  1.00  0.00     0.000 C 
BRANCH  16  17
ATOM     17  C   UNL     1      60.385  19.921  50.187  1.00  0.00     0.000 C 
BRANCH  17  18
ATOM     18  C   UNL     1      59.958  18.458  50.390  1.00  0.00    -0.000 C 
BRANCH  18  19
ATOM     19  C   UNL     1      58.829  18.035  49.436  1.00  0.00    -0.000 C 
BRANCH  19  20
ATOM     20  C   UNL     1      57.675  17.321  50.162  1.00  0.00    -0.000 C 
BRANCH  20  21
ATOM     21  C   UNL     1      56.500  18.272  50.476  1.00  0.00    -0.000 C 
BRANCH  21  22
ATOM     22  C   UNL     1      56.654  19.031  51.807  1.00  0.00    -0.000 C 
BRANCH  22  23
ATOM     23  C   UNL     1      57.066  18.161  53.010  1.00  0.00    -0.000 C 
BRANCH  23  24
ATOM     24  C   UNL     1      58.320  18.647  53.761  1.00  0.00    -0.000 C 
BRANCH  24  25
ATOM     25  C   UNL     1      59.174  17.493  54.305  1.00  0.00    -0.003 C 
ATOM     26  C   UNL     1      59.197  16.319  53.330  1.00  0.00     0.004 C 
ENDBRANCH  24  25
ENDBRANCH  23  24
ENDBRANCH  22  23
ENDBRANCH  21  22
ENDBRANCH  20  21
ENDBRANCH  19  20
ENDBRANCH  18  19
ENDBRANCH  17  18
ENDBRANCH  16  17
ENDBRANCH  15  16
ENDBRANCH   1  15
TORSDOF 22
ENDMDL
MODEL 4
REMARK VINA RESULT:    -2.863      9.733     13.267
REMARK INTER + INTRA:         -10.592
REMARK INTER:                  -6.064
REMARK INTRA:                  -4.528
REMARK UNBOUND:                -4.047
REMARK SMILES CCCCCCCCCCCCCCCCCCCCCCCC(=O)[O-]
REMARK SMILES IDX 13 1 14 2 15 3 16 4 17 5 18 6 19 7 20 8 21 9 22 10 23 11
REMARK SMILES IDX 24 12 25 13 26 14 12 15 11 16 10 17 9 18 8 19 7 20 6 21 5 22
REMARK SMILES IDX 4 23 3 24 2 25 1 26
REMARK H PARENT
REMARK Flexibility Score: inf
ROOT
ATOM      1  C   UNL     1      65.208  27.658  51.811  1.00  0.00     0.000 C 
ENDROOT
BRANCH   1   2
ATOM      2  C   UNL     1      64.313  27.203  50.642  1.00  0.00     0.000 C 
BRANCH   2   3
ATOM      3  C   UNL     1      65.026  27.050  49.285  1.00  0.00     0.000 C 
BRANCH   3   4
ATOM      4  C   UNL     1      64.200  27.597  48.109  1.00  0.00     0.000 C 
BRANCH   4   5
ATOM      5  C   UNL     1      65.063  28.334  47.070  1.00  0.00     0.000 C 
BRANCH   5   6
ATOM      6  C   UNL     1      66.524  28.498  47.514  1.00  0.00     0.000 C 
BRANCH   6   7
ATOM      7  C   UNL     1      67.028  29.921  47.229  1.00  0.00     0.000 C 
BRANCH   7   8
ATOM      8  C   UNL     1      66.364  30.985  48.121  1.00  0.00     0.000 C 
BRANCH   8   9
ATOM      9  C   UNL     1      66.172  30.572  49.593  1.00  0.00     0.000 C 
BRANCH   9  10
ATOM     10  C   UNL     1      64.801  30.976  50.154  1.00  0.00     0.006 C 
BRANCH  10  11
ATOM     11  C   UNL     1      63.821  31.301  49.022  1.00  0.00     0.053 C 
BRANCH  11  12
ATOM     12  C   UNL     1      63.444  32.748  49.054  1.00  0.00     0.041 C 
ATOM     13  O   UNL     1      62.615  33.206  48.225  1.00  0.00    -0.550 OA
ATOM     14  O   UNL     1      64.047  33.604  49.968  1.00  0.00    -0.550 OA
ENDBRANCH  11  12
ENDBRANCH  10  11
ENDBRANCH   9  10
ENDBRANCH   8   9
ENDBRANCH   7   8
ENDBRANCH   6   7
ENDBRANCH   5   6
ENDBRANCH   4   5
ENDBRANCH   3   4
ENDBRANCH   2   3
ENDBRANCH   1   2
BRANCH   1  15
ATOM     15  C   UNL     1      64.441  28.457  52.877  1.00  0.00     0.000 C 
BRANCH  15  16
ATOM     16  C   UNL     1      62.940  28.115  52.923  1.00  0.00     0.000 C 
BRANCH  16  17
ATOM     17  C   UNL     1      61.987  29.322  53.003  1.00  0.00     0.000 C 
BRANCH  17  18
ATOM     18  C   UNL     1      61.627  29.897  51.623  1.00  0.00    -0.000 C 
BRANCH  18  19
ATOM     19  C   UNL     1      60.500  29.111  50.933  1.00  0.00    -0.000 C 
BRANCH  19  20
ATOM     20  C   UNL     1      60.939  28.501  49.590  1.00  0.00    -0.000 C 
BRANCH  20  21
ATOM     21  C   UNL     1      60.869  26.959  49.594  1.00  0.00    -0.000 C 
BRANCH  21  22
ATOM     22  C   UNL     1      60.322  26.366  50.906  1.00  0.00    -0.000 C 
BRANCH  22  23
ATOM     23  C   UNL     1      61.033  25.087  51.389  1.00  0.00    -0.000 C 
BRANCH  23  24
ATOM     24  C   UNL     1      61.952  24.424  50.346  1.00  0.00    -0.000 C 
BRANCH  24  25
ATOM     25  C   UNL     1      61.384  23.105  49.804  1.00  0.00    -0.003 C 
ATOM     26  C   UNL     1      60.330  22.531  50.746  1.00  0.00     0.004 C 
ENDBRANCH  24  25
ENDBRANCH  23  24
ENDBRANCH  22  23
ENDBRANCH  21  22
ENDBRANCH  20  21
ENDBRANCH  19  20
ENDBRANCH  18  19
ENDBRANCH  17  18
ENDBRANCH  16  17
ENDBRANCH  15  16
ENDBRANCH   1  15
TORSDOF 22
ENDMDL
MODEL 5
REMARK VINA RESULT:    -2.818     10.251     13.894
REMARK INTER + INTRA:         -10.490
REMARK INTER:                  -7.205
REMARK INTRA:                  -3.285
REMARK UNBOUND:                -4.047
REMARK SMILES CCCCCCCCCCCCCCCCCCCCCCCC(=O)[O-]
REMARK SMILES IDX 13 1 14 2 15 3 16 4 17 5 18 6 19 7 20 8 21 9 22 10 23 11
REMARK SMILES IDX 24 12 25 13 26 14 12 15 11 16 10 17 9 18 8 19 7 20 6 21 5 22
REMARK SMILES IDX 4 23 3 24 2 25 1 26
REMARK H PARENT
REMARK Flexibility Score: inf
ROOT
ATOM      1  C   UNL     1      61.582  22.503  51.264  1.00  0.00     0.000 C 
ENDROOT
BRANCH   1   2
ATOM      2  C   UNL     1      60.753  23.378  52.222  1.00  0.00     0.000 C 
BRANCH   2   3
ATOM      3  C   UNL     1      59.244  23.069  52.261  1.00  0.00     0.000 C 
BRANCH   3   4
ATOM      4  C   UNL     1      58.371  24.334  52.217  1.00  0.00     0.000 C 
BRANCH   4   5
ATOM      5  C   UNL     1      58.189  24.881  50.792  1.00  0.00     0.000 C 
BRANCH   5   6
ATOM      6  C   UNL     1      58.962  26.186  50.549  1.00  0.00     0.000 C 
BRANCH   6   7
ATOM      7  C   UNL     1      60.041  25.993  49.473  1.00  0.00     0.000 C 
BRANCH   7   8
ATOM      8  C   UNL     1      61.429  26.489  49.917  1.00  0.00     0.000 C 
BRANCH   8   9
ATOM      9  C   UNL     1      61.417  27.501  51.078  1.00  0.00     0.000 C 
BRANCH   9  10
ATOM     10  C   UNL     1      61.333  28.959  50.602  1.00  0.00     0.006 C 
BRANCH  10  11
ATOM     11  C   UNL     1      62.661  29.687  50.835  1.00  0.00     0.053 C 
BRANCH  11  12
ATOM     12  C   UNL     1      63.296  30.049  49.529  1.00  0.00     0.041 C 
ATOM     13  O   UNL     1      64.026  29.219  48.927  1.00  0.00    -0.550 OA
ATOM     14  O   UNL     1      63.122  31.322  49.001  1.00  0.00    -0.550 OA
ENDBRANCH  11  12
ENDBRANCH  10  11
ENDBRANCH   9  10
ENDBRANCH   8   9
ENDBRANCH   7   8
ENDBRANCH   6   7
ENDBRANCH   5   6
ENDBRANCH   4   5
ENDBRANCH   3   4
ENDBRANCH   2   3
ENDBRANCH   1   2
BRANCH   1  15
ATOM     15  C   UNL     1      61.075  22.555  49.813  1.00  0.00     0.000 C 
BRANCH  15  16
ATOM     16  C   UNL     1      61.015  21.169  49.145  1.00  0.00     0.000 C 
BRANCH  16  17
ATOM     17  C   UNL     1      60.747  19.987  50.097  1.00  0.00     0.000 C 
BRANCH  17  18
ATOM     18  C   UNL     1      59.411  19.280  49.815  1.00  0.00    -0.000 C 
BRANCH  18  19
ATOM     19  C   UNL     1      59.468  17.773  50.115  1.00  0.00    -0.000 C 
BRANCH  19  20
ATOM     20  C   UNL     1      58.075  17.165  50.361  1.00  0.00    -0.000 C 
BRANCH  20  21
ATOM     21  C   UNL     1      56.947  18.211  50.237  1.00  0.00    -0.000 C 
BRANCH  21  22
ATOM     22  C   UNL     1      56.216  18.495  51.562  1.00  0.00    -0.000 C 
BRANCH  22  23
ATOM     23  C   UNL     1      56.986  19.391  52.552  1.00  0.00    -0.000 C 
BRANCH  23  24
ATOM     24  C   UNL     1      57.493  18.670  53.816  1.00  0.00    -0.000 C 
BRANCH  24  25
ATOM     25  C   UNL     1      59.001  18.385  53.774  1.00  0.00    -0.003 C 
ATOM     26  C   UNL     1      59.801  19.675  53.611  1.00  0.00     0.004 C 
ENDBRANCH  24  25
ENDBRANCH  23  24
ENDBRANCH  22  23
ENDBRANCH  21  22
ENDBRANCH  20  21
ENDBRANCH  19  20
ENDBRANCH  18  19
ENDBRANCH  17  18
ENDBRANCH  16  17
ENDBRANCH  15  16
ENDBRANCH   1  15
TORSDOF 22
ENDMDL
MODEL 6
REMARK VINA RESULT:    -2.813      9.795     12.912
REMARK INTER + INTRA:         -10.479
REMARK INTER:                  -6.739
REMARK INTRA:                  -3.740
REMARK UNBOUND:                -4.047
REMARK SMILES CCCCCCCCCCCCCCCCCCCCCCCC(=O)[O-]
REMARK SMILES IDX 13 1 14 2 15 3 16 4 17 5 18 6 19 7 20 8 21 9 22 10 23 11
REMARK SMILES IDX 24 12 25 13 26 14 12 15 11 16 10 17 9 18 8 19 7 20 6 21 5 22
REMARK SMILES IDX 4 23 3 24 2 25 1 26
REMARK H PARENT
REMARK Flexibility Score: inf
ROOT
ATOM      1  C   UNL     1      61.703  20.291  50.517  1.00  0.00     0.000 C 
ENDROOT
BRANCH   1   2
ATOM      2  C   UNL     1      61.128  21.140  49.367  1.00  0.00     0.000 C 
BRANCH   2   3
ATOM      3  C   UNL     1      61.281  22.664  49.531  1.00  0.00     0.000 C 
BRANCH   3   4
ATOM      4  C   UNL     1      62.177  23.052  50.720  1.00  0.00     0.000 C 
BRANCH   4   5
ATOM      5  C   UNL     1      62.481  24.559  50.766  1.00  0.00     0.000 C 
BRANCH   5   6
ATOM      6  C   UNL     1      61.778  25.275  51.929  1.00  0.00     0.000 C 
BRANCH   6   7
ATOM      7  C   UNL     1      60.773  26.313  51.407  1.00  0.00     0.000 C 
BRANCH   7   8
ATOM      8  C   UNL     1      60.616  26.283  49.877  1.00  0.00     0.000 C 
BRANCH   8   9
ATOM      9  C   UNL     1      59.318  25.627  49.369  1.00  0.00     0.000 C 
BRANCH   9  10
ATOM     10  C   UNL     1      58.350  25.257  50.503  1.00  0.00     0.006 C 
BRANCH  10  11
ATOM     11  C   UNL     1      56.901  25.550  50.101  1.00  0.00     0.053 C 
BRANCH  11  12
ATOM     12  C   UNL     1      56.114  26.018  51.284  1.00  0.00     0.041 C 
ATOM     13  O   UNL     1      56.274  27.184  51.732  1.00  0.00    -0.550 OA
ATOM     14  O   UNL     1      55.239  25.149  51.925  1.00  0.00    -0.550 OA
ENDBRANCH  11  12
ENDBRANCH  10  11
ENDBRANCH   9  10
ENDBRANCH   8   9
ENDBRANCH   7   8
ENDBRANCH   6   7
ENDBRANCH   5   6
ENDBRANCH   4   5
ENDBRANCH   3   4
ENDBRANCH   2   3
ENDBRANCH   1   2
BRANCH   1  15
ATOM     15  C   UNL     1      60.843  19.058  50.841  1.00  0.00     0.000 C 
BRANCH  15  16
ATOM     16  C   UNL     1      59.510  19.035  50.069  1.00  0.00     0.000 C 
BRANCH  16  17
ATOM     17  C   UNL     1      59.032  17.642  49.616  1.00  0.00     0.000 C 
BRANCH  17  18
ATOM     18  C   UNL     1      57.602  17.319  50.077  1.00  0.00    -0.000 C 
BRANCH  18  19
ATOM     19  C   UNL     1      57.323  17.793  51.512  1.00  0.00    -0.000 C 
BRANCH  19  20
ATOM     20  C   UNL     1      56.271  18.915  51.573  1.00  0.00    -0.000 C 
BRANCH  20  21
ATOM     21  C   UNL     1      56.464  19.836  52.796  1.00  0.00    -0.000 C 
BRANCH  21  22
ATOM     22  C   UNL     1      57.678  19.463  53.668  1.00  0.00    -0.000 C 
BRANCH  22  23
ATOM     23  C   UNL     1      58.859  20.451  53.599  1.00  0.00    -0.000 C 
BRANCH  23  24
ATOM     24  C   UNL     1      58.706  21.570  52.551  1.00  0.00    -0.000 C 
BRANCH  24  25
ATOM     25  C   UNL     1      59.237  22.924  53.042  1.00  0.00    -0.003 C 
ATOM     26  C   UNL     1      58.181  23.667  53.854  1.00  0.00     0.004 C 
ENDBRANCH  24  25
ENDBRANCH  23  24
ENDBRANCH  22  23
ENDBRANCH  21  22
ENDBRANCH  20  21
ENDBRANCH  19  20
ENDBRANCH  18  19
ENDBRANCH  17  18
ENDBRANCH  16  17
ENDBRANCH  15  16
ENDBRANCH   1  15
TORSDOF 22
ENDMDL
MODEL 7
REMARK VINA RESULT:    -2.812      5.861      8.765
REMARK INTER + INTRA:         -10.476
REMARK INTER:                  -6.701
REMARK INTRA:                  -3.775
REMARK UNBOUND:                -4.047
REMARK SMILES CCCCCCCCCCCCCCCCCCCCCCCC(=O)[O-]
REMARK SMILES IDX 13 1 14 2 15 3 16 4 17 5 18 6 19 7 20 8 21 9 22 10 23 11
REMARK SMILES IDX 24 12 25 13 26 14 12 15 11 16 10 17 9 18 8 19 7 20 6 21 5 22
REMARK SMILES IDX 4 23 3 24 2 25 1 26
REMARK H PARENT
REMARK Flexibility Score: inf
ROOT
ATOM      1  C   UNL     1      65.795  30.997  59.959  1.00  0.00     0.000 C 
ENDROOT
BRANCH   1   2
ATOM      2  C   UNL     1      65.865  29.973  58.810  1.00  0.00     0.000 C 
BRANCH   2   3
ATOM      3  C   UNL     1      67.251  29.806  58.158  1.00  0.00     0.000 C 
BRANCH   3   4
ATOM      4  C   UNL     1      67.610  28.336  57.883  1.00  0.00     0.000 C 
BRANCH   4   5
ATOM      5  C   UNL     1      66.504  27.362  58.321  1.00  0.00     0.000 C 
BRANCH   5   6
ATOM      6  C   UNL     1      66.878  26.555  59.573  1.00  0.00     0.000 C 
BRANCH   6   7
ATOM      7  C   UNL     1      68.244  26.994  60.122  1.00  0.00     0.000 C 
BRANCH   7   8
ATOM      8  C   UNL     1      68.130  27.942  61.329  1.00  0.00     0.000 C 
BRANCH   8   9
ATOM      9  C   UNL     1      69.141  29.104  61.340  1.00  0.00     0.000 C 
BRANCH   9  10
ATOM     10  C   UNL     1      70.547  28.680  60.892  1.00  0.00     0.006 C 
BRANCH  10  11
ATOM     11  C   UNL     1      70.978  29.452  59.641  1.00  0.00     0.053 C 
BRANCH  11  12
ATOM     12  C   UNL     1      71.594  30.762  60.019  1.00  0.00     0.041 C 
ATOM     13  O   UNL     1      72.302  30.853  61.056  1.00  0.00    -0.550 OA
ATOM     14  O   UNL     1      71.346  31.894  59.254  1.00  0.00    -0.550 OA
ENDBRANCH  11  12
ENDBRANCH  10  11
ENDBRANCH   9  10
ENDBRANCH   8   9
ENDBRANCH   7   8
ENDBRANCH   6   7
ENDBRANCH   5   6
ENDBRANCH   4   5
ENDBRANCH   3   4
ENDBRANCH   2   3
ENDBRANCH   1   2
BRANCH   1  15
ATOM     15  C   UNL     1      65.070  30.453  61.202  1.00  0.00     0.000 C 
BRANCH  15  16
ATOM     16  C   UNL     1      64.608  28.994  61.039  1.00  0.00     0.000 C 
BRANCH  16  17
ATOM     17  C   UNL     1      63.122  28.732  61.349  1.00  0.00     0.000 C 
BRANCH  17  18
ATOM     18  C   UNL     1      62.251  28.640  60.085  1.00  0.00    -0.000 C 
BRANCH  18  19
ATOM     19  C   UNL     1      61.465  29.934  59.816  1.00  0.00    -0.000 C 
BRANCH  19  20
ATOM     20  C   UNL     1      62.187  30.873  58.833  1.00  0.00    -0.000 C 
BRANCH  20  21
ATOM     21  C   UNL     1      61.308  32.069  58.410  1.00  0.00    -0.000 C 
BRANCH  21  22
ATOM     22  C   UNL     1      62.114  33.304  57.964  1.00  0.00    -0.000 C 
BRANCH  22  23
ATOM     23  C   UNL     1      63.639  33.188  58.147  1.00  0.00    -0.000 C 
BRANCH  23  24
ATOM     24  C   UNL     1      64.291  34.359  58.906  1.00  0.00    -0.000 C 
BRANCH  24  25
ATOM     25  C   UNL     1      63.999  34.328  60.413  1.00  0.00    -0.003 C 
ATOM     26  C   UNL     1      63.181  35.543  60.840  1.00  0.00     0.004 C 
ENDBRANCH  24  25
ENDBRANCH  23  24
ENDBRANCH  22  23
ENDBRANCH  21  22
ENDBRANCH  20  21
ENDBRANCH  19  20
ENDBRANCH  18  19
ENDBRANCH  17  18
ENDBRANCH  16  17
ENDBRANCH  15  16
ENDBRANCH   1  15
TORSDOF 22
ENDMDL
MODEL 8
REMARK VINA RESULT:    -2.777      5.144      8.589
REMARK INTER + INTRA:         -10.395
REMARK INTER:                  -6.121
REMARK INTRA:                  -4.274
REMARK UNBOUND:                -4.047
REMARK SMILES CCCCCCCCCCCCCCCCCCCCCCCC(=O)[O-]
REMARK SMILES IDX 13 1 14 2 15 3 16 4 17 5 18 6 19 7 20 8 21 9 22 10 23 11
REMARK SMILES IDX 24 12 25 13 26 14 12 15 11 16 10 17 9 18 8 19 7 20 6 21 5 22
REMARK SMILES IDX 4 23 3 24 2 25 1 26
REMARK H PARENT
REMARK Flexibility Score: inf
ROOT
ATOM      1  C   UNL     1      66.085  27.404  58.790  1.00  0.00     0.000 C 
ENDROOT
BRANCH   1   2
ATOM      2  C   UNL     1      66.950  27.211  60.050  1.00  0.00     0.000 C 
BRANCH   2   3
ATOM      3  C   UNL     1      67.343  28.506  60.786  1.00  0.00     0.000 C 
BRANCH   3   4
ATOM      4  C   UNL     1      68.524  28.312  61.753  1.00  0.00     0.000 C 
BRANCH   4   5
ATOM      5  C   UNL     1      69.797  29.038  61.288  1.00  0.00     0.000 C 
BRANCH   5   6
ATOM      6  C   UNL     1      70.577  28.256  60.221  1.00  0.00     0.000 C 
BRANCH   6   7
ATOM      7  C   UNL     1      70.686  29.064  58.918  1.00  0.00     0.000 C 
BRANCH   7   8
ATOM      8  C   UNL     1      69.725  28.571  57.822  1.00  0.00     0.000 C 
BRANCH   8   9
ATOM      9  C   UNL     1      68.649  29.586  57.396  1.00  0.00     0.000 C 
BRANCH   9  10
ATOM     10  C   UNL     1      68.676  30.875  58.232  1.00  0.00     0.006 C 
BRANCH  10  11
ATOM     11  C   UNL     1      69.351  32.013  57.458  1.00  0.00     0.053 C 
BRANCH  11  12
ATOM     12  C   UNL     1      68.324  32.944  56.895  1.00  0.00     0.041 C 
ATOM     13  O   UNL     1      68.547  33.557  55.818  1.00  0.00    -0.550 OA
ATOM     14  O   UNL     1      67.140  33.173  57.585  1.00  0.00    -0.550 OA
ENDBRANCH  11  12
ENDBRANCH  10  11
ENDBRANCH   9  10
ENDBRANCH   8   9
ENDBRANCH   7   8
ENDBRANCH   6   7
ENDBRANCH   5   6
ENDBRANCH   4   5
ENDBRANCH   3   4
ENDBRANCH   2   3
ENDBRANCH   1   2
BRANCH   1  15
ATOM     15  C   UNL     1      64.615  27.005  59.005  1.00  0.00     0.000 C 
BRANCH  15  16
ATOM     16  C   UNL     1      64.388  26.225  60.314  1.00  0.00     0.000 C 
BRANCH  16  17
ATOM     17  C   UNL     1      63.407  26.874  61.309  1.00  0.00     0.000 C 
BRANCH  17  18
ATOM     18  C   UNL     1      63.552  28.402  61.386  1.00  0.00    -0.000 C 
BRANCH  18  19
ATOM     19  C   UNL     1      62.195  29.123  61.419  1.00  0.00    -0.000 C 
BRANCH  19  20
ATOM     20  C   UNL     1      61.414  28.976  60.101  1.00  0.00    -0.000 C 
BRANCH  20  21
ATOM     21  C   UNL     1      61.514  30.236  59.215  1.00  0.00    -0.000 C 
BRANCH  21  22
ATOM     22  C   UNL     1      62.707  30.216  58.241  1.00  0.00    -0.000 C 
BRANCH  22  23
ATOM     23  C   UNL     1      63.756  31.322  58.472  1.00  0.00    -0.000 C 
BRANCH  23  24
ATOM     24  C   UNL     1      65.025  30.864  59.216  1.00  0.00    -0.000 C 
BRANCH  24  25
ATOM     25  C   UNL     1      65.236  31.605  60.544  1.00  0.00    -0.003 C 
ATOM     26  C   UNL     1      64.826  33.070  60.429  1.00  0.00     0.004 C 
ENDBRANCH  24  25
ENDBRANCH  23  24
ENDBRANCH  22  23
ENDBRANCH  21  22
ENDBRANCH  20  21
ENDBRANCH  19  20
ENDBRANCH  18  19
ENDBRANCH  17  18
ENDBRANCH  16  17
ENDBRANCH  15  16
ENDBRANCH   1  15
TORSDOF 22
ENDMDL
MODEL 9
REMARK VINA RESULT:    -2.759      9.082     11.493
REMARK INTER + INTRA:         -10.354
REMARK INTER:                  -6.448
REMARK INTRA:                  -3.906
REMARK UNBOUND:                -4.047
REMARK SMILES CCCCCCCCCCCCCCCCCCCCCCCC(=O)[O-]
REMARK SMILES IDX 13 1 14 2 15 3 16 4 17 5 18 6 19 7 20 8 21 9 22 10 23 11
REMARK SMILES IDX 24 12 25 13 26 14 12 15 11 16 10 17 9 18 8 19 7 20 6 21 5 22
REMARK SMILES IDX 4 23 3 24 2 25 1 26
REMARK H PARENT
REMARK Flexibility Score: inf
ROOT
ATOM      1  C   UNL     1      59.803  23.907  50.353  1.00  0.00     0.000 C 
ENDROOT
BRANCH   1   2
ATOM      2  C   UNL     1      59.019  23.835  51.677  1.00  0.00     0.000 C 
BRANCH   2   3
ATOM      3  C   UNL     1      59.821  23.334  52.893  1.00  0.00     0.000 C 
BRANCH   3   4
ATOM      4  C   UNL     1      60.148  24.452  53.898  1.00  0.00     0.000 C 
BRANCH   4   5
ATOM      5  C   UNL     1      61.313  25.343  53.437  1.00  0.00     0.000 C 
BRANCH   5   6
ATOM      6  C   UNL     1      62.676  24.860  53.954  1.00  0.00     0.000 C 
BRANCH   6   7
ATOM      7  C   UNL     1      63.730  24.892  52.838  1.00  0.00     0.000 C 
BRANCH   7   8
ATOM      8  C   UNL     1      63.319  24.076  51.599  1.00  0.00     0.000 C 
BRANCH   8   9
ATOM      9  C   UNL     1      63.854  22.632  51.565  1.00  0.00     0.000 C 
BRANCH   9  10
ATOM     10  C   UNL     1      62.739  21.578  51.614  1.00  0.00     0.006 C 
BRANCH  10  11
ATOM     11  C   UNL     1      62.170  21.319  50.215  1.00  0.00     0.053 C 
BRANCH  11  12
ATOM     12  C   UNL     1      61.118  20.256  50.266  1.00  0.00     0.041 C 
ATOM     13  O   UNL     1      60.157  20.276  49.453  1.00  0.00    -0.550 OA
ATOM     14  O   UNL     1      61.172  19.271  51.244  1.00  0.00    -0.550 OA
ENDBRANCH  11  12
ENDBRANCH  10  11
ENDBRANCH   9  10
ENDBRANCH   8   9
ENDBRANCH   7   8
ENDBRANCH   6   7
ENDBRANCH   5   6
ENDBRANCH   4   5
ENDBRANCH   3   4
ENDBRANCH   2   3
ENDBRANCH   1   2
BRANCH   1  15
ATOM     15  C   UNL     1      59.719  25.287  49.680  1.00  0.00     0.000 C 
BRANCH  15  16
ATOM     16  C   UNL     1      60.936  26.181  49.985  1.00  0.00     0.000 C 
BRANCH  16  17
ATOM     17  C   UNL     1      60.981  27.520  49.225  1.00  0.00     0.000 C 
BRANCH  17  18
ATOM     18  C   UNL     1      60.997  28.741  50.160  1.00  0.00    -0.000 C 
BRANCH  18  19
ATOM     19  C   UNL     1      60.374  28.441  51.533  1.00  0.00    -0.000 C 
BRANCH  19  20
ATOM     20  C   UNL     1      59.300  29.468  51.934  1.00  0.00    -0.000 C 
BRANCH  20  21
ATOM     21  C   UNL     1      57.993  28.796  52.406  1.00  0.00    -0.000 C 
BRANCH  21  22
ATOM     22  C   UNL     1      57.938  27.282  52.129  1.00  0.00    -0.000 C 
BRANCH  22  23
ATOM     23  C   UNL     1      56.520  26.685  52.043  1.00  0.00    -0.000 C 
BRANCH  23  24
ATOM     24  C   UNL     1      56.173  26.034  50.691  1.00  0.00    -0.000 C 
BRANCH  24  25
ATOM     25  C   UNL     1      55.010  26.735  49.973  1.00  0.00    -0.003 C 
ATOM     26  C   UNL     1      54.574  27.988  50.726  1.00  0.00     0.004 C 
ENDBRANCH  24  25
ENDBRANCH  23  24
ENDBRANCH  22  23
ENDBRANCH  21  22
ENDBRANCH  20  21
ENDBRANCH  19  20
ENDBRANCH  18  19
ENDBRANCH  17  18
ENDBRANCH  16  17
ENDBRANCH  15  16
ENDBRANCH   1  15
TORSDOF 22
ENDMDL
