MODEL 1
REMARK VINA RESULT:    -6.168      0.000      0.000
REMARK INTER + INTRA:          -7.540
REMARK INTER:                  -7.249
REMARK INTRA:                  -0.291
REMARK UNBOUND:                -0.291
REMARK SMILES O=c1c(O)c(-c2ccc(O)cc2)oc2cc(O)cc(O)c12
REMARK SMILES IDX 5 1 3 2 2 3 1 4 21 5 19 6 18 7 16 8 15 9 14 10 13 11 6 12
REMARK SMILES IDX 7 13 8 14 9 15 12 16 11 17 10 18 4 20 20 22 17 24
REMARK H PARENT 10 19 4 21 20 23 17 25
REMARK Flexibility Score: inf
ROOT
ATOM      1  C   UNL     1      -9.329   8.549   6.214  1.00  0.00     0.180 A 
ATOM      2  C   UNL     1     -10.599   9.139   6.062  1.00  0.00     0.208 A 
ATOM      3  C   UNL     1     -11.738   8.323   6.137  1.00  0.00     0.238 A 
ATOM      4  O   UNL     1     -12.882   8.841   6.013  1.00  0.00    -0.285 OA
ATOM      5  C   UNL     1     -11.590   6.936   6.341  1.00  0.00     0.111 A 
ATOM      6  C   UNL     1     -12.687   6.044   6.425  1.00  0.00     0.134 A 
ATOM      7  C   UNL     1     -12.456   4.674   6.620  1.00  0.00     0.093 A 
ATOM      8  C   UNL     1     -11.151   4.180   6.733  1.00  0.00     0.123 A 
ATOM      9  C   UNL     1     -10.068   5.056   6.652  1.00  0.00     0.094 A 
ATOM     10  C   UNL     1     -10.277   6.424   6.459  1.00  0.00     0.146 A 
ATOM     11  O   UNL     1      -9.227   7.235   6.391  1.00  0.00    -0.452 OA
ENDROOT
BRANCH   1  12
ATOM     12  C   UNL     1      -8.081   9.345   6.167  1.00  0.00     0.021 A 
ATOM     13  C   UNL     1      -7.410   9.586   4.952  1.00  0.00     0.016 A 
ATOM     14  C   UNL     1      -6.247  10.361   4.930  1.00  0.00     0.047 A 
ATOM     15  C   UNL     1      -5.746  10.915   6.112  1.00  0.00     0.115 A 
ATOM     16  C   UNL     1      -7.584   9.923   7.347  1.00  0.00     0.016 A 
ATOM     17  C   UNL     1      -6.420  10.697   7.320  1.00  0.00     0.047 A 
BRANCH  15  18
ATOM     18  O   UNL     1      -4.585  11.685   6.074  1.00  0.00    -0.508 OA
ATOM     19  H   UNL     1      -3.843  11.491   5.412  1.00  0.00     0.293 HD
ENDBRANCH  15  18
ENDBRANCH   1  12
BRANCH   2  20
ATOM     20  O   UNL     1     -10.716  10.508   5.811  1.00  0.00    -0.502 OA
ATOM     21  H   UNL     1     -11.599  10.943   5.573  1.00  0.00     0.293 HD
ENDBRANCH   2  20
BRANCH   6  22
ATOM     22  O   UNL     1     -13.998   6.506   6.314  1.00  0.00    -0.507 OA
ATOM     23  H   UNL     1     -14.270   7.423   6.646  1.00  0.00     0.293 HD
ENDBRANCH   6  22
BRANCH   8  24
ATOM     24  O   UNL     1     -10.922   2.819   6.926  1.00  0.00    -0.508 OA
ATOM     25  H   UNL     1     -11.554   2.247   7.474  1.00  0.00     0.293 HD
ENDBRANCH   8  24
TORSDOF 5
ENDMDL
MODEL 2
REMARK VINA RESULT:    -5.623      1.395      6.402
REMARK INTER + INTRA:          -6.900
REMARK INTER:                  -6.912
REMARK INTRA:                   0.012
REMARK UNBOUND:                -0.291
REMARK SMILES O=c1c(O)c(-c2ccc(O)cc2)oc2cc(O)cc(O)c12
REMARK SMILES IDX 5 1 3 2 2 3 1 4 21 5 19 6 18 7 16 8 15 9 14 10 13 11 6 12
REMARK SMILES IDX 7 13 8 14 9 15 12 16 11 17 10 18 4 20 20 22 17 24
REMARK H PARENT 10 19 4 21 20 23 17 25
REMARK Flexibility Score: inf
ROOT
ATOM      1  C   UNL     1     -10.095   7.665   6.642  1.00  0.00     0.180 A 
ATOM      2  C   UNL     1     -10.848   8.707   6.066  1.00  0.00     0.208 A 
ATOM      3  C   UNL     1     -10.177   9.842   5.586  1.00  0.00     0.238 A 
ATOM      4  O   UNL     1     -10.839  10.777   5.058  1.00  0.00    -0.285 OA
ATOM      5  C   UNL     1      -8.775   9.926   5.706  1.00  0.00     0.111 A 
ATOM      6  C   UNL     1      -8.023  11.037   5.250  1.00  0.00     0.134 A 
ATOM      7  C   UNL     1      -6.630  11.048   5.415  1.00  0.00     0.093 A 
ATOM      8  C   UNL     1      -5.975   9.973   6.025  1.00  0.00     0.123 A 
ATOM      9  C   UNL     1      -6.712   8.876   6.475  1.00  0.00     0.094 A 
ATOM     10  C   UNL     1      -8.100   8.844   6.319  1.00  0.00     0.146 A 
ATOM     11  O   UNL     1      -8.776   7.785   6.752  1.00  0.00    -0.452 OA
ENDROOT
BRANCH   1  12
ATOM     12  C   UNL     1     -10.728   6.428   7.155  1.00  0.00     0.021 A 
ATOM     13  C   UNL     1     -10.283   5.155   6.750  1.00  0.00     0.016 A 
ATOM     14  C   UNL     1     -10.880   4.001   7.267  1.00  0.00     0.047 A 
ATOM     15  C   UNL     1     -11.915   4.101   8.201  1.00  0.00     0.115 A 
ATOM     16  C   UNL     1     -11.754   6.520   8.111  1.00  0.00     0.016 A 
ATOM     17  C   UNL     1     -12.349   5.364   8.625  1.00  0.00     0.047 A 
BRANCH  15  18
ATOM     18  O   UNL     1     -12.502   2.943   8.707  1.00  0.00    -0.508 OA
ATOM     19  H   UNL     1     -12.932   2.924   9.623  1.00  0.00     0.293 HD
ENDBRANCH  15  18
ENDBRANCH   1  12
BRANCH   2  20
ATOM     20  O   UNL     1     -12.241   8.621   6.005  1.00  0.00    -0.502 OA
ATOM     21  H   UNL     1     -12.840   8.997   6.730  1.00  0.00     0.293 HD
ENDBRANCH   2  20
BRANCH   6  22
ATOM     22  O   UNL     1      -8.647  12.124   4.639  1.00  0.00    -0.507 OA
ATOM     23  H   UNL     1      -9.183  12.799   5.171  1.00  0.00     0.293 HD
ENDBRANCH   6  22
BRANCH   8  24
ATOM     24  O   UNL     1      -4.591   9.985   6.190  1.00  0.00    -0.508 OA
ATOM     25  H   UNL     1      -4.086   9.158   6.485  1.00  0.00     0.293 HD
ENDBRANCH   8  24
TORSDOF 5
ENDMDL
MODEL 3
REMARK VINA RESULT:    -4.932      2.254      6.571
REMARK INTER + INTRA:          -6.088
REMARK INTER:                  -6.005
REMARK INTRA:                  -0.083
REMARK UNBOUND:                -0.291
REMARK SMILES O=c1c(O)c(-c2ccc(O)cc2)oc2cc(O)cc(O)c12
REMARK SMILES IDX 5 1 3 2 2 3 1 4 21 5 19 6 18 7 16 8 15 9 14 10 13 11 6 12
REMARK SMILES IDX 7 13 8 14 9 15 12 16 11 17 10 18 4 20 20 22 17 24
REMARK H PARENT 10 19 4 21 20 23 17 25
REMARK Flexibility Score: inf
ROOT
ATOM      1  C   UNL     1     -11.064   7.751   6.503  1.00  0.00     0.180 A 
ATOM      2  C   UNL     1      -9.761   8.274   6.395  1.00  0.00     0.208 A 
ATOM      3  C   UNL     1      -9.580   9.526   5.787  1.00  0.00     0.238 A 
ATOM      4  O   UNL     1      -8.419  10.010   5.695  1.00  0.00    -0.285 OA
ATOM      5  C   UNL     1     -10.697  10.223   5.282  1.00  0.00     0.111 A 
ATOM      6  C   UNL     1     -10.601  11.488   4.653  1.00  0.00     0.134 A 
ATOM      7  C   UNL     1     -11.759  12.113   4.168  1.00  0.00     0.093 A 
ATOM      8  C   UNL     1     -13.010  11.499   4.299  1.00  0.00     0.123 A 
ATOM      9  C   UNL     1     -13.109  10.253   4.920  1.00  0.00     0.094 A 
ATOM     10  C   UNL     1     -11.967   9.614   5.411  1.00  0.00     0.146 A 
ATOM     11  O   UNL     1     -12.092   8.430   6.002  1.00  0.00    -0.452 OA
ENDROOT
BRANCH   1  12
ATOM     12  C   UNL     1     -11.338   6.446   7.147  1.00  0.00     0.021 A 
ATOM     13  C   UNL     1     -10.771   5.254   6.658  1.00  0.00     0.016 A 
ATOM     14  C   UNL     1     -11.025   4.037   7.298  1.00  0.00     0.047 A 
ATOM     15  C   UNL     1     -11.834   3.995   8.438  1.00  0.00     0.115 A 
ATOM     16  C   UNL     1     -12.132   6.400   8.305  1.00  0.00     0.016 A 
ATOM     17  C   UNL     1     -12.384   5.181   8.942  1.00  0.00     0.047 A 
BRANCH  15  18
ATOM     18  O   UNL     1     -12.079   2.775   9.064  1.00  0.00    -0.508 OA
ATOM     19  H   UNL     1     -12.799   2.144   8.731  1.00  0.00     0.293 HD
ENDBRANCH  15  18
ENDBRANCH   1  12
BRANCH   2  20
ATOM     20  O   UNL     1      -8.666   7.541   6.859  1.00  0.00    -0.502 OA
ATOM     21  H   UNL     1      -8.177   7.778   7.714  1.00  0.00     0.293 HD
ENDBRANCH   2  20
BRANCH   6  22
ATOM     22  O   UNL     1      -9.369  12.125   4.506  1.00  0.00    -0.507 OA
ATOM     23  H   UNL     1      -9.137  12.965   5.022  1.00  0.00     0.293 HD
ENDBRANCH   6  22
BRANCH   8  24
ATOM     24  O   UNL     1     -14.160  12.119   3.817  1.00  0.00    -0.508 OA
ATOM     25  H   UNL     1     -14.714  12.737   4.400  1.00  0.00     0.293 HD
ENDBRANCH   8  24
TORSDOF 5
ENDMDL
MODEL 4
REMARK VINA RESULT:    -4.915     17.858     19.687
REMARK INTER + INTRA:          -6.068
REMARK INTER:                  -6.260
REMARK INTRA:                   0.192
REMARK UNBOUND:                -0.291
REMARK SMILES O=c1c(O)c(-c2ccc(O)cc2)oc2cc(O)cc(O)c12
REMARK SMILES IDX 5 1 3 2 2 3 1 4 21 5 19 6 18 7 16 8 15 9 14 10 13 11 6 12
REMARK SMILES IDX 7 13 8 14 9 15 12 16 11 17 10 18 4 20 20 22 17 24
REMARK H PARENT 10 19 4 21 20 23 17 25
REMARK Flexibility Score: inf
ROOT
ATOM      1  C   UNL     1     -12.082  -1.964  -9.698  1.00  0.00     0.180 A 
ATOM      2  C   UNL     1     -10.715  -2.009 -10.036  1.00  0.00     0.208 A 
ATOM      3  C   UNL     1     -10.030  -3.229  -9.926  1.00  0.00     0.238 A 
ATOM      4  O   UNL     1      -8.809  -3.286 -10.236  1.00  0.00    -0.285 OA
ATOM      5  C   UNL     1     -10.714  -4.373  -9.464  1.00  0.00     0.111 A 
ATOM      6  C   UNL     1     -10.096  -5.640  -9.321  1.00  0.00     0.134 A 
ATOM      7  C   UNL     1     -10.842  -6.728  -8.846  1.00  0.00     0.093 A 
ATOM      8  C   UNL     1     -12.192  -6.575  -8.511  1.00  0.00     0.123 A 
ATOM      9  C   UNL     1     -12.805  -5.329  -8.651  1.00  0.00     0.094 A 
ATOM     10  C   UNL     1     -12.079  -4.232  -9.124  1.00  0.00     0.146 A 
ATOM     11  O   UNL     1     -12.690  -3.059  -9.253  1.00  0.00    -0.452 OA
ENDROOT
BRANCH   1  12
ATOM     12  C   UNL     1     -12.878  -0.719  -9.805  1.00  0.00     0.021 A 
ATOM     13  C   UNL     1     -14.206  -0.737 -10.272  1.00  0.00     0.016 A 
ATOM     14  C   UNL     1     -14.945   0.448 -10.341  1.00  0.00     0.047 A 
ATOM     15  C   UNL     1     -14.377   1.659  -9.934  1.00  0.00     0.115 A 
ATOM     16  C   UNL     1     -12.320   0.497  -9.378  1.00  0.00     0.016 A 
ATOM     17  C   UNL     1     -13.063   1.680  -9.449  1.00  0.00     0.047 A 
BRANCH  15  18
ATOM     18  O   UNL     1     -15.125   2.832 -10.010  1.00  0.00    -0.508 OA
ATOM     19  H   UNL     1     -14.866   3.585 -10.636  1.00  0.00     0.293 HD
ENDBRANCH  15  18
ENDBRANCH   1  12
BRANCH   2  20
ATOM     20  O   UNL     1     -10.050  -0.850 -10.443  1.00  0.00    -0.502 OA
ATOM     21  H   UNL     1      -9.360  -0.389  -9.862  1.00  0.00     0.293 HD
ENDBRANCH   2  20
BRANCH   6  22
ATOM     22  O   UNL     1      -8.751  -5.823  -9.645  1.00  0.00    -0.507 OA
ATOM     23  H   UNL     1      -8.106  -5.045  -9.707  1.00  0.00     0.293 HD
ENDBRANCH   6  22
BRANCH   8  24
ATOM     24  O   UNL     1     -12.934  -7.656  -8.038  1.00  0.00    -0.508 OA
ATOM     25  H   UNL     1     -12.606  -8.609  -8.143  1.00  0.00     0.293 HD
ENDBRANCH   8  24
TORSDOF 5
ENDMDL
MODEL 5
REMARK VINA RESULT:    -4.909      2.339      6.414
REMARK INTER + INTRA:          -6.061
REMARK INTER:                  -5.816
REMARK INTRA:                  -0.245
REMARK UNBOUND:                -0.291
REMARK SMILES O=c1c(O)c(-c2ccc(O)cc2)oc2cc(O)cc(O)c12
REMARK SMILES IDX 5 1 3 2 2 3 1 4 21 5 19 6 18 7 16 8 15 9 14 10 13 11 6 12
REMARK SMILES IDX 7 13 8 14 9 15 12 16 11 17 10 18 4 20 20 22 17 24
REMARK H PARENT 10 19 4 21 20 23 17 25
REMARK Flexibility Score: inf
ROOT
ATOM      1  C   UNL     1     -11.819   7.224   6.596  1.00  0.00     0.180 A 
ATOM      2  C   UNL     1     -12.911   7.820   7.257  1.00  0.00     0.208 A 
ATOM      3  C   UNL     1     -12.977   9.220   7.330  1.00  0.00     0.238 A 
ATOM      4  O   UNL     1     -13.955   9.766   7.910  1.00  0.00    -0.285 OA
ATOM      5  C   UNL     1     -11.946   9.997   6.762  1.00  0.00     0.111 A 
ATOM      6  C   UNL     1     -11.936  11.413   6.795  1.00  0.00     0.134 A 
ATOM      7  C   UNL     1     -10.869  12.115   6.215  1.00  0.00     0.093 A 
ATOM      8  C   UNL     1      -9.813  11.428   5.602  1.00  0.00     0.123 A 
ATOM      9  C   UNL     1      -9.821  10.033   5.566  1.00  0.00     0.094 A 
ATOM     10  C   UNL     1     -10.875   9.316   6.138  1.00  0.00     0.146 A 
ATOM     11  O   UNL     1     -10.859   7.988   6.084  1.00  0.00    -0.452 OA
ENDROOT
BRANCH   1  12
ATOM     12  C   UNL     1     -11.687   5.755   6.460  1.00  0.00     0.021 A 
ATOM     13  C   UNL     1     -11.952   5.105   5.240  1.00  0.00     0.016 A 
ATOM     14  C   UNL     1     -11.798   3.720   5.130  1.00  0.00     0.047 A 
ATOM     15  C   UNL     1     -11.365   2.970   6.228  1.00  0.00     0.115 A 
ATOM     16  C   UNL     1     -11.232   4.998   7.553  1.00  0.00     0.016 A 
ATOM     17  C   UNL     1     -11.079   3.613   7.439  1.00  0.00     0.047 A 
BRANCH  15  18
ATOM     18  O   UNL     1     -11.216   1.590   6.104  1.00  0.00    -0.508 OA
ATOM     19  H   UNL     1     -12.019   0.974   6.051  1.00  0.00     0.293 HD
ENDBRANCH  15  18
ENDBRANCH   1  12
BRANCH   2  20
ATOM     20  O   UNL     1     -13.892   7.026   7.855  1.00  0.00    -0.502 OA
ATOM     21  H   UNL     1     -14.636   6.590   7.323  1.00  0.00     0.293 HD
ENDBRANCH   2  20
BRANCH   6  22
ATOM     22  O   UNL     1     -12.972  12.125   7.399  1.00  0.00    -0.507 OA
ATOM     23  H   UNL     1     -13.140  12.078   8.397  1.00  0.00     0.293 HD
ENDBRANCH   6  22
BRANCH   8  24
ATOM     24  O   UNL     1      -8.753  12.125   5.026  1.00  0.00    -0.508 OA
ATOM     25  H   UNL     1      -8.709  12.293   4.028  1.00  0.00     0.293 HD
ENDBRANCH   8  24
TORSDOF 5
ENDMDL
MODEL 6
REMARK VINA RESULT:    -4.796      1.382      3.204
REMARK INTER + INTRA:          -5.929
REMARK INTER:                  -5.631
REMARK INTRA:                  -0.298
REMARK UNBOUND:                -0.291
REMARK SMILES O=c1c(O)c(-c2ccc(O)cc2)oc2cc(O)cc(O)c12
REMARK SMILES IDX 5 1 3 2 2 3 1 4 21 5 19 6 18 7 16 8 15 9 14 10 13 11 6 12
REMARK SMILES IDX 7 13 8 14 9 15 12 16 11 17 10 18 4 20 20 22 17 24
REMARK H PARENT 10 19 4 21 20 23 17 25
REMARK Flexibility Score: inf
ROOT
ATOM      1  C   UNL     1      -9.352   8.864   6.160  1.00  0.00     0.180 A 
ATOM      2  C   UNL     1      -9.433   7.508   6.529  1.00  0.00     0.208 A 
ATOM      3  C   UNL     1     -10.684   6.872   6.504  1.00  0.00     0.238 A 
ATOM      4  O   UNL     1     -10.767   5.654   6.822  1.00  0.00    -0.285 OA
ATOM      5  C   UNL     1     -11.830   7.603   6.130  1.00  0.00     0.111 A 
ATOM      6  C   UNL     1     -13.128   7.038   6.082  1.00  0.00     0.134 A 
ATOM      7  C   UNL     1     -14.220   7.835   5.709  1.00  0.00     0.093 A 
ATOM      8  C   UNL     1     -14.040   9.185   5.384  1.00  0.00     0.123 A 
ATOM      9  C   UNL     1     -12.763   9.745   5.430  1.00  0.00     0.094 A 
ATOM     10  C   UNL     1     -11.661   8.967   5.797  1.00  0.00     0.146 A 
ATOM     11  O   UNL     1     -10.456   9.526   5.827  1.00  0.00    -0.452 OA
ENDROOT
BRANCH   1  12
ATOM     12  C   UNL     1      -8.066   9.600   6.144  1.00  0.00     0.021 A 
ATOM     13  C   UNL     1      -7.247   9.619   4.999  1.00  0.00     0.016 A 
ATOM     14  C   UNL     1      -6.050  10.342   5.000  1.00  0.00     0.047 A 
ATOM     15  C   UNL     1      -5.662  11.062   6.133  1.00  0.00     0.115 A 
ATOM     16  C   UNL     1      -7.681  10.344   7.272  1.00  0.00     0.016 A 
ATOM     17  C   UNL     1      -6.482  11.065   7.269  1.00  0.00     0.047 A 
BRANCH  15  18
ATOM     18  O   UNL     1      -4.466  11.776   6.120  1.00  0.00    -0.508 OA
ATOM     19  H   UNL     1      -4.039  12.109   6.976  1.00  0.00     0.293 HD
ENDBRANCH  15  18
ENDBRANCH   1  12
BRANCH   2  20
ATOM     20  O   UNL     1      -8.290   6.820   6.944  1.00  0.00    -0.502 OA
ATOM     21  H   UNL     1      -8.069   5.887   6.615  1.00  0.00     0.293 HD
ENDBRANCH   2  20
BRANCH   6  22
ATOM     22  O   UNL     1     -13.339   5.696   6.401  1.00  0.00    -0.507 OA
ATOM     23  H   UNL     1     -14.110   5.403   6.988  1.00  0.00     0.293 HD
ENDBRANCH   6  22
BRANCH   8  24
ATOM     24  O   UNL     1     -15.125   9.977   5.014  1.00  0.00    -0.508 OA
ATOM     25  H   UNL     1     -15.002  10.822   4.469  1.00  0.00     0.293 HD
ENDBRANCH   8  24
TORSDOF 5
ENDMDL
MODEL 7
REMARK VINA RESULT:    -4.746      2.356      6.584
REMARK INTER + INTRA:          -5.870
REMARK INTER:                  -5.817
REMARK INTRA:                  -0.053
REMARK UNBOUND:                -0.291
REMARK SMILES O=c1c(O)c(-c2ccc(O)cc2)oc2cc(O)cc(O)c12
REMARK SMILES IDX 5 1 3 2 2 3 1 4 21 5 19 6 18 7 16 8 15 9 14 10 13 11 6 12
REMARK SMILES IDX 7 13 8 14 9 15 12 16 11 17 10 18 4 20 20 22 17 24
REMARK H PARENT 10 19 4 21 20 23 17 25
REMARK Flexibility Score: inf
ROOT
ATOM      1  C   UNL     1     -12.273   7.679   6.536  1.00  0.00     0.180 A 
ATOM      2  C   UNL     1     -13.482   8.184   6.019  1.00  0.00     0.208 A 
ATOM      3  C   UNL     1     -13.472   9.420   5.355  1.00  0.00     0.238 A 
ATOM      4  O   UNL     1     -14.546   9.878   4.878  1.00  0.00    -0.285 OA
ATOM      5  C   UNL     1     -12.263  10.137   5.236  1.00  0.00     0.111 A 
ATOM      6  C   UNL     1     -12.168  11.392   4.585  1.00  0.00     0.134 A 
ATOM      7  C   UNL     1     -10.930  12.047   4.517  1.00  0.00     0.093 A 
ATOM      8  C   UNL     1      -9.787  11.473   5.086  1.00  0.00     0.123 A 
ATOM      9  C   UNL     1      -9.876  10.237   5.727  1.00  0.00     0.094 A 
ATOM     10  C   UNL     1     -11.100   9.567   5.805  1.00  0.00     0.146 A 
ATOM     11  O   UNL     1     -11.155   8.389   6.417  1.00  0.00    -0.452 OA
ENDROOT
BRANCH   1  12
ATOM     12  C   UNL     1     -12.199   6.374   7.232  1.00  0.00     0.021 A 
ATOM     13  C   UNL     1     -12.979   6.106   8.373  1.00  0.00     0.016 A 
ATOM     14  C   UNL     1     -12.910   4.858   8.998  1.00  0.00     0.047 A 
ATOM     15  C   UNL     1     -12.075   3.859   8.489  1.00  0.00     0.115 A 
ATOM     16  C   UNL     1     -11.378   5.358   6.713  1.00  0.00     0.016 A 
ATOM     17  C   UNL     1     -11.311   4.112   7.342  1.00  0.00     0.047 A 
BRANCH  15  18
ATOM     18  O   UNL     1     -12.015   2.620   9.123  1.00  0.00    -0.508 OA
ATOM     19  H   UNL     1     -11.231   2.365   9.713  1.00  0.00     0.293 HD
ENDBRANCH  15  18
ENDBRANCH   1  12
BRANCH   2  20
ATOM     20  O   UNL     1     -14.674   7.477   6.194  1.00  0.00    -0.502 OA
ATOM     21  H   UNL     1     -15.572   7.939   6.277  1.00  0.00     0.293 HD
ENDBRANCH   2  20
BRANCH   6  22
ATOM     22  O   UNL     1     -13.289  11.989   4.010  1.00  0.00    -0.507 OA
ATOM     23  H   UNL     1     -13.534  11.840   3.038  1.00  0.00     0.293 HD
ENDBRANCH   6  22
BRANCH   8  24
ATOM     24  O   UNL     1      -8.557  12.125   5.018  1.00  0.00    -0.508 OA
ATOM     25  H   UNL     1      -7.792  11.879   5.637  1.00  0.00     0.293 HD
ENDBRANCH   8  24
TORSDOF 5
ENDMDL
MODEL 8
REMARK VINA RESULT:    -4.323      4.597      6.892
REMARK INTER + INTRA:          -5.372
REMARK INTER:                  -5.585
REMARK INTRA:                   0.213
REMARK UNBOUND:                -0.291
REMARK SMILES O=c1c(O)c(-c2ccc(O)cc2)oc2cc(O)cc(O)c12
REMARK SMILES IDX 5 1 3 2 2 3 1 4 21 5 19 6 18 7 16 8 15 9 14 10 13 11 6 12
REMARK SMILES IDX 7 13 8 14 9 15 12 16 11 17 10 18 4 20 20 22 17 24
REMARK H PARENT 10 19 4 21 20 23 17 25
REMARK Flexibility Score: inf
ROOT
ATOM      1  C   UNL     1     -13.076   7.406   6.574  1.00  0.00     0.180 A 
ATOM      2  C   UNL     1     -13.213   8.069   7.810  1.00  0.00     0.208 A 
ATOM      3  C   UNL     1     -13.680   9.392   7.821  1.00  0.00     0.238 A 
ATOM      4  O   UNL     1     -13.818   9.992   8.921  1.00  0.00    -0.285 OA
ATOM      5  C   UNL     1     -13.983  10.034   6.602  1.00  0.00     0.111 A 
ATOM      6  C   UNL     1     -14.456  11.367   6.526  1.00  0.00     0.134 A 
ATOM      7  C   UNL     1     -14.726  11.939   5.274  1.00  0.00     0.093 A 
ATOM      8  C   UNL     1     -14.532  11.204   4.098  1.00  0.00     0.123 A 
ATOM      9  C   UNL     1     -14.068   9.891   4.169  1.00  0.00     0.094 A 
ATOM     10  C   UNL     1     -13.794   9.302   5.407  1.00  0.00     0.146 A 
ATOM     11  O   UNL     1     -13.358   8.048   5.445  1.00  0.00    -0.452 OA
ENDROOT
BRANCH   1  12
ATOM     12  C   UNL     1     -12.607   6.004   6.481  1.00  0.00     0.021 A 
ATOM     13  C   UNL     1     -12.933   5.055   7.468  1.00  0.00     0.016 A 
ATOM     14  C   UNL     1     -12.500   3.731   7.346  1.00  0.00     0.047 A 
ATOM     15  C   UNL     1     -11.749   3.335   6.235  1.00  0.00     0.115 A 
ATOM     16  C   UNL     1     -11.871   5.594   5.357  1.00  0.00     0.016 A 
ATOM     17  C   UNL     1     -11.439   4.270   5.238  1.00  0.00     0.047 A 
BRANCH  15  18
ATOM     18  O   UNL     1     -11.323   2.013   6.126  1.00  0.00    -0.508 OA
ATOM     19  H   UNL     1     -11.862   1.323   5.618  1.00  0.00     0.293 HD
ENDBRANCH  15  18
ENDBRANCH   1  12
BRANCH   2  20
ATOM     20  O   UNL     1     -12.858   7.426   8.998  1.00  0.00    -0.502 OA
ATOM     21  H   UNL     1     -13.547   7.029   9.626  1.00  0.00     0.293 HD
ENDBRANCH   2  20
BRANCH   6  22
ATOM     22  O   UNL     1     -14.657  12.125   7.680  1.00  0.00    -0.507 OA
ATOM     23  H   UNL     1     -14.050  12.898   7.923  1.00  0.00     0.293 HD
ENDBRANCH   6  22
BRANCH   8  24
ATOM     24  O   UNL     1     -14.800  11.773   2.854  1.00  0.00    -0.508 OA
ATOM     25  H   UNL     1     -15.032  11.202   2.050  1.00  0.00     0.293 HD
ENDBRANCH   8  24
TORSDOF 5
ENDMDL
MODEL 9
REMARK VINA RESULT:    -4.261      4.036      4.995
REMARK INTER + INTRA:          -5.300
REMARK INTER:                  -5.195
REMARK INTRA:                  -0.105
REMARK UNBOUND:                -0.291
REMARK SMILES O=c1c(O)c(-c2ccc(O)cc2)oc2cc(O)cc(O)c12
REMARK SMILES IDX 5 1 3 2 2 3 1 4 21 5 19 6 18 7 16 8 15 9 14 10 13 11 6 12
REMARK SMILES IDX 7 13 8 14 9 15 12 16 11 17 10 18 4 20 20 22 17 24
REMARK H PARENT 10 19 4 21 20 23 17 25
REMARK Flexibility Score: inf
ROOT
ATOM      1  C   UNL     1     -10.119  11.127   5.920  1.00  0.00     0.180 A 
ATOM      2  C   UNL     1     -11.047  11.408   6.942  1.00  0.00     0.208 A 
ATOM      3  C   UNL     1     -12.385  11.649   6.595  1.00  0.00     0.238 A 
ATOM      4  O   UNL     1     -13.228  11.891   7.502  1.00  0.00    -0.285 OA
ATOM      5  C   UNL     1     -12.768  11.624   5.238  1.00  0.00     0.111 A 
ATOM      6  C   UNL     1     -14.096  11.859   4.804  1.00  0.00     0.134 A 
ATOM      7  C   UNL     1     -14.396  11.826   3.434  1.00  0.00     0.093 A 
ATOM      8  C   UNL     1     -13.395  11.563   2.491  1.00  0.00     0.123 A 
ATOM      9  C   UNL     1     -12.086  11.330   2.915  1.00  0.00     0.094 A 
ATOM     10  C   UNL     1     -11.767  11.357   4.276  1.00  0.00     0.146 A 
ATOM     11  O   UNL     1     -10.514  11.126   4.651  1.00  0.00    -0.452 OA
ENDROOT
BRANCH   1  12
ATOM     12  C   UNL     1      -8.694  10.845   6.207  1.00  0.00     0.021 A 
ATOM     13  C   UNL     1      -8.108   9.611   5.867  1.00  0.00     0.016 A 
ATOM     14  C   UNL     1      -6.754   9.376   6.126  1.00  0.00     0.047 A 
ATOM     15  C   UNL     1      -5.966  10.371   6.713  1.00  0.00     0.115 A 
ATOM     16  C   UNL     1      -7.891  11.847   6.777  1.00  0.00     0.016 A 
ATOM     17  C   UNL     1      -6.537  11.609   7.035  1.00  0.00     0.047 A 
BRANCH  15  18
ATOM     18  O   UNL     1      -4.619  10.123   6.967  1.00  0.00    -0.508 OA
ATOM     19  H   UNL     1      -4.015   9.712   6.265  1.00  0.00     0.293 HD
ENDBRANCH  15  18
ENDBRANCH   1  12
BRANCH   2  20
ATOM     20  O   UNL     1     -10.631  11.476   8.274  1.00  0.00    -0.502 OA
ATOM     21  H   UNL     1      -9.665  11.344   8.548  1.00  0.00     0.293 HD
ENDBRANCH   2  20
BRANCH   6  22
ATOM     22  O   UNL     1     -15.115  12.125   5.719  1.00  0.00    -0.507 OA
ATOM     23  H   UNL     1     -15.968  11.579   5.742  1.00  0.00     0.293 HD
ENDBRANCH   6  22
BRANCH   8  24
ATOM     24  O   UNL     1     -13.693  11.531   1.130  1.00  0.00    -0.508 OA
ATOM     25  H   UNL     1     -14.640  11.659   0.792  1.00  0.00     0.293 HD
ENDBRANCH   8  24
TORSDOF 5
ENDMDL
