MODEL 1
REMARK VINA RESULT:    -5.781      0.000      0.000
REMARK INTER + INTRA:         -11.546
REMARK INTER:                 -10.513
REMARK INTRA:                  -1.033
REMARK UNBOUND:                -1.033
REMARK SMILES CCCCCCCCCCCCCCCC(=O)[O-]
REMARK SMILES IDX 9 1 10 2 11 3 12 4 13 5 14 6 15 7 16 8 17 9 18 10 8 11 7 12
REMARK SMILES IDX 6 13 5 14 4 15 3 16 2 17 1 18
REMARK H PARENT
REMARK Flexibility Score: inf
ROOT
ATOM      1  C   UNL     1      -0.111 -29.098   5.515  1.00  0.00     0.000 C 
ENDROOT
BRANCH   1   2
ATOM      2  C   UNL     1       1.314 -29.458   5.080  1.00  0.00     0.000 C 
BRANCH   2   3
ATOM      3  C   UNL     1       1.558 -29.070   3.614  1.00  0.00     0.000 C 
BRANCH   3   4
ATOM      4  C   UNL     1       0.981 -30.092   2.620  1.00  0.00     0.000 C 
BRANCH   4   5
ATOM      5  C   UNL     1      -0.086 -29.499   1.675  1.00  0.00     0.000 C 
BRANCH   5   6
ATOM      6  C   UNL     1      -0.301 -27.994   1.916  1.00  0.00     0.006 C 
BRANCH   6   7
ATOM      7  C   UNL     1      -1.786 -27.611   1.898  1.00  0.00     0.053 C 
BRANCH   7   8
ATOM      8  C   UNL     1      -1.973 -26.135   1.731  1.00  0.00     0.041 C 
ATOM      9  O   UNL     1      -2.705 -25.687   0.809  1.00  0.00    -0.550 OA
ATOM     10  O   UNL     1      -1.316 -25.250   2.578  1.00  0.00    -0.550 OA
ENDBRANCH   7   8
ENDBRANCH   6   7
ENDBRANCH   5   6
ENDBRANCH   4   5
ENDBRANCH   3   4
ENDBRANCH   2   3
ENDBRANCH   1   2
BRANCH   1  11
ATOM     11  C   UNL     1      -0.213 -27.610   5.881  1.00  0.00     0.000 C 
BRANCH  11  12
ATOM     12  C   UNL     1      -0.637 -27.386   7.342  1.00  0.00    -0.000 C 
BRANCH  12  13
ATOM     13  C   UNL     1       0.476 -26.757   8.193  1.00  0.00    -0.000 C 
BRANCH  13  14
ATOM     14  C   UNL     1       0.007 -26.549   9.640  1.00  0.00    -0.000 C 
BRANCH  14  15
ATOM     15  C   UNL     1      -1.487 -26.866   9.837  1.00  0.00    -0.000 C 
BRANCH  15  16
ATOM     16  C   UNL     1      -2.252 -25.874  10.735  1.00  0.00    -0.000 C 
BRANCH  16  17
ATOM     17  C   UNL     1      -3.697 -25.581  10.297  1.00  0.00    -0.003 C 
ATOM     18  C   UNL     1      -4.300 -24.368  11.006  1.00  0.00     0.004 C 
ENDBRANCH  16  17
ENDBRANCH  15  16
ENDBRANCH  14  15
ENDBRANCH  13  14
ENDBRANCH  12  13
ENDBRANCH  11  12
ENDBRANCH   1  11
TORSDOF 14
ENDMDL
MODEL 2
REMARK VINA RESULT:    -5.777      1.672      2.333
REMARK INTER + INTRA:         -11.538
REMARK INTER:                 -10.723
REMARK INTRA:                  -0.816
REMARK UNBOUND:                -1.033
REMARK SMILES CCCCCCCCCCCCCCCC(=O)[O-]
REMARK SMILES IDX 9 1 10 2 11 3 12 4 13 5 14 6 15 7 16 8 17 9 18 10 8 11 7 12
REMARK SMILES IDX 6 13 5 14 4 15 3 16 2 17 1 18
REMARK H PARENT
REMARK Flexibility Score: inf
ROOT
ATOM      1  C   UNL     1      -0.381 -28.280   6.030  1.00  0.00     0.000 C 
ENDROOT
BRANCH   1   2
ATOM      2  C   UNL     1      -0.311 -27.889   4.549  1.00  0.00     0.000 C 
BRANCH   2   3
ATOM      3  C   UNL     1      -0.612 -26.395   4.358  1.00  0.00     0.000 C 
BRANCH   3   4
ATOM      4  C   UNL     1      -1.676 -26.132   3.279  1.00  0.00     0.000 C 
BRANCH   4   5
ATOM      5  C   UNL     1      -1.665 -27.168   2.135  1.00  0.00     0.000 C 
BRANCH   5   6
ATOM      6  C   UNL     1      -1.406 -26.517   0.766  1.00  0.00     0.006 C 
BRANCH   6   7
ATOM      7  C   UNL     1      -2.509 -25.524   0.378  1.00  0.00     0.053 C 
BRANCH   7   8
ATOM      8  C   UNL     1      -1.941 -24.203  -0.040  1.00  0.00     0.041 C 
ATOM      9  O   UNL     1      -2.208 -23.728  -1.176  1.00  0.00    -0.550 OA
ATOM     10  O   UNL     1      -1.092 -23.509   0.813  1.00  0.00    -0.550 OA
ENDBRANCH   7   8
ENDBRANCH   6   7
ENDBRANCH   5   6
ENDBRANCH   4   5
ENDBRANCH   3   4
ENDBRANCH   2   3
ENDBRANCH   1   2
BRANCH   1  11
ATOM     11  C   UNL     1      -0.402 -27.032   6.925  1.00  0.00     0.000 C 
BRANCH  11  12
ATOM     12  C   UNL     1       0.532 -27.158   8.140  1.00  0.00    -0.000 C 
BRANCH  12  13
ATOM     13  C   UNL     1      -0.113 -26.652   9.439  1.00  0.00    -0.000 C 
BRANCH  13  14
ATOM     14  C   UNL     1      -1.578 -27.101   9.534  1.00  0.00    -0.000 C 
BRANCH  14  15
ATOM     15  C   UNL     1      -2.377 -26.316  10.590  1.00  0.00    -0.000 C 
BRANCH  15  16
ATOM     16  C   UNL     1      -3.845 -26.026  10.215  1.00  0.00    -0.000 C 
BRANCH  16  17
ATOM     17  C   UNL     1      -4.251 -24.543  10.274  1.00  0.00    -0.003 C 
ATOM     18  C   UNL     1      -3.910 -23.886  11.611  1.00  0.00     0.004 C 
ENDBRANCH  16  17
ENDBRANCH  15  16
ENDBRANCH  14  15
ENDBRANCH  13  14
ENDBRANCH  12  13
ENDBRANCH  11  12
ENDBRANCH   1  11
TORSDOF 14
ENDMDL
MODEL 3
REMARK VINA RESULT:    -5.711      3.058      7.193
REMARK INTER + INTRA:         -11.419
REMARK INTER:                  -9.788
REMARK INTRA:                  -1.631
REMARK UNBOUND:                -1.033
REMARK SMILES CCCCCCCCCCCCCCCC(=O)[O-]
REMARK SMILES IDX 9 1 10 2 11 3 12 4 13 5 14 6 15 7 16 8 17 9 18 10 8 11 7 12
REMARK SMILES IDX 6 13 5 14 4 15 3 16 2 17 1 18
REMARK H PARENT
REMARK Flexibility Score: inf
ROOT
ATOM      1  C   UNL     1       0.053 -29.405   5.232  1.00  0.00     0.000 C 
ENDROOT
BRANCH   1   2
ATOM      2  C   UNL     1      -0.006 -29.096   6.733  1.00  0.00     0.000 C 
BRANCH   2   3
ATOM      3  C   UNL     1      -0.534 -27.675   6.983  1.00  0.00     0.000 C 
BRANCH   3   4
ATOM      4  C   UNL     1       0.380 -26.850   7.903  1.00  0.00     0.000 C 
BRANCH   4   5
ATOM      5  C   UNL     1      -0.181 -26.672   9.330  1.00  0.00     0.000 C 
BRANCH   5   6
ATOM      6  C   UNL     1      -1.713 -26.805   9.372  1.00  0.00     0.006 C 
BRANCH   6   7
ATOM      7  C   UNL     1      -2.321 -26.117  10.601  1.00  0.00     0.053 C 
BRANCH   7   8
ATOM      8  C   UNL     1      -3.707 -25.621  10.325  1.00  0.00     0.041 C 
ATOM      9  O   UNL     1      -4.627 -26.432  10.039  1.00  0.00    -0.550 OA
ATOM     10  O   UNL     1      -3.977 -24.259  10.357  1.00  0.00    -0.550 OA
ENDBRANCH   7   8
ENDBRANCH   6   7
ENDBRANCH   5   6
ENDBRANCH   4   5
ENDBRANCH   3   4
ENDBRANCH   2   3
ENDBRANCH   1   2
BRANCH   1  11
ATOM     11  C   UNL     1       1.496 -29.325   4.712  1.00  0.00     0.000 C 
BRANCH  11  12
ATOM     12  C   UNL     1       1.623 -29.771   3.247  1.00  0.00    -0.000 C 
BRANCH  12  13
ATOM     13  C   UNL     1       0.262 -30.036   2.586  1.00  0.00    -0.000 C 
BRANCH  13  14
ATOM     14  C   UNL     1      -0.064 -28.951   1.551  1.00  0.00    -0.000 C 
BRANCH  14  15
ATOM     15  C   UNL     1      -1.324 -28.141   1.908  1.00  0.00    -0.000 C 
BRANCH  15  16
ATOM     16  C   UNL     1      -1.100 -26.995   2.915  1.00  0.00    -0.000 C 
BRANCH  16  17
ATOM     17  C   UNL     1       0.114 -26.098   2.619  1.00  0.00    -0.003 C 
ATOM     18  C   UNL     1       0.959 -25.811   3.860  1.00  0.00     0.004 C 
ENDBRANCH  16  17
ENDBRANCH  15  16
ENDBRANCH  14  15
ENDBRANCH  13  14
ENDBRANCH  12  13
ENDBRANCH  11  12
ENDBRANCH   1  11
TORSDOF 14
ENDMDL
MODEL 4
REMARK VINA RESULT:    -5.680      3.347      7.521
REMARK INTER + INTRA:         -11.362
REMARK INTER:                 -10.137
REMARK INTRA:                  -1.226
REMARK UNBOUND:                -1.033
REMARK SMILES CCCCCCCCCCCCCCCC(=O)[O-]
REMARK SMILES IDX 9 1 10 2 11 3 12 4 13 5 14 6 15 7 16 8 17 9 18 10 8 11 7 12
REMARK SMILES IDX 6 13 5 14 4 15 3 16 2 17 1 18
REMARK H PARENT
REMARK Flexibility Score: inf
ROOT
ATOM      1  C   UNL     1      -0.231 -28.783   6.375  1.00  0.00     0.000 C 
ENDROOT
BRANCH   1   2
ATOM      2  C   UNL     1       0.102 -27.290   6.480  1.00  0.00     0.000 C 
BRANCH   2   3
ATOM      3  C   UNL     1       0.351 -26.882   7.940  1.00  0.00     0.000 C 
BRANCH   3   4
ATOM      4  C   UNL     1      -0.915 -26.963   8.809  1.00  0.00     0.000 C 
BRANCH   4   5
ATOM      5  C   UNL     1      -0.712 -26.439  10.246  1.00  0.00     0.000 C 
BRANCH   5   6
ATOM      6  C   UNL     1      -2.048 -26.150  10.951  1.00  0.00     0.006 C 
BRANCH   6   7
ATOM      7  C   UNL     1      -3.206 -25.994   9.958  1.00  0.00     0.053 C 
BRANCH   7   8
ATOM      8  C   UNL     1      -4.469 -25.573  10.644  1.00  0.00     0.041 C 
ATOM      9  O   UNL     1      -5.382 -26.412  10.865  1.00  0.00    -0.550 OA
ATOM     10  O   UNL     1      -4.651 -24.246  11.013  1.00  0.00    -0.550 OA
ENDBRANCH   7   8
ENDBRANCH   6   7
ENDBRANCH   5   6
ENDBRANCH   4   5
ENDBRANCH   3   4
ENDBRANCH   2   3
ENDBRANCH   1   2
BRANCH   1  11
ATOM     11  C   UNL     1      -0.061 -29.282   4.932  1.00  0.00     0.000 C 
BRANCH  11  12
ATOM     12  C   UNL     1       1.409 -29.312   4.485  1.00  0.00    -0.000 C 
BRANCH  12  13
ATOM     13  C   UNL     1       1.576 -29.057   2.979  1.00  0.00    -0.000 C 
BRANCH  13  14
ATOM     14  C   UNL     1       0.293 -29.419   2.217  1.00  0.00    -0.000 C 
BRANCH  14  15
ATOM     15  C   UNL     1      -0.318 -28.218   1.471  1.00  0.00    -0.000 C 
BRANCH  15  16
ATOM     16  C   UNL     1      -1.717 -27.790   1.959  1.00  0.00    -0.000 C 
BRANCH  16  17
ATOM     17  C   UNL     1      -1.841 -26.310   2.360  1.00  0.00    -0.003 C 
ATOM     18  C   UNL     1      -0.684 -25.832   3.236  1.00  0.00     0.004 C 
ENDBRANCH  16  17
ENDBRANCH  15  16
ENDBRANCH  14  15
ENDBRANCH  13  14
ENDBRANCH  12  13
ENDBRANCH  11  12
ENDBRANCH   1  11
TORSDOF 14
ENDMDL
MODEL 5
REMARK VINA RESULT:    -5.668      1.335      1.914
REMARK INTER + INTRA:         -11.340
REMARK INTER:                 -10.177
REMARK INTRA:                  -1.163
REMARK UNBOUND:                -1.033
REMARK SMILES CCCCCCCCCCCCCCCC(=O)[O-]
REMARK SMILES IDX 9 1 10 2 11 3 12 4 13 5 14 6 15 7 16 8 17 9 18 10 8 11 7 12
REMARK SMILES IDX 6 13 5 14 4 15 3 16 2 17 1 18
REMARK H PARENT
REMARK Flexibility Score: inf
ROOT
ATOM      1  C   UNL     1      -0.486 -27.678   6.352  1.00  0.00     0.000 C 
ENDROOT
BRANCH   1   2
ATOM      2  C   UNL     1      -0.157 -29.104   5.894  1.00  0.00     0.000 C 
BRANCH   2   3
ATOM      3  C   UNL     1       0.277 -29.124   4.421  1.00  0.00     0.000 C 
BRANCH   3   4
ATOM      4  C   UNL     1      -0.390 -28.019   3.585  1.00  0.00     0.000 C 
BRANCH   4   5
ATOM      5  C   UNL     1       0.617 -27.087   2.878  1.00  0.00     0.000 C 
BRANCH   5   6
ATOM      6  C   UNL     1       0.439 -25.617   3.295  1.00  0.00     0.006 C 
BRANCH   6   7
ATOM      7  C   UNL     1      -1.016 -25.150   3.162  1.00  0.00     0.053 C 
BRANCH   7   8
ATOM      8  C   UNL     1      -1.385 -24.897   1.733  1.00  0.00     0.041 C 
ATOM      9  O   UNL     1      -0.712 -24.092   1.036  1.00  0.00    -0.550 OA
ATOM     10  O   UNL     1      -2.492 -25.528   1.178  1.00  0.00    -0.550 OA
ENDBRANCH   7   8
ENDBRANCH   6   7
ENDBRANCH   5   6
ENDBRANCH   4   5
ENDBRANCH   3   4
ENDBRANCH   2   3
ENDBRANCH   1   2
BRANCH   1  11
ATOM     11  C   UNL     1       0.751 -26.997   6.955  1.00  0.00     0.000 C 
BRANCH  11  12
ATOM     12  C   UNL     1       0.657 -26.840   8.481  1.00  0.00    -0.000 C 
BRANCH  12  13
ATOM     13  C   UNL     1      -0.794 -26.791   8.984  1.00  0.00    -0.000 C 
BRANCH  13  14
ATOM     14  C   UNL     1      -0.840 -26.661  10.513  1.00  0.00    -0.000 C 
BRANCH  14  15
ATOM     15  C   UNL     1      -2.072 -25.884  11.012  1.00  0.00    -0.000 C 
BRANCH  15  16
ATOM     16  C   UNL     1      -3.384 -26.188  10.259  1.00  0.00    -0.000 C 
BRANCH  16  17
ATOM     17  C   UNL     1      -4.349 -24.997  10.127  1.00  0.00    -0.003 C 
ATOM     18  C   UNL     1      -4.218 -23.995  11.273  1.00  0.00     0.004 C 
ENDBRANCH  16  17
ENDBRANCH  15  16
ENDBRANCH  14  15
ENDBRANCH  13  14
ENDBRANCH  12  13
ENDBRANCH  11  12
ENDBRANCH   1  11
TORSDOF 14
ENDMDL
MODEL 6
REMARK VINA RESULT:    -5.642      3.106      7.561
REMARK INTER + INTRA:         -11.292
REMARK INTER:                  -9.772
REMARK INTRA:                  -1.520
REMARK UNBOUND:                -1.033
REMARK SMILES CCCCCCCCCCCCCCCC(=O)[O-]
REMARK SMILES IDX 9 1 10 2 11 3 12 4 13 5 14 6 15 7 16 8 17 9 18 10 8 11 7 12
REMARK SMILES IDX 6 13 5 14 4 15 3 16 2 17 1 18
REMARK H PARENT
REMARK Flexibility Score: inf
ROOT
ATOM      1  C   UNL     1      -0.466 -28.605   5.670  1.00  0.00     0.000 C 
ENDROOT
BRANCH   1   2
ATOM      2  C   UNL     1      -0.260 -28.770   7.181  1.00  0.00     0.000 C 
BRANCH   2   3
ATOM      3  C   UNL     1       0.810 -27.799   7.702  1.00  0.00     0.000 C 
BRANCH   3   4
ATOM      4  C   UNL     1       0.234 -26.713   8.626  1.00  0.00     0.000 C 
BRANCH   4   5
ATOM      5  C   UNL     1      -1.289 -26.833   8.845  1.00  0.00     0.000 C 
BRANCH   5   6
ATOM      6  C   UNL     1      -1.645 -27.052  10.326  1.00  0.00     0.006 C 
BRANCH   6   7
ATOM      7  C   UNL     1      -2.213 -25.786  10.979  1.00  0.00     0.053 C 
BRANCH   7   8
ATOM      8  C   UNL     1      -3.584 -25.468  10.467  1.00  0.00     0.041 C 
ATOM      9  O   UNL     1      -3.919 -24.273  10.250  1.00  0.00    -0.550 OA
ATOM     10  O   UNL     1      -4.502 -26.489  10.257  1.00  0.00    -0.550 OA
ENDBRANCH   7   8
ENDBRANCH   6   7
ENDBRANCH   5   6
ENDBRANCH   4   5
ENDBRANCH   3   4
ENDBRANCH   2   3
ENDBRANCH   1   2
BRANCH   1  11
ATOM     11  C   UNL     1       0.154 -27.290   5.174  1.00  0.00     0.000 C 
BRANCH  11  12
ATOM     12  C   UNL     1      -0.890 -26.329   4.584  1.00  0.00    -0.000 C 
BRANCH  12  13
ATOM     13  C   UNL     1      -0.694 -26.090   3.079  1.00  0.00    -0.000 C 
BRANCH  13  14
ATOM     14  C   UNL     1      -1.884 -26.637   2.278  1.00  0.00    -0.000 C 
BRANCH  14  15
ATOM     15  C   UNL     1      -1.599 -28.010   1.643  1.00  0.00    -0.000 C 
BRANCH  15  16
ATOM     16  C   UNL     1      -0.109 -28.403   1.580  1.00  0.00    -0.000 C 
BRANCH  16  17
ATOM     17  C   UNL     1       0.198 -29.855   1.988  1.00  0.00    -0.003 C 
ATOM     18  C   UNL     1       1.462 -29.979   2.839  1.00  0.00     0.004 C 
ENDBRANCH  16  17
ENDBRANCH  15  16
ENDBRANCH  14  15
ENDBRANCH  13  14
ENDBRANCH  12  13
ENDBRANCH  11  12
ENDBRANCH   1  11
TORSDOF 14
ENDMDL
MODEL 7
REMARK VINA RESULT:    -5.594      1.855      3.103
REMARK INTER + INTRA:         -11.205
REMARK INTER:                  -9.555
REMARK INTRA:                  -1.651
REMARK UNBOUND:                -1.033
REMARK SMILES CCCCCCCCCCCCCCCC(=O)[O-]
REMARK SMILES IDX 9 1 10 2 11 3 12 4 13 5 14 6 15 7 16 8 17 9 18 10 8 11 7 12
REMARK SMILES IDX 6 13 5 14 4 15 3 16 2 17 1 18
REMARK H PARENT
REMARK Flexibility Score: inf
ROOT
ATOM      1  C   UNL     1       1.705 -29.289   3.551  1.00  0.00     0.000 C 
ENDROOT
BRANCH   1   2
ATOM      2  C   UNL     1       0.807 -30.286   2.809  1.00  0.00     0.000 C 
BRANCH   2   3
ATOM      3  C   UNL     1       0.157 -29.635   1.580  1.00  0.00     0.000 C 
BRANCH   3   4
ATOM      4  C   UNL     1      -0.179 -28.150   1.796  1.00  0.00     0.000 C 
BRANCH   4   5
ATOM      5  C   UNL     1      -1.682 -27.884   2.027  1.00  0.00     0.000 C 
BRANCH   5   6
ATOM      6  C   UNL     1      -2.031 -26.390   1.910  1.00  0.00     0.006 C 
BRANCH   6   7
ATOM      7  C   UNL     1      -2.170 -25.941   0.450  1.00  0.00     0.053 C 
BRANCH   7   8
ATOM      8  C   UNL     1      -2.019 -24.457   0.312  1.00  0.00     0.041 C 
ATOM      9  O   UNL     1      -1.644 -23.764   1.294  1.00  0.00    -0.550 OA
ATOM     10  O   UNL     1      -2.320 -23.836  -0.893  1.00  0.00    -0.550 OA
ENDBRANCH   7   8
ENDBRANCH   6   7
ENDBRANCH   5   6
ENDBRANCH   4   5
ENDBRANCH   3   4
ENDBRANCH   2   3
ENDBRANCH   1   2
BRANCH   1  11
ATOM     11  C   UNL     1       1.431 -29.323   5.062  1.00  0.00     0.000 C 
BRANCH  11  12
ATOM     12  C   UNL     1      -0.055 -29.118   5.399  1.00  0.00    -0.000 C 
BRANCH  12  13
ATOM     13  C   UNL     1      -0.407 -27.646   5.659  1.00  0.00    -0.000 C 
BRANCH  13  14
ATOM     14  C   UNL     1       0.774 -26.907   6.306  1.00  0.00    -0.000 C 
BRANCH  14  15
ATOM     15  C   UNL     1       0.715 -26.916   7.845  1.00  0.00    -0.000 C 
BRANCH  15  16
ATOM     16  C   UNL     1      -0.707 -26.906   8.443  1.00  0.00    -0.000 C 
BRANCH  16  17
ATOM     17  C   UNL     1      -0.953 -27.946   9.551  1.00  0.00    -0.003 C 
ATOM     18  C   UNL     1      -0.534 -29.358   9.145  1.00  0.00     0.004 C 
ENDBRANCH  16  17
ENDBRANCH  15  16
ENDBRANCH  14  15
ENDBRANCH  13  14
ENDBRANCH  12  13
ENDBRANCH  11  12
ENDBRANCH   1  11
TORSDOF 14
ENDMDL
MODEL 8
REMARK VINA RESULT:    -5.476      1.875      3.960
REMARK INTER + INTRA:         -10.990
REMARK INTER:                  -9.085
REMARK INTRA:                  -1.905
REMARK UNBOUND:                -1.033
REMARK SMILES CCCCCCCCCCCCCCCC(=O)[O-]
REMARK SMILES IDX 9 1 10 2 11 3 12 4 13 5 14 6 15 7 16 8 17 9 18 10 8 11 7 12
REMARK SMILES IDX 6 13 5 14 4 15 3 16 2 17 1 18
REMARK H PARENT
REMARK Flexibility Score: inf
ROOT
ATOM      1  C   UNL     1       0.204 -29.305   2.184  1.00  0.00     0.000 C 
ENDROOT
BRANCH   1   2
ATOM      2  C   UNL     1      -0.445 -28.122   1.454  1.00  0.00     0.000 C 
BRANCH   2   3
ATOM      3  C   UNL     1      -1.678 -27.614   2.215  1.00  0.00     0.000 C 
BRANCH   3   4
ATOM      4  C   UNL     1      -1.468 -26.223   2.837  1.00  0.00     0.000 C 
BRANCH   4   5
ATOM      5  C   UNL     1      -0.113 -25.582   2.471  1.00  0.00     0.000 C 
BRANCH   5   6
ATOM      6  C   UNL     1      -0.266 -24.455   1.436  1.00  0.00     0.006 C 
BRANCH   6   7
ATOM      7  C   UNL     1      -1.707 -24.327   0.927  1.00  0.00     0.053 C 
BRANCH   7   8
ATOM      8  C   UNL     1      -1.845 -24.833  -0.475  1.00  0.00     0.041 C 
ATOM      9  O   UNL     1      -1.169 -24.319  -1.405  1.00  0.00    -0.550 OA
ATOM     10  O   UNL     1      -2.741 -25.856  -0.761  1.00  0.00    -0.550 OA
ENDBRANCH   7   8
ENDBRANCH   6   7
ENDBRANCH   5   6
ENDBRANCH   4   5
ENDBRANCH   3   4
ENDBRANCH   2   3
ENDBRANCH   1   2
BRANCH   1  11
ATOM     11  C   UNL     1       1.556 -28.900   2.790  1.00  0.00     0.000 C 
BRANCH  11  12
ATOM     12  C   UNL     1       1.491 -28.719   4.315  1.00  0.00    -0.000 C 
BRANCH  12  13
ATOM     13  C   UNL     1       0.334 -29.500   4.957  1.00  0.00    -0.000 C 
BRANCH  13  14
ATOM     14  C   UNL     1      -0.448 -28.614   5.936  1.00  0.00    -0.000 C 
BRANCH  14  15
ATOM     15  C   UNL     1       0.129 -27.191   6.048  1.00  0.00    -0.000 C 
BRANCH  15  16
ATOM     16  C   UNL     1       0.903 -26.900   7.350  1.00  0.00    -0.000 C 
BRANCH  16  17
ATOM     17  C   UNL     1       0.254 -27.456   8.630  1.00  0.00    -0.003 C 
ATOM     18  C   UNL     1      -1.056 -26.754   8.987  1.00  0.00     0.004 C 
ENDBRANCH  16  17
ENDBRANCH  15  16
ENDBRANCH  14  15
ENDBRANCH  13  14
ENDBRANCH  12  13
ENDBRANCH  11  12
ENDBRANCH   1  11
TORSDOF 14
ENDMDL
MODEL 9
REMARK VINA RESULT:    -5.333      3.079      6.957
REMARK INTER + INTRA:         -10.730
REMARK INTER:                  -9.231
REMARK INTRA:                  -1.499
REMARK UNBOUND:                -1.033
REMARK SMILES CCCCCCCCCCCCCCCC(=O)[O-]
REMARK SMILES IDX 9 1 10 2 11 3 12 4 13 5 14 6 15 7 16 8 17 9 18 10 8 11 7 12
REMARK SMILES IDX 6 13 5 14 4 15 3 16 2 17 1 18
REMARK H PARENT
REMARK Flexibility Score: inf
ROOT
ATOM      1  C   UNL     1       1.638 -29.405   2.915  1.00  0.00     0.000 C 
ENDROOT
BRANCH   1   2
ATOM      2  C   UNL     1       1.263 -28.769   4.259  1.00  0.00     0.000 C 
BRANCH   2   3
ATOM      3  C   UNL     1       0.087 -29.511   4.911  1.00  0.00     0.000 C 
BRANCH   3   4
ATOM      4  C   UNL     1      -0.138 -29.106   6.378  1.00  0.00     0.000 C 
BRANCH   4   5
ATOM      5  C   UNL     1       0.442 -27.721   6.731  1.00  0.00     0.000 C 
BRANCH   5   6
ATOM      6  C   UNL     1      -0.501 -26.913   7.639  1.00  0.00     0.006 C 
BRANCH   6   7
ATOM      7  C   UNL     1       0.066 -26.737   9.054  1.00  0.00     0.053 C 
BRANCH   7   8
ATOM      8  C   UNL     1      -1.023 -26.564  10.067  1.00  0.00     0.041 C 
ATOM      9  O   UNL     1      -2.225 -26.763   9.748  1.00  0.00    -0.550 OA
ATOM     10  O   UNL     1      -0.713 -26.156  11.359  1.00  0.00    -0.550 OA
ENDBRANCH   7   8
ENDBRANCH   6   7
ENDBRANCH   5   6
ENDBRANCH   4   5
ENDBRANCH   3   4
ENDBRANCH   2   3
ENDBRANCH   1   2
BRANCH   1  11
ATOM     11  C   UNL     1       0.387 -29.662   2.062  1.00  0.00     0.000 C 
BRANCH  11  12
ATOM     12  C   UNL     1      -0.187 -28.374   1.449  1.00  0.00    -0.000 C 
BRANCH  12  13
ATOM     13  C   UNL     1      -1.631 -28.098   1.894  1.00  0.00    -0.000 C 
BRANCH  13  14
ATOM     14  C   UNL     1      -2.091 -26.709   1.429  1.00  0.00    -0.000 C 
BRANCH  14  15
ATOM     15  C   UNL     1      -0.935 -25.842   0.898  1.00  0.00    -0.000 C 
BRANCH  15  16
ATOM     16  C   UNL     1      -0.550 -24.647   1.793  1.00  0.00    -0.000 C 
BRANCH  16  17
ATOM     17  C   UNL     1      -0.167 -25.014   3.238  1.00  0.00    -0.003 C 
ATOM     18  C   UNL     1       1.329 -25.272   3.410  1.00  0.00     0.004 C 
ENDBRANCH  16  17
ENDBRANCH  15  16
ENDBRANCH  14  15
ENDBRANCH  13  14
ENDBRANCH  12  13
ENDBRANCH  11  12
ENDBRANCH   1  11
TORSDOF 14
ENDMDL
