MODEL 1
REMARK VINA RESULT:    -3.740      0.000      0.000
REMARK INTER + INTRA:          -4.841
REMARK INTER:                  -5.271
REMARK INTRA:                   0.430
REMARK UNBOUND:                 0.430
REMARK SMILES CC1=CCC(=C(C)C)C(=O)CC(C)=CCC1
REMARK SMILES IDX 12 1 14 2 13 3 15 4 16 5 2 6 1 7 3 8 11 10 9 11 10 12 5 13
REMARK SMILES IDX 6 14 7 15 8 16 4 17
REMARK H PARENT
REMARK Flexibility Score: 60.00
ROOT
ATOM      1  C   UNL     1      10.136  28.312  15.011  1.00  0.00    -0.070 C 
ATOM      2  C   UNL     1      10.067  29.532  15.594  1.00  0.00    -0.027 C 
ATOM      3  C   UNL     1      11.504  27.701  14.836  1.00  0.00     0.039 C 
ENDROOT
BRANCH   2   4
ATOM      4  C   UNL     1       8.824  30.369  15.772  1.00  0.00     0.032 C 
BRANCH   4   5
ATOM      5  C   UNL     1       8.194  30.206  17.168  1.00  0.00     0.034 C 
BRANCH   5   6
ATOM      6  C   UNL     1       6.741  29.781  17.095  1.00  0.00    -0.077 C 
ATOM      7  C   UNL     1       5.696  30.842  16.865  1.00  0.00     0.039 C 
ATOM      8  C   UNL     1       6.328  28.497  17.196  1.00  0.00    -0.023 CG0
ATOM      9  G   UNL     1       7.221  27.296  17.392  1.00  0.00     0.000 G0
ENDBRANCH   5   6
ENDBRANCH   4   5
ENDBRANCH   2   4
BRANCH   1  10
ATOM     10  C   UNL     1       8.928  27.565  14.469  1.00  0.00     0.111 C 
BRANCH  10  11
ATOM     11  C   UNL     1       8.541  26.415  15.365  1.00  0.00     0.163 C 
ATOM     12  O   UNL     1       9.348  25.453  15.477  1.00  0.00    -0.294 OA
BRANCH  11  13
ATOM     13  C   UNL     1       7.266  26.414  16.149  1.00  0.00    -0.002 C 
ATOM     14  C   UNL     1       6.161  25.728  15.725  1.00  0.00    -0.069 C 
ATOM     15  C   UNL     1       6.143  24.994  14.403  1.00  0.00     0.039 C 
ATOM     16  C   UNL     1       4.888  25.702  16.543  1.00  0.00     0.039 C 
BRANCH  13  17
ATOM     17  C   UNL     1       7.227  27.271  17.401  1.00  0.00     0.066 CG0
ATOM     18  G   UNL     1       6.351  28.478  17.168  1.00  0.00     0.000 G0
ENDBRANCH  13  17
ENDBRANCH  11  13
ENDBRANCH  10  11
ENDBRANCH   1  10
TORSDOF 0
ENDMDL
MODEL 2
REMARK VINA RESULT:    -3.498      1.742      4.095
REMARK INTER + INTRA:          -4.500
REMARK INTER:                  -5.131
REMARK INTRA:                   0.630
REMARK UNBOUND:                 0.430
REMARK SMILES CC1=CCC(=C(C)C)C(=O)CC(C)=CCC1
REMARK SMILES IDX 12 1 14 2 13 3 15 4 16 5 2 6 1 7 3 8 11 10 9 11 10 12 5 13
REMARK SMILES IDX 6 14 7 15 8 16 4 17
REMARK H PARENT
REMARK Flexibility Score: 60.00
ROOT
ATOM      1  C   UNL     1       5.758  27.505  16.914  1.00  0.00    -0.070 C 
ATOM      2  C   UNL     1       5.229  28.672  17.350  1.00  0.00    -0.027 C 
ATOM      3  C   UNL     1       4.799  26.398  16.553  1.00  0.00     0.039 C 
ENDROOT
BRANCH   2   4
ATOM      4  C   UNL     1       5.998  29.866  17.862  1.00  0.00     0.032 C 
BRANCH   4   5
ATOM      5  C   UNL     1       5.836  31.106  16.961  1.00  0.00     0.034 C 
BRANCH   5   6
ATOM      6  C   UNL     1       5.877  30.752  15.488  1.00  0.00    -0.077 C 
ATOM      7  C   UNL     1       4.624  30.942  14.671  1.00  0.00     0.039 C 
ATOM      8  C   UNL     1       6.983  30.300  14.855  1.00  0.00    -0.023 CG0
ATOM      9  G   UNL     1       8.334  30.078  15.490  1.00  0.00     0.000 G0
ENDBRANCH   5   6
ENDBRANCH   4   5
ENDBRANCH   2   4
BRANCH   1  10
ATOM     10  C   UNL     1       7.252  27.232  16.834  1.00  0.00     0.111 C 
BRANCH  10  11
ATOM     11  C   UNL     1       7.801  27.550  15.465  1.00  0.00     0.163 C 
ATOM     12  O   UNL     1       7.355  26.899  14.482  1.00  0.00    -0.294 OA
BRANCH  11  13
ATOM     13  C   UNL     1       8.805  28.636  15.247  1.00  0.00    -0.002 C 
ATOM     14  C   UNL     1      10.100  28.360  14.902  1.00  0.00    -0.069 C 
ATOM     15  C   UNL     1      10.606  26.939  14.794  1.00  0.00     0.039 C 
ATOM     16  C   UNL     1      11.101  29.467  14.646  1.00  0.00     0.039 C 
BRANCH  13  17
ATOM     17  C   UNL     1       8.346  30.061  15.499  1.00  0.00     0.066 CG0
ATOM     18  G   UNL     1       6.997  30.285  14.860  1.00  0.00     0.000 G0
ENDBRANCH  13  17
ENDBRANCH  11  13
ENDBRANCH  10  11
ENDBRANCH   1  10
TORSDOF 0
ENDMDL
MODEL 3
REMARK VINA RESULT:    -3.410     13.910     15.744
REMARK INTER + INTRA:          -4.376
REMARK INTER:                  -4.748
REMARK INTRA:                   0.371
REMARK UNBOUND:                 0.430
REMARK SMILES CC1=CCC(=C(C)C)C(=O)CC(C)=CCC1
REMARK SMILES IDX 12 1 14 2 13 3 15 4 16 5 2 6 1 7 3 8 11 10 9 11 10 12 5 13
REMARK SMILES IDX 6 14 7 15 8 16 4 17
REMARK H PARENT
REMARK Flexibility Score: 60.00
ROOT
ATOM      1  C   UNL     1      16.159  16.500  15.202  1.00  0.00    -0.070 C 
ATOM      2  C   UNL     1      17.308  15.802  15.357  1.00  0.00    -0.027 C 
ATOM      3  C   UNL     1      16.121  17.907  15.747  1.00  0.00     0.039 C 
ENDROOT
BRANCH   2   4
ATOM      4  C   UNL     1      17.531  14.356  14.986  1.00  0.00     0.032 C 
BRANCH   4   5
ATOM      5  C   UNL     1      16.875  13.381  15.982  1.00  0.00     0.034 C 
BRANCH   5   6
ATOM      6  C   UNL     1      16.102  12.281  15.281  1.00  0.00    -0.077 C 
ATOM      7  C   UNL     1      16.861  11.319  14.405  1.00  0.00     0.039 C 
ATOM      8  C   UNL     1      14.769  12.096  15.418  1.00  0.00    -0.023 CG0
ATOM      9  G   UNL     1      13.846  12.929  16.274  1.00  0.00     0.000 G0
ENDBRANCH   5   6
ENDBRANCH   4   5
ENDBRANCH   2   4
BRANCH   1  10
ATOM     10  C   UNL     1      14.898  15.925  14.577  1.00  0.00     0.111 C 
BRANCH  10  11
ATOM     11  C   UNL     1      13.945  15.410  15.627  1.00  0.00     0.163 C 
ATOM     12  O   UNL     1      13.694  16.153  16.615  1.00  0.00    -0.294 OA
BRANCH  11  13
ATOM     13  C   UNL     1      13.263  14.085  15.498  1.00  0.00    -0.002 C 
ATOM     14  C   UNL     1      12.126  13.930  14.754  1.00  0.00    -0.069 C 
ATOM     15  C   UNL     1      11.453  15.106  14.081  1.00  0.00     0.039 C 
ATOM     16  C   UNL     1      11.464  12.578  14.597  1.00  0.00     0.039 C 
BRANCH  13  17
ATOM     17  C   UNL     1      13.847  12.930  16.291  1.00  0.00     0.066 CG0
ATOM     18  G   UNL     1      14.770  12.120  15.413  1.00  0.00     0.000 G0
ENDBRANCH  13  17
ENDBRANCH  11  13
ENDBRANCH  10  11
ENDBRANCH   1  10
TORSDOF 0
ENDMDL
MODEL 4
REMARK VINA RESULT:    -3.162      1.962      4.634
REMARK INTER + INTRA:          -4.026
REMARK INTER:                  -4.429
REMARK INTRA:                   0.404
REMARK UNBOUND:                 0.430
REMARK SMILES CC1=CCC(=C(C)C)C(=O)CC(C)=CCC1
REMARK SMILES IDX 12 1 14 2 13 3 15 4 16 5 2 6 1 7 3 8 11 10 9 11 10 12 5 13
REMARK SMILES IDX 6 14 7 15 8 16 4 17
REMARK H PARENT
REMARK Flexibility Score: 60.00
ROOT
ATOM      1  C   UNL     1       4.187  25.893  16.055  1.00  0.00    -0.070 C 
ATOM      2  C   UNL     1       2.944  26.392  16.247  1.00  0.00    -0.027 C 
ATOM      3  C   UNL     1       4.428  24.455  16.446  1.00  0.00     0.039 C 
ENDROOT
BRANCH   2   4
ATOM      4  C   UNL     1       2.511  27.821  16.028  1.00  0.00     0.032 C 
BRANCH   4   5
ATOM      5  C   UNL     1       2.998  28.766  17.142  1.00  0.00     0.034 C 
BRANCH   5   6
ATOM      6  C   UNL     1       3.725  29.976  16.590  1.00  0.00    -0.077 C 
ATOM      7  C   UNL     1       2.949  30.948  15.737  1.00  0.00     0.039 C 
ATOM      8  C   UNL     1       5.025  30.251  16.840  1.00  0.00    -0.023 CG0
ATOM      9  G   UNL     1       5.953  29.421  17.694  1.00  0.00     0.000 G0
ENDBRANCH   5   6
ENDBRANCH   4   5
ENDBRANCH   2   4
BRANCH   1  10
ATOM     10  C   UNL     1       5.357  26.714  15.536  1.00  0.00     0.111 C 
BRANCH  10  11
ATOM     11  C   UNL     1       6.298  27.102  16.650  1.00  0.00     0.163 C 
ATOM     12  O   UNL     1       6.704  26.195  17.426  1.00  0.00    -0.294 OA
BRANCH  11  13
ATOM     13  C   UNL     1       6.792  28.504  16.819  1.00  0.00    -0.002 C 
ATOM     14  C   UNL     1       7.969  28.924  16.263  1.00  0.00    -0.069 C 
ATOM     15  C   UNL     1       8.874  27.974  15.511  1.00  0.00     0.039 C 
ATOM     16  C   UNL     1       8.442  30.355  16.408  1.00  0.00     0.039 C 
BRANCH  13  17
ATOM     17  C   UNL     1       5.965  29.425  17.698  1.00  0.00     0.066 CG0
ATOM     18  G   UNL     1       5.039  30.255  16.843  1.00  0.00     0.000 G0
ENDBRANCH  13  17
ENDBRANCH  11  13
ENDBRANCH  10  11
ENDBRANCH   1  10
TORSDOF 0
ENDMDL
MODEL 5
REMARK VINA RESULT:    -3.110     13.103     15.041
REMARK INTER + INTRA:          -3.953
REMARK INTER:                  -4.329
REMARK INTRA:                   0.376
REMARK UNBOUND:                 0.430
REMARK SMILES CC1=CCC(=C(C)C)C(=O)CC(C)=CCC1
REMARK SMILES IDX 12 1 14 2 13 3 15 4 16 5 2 6 1 7 3 8 11 10 9 11 10 12 5 13
REMARK SMILES IDX 6 14 7 15 8 16 4 17
REMARK H PARENT
REMARK Flexibility Score: 60.00
ROOT
ATOM      1  C   UNL     1      11.623  13.643  13.888  1.00  0.00    -0.070 C 
ATOM      2  C   UNL     1      11.259  14.923  13.641  1.00  0.00    -0.027 C 
ATOM      3  C   UNL     1      10.525  12.654  14.191  1.00  0.00     0.039 C 
ENDROOT
BRANCH   2   4
ATOM      4  C   UNL     1      12.191  16.091  13.421  1.00  0.00     0.032 C 
BRANCH   4   5
ATOM      5  C   UNL     1      12.696  16.703  14.741  1.00  0.00     0.034 C 
BRANCH   5   6
ATOM      6  C   UNL     1      14.178  17.019  14.695  1.00  0.00    -0.077 C 
ATOM      7  C   UNL     1      14.640  18.155  13.819  1.00  0.00     0.039 C 
ATOM      8  C   UNL     1      15.109  16.357  15.418  1.00  0.00    -0.023 CG0
ATOM      9  G   UNL     1      14.840  15.220  16.374  1.00  0.00     0.000 G0
ENDBRANCH   5   6
ENDBRANCH   4   5
ENDBRANCH   2   4
BRANCH   1  10
ATOM     10  C   UNL     1      13.067  13.170  13.941  1.00  0.00     0.111 C 
BRANCH  10  11
ATOM     11  C   UNL     1      13.615  13.222  15.345  1.00  0.00     0.163 C 
ATOM     12  O   UNL     1      12.963  12.645  16.258  1.00  0.00    -0.294 OA
BRANCH  11  13
ATOM     13  C   UNL     1      14.917  13.885  15.664  1.00  0.00    -0.002 C 
ATOM     14  C   UNL     1      16.116  13.290  15.383  1.00  0.00    -0.069 C 
ATOM     15  C   UNL     1      16.192  11.896  14.802  1.00  0.00     0.039 C 
ATOM     16  C   UNL     1      17.429  13.986  15.675  1.00  0.00     0.039 C 
BRANCH  13  17
ATOM     17  C   UNL     1      14.852  15.220  16.385  1.00  0.00     0.066 CG0
ATOM     18  G   UNL     1      15.100  16.343  15.406  1.00  0.00     0.000 G0
ENDBRANCH  13  17
ENDBRANCH  11  13
ENDBRANCH  10  11
ENDBRANCH   1  10
TORSDOF 0
ENDMDL
MODEL 6
REMARK VINA RESULT:    -3.049      1.682      4.034
REMARK INTER + INTRA:          -3.867
REMARK INTER:                  -4.499
REMARK INTRA:                   0.631
REMARK UNBOUND:                 0.430
REMARK SMILES CC1=CCC(=C(C)C)C(=O)CC(C)=CCC1
REMARK SMILES IDX 12 1 14 2 13 3 15 4 16 5 2 6 1 7 3 8 11 10 9 11 10 12 5 13
REMARK SMILES IDX 6 14 7 15 8 16 4 17
REMARK H PARENT
REMARK Flexibility Score: 60.00
ROOT
ATOM      1  C   UNL     1       6.720  26.534  16.100  1.00  0.00    -0.070 C 
ATOM      2  C   UNL     1       6.317  27.662  16.729  1.00  0.00    -0.027 C 
ATOM      3  C   UNL     1       5.650  25.587  15.614  1.00  0.00     0.039 C 
ENDROOT
BRANCH   2   4
ATOM      4  C   UNL     1       7.209  28.688  17.385  1.00  0.00     0.032 C 
BRANCH   4   5
ATOM      5  C   UNL     1       7.020  30.100  16.797  1.00  0.00     0.034 C 
BRANCH   5   6
ATOM      6  C   UNL     1       7.247  30.131  15.299  1.00  0.00    -0.077 C 
ATOM      7  C   UNL     1       6.149  30.673  14.420  1.00  0.00     0.039 C 
ATOM      8  C   UNL     1       8.392  29.726  14.704  1.00  0.00    -0.023 CG0
ATOM      9  G   UNL     1       9.612  29.189  15.414  1.00  0.00     0.000 G0
ENDBRANCH   5   6
ENDBRANCH   4   5
ENDBRANCH   2   4
BRANCH   1  10
ATOM     10  C   UNL     1       8.178  26.143  15.920  1.00  0.00     0.111 C 
BRANCH  10  11
ATOM     11  C   UNL     1       8.801  26.854  14.744  1.00  0.00     0.163 C 
ATOM     12  O   UNL     1       8.296  26.668  13.603  1.00  0.00    -0.294 OA
BRANCH  11  13
ATOM     13  C   UNL     1       9.951  27.796  14.906  1.00  0.00    -0.002 C 
ATOM     14  C   UNL     1      11.242  27.403  14.678  1.00  0.00    -0.069 C 
ATOM     15  C   UNL     1      11.583  25.974  14.322  1.00  0.00     0.039 C 
ATOM     16  C   UNL     1      12.396  28.374  14.808  1.00  0.00     0.039 C 
BRANCH  13  17
ATOM     17  C   UNL     1       9.632  29.193  15.409  1.00  0.00     0.066 CG0
ATOM     18  G   UNL     1       8.404  29.721  14.707  1.00  0.00     0.000 G0
ENDBRANCH  13  17
ENDBRANCH  11  13
ENDBRANCH  10  11
ENDBRANCH   1  10
TORSDOF 0
ENDMDL
MODEL 7
REMARK VINA RESULT:    -3.021      2.027      4.681
REMARK INTER + INTRA:          -3.827
REMARK INTER:                  -4.588
REMARK INTRA:                   0.760
REMARK UNBOUND:                 0.430
REMARK SMILES CC1=CCC(=C(C)C)C(=O)CC(C)=CCC1
REMARK SMILES IDX 12 1 14 2 13 3 15 4 16 5 2 6 1 7 3 8 11 10 9 11 10 12 5 13
REMARK SMILES IDX 6 14 7 15 8 16 4 17
REMARK H PARENT
REMARK Flexibility Score: 60.00
ROOT
ATOM      1  C   UNL     1       6.645  26.765  16.283  1.00  0.00    -0.070 C 
ATOM      2  C   UNL     1       7.424  26.006  15.476  1.00  0.00    -0.027 C 
ATOM      3  C   UNL     1       5.157  26.746  16.032  1.00  0.00     0.039 C 
ENDROOT
BRANCH   2   4
ATOM      4  C   UNL     1       8.932  25.957  15.479  1.00  0.00     0.032 C 
BRANCH   4   5
ATOM      5  C   UNL     1       9.548  26.584  14.214  1.00  0.00     0.034 C 
BRANCH   5   6
ATOM      6  C   UNL     1      10.090  27.977  14.471  1.00  0.00    -0.077 C 
ATOM      7  C   UNL     1      11.572  28.139  14.688  1.00  0.00     0.039 C 
ATOM      8  C   UNL     1       9.321  29.089  14.490  1.00  0.00    -0.023 CG0
ATOM      9  G   UNL     1       7.830  29.136  14.260  1.00  0.00     0.000 G0
ENDBRANCH   5   6
ENDBRANCH   4   5
ENDBRANCH   2   4
BRANCH   1  10
ATOM     10  C   UNL     1       7.191  27.676  17.371  1.00  0.00     0.111 C 
BRANCH  10  11
ATOM     11  C   UNL     1       7.623  29.009  16.812  1.00  0.00     0.163 C 
ATOM     12  O   UNL     1       8.494  29.663  17.446  1.00  0.00    -0.294 OA
BRANCH  11  13
ATOM     13  C   UNL     1       7.087  29.537  15.519  1.00  0.00    -0.002 C 
ATOM     14  C   UNL     1       5.952  30.299  15.468  1.00  0.00    -0.069 C 
ATOM     15  C   UNL     1       5.135  30.588  16.707  1.00  0.00     0.039 C 
ATOM     16  C   UNL     1       5.438  30.862  14.160  1.00  0.00     0.039 C 
BRANCH  13  17
ATOM     17  C   UNL     1       7.816  29.128  14.252  1.00  0.00     0.066 CG0
ATOM     18  G   UNL     1       9.304  29.094  14.506  1.00  0.00     0.000 G0
ENDBRANCH  13  17
ENDBRANCH  11  13
ENDBRANCH  10  11
ENDBRANCH   1  10
TORSDOF 0
ENDMDL
MODEL 8
REMARK VINA RESULT:    -3.017     13.521     15.796
REMARK INTER + INTRA:          -3.823
REMARK INTER:                  -4.641
REMARK INTRA:                   0.818
REMARK UNBOUND:                 0.430
REMARK SMILES CC1=CCC(=C(C)C)C(=O)CC(C)=CCC1
REMARK SMILES IDX 12 1 14 2 13 3 15 4 16 5 2 6 1 7 3 8 11 10 9 11 10 12 5 13
REMARK SMILES IDX 6 14 7 15 8 16 4 17
REMARK H PARENT
REMARK Flexibility Score: 60.00
ROOT
ATOM      1  C   UNL     1      13.044  14.529  15.449  1.00  0.00    -0.070 C 
ATOM      2  C   UNL     1      13.489  13.289  15.762  1.00  0.00    -0.027 C 
ATOM      3  C   UNL     1      11.842  14.629  14.542  1.00  0.00     0.039 C 
ENDROOT
BRANCH   2   4
ATOM      4  C   UNL     1      14.727  12.959  16.560  1.00  0.00     0.032 C 
BRANCH   4   5
ATOM      5  C   UNL     1      15.806  12.255  15.715  1.00  0.00     0.034 C 
BRANCH   5   6
ATOM      6  C   UNL     1      15.989  12.909  14.360  1.00  0.00    -0.077 C 
ATOM      7  C   UNL     1      15.535  12.157  13.135  1.00  0.00     0.039 C 
ATOM      8  C   UNL     1      16.512  14.144  14.187  1.00  0.00    -0.023 CG0
ATOM      9  G   UNL     1      16.989  15.062  15.286  1.00  0.00     0.000 G0
ENDBRANCH   5   6
ENDBRANCH   4   5
ENDBRANCH   2   4
BRANCH   1  10
ATOM     10  C   UNL     1      13.725  15.810  15.903  1.00  0.00     0.111 C 
BRANCH  10  11
ATOM     11  C   UNL     1      14.748  16.280  14.898  1.00  0.00     0.163 C 
ATOM     12  O   UNL     1      14.340  16.639  13.761  1.00  0.00    -0.294 OA
BRANCH  11  13
ATOM     13  C   UNL     1      16.203  16.375  15.233  1.00  0.00    -0.002 C 
ATOM     14  C   UNL     1      16.821  17.581  15.417  1.00  0.00    -0.069 C 
ATOM     15  C   UNL     1      16.086  18.888  15.218  1.00  0.00     0.039 C 
ATOM     16  C   UNL     1      18.285  17.667  15.793  1.00  0.00     0.039 C 
BRANCH  13  17
ATOM     17  C   UNL     1      16.985  15.075  15.287  1.00  0.00     0.066 CG0
ATOM     18  G   UNL     1      16.522  14.153  14.184  1.00  0.00     0.000 G0
ENDBRANCH  13  17
ENDBRANCH  11  13
ENDBRANCH  10  11
ENDBRANCH   1  10
TORSDOF 0
ENDMDL
MODEL 9
REMARK VINA RESULT:    -2.987      2.107      4.007
REMARK INTER + INTRA:          -3.779
REMARK INTER:                  -4.193
REMARK INTRA:                   0.413
REMARK UNBOUND:                 0.430
REMARK SMILES CC1=CCC(=C(C)C)C(=O)CC(C)=CCC1
REMARK SMILES IDX 12 1 14 2 13 3 15 4 16 5 2 6 1 7 3 8 11 10 9 11 10 12 5 13
REMARK SMILES IDX 6 14 7 15 8 16 4 17
REMARK H PARENT
REMARK Flexibility Score: 60.00
ROOT
ATOM      1  C   UNL     1       3.589  29.193  15.966  1.00  0.00    -0.070 C 
ATOM      2  C   UNL     1       4.069  30.249  16.663  1.00  0.00    -0.027 C 
ATOM      3  C   UNL     1       2.115  28.892  16.085  1.00  0.00     0.039 C 
ENDROOT
BRANCH   2   4
ATOM      4  C   UNL     1       5.516  30.665  16.773  1.00  0.00     0.032 C 
BRANCH   4   5
ATOM      5  C   UNL     1       6.346  29.699  17.640  1.00  0.00     0.034 C 
BRANCH   5   6
ATOM      6  C   UNL     1       7.650  29.308  16.975  1.00  0.00    -0.077 C 
ATOM      7  C   UNL     1       8.632  30.399  16.629  1.00  0.00     0.039 C 
ATOM      8  C   UNL     1       7.999  28.032  16.696  1.00  0.00    -0.023 CG0
ATOM      9  G   UNL     1       7.170  26.806  16.997  1.00  0.00     0.000 G0
ENDBRANCH   5   6
ENDBRANCH   4   5
ENDBRANCH   2   4
BRANCH   1  10
ATOM     10  C   UNL     1       4.459  28.265  15.134  1.00  0.00     0.111 C 
BRANCH  10  11
ATOM     11  C   UNL     1       4.864  27.038  15.913  1.00  0.00     0.163 C 
ATOM     12  O   UNL     1       3.984  26.458  16.604  1.00  0.00    -0.294 OA
BRANCH  11  13
ATOM     13  C   UNL     1       6.249  26.478  15.845  1.00  0.00    -0.002 C 
ATOM     14  C   UNL     1       6.643  25.655  14.825  1.00  0.00    -0.069 C 
ATOM     15  C   UNL     1       5.679  25.208  13.750  1.00  0.00     0.039 C 
ATOM     16  C   UNL     1       8.058  25.122  14.744  1.00  0.00     0.039 C 
BRANCH  13  17
ATOM     17  C   UNL     1       7.181  26.799  17.000  1.00  0.00     0.066 CG0
ATOM     18  G   UNL     1       7.977  28.043  16.684  1.00  0.00     0.000 G0
ENDBRANCH  13  17
ENDBRANCH  11  13
ENDBRANCH  10  11
ENDBRANCH   1  10
TORSDOF 0
ENDMDL
