MODEL 1
REMARK VINA RESULT:    -3.552      0.000      0.000
REMARK INTER + INTRA:          -4.540
REMARK INTER:                  -4.486
REMARK INTRA:                  -0.054
REMARK UNBOUND:                -0.054
REMARK SMILES CSCC[C@@H]([NH3+])C(=O)[O-]
REMARK SMILES IDX 4 1 5 2 6 3 7 7 8 8 9 9 3 10 2 11 1 12
REMARK H PARENT 6 4 6 5 6 6
REMARK Flexibility Score: inf
ROOT
ATOM      1  C   UNL     1      16.441 -28.124 -20.946  1.00  0.00     0.082 C 
ENDROOT
BRANCH   1   2
ATOM      2  C   UNL     1      17.203 -27.304 -19.882  1.00  0.00     0.228 C 
BRANCH   2   3
ATOM      3  N   UNL     1      16.432 -27.177 -18.637  1.00  0.00    -0.350 N 
ATOM      4  H   UNL     1      15.595 -27.805 -18.652  1.00  0.00     0.345 HD
ATOM      5  H   UNL     1      17.033 -27.431 -17.819  1.00  0.00     0.345 HD
ATOM      6  H   UNL     1      16.122 -26.188 -18.505  1.00  0.00     0.345 HD
ENDBRANCH   2   3
BRANCH   2   7
ATOM      7  C   UNL     1      18.536 -27.947 -19.605  1.00  0.00     0.099 C 
ATOM      8  O   UNL     1      19.016 -28.791 -20.408  1.00  0.00    -0.544 OA
ATOM      9  O   UNL     1      19.254 -27.596 -18.469  1.00  0.00    -0.544 OA
ENDBRANCH   2   7
ENDBRANCH   1   2
BRANCH   1  10
ATOM     10  C   UNL     1      14.967 -28.336 -20.585  1.00  0.00     0.076 C 
BRANCH  10  11
ATOM     11  S   UNL     1      14.182 -29.503 -21.753  1.00  0.00    -0.165 SA
ATOM     12  C   UNL     1      12.947 -30.148 -20.577  1.00  0.00     0.085 C 
ENDBRANCH  10  11
ENDBRANCH   1  10
TORSDOF 5
ENDMDL
MODEL 2
REMARK VINA RESULT:    -3.364      3.421      4.905
REMARK INTER + INTRA:          -4.303
REMARK INTER:                  -4.229
REMARK INTRA:                  -0.074
REMARK UNBOUND:                -0.054
REMARK SMILES CSCC[C@@H]([NH3+])C(=O)[O-]
REMARK SMILES IDX 4 1 5 2 6 3 7 7 8 8 9 9 3 10 2 11 1 12
REMARK H PARENT 6 4 6 5 6 6
REMARK Flexibility Score: inf
ROOT
ATOM      1  C   UNL     1      17.965 -28.555 -20.087  1.00  0.00     0.082 C 
ENDROOT
BRANCH   1   2
ATOM      2  C   UNL     1      16.951 -27.482 -19.634  1.00  0.00     0.228 C 
BRANCH   2   3
ATOM      3  N   UNL     1      17.094 -26.237 -20.402  1.00  0.00    -0.350 N 
ATOM      4  H   UNL     1      16.637 -25.438 -19.904  1.00  0.00     0.345 HD
ATOM      5  H   UNL     1      18.108 -26.018 -20.540  1.00  0.00     0.345 HD
ATOM      6  H   UNL     1      16.665 -26.347 -21.349  1.00  0.00     0.345 HD
ENDBRANCH   2   3
BRANCH   2   7
ATOM      7  C   UNL     1      15.551 -28.019 -19.771  1.00  0.00     0.099 C 
ATOM      8  O   UNL     1      14.789 -28.077 -18.770  1.00  0.00    -0.544 OA
ATOM      9  O   UNL     1      15.085 -28.435 -21.012  1.00  0.00    -0.544 OA
ENDBRANCH   2   7
ENDBRANCH   1   2
BRANCH   1  10
ATOM     10  C   UNL     1      19.399 -28.019 -20.159  1.00  0.00     0.076 C 
BRANCH  10  11
ATOM     11  S   UNL     1      20.032 -27.654 -18.483  1.00  0.00    -0.165 SA
ATOM     12  C   UNL     1      21.788 -27.946 -18.874  1.00  0.00     0.085 C 
ENDBRANCH  10  11
ENDBRANCH   1  10
TORSDOF 5
ENDMDL
MODEL 3
REMARK VINA RESULT:    -3.352      3.065      3.880
REMARK INTER + INTRA:          -4.288
REMARK INTER:                  -4.211
REMARK INTRA:                  -0.077
REMARK UNBOUND:                -0.054
REMARK SMILES CSCC[C@@H]([NH3+])C(=O)[O-]
REMARK SMILES IDX 4 1 5 2 6 3 7 7 8 8 9 9 3 10 2 11 1 12
REMARK H PARENT 6 4 6 5 6 6
REMARK Flexibility Score: inf
ROOT
ATOM      1  C   UNL     1      19.915 -28.042 -19.564  1.00  0.00     0.082 C 
ENDROOT
BRANCH   1   2
ATOM      2  C   UNL     1      20.848 -27.311 -18.574  1.00  0.00     0.228 C 
BRANCH   2   3
ATOM      3  N   UNL     1      20.128 -26.864 -17.374  1.00  0.00    -0.350 N 
ATOM      4  H   UNL     1      20.104 -25.818 -17.323  1.00  0.00     0.345 HD
ATOM      5  H   UNL     1      19.146 -27.226 -17.392  1.00  0.00     0.345 HD
ATOM      6  H   UNL     1      20.587 -27.243 -16.516  1.00  0.00     0.345 HD
ENDBRANCH   2   3
BRANCH   2   7
ATOM      7  C   UNL     1      21.988 -28.217 -18.189  1.00  0.00     0.099 C 
ATOM      8  O   UNL     1      22.954 -28.397 -18.976  1.00  0.00    -0.544 OA
ATOM      9  O   UNL     1      21.988 -28.845 -16.950  1.00  0.00    -0.544 OA
ENDBRANCH   2   7
ENDBRANCH   1   2
BRANCH   1  10
ATOM     10  C   UNL     1      18.446 -28.006 -19.127  1.00  0.00     0.076 C 
BRANCH  10  11
ATOM     11  S   UNL     1      17.474 -26.929 -20.239  1.00  0.00    -0.165 SA
ATOM     12  C   UNL     1      16.027 -28.032 -20.355  1.00  0.00     0.085 C 
ENDBRANCH  10  11
ENDBRANCH   1  10
TORSDOF 5
ENDMDL
MODEL 4
REMARK VINA RESULT:    -3.285      4.577      5.659
REMARK INTER + INTRA:          -4.203
REMARK INTER:                  -4.159
REMARK INTRA:                  -0.044
REMARK UNBOUND:                -0.054
REMARK SMILES CSCC[C@@H]([NH3+])C(=O)[O-]
REMARK SMILES IDX 4 1 5 2 6 3 7 7 8 8 9 9 3 10 2 11 1 12
REMARK H PARENT 6 4 6 5 6 6
REMARK Flexibility Score: inf
ROOT
ATOM      1  C   UNL     1      21.263 -27.933 -18.287  1.00  0.00     0.082 C 
ENDROOT
BRANCH   1   2
ATOM      2  C   UNL     1      22.633 -28.337 -18.874  1.00  0.00     0.228 C 
BRANCH   2   3
ATOM      3  N   UNL     1      23.352 -27.181 -19.427  1.00  0.00    -0.350 N 
ATOM      4  H   UNL     1      23.419 -26.411 -18.720  1.00  0.00     0.345 HD
ATOM      5  H   UNL     1      24.318 -27.465 -19.713  1.00  0.00     0.345 HD
ATOM      6  H   UNL     1      22.864 -26.827 -20.280  1.00  0.00     0.345 HD
ENDBRANCH   2   3
BRANCH   2   7
ATOM      7  C   UNL     1      23.463 -29.004 -17.809  1.00  0.00     0.099 C 
ATOM      8  O   UNL     1      24.666 -29.302 -18.031  1.00  0.00    -0.544 OA
ATOM      9  O   UNL     1      22.907 -29.277 -16.565  1.00  0.00    -0.544 OA
ENDBRANCH   2   7
ENDBRANCH   1   2
BRANCH   1  10
ATOM     10  C   UNL     1      20.264 -27.498 -19.366  1.00  0.00     0.076 C 
BRANCH  10  11
ATOM     11  S   UNL     1      18.597 -28.152 -18.995  1.00  0.00    -0.165 SA
ATOM     12  C   UNL     1      17.702 -27.054 -20.143  1.00  0.00     0.085 C 
ENDBRANCH  10  11
ENDBRANCH   1  10
TORSDOF 5
ENDMDL
MODEL 5
REMARK VINA RESULT:    -3.170      4.766      6.503
REMARK INTER + INTRA:          -4.058
REMARK INTER:                  -4.097
REMARK INTRA:                   0.039
REMARK UNBOUND:                -0.054
REMARK SMILES CSCC[C@@H]([NH3+])C(=O)[O-]
REMARK SMILES IDX 4 1 5 2 6 3 7 7 8 8 9 9 3 10 2 11 1 12
REMARK H PARENT 6 4 6 5 6 6
REMARK Flexibility Score: inf
ROOT
ATOM      1  C   UNL     1      21.863 -27.724 -18.891  1.00  0.00     0.082 C 
ENDROOT
BRANCH   1   2
ATOM      2  C   UNL     1      20.514 -27.883 -18.157  1.00  0.00     0.228 C 
BRANCH   2   3
ATOM      3  N   UNL     1      20.263 -26.771 -17.229  1.00  0.00    -0.350 N 
ATOM      4  H   UNL     1      20.651 -25.875 -17.609  1.00  0.00     0.345 HD
ATOM      5  H   UNL     1      19.234 -26.658 -17.077  1.00  0.00     0.345 HD
ATOM      6  H   UNL     1      20.698 -26.971 -16.301  1.00  0.00     0.345 HD
ENDBRANCH   2   3
BRANCH   2   7
ATOM      7  C   UNL     1      19.398 -27.981 -19.164  1.00  0.00     0.099 C 
ATOM      8  O   UNL     1      19.620 -28.428 -20.320  1.00  0.00    -0.544 OA
ATOM      9  O   UNL     1      18.110 -27.598 -18.812  1.00  0.00    -0.544 OA
ENDBRANCH   2   7
ENDBRANCH   1   2
BRANCH   1  10
ATOM     10  C   UNL     1      22.930 -28.701 -18.382  1.00  0.00     0.076 C 
BRANCH  10  11
ATOM     11  S   UNL     1      22.591 -29.173 -16.648  1.00  0.00    -0.165 SA
ATOM     12  C   UNL     1      24.294 -29.691 -16.255  1.00  0.00     0.085 C 
ENDBRANCH  10  11
ENDBRANCH   1  10
TORSDOF 5
ENDMDL
MODEL 6
REMARK VINA RESULT:    -3.087      4.871      5.755
REMARK INTER + INTRA:          -3.953
REMARK INTER:                  -3.869
REMARK INTRA:                  -0.084
REMARK UNBOUND:                -0.054
REMARK SMILES CSCC[C@@H]([NH3+])C(=O)[O-]
REMARK SMILES IDX 4 1 5 2 6 3 7 7 8 8 9 9 3 10 2 11 1 12
REMARK H PARENT 6 4 6 5 6 6
REMARK Flexibility Score: inf
ROOT
ATOM      1  C   UNL     1      15.216 -31.846 -22.291  1.00  0.00     0.082 C 
ENDROOT
BRANCH   1   2
ATOM      2  C   UNL     1      13.795 -31.584 -21.748  1.00  0.00     0.228 C 
BRANCH   2   3
ATOM      3  N   UNL     1      13.416 -32.559 -20.716  1.00  0.00    -0.350 N 
ATOM      4  H   UNL     1      14.209 -33.212 -20.513  1.00  0.00     0.345 HD
ATOM      5  H   UNL     1      13.151 -32.061 -19.835  1.00  0.00     0.345 HD
ATOM      6  H   UNL     1      12.585 -33.109 -21.028  1.00  0.00     0.345 HD
ENDBRANCH   2   3
BRANCH   2   7
ATOM      7  C   UNL     1      13.713 -30.185 -21.196  1.00  0.00     0.099 C 
ATOM      8  O   UNL     1      13.041 -29.946 -20.158  1.00  0.00    -0.544 OA
ATOM      9  O   UNL     1      14.400 -29.151 -21.820  1.00  0.00    -0.544 OA
ENDBRANCH   2   7
ENDBRANCH   1   2
BRANCH   1  10
ATOM     10  C   UNL     1      15.941 -32.964 -21.533  1.00  0.00     0.076 C 
BRANCH  10  11
ATOM     11  S   UNL     1      16.183 -34.418 -22.614  1.00  0.00    -0.165 SA
ATOM     12  C   UNL     1      17.745 -34.965 -21.851  1.00  0.00     0.085 C 
ENDBRANCH  10  11
ENDBRANCH   1  10
TORSDOF 5
ENDMDL
MODEL 7
REMARK VINA RESULT:    -3.028      3.872      5.208
REMARK INTER + INTRA:          -3.879
REMARK INTER:                  -3.806
REMARK INTRA:                  -0.072
REMARK UNBOUND:                -0.054
REMARK SMILES CSCC[C@@H]([NH3+])C(=O)[O-]
REMARK SMILES IDX 4 1 5 2 6 3 7 7 8 8 9 9 3 10 2 11 1 12
REMARK H PARENT 6 4 6 5 6 6
REMARK Flexibility Score: inf
ROOT
ATOM      1  C   UNL     1      15.243 -28.299 -20.946  1.00  0.00     0.082 C 
ENDROOT
BRANCH   1   2
ATOM      2  C   UNL     1      14.656 -29.378 -21.881  1.00  0.00     0.228 C 
BRANCH   2   3
ATOM      3  N   UNL     1      15.563 -30.526 -22.026  1.00  0.00    -0.350 N 
ATOM      4  H   UNL     1      16.513 -30.299 -21.651  1.00  0.00     0.345 HD
ATOM      5  H   UNL     1      15.180 -31.350 -21.507  1.00  0.00     0.345 HD
ATOM      6  H   UNL     1      15.642 -30.797 -23.032  1.00  0.00     0.345 HD
ENDBRANCH   2   3
BRANCH   2   7
ATOM      7  C   UNL     1      13.321 -29.834 -21.353  1.00  0.00     0.099 C 
ATOM      8  O   UNL     1      13.101 -29.864 -20.114  1.00  0.00    -0.544 OA
ATOM      9  O   UNL     1      12.315 -30.205 -22.237  1.00  0.00    -0.544 OA
ENDBRANCH   2   7
ENDBRANCH   1   2
BRANCH   1  10
ATOM     10  C   UNL     1      16.673 -28.620 -20.497  1.00  0.00     0.076 C 
BRANCH  10  11
ATOM     11  S   UNL     1      17.578 -27.084 -20.092  1.00  0.00    -0.165 SA
ATOM     12  C   UNL     1      18.811 -27.871 -19.004  1.00  0.00     0.085 C 
ENDBRANCH  10  11
ENDBRANCH   1  10
TORSDOF 5
ENDMDL
MODEL 8
REMARK VINA RESULT:    -2.962      1.793      2.183
REMARK INTER + INTRA:          -3.795
REMARK INTER:                  -3.727
REMARK INTRA:                  -0.068
REMARK UNBOUND:                -0.054
REMARK SMILES CSCC[C@@H]([NH3+])C(=O)[O-]
REMARK SMILES IDX 4 1 5 2 6 3 7 7 8 8 9 9 3 10 2 11 1 12
REMARK H PARENT 6 4 6 5 6 6
REMARK Flexibility Score: inf
ROOT
ATOM      1  C   UNL     1      15.224 -29.105 -21.294  1.00  0.00     0.082 C 
ENDROOT
BRANCH   1   2
ATOM      2  C   UNL     1      15.523 -27.861 -20.429  1.00  0.00     0.228 C 
BRANCH   2   3
ATOM      3  N   UNL     1      14.924 -27.970 -19.092  1.00  0.00    -0.350 N 
ATOM      4  H   UNL     1      14.692 -27.023 -18.710  1.00  0.00     0.345 HD
ATOM      5  H   UNL     1      14.049 -28.541 -19.139  1.00  0.00     0.345 HD
ATOM      6  H   UNL     1      15.582 -28.454 -18.440  1.00  0.00     0.345 HD
ENDBRANCH   2   3
BRANCH   2   7
ATOM      7  C   UNL     1      17.013 -27.669 -20.317  1.00  0.00     0.099 C 
ATOM      8  O   UNL     1      17.506 -26.511 -20.274  1.00  0.00    -0.544 OA
ATOM      9  O   UNL     1      17.851 -28.774 -20.240  1.00  0.00    -0.544 OA
ENDBRANCH   2   7
ENDBRANCH   1   2
BRANCH   1  10
ATOM     10  C   UNL     1      13.789 -29.616 -21.116  1.00  0.00     0.076 C 
BRANCH  10  11
ATOM     11  S   UNL     1      13.541 -31.166 -22.053  1.00  0.00    -0.165 SA
ATOM     12  C   UNL     1      15.310 -31.571 -22.225  1.00  0.00     0.085 C 
ENDBRANCH  10  11
ENDBRANCH   1  10
TORSDOF 5
ENDMDL
MODEL 9
REMARK VINA RESULT:    -2.842      3.758      4.620
REMARK INTER + INTRA:          -3.643
REMARK INTER:                  -3.414
REMARK INTRA:                  -0.229
REMARK UNBOUND:                -0.054
REMARK SMILES CSCC[C@@H]([NH3+])C(=O)[O-]
REMARK SMILES IDX 4 1 5 2 6 3 7 7 8 8 9 9 3 10 2 11 1 12
REMARK H PARENT 6 4 6 5 6 6
REMARK Flexibility Score: inf
ROOT
ATOM      1  C   UNL     1      12.968 -31.027 -22.536  1.00  0.00     0.082 C 
ENDROOT
BRANCH   1   2
ATOM      2  C   UNL     1      13.274 -29.898 -21.527  1.00  0.00     0.228 C 
BRANCH   2   3
ATOM      3  N   UNL     1      12.951 -30.296 -20.149  1.00  0.00    -0.350 N 
ATOM      4  H   UNL     1      12.538 -29.494 -19.618  1.00  0.00     0.345 HD
ATOM      5  H   UNL     1      12.267 -31.087 -20.157  1.00  0.00     0.345 HD
ATOM      6  H   UNL     1      13.812 -30.629 -19.659  1.00  0.00     0.345 HD
ENDBRANCH   2   3
BRANCH   2   7
ATOM      7  C   UNL     1      14.725 -29.508 -21.629  1.00  0.00     0.099 C 
ATOM      8  O   UNL     1      15.575 -30.322 -22.075  1.00  0.00    -0.544 OA
ATOM      9  O   UNL     1      15.129 -28.234 -21.249  1.00  0.00    -0.544 OA
ENDBRANCH   2   7
ENDBRANCH   1   2
BRANCH   1  10
ATOM     10  C   UNL     1      12.690 -32.371 -21.852  1.00  0.00     0.076 C 
BRANCH  10  11
ATOM     11  S   UNL     1      13.869 -33.642 -22.434  1.00  0.00    -0.165 SA
ATOM     12  C   UNL     1      14.911 -33.635 -20.938  1.00  0.00     0.085 C 
ENDBRANCH  10  11
ENDBRANCH   1  10
TORSDOF 5
ENDMDL
