MODEL 1
REMARK VINA RESULT:    -4.677      0.000      0.000
REMARK INTER + INTRA:          -7.624
REMARK INTER:                  -7.138
REMARK INTRA:                  -0.487
REMARK UNBOUND:                -0.487
REMARK SMILES CCCCCCCCCC=CC(=O)[O-]
REMARK SMILES IDX 7 1 8 2 9 3 10 4 11 5 12 6 13 7 14 8 6 9 5 10 4 11 3 12 2 13
REMARK SMILES IDX 1 14
REMARK H PARENT
REMARK Flexibility Score: inf
ROOT
ATOM      1  C   UNL     1     127.419 121.876 138.602  1.00  0.00     0.000 C 
ENDROOT
BRANCH   1   2
ATOM      2  C   UNL     1     126.348 121.631 137.526  1.00  0.00     0.004 C 
BRANCH   2   3
ATOM      3  C   UNL     1     126.546 122.536 136.299  1.00  0.00     0.027 C 
BRANCH   3   4
ATOM      4  C   UNL     1     125.957 121.939 135.047  1.00  0.00    -0.025 C 
ATOM      5  C   UNL     1     125.977 122.491 133.823  1.00  0.00     0.020 C 
BRANCH   5   6
ATOM      6  C   UNL     1     126.533 123.812 133.461  1.00  0.00     0.064 C 
ATOM      7  O   UNL     1     125.743 124.743 133.159  1.00  0.00    -0.545 OA
ATOM      8  O   UNL     1     127.899 124.070 133.472  1.00  0.00    -0.545 OA
ENDBRANCH   5   6
ENDBRANCH   3   4
ENDBRANCH   2   3
ENDBRANCH   1   2
BRANCH   1   9
ATOM      9  C   UNL     1     128.847 121.685 138.069  1.00  0.00     0.000 C 
BRANCH   9  10
ATOM     10  C   UNL     1     129.565 120.486 138.711  1.00  0.00     0.000 C 
BRANCH  10  11
ATOM     11  C   UNL     1     131.096 120.573 138.591  1.00  0.00    -0.000 C 
BRANCH  11  12
ATOM     12  C   UNL     1     131.621 122.015 138.428  1.00  0.00    -0.000 C 
BRANCH  12  13
ATOM     13  C   UNL     1     131.904 122.688 139.780  1.00  0.00    -0.003 C 
ATOM     14  C   UNL     1     132.766 123.934 139.605  1.00  0.00     0.004 C 
ENDBRANCH  12  13
ENDBRANCH  11  12
ENDBRANCH  10  11
ENDBRANCH   9  10
ENDBRANCH   1   9
TORSDOF 9
ENDMDL
MODEL 2
REMARK VINA RESULT:    -4.661      4.573      6.549
REMARK INTER + INTRA:          -7.600
REMARK INTER:                  -5.952
REMARK INTRA:                  -1.648
REMARK UNBOUND:                -0.487
REMARK SMILES CCCCCCCCCC=CC(=O)[O-]
REMARK SMILES IDX 7 1 8 2 9 3 10 4 11 5 12 6 13 7 14 8 6 9 5 10 4 11 3 12 2 13
REMARK SMILES IDX 1 14
REMARK H PARENT
REMARK Flexibility Score: inf
ROOT
ATOM      1  C   UNL     1     131.384 122.648 139.610  1.00  0.00     0.000 C 
ENDROOT
BRANCH   1   2
ATOM      2  C   UNL     1     131.144 121.772 138.368  1.00  0.00     0.004 C 
BRANCH   2   3
ATOM      3  C   UNL     1     131.187 120.273 138.703  1.00  0.00     0.027 C 
BRANCH   3   4
ATOM      4  C   UNL     1     129.893 119.575 138.373  1.00  0.00    -0.025 C 
ATOM      5  C   UNL     1     129.376 118.518 139.021  1.00  0.00     0.020 C 
BRANCH   5   6
ATOM      6  C   UNL     1     129.990 117.794 140.154  1.00  0.00     0.064 C 
ATOM      7  O   UNL     1     129.356 117.709 141.237  1.00  0.00    -0.545 OA
ATOM      8  O   UNL     1     131.231 117.178 140.056  1.00  0.00    -0.545 OA
ENDBRANCH   5   6
ENDBRANCH   3   4
ENDBRANCH   2   3
ENDBRANCH   1   2
BRANCH   1   9
ATOM      9  C   UNL     1     130.868 121.996 140.902  1.00  0.00     0.000 C 
BRANCH   9  10
ATOM     10  C   UNL     1     129.431 122.419 141.246  1.00  0.00     0.000 C 
BRANCH  10  11
ATOM     11  C   UNL     1     128.456 121.230 141.306  1.00  0.00    -0.000 C 
BRANCH  11  12
ATOM     12  C   UNL     1     127.299 121.330 140.289  1.00  0.00    -0.000 C 
BRANCH  12  13
ATOM     13  C   UNL     1     127.551 122.408 139.224  1.00  0.00    -0.003 C 
ATOM     14  C   UNL     1     127.164 121.911 137.835  1.00  0.00     0.004 C 
ENDBRANCH  12  13
ENDBRANCH  11  12
ENDBRANCH  10  11
ENDBRANCH   9  10
ENDBRANCH   1   9
TORSDOF 9
ENDMDL
MODEL 3
REMARK VINA RESULT:    -4.424      1.584      2.478
REMARK INTER + INTRA:          -7.239
REMARK INTER:                  -6.244
REMARK INTRA:                  -0.995
REMARK UNBOUND:                -0.487
REMARK SMILES CCCCCCCCCC=CC(=O)[O-]
REMARK SMILES IDX 7 1 8 2 9 3 10 4 11 5 12 6 13 7 14 8 6 9 5 10 4 11 3 12 2 13
REMARK SMILES IDX 1 14
REMARK H PARENT
REMARK Flexibility Score: inf
ROOT
ATOM      1  C   UNL     1     128.666 119.346 138.776  1.00  0.00     0.000 C 
ENDROOT
BRANCH   1   2
ATOM      2  C   UNL     1     127.459 120.298 138.762  1.00  0.00     0.004 C 
BRANCH   2   3
ATOM      3  C   UNL     1     127.693 121.512 137.849  1.00  0.00     0.027 C 
BRANCH   3   4
ATOM      4  C   UNL     1     126.498 122.429 137.797  1.00  0.00    -0.025 C 
ATOM      5  C   UNL     1     125.868 122.846 136.687  1.00  0.00     0.020 C 
BRANCH   5   6
ATOM      6  C   UNL     1     126.243 122.534 135.292  1.00  0.00     0.064 C 
ATOM      7  O   UNL     1     126.921 123.371 134.642  1.00  0.00    -0.545 OA
ATOM      8  O   UNL     1     125.899 121.334 134.681  1.00  0.00    -0.545 OA
ENDBRANCH   5   6
ENDBRANCH   3   4
ENDBRANCH   2   3
ENDBRANCH   1   2
BRANCH   1   9
ATOM      9  C   UNL     1     129.849 119.878 137.952  1.00  0.00     0.000 C 
BRANCH   9  10
ATOM     10  C   UNL     1     131.013 120.362 138.832  1.00  0.00     0.000 C 
BRANCH  10  11
ATOM     11  C   UNL     1     131.426 121.813 138.532  1.00  0.00    -0.000 C 
BRANCH  11  12
ATOM     12  C   UNL     1     131.611 122.676 139.798  1.00  0.00    -0.000 C 
BRANCH  12  13
ATOM     13  C   UNL     1     130.923 122.062 141.027  1.00  0.00    -0.003 C 
ATOM     14  C   UNL     1     129.443 122.426 141.070  1.00  0.00     0.004 C 
ENDBRANCH  12  13
ENDBRANCH  11  12
ENDBRANCH  10  11
ENDBRANCH   9  10
ENDBRANCH   1   9
TORSDOF 9
ENDMDL
MODEL 4
REMARK VINA RESULT:    -4.419      3.781      6.084
REMARK INTER + INTRA:          -7.231
REMARK INTER:                  -5.554
REMARK INTRA:                  -1.677
REMARK UNBOUND:                -0.487
REMARK SMILES CCCCCCCCCC=CC(=O)[O-]
REMARK SMILES IDX 7 1 8 2 9 3 10 4 11 5 12 6 13 7 14 8 6 9 5 10 4 11 3 12 2 13
REMARK SMILES IDX 1 14
REMARK H PARENT
REMARK Flexibility Score: inf
ROOT
ATOM      1  C   UNL     1     128.649 118.478 139.096  1.00  0.00     0.000 C 
ENDROOT
BRANCH   1   2
ATOM      2  C   UNL     1     130.025 118.469 139.784  1.00  0.00     0.004 C 
BRANCH   2   3
ATOM      3  C   UNL     1     131.053 119.324 139.027  1.00  0.00     0.027 C 
BRANCH   3   4
ATOM      4  C   UNL     1     130.418 120.500 138.331  1.00  0.00    -0.025 C 
ATOM      5  C   UNL     1     130.617 121.796 138.625  1.00  0.00     0.020 C 
BRANCH   5   6
ATOM      6  C   UNL     1     131.457 122.332 139.717  1.00  0.00     0.064 C 
ATOM      7  O   UNL     1     132.454 123.041 139.425  1.00  0.00    -0.545 OA
ATOM      8  O   UNL     1     131.166 122.104 141.056  1.00  0.00    -0.545 OA
ENDBRANCH   5   6
ENDBRANCH   3   4
ENDBRANCH   2   3
ENDBRANCH   1   2
BRANCH   1   9
ATOM      9  C   UNL     1     127.523 118.935 140.035  1.00  0.00     0.000 C 
BRANCH   9  10
ATOM     10  C   UNL     1     128.026 119.851 141.163  1.00  0.00     0.000 C 
BRANCH  10  11
ATOM     11  C   UNL     1     127.726 121.338 140.902  1.00  0.00    -0.000 C 
BRANCH  11  12
ATOM     12  C   UNL     1     126.570 121.568 139.906  1.00  0.00    -0.000 C 
BRANCH  12  13
ATOM     13  C   UNL     1     126.986 122.462 138.728  1.00  0.00    -0.003 C 
ATOM     14  C   UNL     1     127.008 121.677 137.421  1.00  0.00     0.004 C 
ENDBRANCH  12  13
ENDBRANCH  11  12
ENDBRANCH  10  11
ENDBRANCH   9  10
ENDBRANCH   1   9
TORSDOF 9
ENDMDL
MODEL 5
REMARK VINA RESULT:    -4.406      3.817      5.779
REMARK INTER + INTRA:          -7.211
REMARK INTER:                  -5.644
REMARK INTRA:                  -1.567
REMARK UNBOUND:                -0.487
REMARK SMILES CCCCCCCCCC=CC(=O)[O-]
REMARK SMILES IDX 7 1 8 2 9 3 10 4 11 5 12 6 13 7 14 8 6 9 5 10 4 11 3 12 2 13
REMARK SMILES IDX 1 14
REMARK H PARENT
REMARK Flexibility Score: inf
ROOT
ATOM      1  C   UNL     1     126.465 121.922 139.226  1.00  0.00     0.000 C 
ENDROOT
BRANCH   1   2
ATOM      2  C   UNL     1     127.385 122.137 140.440  1.00  0.00     0.004 C 
BRANCH   2   3
ATOM      3  C   UNL     1     128.808 122.538 140.021  1.00  0.00     0.027 C 
BRANCH   3   4
ATOM      4  C   UNL     1     129.832 122.199 141.073  1.00  0.00    -0.025 C 
ATOM      5  C   UNL     1     131.166 122.249 140.924  1.00  0.00     0.020 C 
BRANCH   5   6
ATOM      6  C   UNL     1     131.902 122.598 139.691  1.00  0.00     0.064 C 
ATOM      7  O   UNL     1     132.488 123.709 139.625  1.00  0.00    -0.545 OA
ATOM      8  O   UNL     1     131.994 121.728 138.611  1.00  0.00    -0.545 OA
ENDBRANCH   5   6
ENDBRANCH   3   4
ENDBRANCH   2   3
ENDBRANCH   1   2
BRANCH   1   9
ATOM      9  C   UNL     1     127.223 121.407 137.994  1.00  0.00     0.000 C 
BRANCH   9  10
ATOM     10  C   UNL     1     126.802 119.984 137.590  1.00  0.00     0.000 C 
BRANCH  10  11
ATOM     11  C   UNL     1     127.768 118.906 138.112  1.00  0.00    -0.000 C 
BRANCH  11  12
ATOM     12  C   UNL     1     129.199 119.428 138.360  1.00  0.00    -0.000 C 
BRANCH  12  13
ATOM     13  C   UNL     1     129.848 118.784 139.594  1.00  0.00    -0.003 C 
ATOM     14  C   UNL     1     128.847 118.651 140.737  1.00  0.00     0.004 C 
ENDBRANCH  12  13
ENDBRANCH  11  12
ENDBRANCH  10  11
ENDBRANCH   9  10
ENDBRANCH   1   9
TORSDOF 9
ENDMDL
MODEL 6
REMARK VINA RESULT:    -4.381      4.798      6.005
REMARK INTER + INTRA:          -7.173
REMARK INTER:                  -5.804
REMARK INTRA:                  -1.369
REMARK UNBOUND:                -0.487
REMARK SMILES CCCCCCCCCC=CC(=O)[O-]
REMARK SMILES IDX 7 1 8 2 9 3 10 4 11 5 12 6 13 7 14 8 6 9 5 10 4 11 3 12 2 13
REMARK SMILES IDX 1 14
REMARK H PARENT
REMARK Flexibility Score: inf
ROOT
ATOM      1  C   UNL     1     131.457 122.674 139.646  1.00  0.00     0.000 C 
ENDROOT
BRANCH   1   2
ATOM      2  C   UNL     1     130.927 121.915 140.874  1.00  0.00     0.004 C 
BRANCH   2   3
ATOM      3  C   UNL     1     129.522 122.385 141.281  1.00  0.00     0.027 C 
BRANCH   3   4
ATOM      4  C   UNL     1     128.560 122.386 140.120  1.00  0.00    -0.025 C 
ATOM      5  C   UNL     1     127.312 121.890 140.127  1.00  0.00     0.020 C 
BRANCH   5   6
ATOM      6  C   UNL     1     126.644 121.201 141.251  1.00  0.00     0.064 C 
ATOM      7  O   UNL     1     126.878 119.979 141.440  1.00  0.00    -0.545 OA
ATOM      8  O   UNL     1     125.789 121.862 142.124  1.00  0.00    -0.545 OA
ENDBRANCH   5   6
ENDBRANCH   3   4
ENDBRANCH   2   3
ENDBRANCH   1   2
BRANCH   1   9
ATOM      9  C   UNL     1     131.702 121.753 138.441  1.00  0.00     0.000 C 
BRANCH   9  10
ATOM     10  C   UNL     1     131.322 120.291 138.727  1.00  0.00     0.000 C 
BRANCH  10  11
ATOM     11  C   UNL     1     130.015 119.867 138.034  1.00  0.00    -0.000 C 
BRANCH  11  12
ATOM     12  C   UNL     1     129.163 118.889 138.872  1.00  0.00    -0.000 C 
BRANCH  12  13
ATOM     13  C   UNL     1     129.813 118.561 140.224  1.00  0.00    -0.003 C 
ATOM     14  C   UNL     1     130.475 117.187 140.198  1.00  0.00     0.004 C 
ENDBRANCH  12  13
ENDBRANCH  11  12
ENDBRANCH  10  11
ENDBRANCH   9  10
ENDBRANCH   1   9
TORSDOF 9
ENDMDL
MODEL 7
REMARK VINA RESULT:    -4.332      3.241      6.505
REMARK INTER + INTRA:          -7.098
REMARK INTER:                  -6.426
REMARK INTRA:                  -0.672
REMARK UNBOUND:                -0.487
REMARK SMILES CCCCCCCCCC=CC(=O)[O-]
REMARK SMILES IDX 7 1 8 2 9 3 10 4 11 5 12 6 13 7 14 8 6 9 5 10 4 11 3 12 2 13
REMARK SMILES IDX 1 14
REMARK H PARENT
REMARK Flexibility Score: inf
ROOT
ATOM      1  C   UNL     1     127.041 120.932 137.801  1.00  0.00     0.000 C 
ENDROOT
BRANCH   1   2
ATOM      2  C   UNL     1     128.461 120.923 138.390  1.00  0.00     0.004 C 
BRANCH   2   3
ATOM      3  C   UNL     1     128.784 122.226 139.138  1.00  0.00     0.027 C 
BRANCH   3   4
ATOM      4  C   UNL     1     129.528 121.978 140.425  1.00  0.00    -0.025 C 
ATOM      5  C   UNL     1     130.854 122.093 140.606  1.00  0.00     0.020 C 
BRANCH   5   6
ATOM      6  C   UNL     1     131.857 122.435 139.576  1.00  0.00     0.064 C 
ATOM      7  O   UNL     1     132.084 121.613 138.651  1.00  0.00    -0.545 OA
ATOM      8  O   UNL     1     132.538 123.646 139.577  1.00  0.00    -0.545 OA
ENDBRANCH   5   6
ENDBRANCH   3   4
ENDBRANCH   2   3
ENDBRANCH   1   2
BRANCH   1   9
ATOM      9  C   UNL     1     126.303 122.255 138.056  1.00  0.00     0.000 C 
BRANCH   9  10
ATOM     10  C   UNL     1     125.782 122.902 136.762  1.00  0.00     0.000 C 
BRANCH  10  11
ATOM     11  C   UNL     1     126.739 122.713 135.572  1.00  0.00    -0.000 C 
BRANCH  11  12
ATOM     12  C   UNL     1     126.025 122.304 134.266  1.00  0.00    -0.000 C 
BRANCH  12  13
ATOM     13  C   UNL     1     126.332 123.266 133.109  1.00  0.00    -0.003 C 
ATOM     14  C   UNL     1     127.569 124.107 133.405  1.00  0.00     0.004 C 
ENDBRANCH  12  13
ENDBRANCH  11  12
ENDBRANCH  10  11
ENDBRANCH   9  10
ENDBRANCH   1   9
TORSDOF 9
ENDMDL
MODEL 8
REMARK VINA RESULT:    -4.328      4.484      5.883
REMARK INTER + INTRA:          -7.092
REMARK INTER:                  -5.906
REMARK INTRA:                  -1.187
REMARK UNBOUND:                -0.487
REMARK SMILES CCCCCCCCCC=CC(=O)[O-]
REMARK SMILES IDX 7 1 8 2 9 3 10 4 11 5 12 6 13 7 14 8 6 9 5 10 4 11 3 12 2 13
REMARK SMILES IDX 1 14
REMARK H PARENT
REMARK Flexibility Score: inf
ROOT
ATOM      1  C   UNL     1     130.018 119.571 138.348  1.00  0.00     0.000 C 
ENDROOT
BRANCH   1   2
ATOM      2  C   UNL     1     130.591 118.879 139.596  1.00  0.00     0.004 C 
BRANCH   2   3
ATOM      3  C   UNL     1     129.970 117.491 139.821  1.00  0.00     0.027 C 
BRANCH   3   4
ATOM      4  C   UNL     1     129.029 117.468 140.998  1.00  0.00    -0.025 C 
ATOM      5  C   UNL     1     127.692 117.590 140.944  1.00  0.00     0.020 C 
BRANCH   5   6
ATOM      6  C   UNL     1     126.877 117.818 139.732  1.00  0.00     0.064 C 
ATOM      7  O   UNL     1     126.274 118.915 139.603  1.00  0.00    -0.545 OA
ATOM      8  O   UNL     1     126.777 116.875 138.717  1.00  0.00    -0.545 OA
ENDBRANCH   5   6
ENDBRANCH   3   4
ENDBRANCH   2   3
ENDBRANCH   1   2
BRANCH   1   9
ATOM      9  C   UNL     1     129.050 120.712 138.696  1.00  0.00     0.000 C 
BRANCH   9  10
ATOM     10  C   UNL     1     129.085 121.083 140.188  1.00  0.00     0.000 C 
BRANCH  10  11
ATOM     11  C   UNL     1     129.702 122.469 140.445  1.00  0.00    -0.000 C 
BRANCH  11  12
ATOM     12  C   UNL     1     131.222 122.428 140.708  1.00  0.00    -0.000 C 
BRANCH  12  13
ATOM     13  C   UNL     1     132.039 122.810 139.464  1.00  0.00    -0.003 C 
ATOM     14  C   UNL     1     132.826 124.095 139.695  1.00  0.00     0.004 C 
ENDBRANCH  12  13
ENDBRANCH  11  12
ENDBRANCH  10  11
ENDBRANCH   9  10
ENDBRANCH   1   9
TORSDOF 9
ENDMDL
MODEL 9
REMARK VINA RESULT:    -4.263      3.221      6.430
REMARK INTER + INTRA:          -6.993
REMARK INTER:                  -6.114
REMARK INTRA:                  -0.879
REMARK UNBOUND:                -0.487
REMARK SMILES CCCCCCCCCC=CC(=O)[O-]
REMARK SMILES IDX 7 1 8 2 9 3 10 4 11 5 12 6 13 7 14 8 6 9 5 10 4 11 3 12 2 13
REMARK SMILES IDX 1 14
REMARK H PARENT
REMARK Flexibility Score: inf
ROOT
ATOM      1  C   UNL     1     127.370 119.716 139.353  1.00  0.00     0.000 C 
ENDROOT
BRANCH   1   2
ATOM      2  C   UNL     1     128.444 119.286 138.339  1.00  0.00     0.004 C 
BRANCH   2   3
ATOM      3  C   UNL     1     129.863 119.419 138.913  1.00  0.00     0.027 C 
BRANCH   3   4
ATOM      4  C   UNL     1     130.619 120.574 138.310  1.00  0.00    -0.025 C 
ATOM      5  C   UNL     1     130.871 121.752 138.906  1.00  0.00     0.020 C 
BRANCH   5   6
ATOM      6  C   UNL     1     130.420 122.173 140.249  1.00  0.00     0.064 C 
ATOM      7  O   UNL     1     131.257 122.212 141.187  1.00  0.00    -0.545 OA
ATOM      8  O   UNL     1     129.109 122.557 140.505  1.00  0.00    -0.545 OA
ENDBRANCH   5   6
ENDBRANCH   3   4
ENDBRANCH   2   3
ENDBRANCH   1   2
BRANCH   1   9
ATOM      9  C   UNL     1     126.517 120.890 138.848  1.00  0.00     0.000 C 
BRANCH   9  10
ATOM     10  C   UNL     1     127.145 121.602 137.638  1.00  0.00     0.000 C 
BRANCH  10  11
ATOM     11  C   UNL     1     126.257 121.542 136.383  1.00  0.00    -0.000 C 
BRANCH  11  12
ATOM     12  C   UNL     1     126.388 122.784 135.476  1.00  0.00    -0.000 C 
BRANCH  12  13
ATOM     13  C   UNL     1     125.928 122.505 134.037  1.00  0.00    -0.003 C 
ATOM     14  C   UNL     1     126.411 123.593 133.084  1.00  0.00     0.004 C 
ENDBRANCH  12  13
ENDBRANCH  11  12
ENDBRANCH  10  11
ENDBRANCH   9  10
ENDBRANCH   1   9
TORSDOF 9
ENDMDL
