MODEL 1
REMARK VINA RESULT:    32.818      0.000      0.000
REMARK INTER + INTRA:          40.325
REMARK INTER:                  39.533
REMARK INTRA:                   0.792
REMARK UNBOUND:                 0.792
REMARK SMILES O=c1ccn([C@@H]2O[C@H](CO)[C@H](O)[C@H]2O)c(=O)[nH]1
REMARK SMILES IDX 6 1 13 2 11 3 8 4 7 5 5 6 3 7 4 8 2 9 17 10 1 11 15 12 16 14
REMARK SMILES IDX 14 15 12 17 9 19 10 20
REMARK H PARENT 17 13 14 16 12 18 10 21
REMARK Flexibility Score: inf
ROOT
ATOM      1  C   UNL     1       1.542  23.732  -0.837  1.00  0.00     0.255 C 
ATOM      2  C   UNL     1       0.909  24.054   0.528  1.00  0.00     0.196 C 
ATOM      3  C   UNL     1       1.892  25.024   1.160  1.00  0.00     0.179 C 
ATOM      4  C   UNL     1       2.780  25.428  -0.019  1.00  0.00     0.178 C 
ATOM      5  O   UNL     1       2.815  24.342  -0.911  1.00  0.00    -0.347 OA
ENDROOT
BRANCH   1   6
ATOM      6  N   UNL     1       1.651  22.271  -1.032  1.00  0.00    -0.271 N 
ATOM      7  C   UNL     1       2.133  20.398  -2.454  1.00  0.00     0.090 A 
ATOM      8  C   UNL     1       1.989  21.769  -2.261  1.00  0.00     0.099 A 
ATOM      9  C   UNL     1       1.942  19.549  -1.370  1.00  0.00     0.253 A 
ATOM     10  N   UNL     1       1.628  20.065  -0.154  1.00  0.00    -0.274 N 
ATOM     11  O   UNL     1       2.066  18.304  -1.517  1.00  0.00    -0.269 OA
ATOM     12  C   UNL     1       1.491  21.408   0.026  1.00  0.00     0.330 A 
ATOM     13  H   UNL     1       1.495  19.421   0.659  1.00  0.00     0.175 HD
ATOM     14  O   UNL     1       1.217  21.848   1.176  1.00  0.00    -0.248 OA
ENDBRANCH   1   6
BRANCH   2  15
ATOM     15  O   UNL     1      -0.339  24.676   0.360  1.00  0.00    -0.386 OA
ATOM     16  H   UNL     1      -0.344  25.054  -0.558  1.00  0.00     0.211 HD
ENDBRANCH   2  15
BRANCH   3  17
ATOM     17  O   UNL     1       2.614  24.408   2.202  1.00  0.00    -0.387 OA
ATOM     18  H   UNL     1       2.560  24.989   3.004  1.00  0.00     0.211 HD
ENDBRANCH   3  17
BRANCH   4  19
ATOM     19  C   UNL     1       4.209  25.841   0.366  1.00  0.00     0.191 C 
BRANCH  19  20
ATOM     20  O   UNL     1       4.932  26.236  -0.769  1.00  0.00    -0.394 OA
ATOM     21  H   UNL     1       4.965  25.451  -1.376  1.00  0.00     0.210 HD
ENDBRANCH  19  20
ENDBRANCH   4  19
TORSDOF 5
ENDMDL
MODEL 2
REMARK VINA RESULT:    34.879      7.775      9.128
REMARK INTER + INTRA:          42.808
REMARK INTER:                  43.233
REMARK INTRA:                  -0.426
REMARK UNBOUND:                 0.792
REMARK SMILES O=c1ccn([C@@H]2O[C@H](CO)[C@H](O)[C@H]2O)c(=O)[nH]1
REMARK SMILES IDX 6 1 13 2 11 3 8 4 7 5 5 6 3 7 4 8 2 9 17 10 1 11 15 12 16 14
REMARK SMILES IDX 14 15 12 17 9 19 10 20
REMARK H PARENT 17 13 14 16 12 18 10 21
REMARK Flexibility Score: inf
ROOT
ATOM      1  C   UNL     1      -1.940  27.125  -5.967  1.00  0.00     0.255 C 
ATOM      2  C   UNL     1      -1.842  28.010  -4.712  1.00  0.00     0.196 C 
ATOM      3  C   UNL     1      -1.018  27.176  -3.747  1.00  0.00     0.179 C 
ATOM      4  C   UNL     1      -0.439  26.083  -4.648  1.00  0.00     0.178 C 
ATOM      5  O   UNL     1      -1.355  25.868  -5.691  1.00  0.00    -0.347 OA
ENDROOT
BRANCH   1   6
ATOM      6  N   UNL     1      -3.347  26.965  -6.388  1.00  0.00    -0.271 N 
ATOM      7  C   UNL     1      -5.680  26.856  -5.831  1.00  0.00     0.090 A 
ATOM      8  C   UNL     1      -4.346  26.970  -5.450  1.00  0.00     0.099 A 
ATOM      9  C   UNL     1      -5.980  26.755  -7.184  1.00  0.00     0.253 A 
ATOM     10  N   UNL     1      -4.979  26.772  -8.102  1.00  0.00    -0.274 N 
ATOM     11  O   UNL     1      -7.179  26.650  -7.557  1.00  0.00    -0.269 OA
ATOM     12  C   UNL     1      -3.676  26.884  -7.720  1.00  0.00     0.330 A 
ATOM     13  H   UNL     1      -5.213  26.704  -9.119  1.00  0.00     0.175 HD
ATOM     14  O   UNL     1      -2.778  26.916  -8.606  1.00  0.00    -0.248 OA
ENDBRANCH   1   6
BRANCH   2  15
ATOM     15  O   UNL     1      -1.173  29.210  -5.004  1.00  0.00    -0.386 OA
ATOM     16  H   UNL     1      -1.571  29.557  -5.844  1.00  0.00     0.211 HD
ENDBRANCH   2  15
BRANCH   3  17
ATOM     17  O   UNL     1      -1.822  26.660  -2.710  1.00  0.00    -0.387 OA
ATOM     18  H   UNL     1      -1.247  26.111  -2.116  1.00  0.00     0.211 HD
ENDBRANCH   3  17
BRANCH   4  19
ATOM     19  C   UNL     1      -0.131  24.759  -3.932  1.00  0.00     0.191 C 
BRANCH  19  20
ATOM     20  O   UNL     1      -0.774  23.690  -4.573  1.00  0.00    -0.394 OA
ATOM     21  H   UNL     1      -1.050  23.053  -3.864  1.00  0.00     0.210 HD
ENDBRANCH  19  20
ENDBRANCH   4  19
TORSDOF 5
ENDMDL
MODEL 3
REMARK VINA RESULT:    35.174      7.393      8.990
REMARK INTER + INTRA:          43.162
REMARK INTER:                  43.570
REMARK INTRA:                  -0.407
REMARK UNBOUND:                 0.792
REMARK SMILES O=c1ccn([C@@H]2O[C@H](CO)[C@H](O)[C@H]2O)c(=O)[nH]1
REMARK SMILES IDX 6 1 13 2 11 3 8 4 7 5 5 6 3 7 4 8 2 9 17 10 1 11 15 12 16 14
REMARK SMILES IDX 14 15 12 17 9 19 10 20
REMARK H PARENT 17 13 14 16 12 18 10 21
REMARK Flexibility Score: inf
ROOT
ATOM      1  C   UNL     1      -2.588  27.690  -5.689  1.00  0.00     0.255 C 
ATOM      2  C   UNL     1      -1.926  28.150  -7.000  1.00  0.00     0.196 C 
ATOM      3  C   UNL     1      -2.902  27.704  -8.073  1.00  0.00     0.179 C 
ATOM      4  C   UNL     1      -4.160  27.364  -7.271  1.00  0.00     0.178 C 
ATOM      5  O   UNL     1      -3.745  26.939  -5.997  1.00  0.00    -0.347 OA
ENDROOT
BRANCH   1   6
ATOM      6  N   UNL     1      -1.647  26.890  -4.878  1.00  0.00    -0.271 N 
ATOM      7  C   UNL     1      -0.503  24.820  -4.468  1.00  0.00     0.090 A 
ATOM      8  C   UNL     1      -1.414  25.579  -5.198  1.00  0.00     0.099 A 
ATOM      9  C   UNL     1       0.177  25.425  -3.418  1.00  0.00     0.253 A 
ATOM     10  N   UNL     1      -0.051  26.732  -3.127  1.00  0.00    -0.274 N 
ATOM     11  O   UNL     1       1.007  24.761  -2.740  1.00  0.00    -0.269 OA
ATOM     12  C   UNL     1      -0.943  27.467  -3.848  1.00  0.00     0.330 A 
ATOM     13  H   UNL     1       0.471  27.183  -2.342  1.00  0.00     0.175 HD
ATOM     14  O   UNL     1      -1.111  28.683  -3.558  1.00  0.00    -0.248 OA
ENDBRANCH   1   6
BRANCH   2  15
ATOM     15  O   UNL     1      -1.792  29.549  -7.022  1.00  0.00    -0.386 OA
ATOM     16  H   UNL     1      -0.832  29.737  -7.190  1.00  0.00     0.211 HD
ENDBRANCH   2  15
BRANCH   3  17
ATOM     17  O   UNL     1      -2.397  26.600  -8.790  1.00  0.00    -0.387 OA
ATOM     18  H   UNL     1      -2.360  25.822  -8.177  1.00  0.00     0.211 HD
ENDBRANCH   3  17
BRANCH   4  19
ATOM     19  C   UNL     1      -5.064  26.301  -7.915  1.00  0.00     0.191 C 
BRANCH  19  20
ATOM     20  O   UNL     1      -6.291  26.223  -7.242  1.00  0.00    -0.394 OA
ATOM     21  H   UNL     1      -6.321  26.987  -6.609  1.00  0.00     0.210 HD
ENDBRANCH  19  20
ENDBRANCH   4  19
TORSDOF 5
ENDMDL
MODEL 4
REMARK VINA RESULT:    35.568     14.037     16.251
REMARK INTER + INTRA:          43.637
REMARK INTER:                  43.923
REMARK INTRA:                  -0.285
REMARK UNBOUND:                 0.792
REMARK SMILES O=c1ccn([C@@H]2O[C@H](CO)[C@H](O)[C@H]2O)c(=O)[nH]1
REMARK SMILES IDX 6 1 13 2 11 3 8 4 7 5 5 6 3 7 4 8 2 9 17 10 1 11 15 12 16 14
REMARK SMILES IDX 14 15 12 17 9 19 10 20
REMARK H PARENT 17 13 14 16 12 18 10 21
REMARK Flexibility Score: inf
ROOT
ATOM      1  C   UNL     1      -8.537  29.272  10.472  1.00  0.00     0.255 C 
ATOM      2  C   UNL     1     -10.010  29.601  10.172  1.00  0.00     0.196 C 
ATOM      3  C   UNL     1     -10.726  28.281  10.393  1.00  0.00     0.179 C 
ATOM      4  C   UNL     1      -9.677  27.441  11.125  1.00  0.00     0.178 C 
ATOM      5  O   UNL     1      -8.412  27.882  10.699  1.00  0.00    -0.347 OA
ENDROOT
BRANCH   1   6
ATOM      6  N   UNL     1      -7.667  29.698   9.356  1.00  0.00    -0.271 N 
ATOM      7  C   UNL     1      -6.212  29.140   7.530  1.00  0.00     0.090 A 
ATOM      8  C   UNL     1      -7.007  28.760   8.607  1.00  0.00     0.099 A 
ATOM      9  C   UNL     1      -6.114  30.491   7.219  1.00  0.00     0.253 A 
ATOM     10  N   UNL     1      -6.791  31.407   7.959  1.00  0.00    -0.274 N 
ATOM     11  O   UNL     1      -5.401  30.864   6.249  1.00  0.00    -0.269 OA
ATOM     12  C   UNL     1      -7.568  31.025   9.011  1.00  0.00     0.330 A 
ATOM     13  H   UNL     1      -6.720  32.421   7.713  1.00  0.00     0.175 HD
ATOM     14  O   UNL     1      -8.196  31.905   9.661  1.00  0.00    -0.248 OA
ENDBRANCH   1   6
BRANCH   2  15
ATOM     15  O   UNL     1     -10.494  30.567  11.070  1.00  0.00    -0.386 OA
ATOM     16  H   UNL     1     -11.408  30.803  10.764  1.00  0.00     0.211 HD
ENDBRANCH   2  15
BRANCH   3  17
ATOM     17  O   UNL     1     -11.125  27.709   9.167  1.00  0.00    -0.387 OA
ATOM     18  H   UNL     1     -10.992  26.728   9.224  1.00  0.00     0.211 HD
ENDBRANCH   3  17
BRANCH   4  19
ATOM     19  C   UNL     1      -9.808  25.925  10.912  1.00  0.00     0.191 C 
BRANCH  19  20
ATOM     20  O   UNL     1      -8.651  25.410  10.309  1.00  0.00    -0.394 OA
ATOM     21  H   UNL     1      -8.951  24.836   9.556  1.00  0.00     0.210 HD
ENDBRANCH  19  20
ENDBRANCH   4  19
TORSDOF 5
ENDMDL
