MODEL 1
REMARK VINA RESULT:    -3.489      0.000      0.000
REMARK INTER + INTRA:          -5.336
REMARK INTER:                  -5.324
REMARK INTRA:                  -0.012
REMARK UNBOUND:                -0.012
REMARK SMILES CC1=CCC[C@@H](C)C(=O)C[C@H](C(C)C)C(=O)C1
REMARK SMILES IDX 8 1 9 2 6 3 7 4 5 5 4 6 3 7 2 8 1 9 10 11 11 12 15 13 16 14
REMARK SMILES IDX 17 15 12 17 13 18 14 19
REMARK H PARENT
REMARK Flexibility Score: 70.00
ROOT
ATOM      1  C   UNL     1      27.303  31.597 137.686  1.00  0.00     0.136 C 
ATOM      2  O   UNL     1      27.289  30.526 137.097  1.00  0.00    -0.299 OA
ENDROOT
BRANCH   1   3
ATOM      3  C   UNL     1      28.590  32.418 137.632  1.00  0.00     0.053 C 
ATOM      4  C   UNL     1      29.165  32.339 136.211  1.00  0.00     0.016 C 
BRANCH   3   5
ATOM      5  C   UNL     1      29.695  32.053 138.661  1.00  0.00     0.015 C 
BRANCH   5   6
ATOM      6  C   UNL     1      29.269  30.997 139.708  1.00  0.00     0.028 C 
BRANCH   6   7
ATOM      7  C   UNL     1      29.185  31.599 141.093  1.00  0.00    -0.028 C 
ATOM      8  C   UNL     1      28.183  31.401 141.981  1.00  0.00    -0.070 CG0
ATOM      9  C   UNL     1      28.308  32.041 143.340  1.00  0.00     0.039 C 
ATOM     10  G   UNL     1      26.943  30.584 141.665  1.00  0.00     0.000 G0
ENDBRANCH   6   7
ENDBRANCH   5   6
ENDBRANCH   3   5
ENDBRANCH   1   3
BRANCH   1  11
ATOM     11  C   UNL     1      26.059  31.996 138.459  1.00  0.00     0.087 C 
BRANCH  11  12
ATOM     12  C   UNL     1      25.561  30.912 139.458  1.00  0.00     0.066 C 
BRANCH  12  13
ATOM     13  C   UNL     1      25.904  31.326 140.881  1.00  0.00     0.140 C 
ATOM     14  O   UNL     1      25.319  32.269 141.396  1.00  0.00    -0.299 OA
BRANCH  13  15
ATOM     15  C   UNL     1      26.930  30.583 141.694  1.00  0.00     0.106 CG0
ATOM     16  G   UNL     1      28.180  31.407 141.943  1.00  0.00     0.000 G0
ENDBRANCH  13  15
ENDBRANCH  12  13
BRANCH  12  17
ATOM     17  C   UNL     1      24.046  30.542 139.324  1.00  0.00    -0.006 C 
ATOM     18  C   UNL     1      23.273  31.529 138.432  1.00  0.00     0.008 C 
ATOM     19  C   UNL     1      23.880  29.121 138.753  1.00  0.00     0.008 C 
ENDBRANCH  12  17
ENDBRANCH  11  12
ENDBRANCH   1  11
TORSDOF 1
ENDMDL
MODEL 2
REMARK VINA RESULT:    -3.366      1.945      4.138
REMARK INTER + INTRA:          -5.149
REMARK INTER:                  -5.100
REMARK INTRA:                  -0.050
REMARK UNBOUND:                -0.012
REMARK SMILES CC1=CCC[C@@H](C)C(=O)C[C@H](C(C)C)C(=O)C1
REMARK SMILES IDX 8 1 9 2 6 3 7 4 5 5 4 6 3 7 2 8 1 9 10 11 11 12 15 13 16 14
REMARK SMILES IDX 17 15 12 17 13 18 14 19
REMARK H PARENT
REMARK Flexibility Score: 70.00
ROOT
ATOM      1  C   UNL     1      28.250  30.540 139.056  1.00  0.00     0.136 C 
ATOM      2  O   UNL     1      29.443  30.779 139.176  1.00  0.00    -0.299 OA
ENDROOT
BRANCH   1   3
ATOM      3  C   UNL     1      27.522  31.152 137.862  1.00  0.00     0.053 C 
ATOM      4  C   UNL     1      28.388  30.965 136.608  1.00  0.00     0.016 C 
BRANCH   3   5
ATOM      5  C   UNL     1      27.106  32.643 137.986  1.00  0.00     0.015 C 
BRANCH   5   6
ATOM      6  C   UNL     1      25.621  32.862 138.364  1.00  0.00     0.028 C 
BRANCH   6   7
ATOM      7  C   UNL     1      24.781  31.656 138.010  1.00  0.00    -0.028 C 
ATOM      8  C   UNL     1      24.133  30.858 138.891  1.00  0.00    -0.070 CG0
ATOM      9  C   UNL     1      23.292  29.735 138.340  1.00  0.00     0.039 C 
ATOM     10  G   UNL     1      24.230  31.033 140.396  1.00  0.00     0.000 G0
ENDBRANCH   6   7
ENDBRANCH   5   6
ENDBRANCH   3   5
ENDBRANCH   1   3
BRANCH   1  11
ATOM     11  C   UNL     1      27.587  29.696 140.129  1.00  0.00     0.087 C 
BRANCH  11  12
ATOM     12  C   UNL     1      26.716  30.511 141.127  1.00  0.00     0.066 C 
BRANCH  12  13
ATOM     13  C   UNL     1      25.257  30.103 140.991  1.00  0.00     0.140 C 
ATOM     14  O   UNL     1      24.895  29.005 141.390  1.00  0.00    -0.299 OA
BRANCH  13  15
ATOM     15  C   UNL     1      24.228  31.032 140.403  1.00  0.00     0.106 CG0
ATOM     16  G   UNL     1      24.114  30.890 138.895  1.00  0.00     0.000 G0
ENDBRANCH  13  15
ENDBRANCH  12  13
BRANCH  12  17
ATOM     17  C   UNL     1      27.187  30.444 142.617  1.00  0.00    -0.006 C 
ATOM     18  C   UNL     1      28.443  31.293 142.880  1.00  0.00     0.008 C 
ATOM     19  C   UNL     1      26.066  30.909 143.566  1.00  0.00     0.008 C 
ENDBRANCH  12  17
ENDBRANCH  11  12
ENDBRANCH   1  11
TORSDOF 1
ENDMDL
MODEL 3
REMARK VINA RESULT:    -3.283     11.934     14.155
REMARK INTER + INTRA:          -5.022
REMARK INTER:                  -4.717
REMARK INTRA:                  -0.304
REMARK UNBOUND:                -0.012
REMARK SMILES CC1=CCC[C@@H](C)C(=O)C[C@H](C(C)C)C(=O)C1
REMARK SMILES IDX 8 1 9 2 6 3 7 4 5 5 4 6 3 7 2 8 1 9 10 11 11 12 15 13 16 14
REMARK SMILES IDX 17 15 12 17 13 18 14 19
REMARK H PARENT
REMARK Flexibility Score: 70.00
ROOT
ATOM      1  C   UNL     1      35.251  41.929 147.932  1.00  0.00     0.136 C 
ATOM      2  O   UNL     1      35.018  43.016 148.439  1.00  0.00    -0.299 OA
ENDROOT
BRANCH   1   3
ATOM      3  C   UNL     1      36.196  41.895 146.733  1.00  0.00     0.053 C 
ATOM      4  C   UNL     1      37.540  42.508 147.148  1.00  0.00     0.016 C 
BRANCH   3   5
ATOM      5  C   UNL     1      35.696  42.574 145.429  1.00  0.00     0.015 C 
BRANCH   5   6
ATOM      6  C   UNL     1      34.856  41.654 144.511  1.00  0.00     0.028 C 
BRANCH   6   7
ATOM      7  C   UNL     1      35.312  40.216 144.608  1.00  0.00    -0.028 C 
ATOM      8  C   UNL     1      34.566  39.178 145.052  1.00  0.00    -0.070 CG0
ATOM      9  C   UNL     1      35.179  37.801 145.019  1.00  0.00     0.039 C 
ATOM     10  G   UNL     1      33.157  39.342 145.595  1.00  0.00     0.000 G0
ENDBRANCH   6   7
ENDBRANCH   5   6
ENDBRANCH   3   5
ENDBRANCH   1   3
BRANCH   1  11
ATOM     11  C   UNL     1      34.544  40.715 148.507  1.00  0.00     0.087 C 
BRANCH  11  12
ATOM     12  C   UNL     1      33.104  40.502 147.956  1.00  0.00     0.066 C 
BRANCH  12  13
ATOM     13  C   UNL     1      33.062  39.249 147.094  1.00  0.00     0.140 C 
ATOM     14  O   UNL     1      32.938  38.153 147.623  1.00  0.00    -0.299 OA
BRANCH  13  15
ATOM     15  C   UNL     1      33.137  39.321 145.592  1.00  0.00     0.106 CG0
ATOM     16  G   UNL     1      34.560  39.202 145.077  1.00  0.00     0.000 G0
ENDBRANCH  13  15
ENDBRANCH  12  13
BRANCH  12  17
ATOM     17  C   UNL     1      31.982  40.479 149.046  1.00  0.00    -0.006 C 
ATOM     18  C   UNL     1      32.384  41.231 150.326  1.00  0.00     0.008 C 
ATOM     19  C   UNL     1      30.678  41.091 148.499  1.00  0.00     0.008 C 
ENDBRANCH  12  17
ENDBRANCH  11  12
ENDBRANCH   1  11
TORSDOF 1
ENDMDL
MODEL 4
REMARK VINA RESULT:    -3.215      2.240      2.965
REMARK INTER + INTRA:          -4.918
REMARK INTER:                  -4.867
REMARK INTRA:                  -0.051
REMARK UNBOUND:                -0.012
REMARK SMILES CC1=CCC[C@@H](C)C(=O)C[C@H](C(C)C)C(=O)C1
REMARK SMILES IDX 8 1 9 2 6 3 7 4 5 5 4 6 3 7 2 8 1 9 10 11 11 12 15 13 16 14
REMARK SMILES IDX 17 15 12 17 13 18 14 19
REMARK H PARENT
REMARK Flexibility Score: 70.00
ROOT
ATOM      1  C   UNL     1      28.106  30.684 137.938  1.00  0.00     0.136 C 
ATOM      2  O   UNL     1      28.644  31.021 136.894  1.00  0.00    -0.299 OA
ENDROOT
BRANCH   1   3
ATOM      3  C   UNL     1      29.010  30.319 139.114  1.00  0.00     0.053 C 
ATOM      4  C   UNL     1      28.378  29.146 139.876  1.00  0.00     0.016 C 
BRANCH   3   5
ATOM      5  C   UNL     1      29.355  31.459 140.111  1.00  0.00     0.015 C 
BRANCH   5   6
ATOM      6  C   UNL     1      29.552  32.846 139.452  1.00  0.00     0.028 C 
BRANCH   6   7
ATOM      7  C   UNL     1      28.697  33.899 140.120  1.00  0.00    -0.028 C 
ATOM      8  C   UNL     1      27.472  34.299 139.710  1.00  0.00    -0.070 CG0
ATOM      9  C   UNL     1      26.746  35.323 140.546  1.00  0.00     0.039 C 
ATOM     10  G   UNL     1      26.809  33.780 138.446  1.00  0.00     0.000 G0
ENDBRANCH   6   7
ENDBRANCH   5   6
ENDBRANCH   3   5
ENDBRANCH   1   3
BRANCH   1  11
ATOM     11  C   UNL     1      26.591  30.610 137.961  1.00  0.00     0.087 C 
BRANCH  11  12
ATOM     12  C   UNL     1      25.937  31.387 139.141  1.00  0.00     0.066 C 
BRANCH  12  13
ATOM     13  C   UNL     1      25.675  32.827 138.727  1.00  0.00     0.140 C 
ATOM     14  O   UNL     1      24.525  33.234 138.642  1.00  0.00    -0.299 OA
BRANCH  13  15
ATOM     15  C   UNL     1      26.802  33.785 138.447  1.00  0.00     0.106 CG0
ATOM     16  G   UNL     1      27.448  34.310 139.717  1.00  0.00     0.000 G0
ENDBRANCH  13  15
ENDBRANCH  12  13
BRANCH  12  17
ATOM     17  C   UNL     1      24.649  30.723 139.731  1.00  0.00    -0.006 C 
ATOM     18  C   UNL     1      23.897  29.868 138.696  1.00  0.00     0.008 C 
ATOM     19  C   UNL     1      24.997  29.841 140.945  1.00  0.00     0.008 C 
ENDBRANCH  12  17
ENDBRANCH  11  12
ENDBRANCH   1  11
TORSDOF 1
ENDMDL
MODEL 5
REMARK VINA RESULT:    -3.142      1.753      3.908
REMARK INTER + INTRA:          -4.807
REMARK INTER:                  -4.592
REMARK INTRA:                  -0.215
REMARK UNBOUND:                -0.012
REMARK SMILES CC1=CCC[C@@H](C)C(=O)C[C@H](C(C)C)C(=O)C1
REMARK SMILES IDX 8 1 9 2 6 3 7 4 5 5 4 6 3 7 2 8 1 9 10 11 11 12 15 13 16 14
REMARK SMILES IDX 17 15 12 17 13 18 14 19
REMARK H PARENT
REMARK Flexibility Score: 70.00
ROOT
ATOM      1  C   UNL     1      25.753  31.838 138.847  1.00  0.00     0.136 C 
ATOM      2  O   UNL     1      25.060  32.417 138.023  1.00  0.00    -0.299 OA
ENDROOT
BRANCH   1   3
ATOM      3  C   UNL     1      25.531  32.173 140.320  1.00  0.00     0.053 C 
ATOM      4  C   UNL     1      24.023  32.150 140.607  1.00  0.00     0.016 C 
BRANCH   3   5
ATOM      5  C   UNL     1      26.137  33.508 140.833  1.00  0.00     0.015 C 
BRANCH   5   6
ATOM      6  C   UNL     1      27.467  33.349 141.608  1.00  0.00     0.028 C 
BRANCH   6   7
ATOM      7  C   UNL     1      27.466  32.092 142.449  1.00  0.00    -0.028 C 
ATOM      8  C   UNL     1      28.285  31.028 142.281  1.00  0.00    -0.070 CG0
ATOM      9  C   UNL     1      28.173  29.889 143.262  1.00  0.00     0.039 C 
ATOM     10  G   UNL     1      29.288  30.925 141.146  1.00  0.00     0.000 G0
ENDBRANCH   6   7
ENDBRANCH   5   6
ENDBRANCH   3   5
ENDBRANCH   1   3
BRANCH   1  11
ATOM     11  C   UNL     1      26.807  30.875 138.332  1.00  0.00     0.087 C 
BRANCH  11  12
ATOM     12  C   UNL     1      28.260  31.247 138.746  1.00  0.00     0.066 C 
BRANCH  12  13
ATOM     13  C   UNL     1      28.716  30.353 139.889  1.00  0.00     0.140 C 
ATOM     14  O   UNL     1      28.631  29.138 139.779  1.00  0.00    -0.299 OA
BRANCH  13  15
ATOM     15  C   UNL     1      29.302  30.924 141.152  1.00  0.00     0.106 CG0
ATOM     16  G   UNL     1      28.281  31.028 142.271  1.00  0.00     0.000 G0
ENDBRANCH  13  15
ENDBRANCH  12  13
BRANCH  12  17
ATOM     17  C   UNL     1      29.297  31.243 137.574  1.00  0.00    -0.006 C 
ATOM     18  C   UNL     1      28.627  31.224 136.189  1.00  0.00     0.008 C 
ATOM     19  C   UNL     1      30.223  32.471 137.661  1.00  0.00     0.008 C 
ENDBRANCH  12  17
ENDBRANCH  11  12
ENDBRANCH   1  11
TORSDOF 1
ENDMDL
MODEL 6
REMARK VINA RESULT:    -3.121      2.254      4.663
REMARK INTER + INTRA:          -4.775
REMARK INTER:                  -4.521
REMARK INTRA:                  -0.254
REMARK UNBOUND:                -0.012
REMARK SMILES CC1=CCC[C@@H](C)C(=O)C[C@H](C(C)C)C(=O)C1
REMARK SMILES IDX 8 1 9 2 6 3 7 4 5 5 4 6 3 7 2 8 1 9 10 11 11 12 15 13 16 14
REMARK SMILES IDX 17 15 12 17 13 18 14 19
REMARK H PARENT
REMARK Flexibility Score: 70.00
ROOT
ATOM      1  C   UNL     1      28.599  31.120 140.385  1.00  0.00     0.136 C 
ATOM      2  O   UNL     1      29.557  30.402 140.629  1.00  0.00    -0.299 OA
ENDROOT
BRANCH   1   3
ATOM      3  C   UNL     1      27.287  30.819 141.106  1.00  0.00     0.053 C 
ATOM      4  C   UNL     1      27.589  30.555 142.588  1.00  0.00     0.016 C 
BRANCH   3   5
ATOM      5  C   UNL     1      26.427  29.658 140.537  1.00  0.00     0.015 C 
BRANCH   5   6
ATOM      6  C   UNL     1      25.149  30.115 139.793  1.00  0.00     0.028 C 
BRANCH   6   7
ATOM      7  C   UNL     1      24.681  31.466 140.283  1.00  0.00    -0.028 C 
ATOM      8  C   UNL     1      24.713  32.618 139.575  1.00  0.00    -0.070 CG0
ATOM      9  C   UNL     1      24.143  33.858 140.216  1.00  0.00     0.039 C 
ATOM     10  G   UNL     1      25.308  32.720 138.182  1.00  0.00     0.000 G0
ENDBRANCH   6   7
ENDBRANCH   5   6
ENDBRANCH   3   5
ENDBRANCH   1   3
BRANCH   1  11
ATOM     11  C   UNL     1      28.782  32.217 139.352  1.00  0.00     0.087 C 
BRANCH  11  12
ATOM     12  C   UNL     1      27.859  32.074 138.108  1.00  0.00     0.066 C 
BRANCH  12  13
ATOM     13  C   UNL     1      26.754  33.117 138.162  1.00  0.00     0.140 C 
ATOM     14  O   UNL     1      27.042  34.306 138.182  1.00  0.00    -0.299 OA
BRANCH  13  15
ATOM     15  C   UNL     1      25.300  32.727 138.161  1.00  0.00     0.106 CG0
ATOM     16  G   UNL     1      24.730  32.609 139.563  1.00  0.00     0.000 G0
ENDBRANCH  13  15
ENDBRANCH  12  13
BRANCH  12  17
ATOM     17  C   UNL     1      28.604  32.108 136.732  1.00  0.00    -0.006 C 
ATOM     18  C   UNL     1      30.046  32.630 136.852  1.00  0.00     0.008 C 
ATOM     19  C   UNL     1      28.635  30.706 136.094  1.00  0.00     0.008 C 
ENDBRANCH  12  17
ENDBRANCH  11  12
ENDBRANCH   1  11
TORSDOF 1
ENDMDL
MODEL 7
REMARK VINA RESULT:    -3.094      2.558      5.457
REMARK INTER + INTRA:          -4.734
REMARK INTER:                  -4.493
REMARK INTRA:                  -0.241
REMARK UNBOUND:                -0.012
REMARK SMILES CC1=CCC[C@@H](C)C(=O)C[C@H](C(C)C)C(=O)C1
REMARK SMILES IDX 8 1 9 2 6 3 7 4 5 5 4 6 3 7 2 8 1 9 10 11 11 12 15 13 16 14
REMARK SMILES IDX 17 15 12 17 13 18 14 19
REMARK H PARENT
REMARK Flexibility Score: 70.00
ROOT
ATOM      1  C   UNL     1      27.877  30.510 143.822  1.00  0.00     0.136 C 
ATOM      2  O   UNL     1      28.695  29.658 144.137  1.00  0.00    -0.299 OA
ENDROOT
BRANCH   1   3
ATOM      3  C   UNL     1      26.736  30.790 144.797  1.00  0.00     0.053 C 
ATOM      4  C   UNL     1      27.330  31.058 146.187  1.00  0.00     0.016 C 
BRANCH   3   5
ATOM      5  C   UNL     1      25.628  29.708 144.907  1.00  0.00     0.015 C 
BRANCH   5   6
ATOM      6  C   UNL     1      24.418  29.934 143.968  1.00  0.00     0.028 C 
BRANCH   6   7
ATOM      7  C   UNL     1      24.306  31.385 143.557  1.00  0.00    -0.028 C 
ATOM      8  C   UNL     1      24.463  31.865 142.301  1.00  0.00    -0.070 CG0
ATOM      9  C   UNL     1      24.252  33.341 142.078  1.00  0.00     0.039 C 
ATOM     10  G   UNL     1      24.855  30.992 141.123  1.00  0.00     0.000 G0
ENDBRANCH   6   7
ENDBRANCH   5   6
ENDBRANCH   3   5
ENDBRANCH   1   3
BRANCH   1  11
ATOM     11  C   UNL     1      28.039  31.180 142.470  1.00  0.00     0.087 C 
BRANCH  11  12
ATOM     12  C   UNL     1      27.413  30.382 141.290  1.00  0.00     0.066 C 
BRANCH  12  13
ATOM     13  C   UNL     1      26.274  31.180 140.674  1.00  0.00     0.140 C 
ATOM     14  O   UNL     1      26.509  31.981 139.780  1.00  0.00    -0.299 OA
BRANCH  13  15
ATOM     15  C   UNL     1      24.847  30.988 141.115  1.00  0.00     0.106 CG0
ATOM     16  G   UNL     1      24.480  31.872 142.293  1.00  0.00     0.000 G0
ENDBRANCH  13  15
ENDBRANCH  12  13
BRANCH  12  17
ATOM     17  C   UNL     1      28.433  29.915 140.199  1.00  0.00    -0.006 C 
ATOM     18  C   UNL     1      29.786  29.490 140.797  1.00  0.00     0.008 C 
ATOM     19  C   UNL     1      27.860  28.741 139.383  1.00  0.00     0.008 C 
ENDBRANCH  12  17
ENDBRANCH  11  12
ENDBRANCH   1  11
TORSDOF 1
ENDMDL
MODEL 8
REMARK VINA RESULT:    -3.079      2.137      4.012
REMARK INTER + INTRA:          -4.711
REMARK INTER:                  -4.792
REMARK INTRA:                   0.082
REMARK UNBOUND:                -0.012
REMARK SMILES CC1=CCC[C@@H](C)C(=O)C[C@H](C(C)C)C(=O)C1
REMARK SMILES IDX 8 1 9 2 6 3 7 4 5 5 4 6 3 7 2 8 1 9 10 11 11 12 15 13 16 14
REMARK SMILES IDX 17 15 12 17 13 18 14 19
REMARK H PARENT
REMARK Flexibility Score: 70.00
ROOT
ATOM      1  C   UNL     1      27.050  31.929 138.089  1.00  0.00     0.136 C 
ATOM      2  O   UNL     1      27.045  33.065 137.638  1.00  0.00    -0.299 OA
ENDROOT
BRANCH   1   3
ATOM      3  C   UNL     1      25.916  31.538 139.034  1.00  0.00     0.053 C 
ATOM      4  C   UNL     1      24.695  31.134 138.197  1.00  0.00     0.016 C 
BRANCH   3   5
ATOM      5  C   UNL     1      25.494  32.593 140.093  1.00  0.00     0.015 C 
BRANCH   5   6
ATOM      6  C   UNL     1      26.460  32.712 141.296  1.00  0.00     0.028 C 
BRANCH   6   7
ATOM      7  C   UNL     1      27.357  33.922 141.163  1.00  0.00    -0.028 C 
ATOM      8  C   UNL     1      28.684  33.897 140.899  1.00  0.00    -0.070 CG0
ATOM      9  C   UNL     1      29.398  35.216 140.743  1.00  0.00     0.039 C 
ATOM     10  G   UNL     1      29.480  32.611 140.774  1.00  0.00     0.000 G0
ENDBRANCH   6   7
ENDBRANCH   5   6
ENDBRANCH   3   5
ENDBRANCH   1   3
BRANCH   1  11
ATOM     11  C   UNL     1      28.206  31.022 137.708  1.00  0.00     0.087 C 
BRANCH  11  12
ATOM     12  C   UNL     1      29.257  30.830 138.840  1.00  0.00     0.066 C 
BRANCH  12  13
ATOM     13  C   UNL     1      29.717  32.185 139.354  1.00  0.00     0.140 C 
ATOM     14  O   UNL     1      30.265  32.968 138.591  1.00  0.00    -0.299 OA
BRANCH  13  15
ATOM     15  C   UNL     1      29.487  32.608 140.780  1.00  0.00     0.106 CG0
ATOM     16  G   UNL     1      28.681  33.891 140.882  1.00  0.00     0.000 G0
ENDBRANCH  13  15
ENDBRANCH  12  13
BRANCH  12  17
ATOM     17  C   UNL     1      28.794  29.905 140.014  1.00  0.00    -0.006 C 
ATOM     18  C   UNL     1      27.854  28.780 139.547  1.00  0.00     0.008 C 
ATOM     19  C   UNL     1      30.008  29.274 140.722  1.00  0.00     0.008 C 
ENDBRANCH  12  17
ENDBRANCH  11  12
ENDBRANCH   1  11
TORSDOF 1
ENDMDL
MODEL 9
REMARK VINA RESULT:    -3.016      2.294      4.317
REMARK INTER + INTRA:          -4.614
REMARK INTER:                  -4.381
REMARK INTRA:                  -0.233
REMARK UNBOUND:                -0.012
REMARK SMILES CC1=CCC[C@@H](C)C(=O)C[C@H](C(C)C)C(=O)C1
REMARK SMILES IDX 8 1 9 2 6 3 7 4 5 5 4 6 3 7 2 8 1 9 10 11 11 12 15 13 16 14
REMARK SMILES IDX 17 15 12 17 13 18 14 19
REMARK H PARENT
REMARK Flexibility Score: 70.00
ROOT
ATOM      1  C   UNL     1      28.746  30.555 140.815  1.00  0.00     0.136 C 
ATOM      2  O   UNL     1      29.815  29.970 140.913  1.00  0.00    -0.299 OA
ENDROOT
BRANCH   1   3
ATOM      3  C   UNL     1      28.437  31.641 141.843  1.00  0.00     0.053 C 
ATOM      4  C   UNL     1      27.032  31.396 142.410  1.00  0.00     0.016 C 
BRANCH   3   5
ATOM      5  C   UNL     1      28.554  33.113 141.362  1.00  0.00     0.015 C 
BRANCH   5   6
ATOM      6  C   UNL     1      29.844  33.424 140.566  1.00  0.00     0.028 C 
BRANCH   6   7
ATOM      7  C   UNL     1      29.534  34.167 139.286  1.00  0.00    -0.028 C 
ATOM      8  C   UNL     1      29.448  33.615 138.053  1.00  0.00    -0.070 CG0
ATOM      9  C   UNL     1      29.067  34.512 136.903  1.00  0.00     0.039 C 
ATOM     10  G   UNL     1      29.732  32.149 137.779  1.00  0.00     0.000 G0
ENDBRANCH   6   7
ENDBRANCH   5   6
ENDBRANCH   3   5
ENDBRANCH   1   3
BRANCH   1  11
ATOM     11  C   UNL     1      27.800  30.119 139.711  1.00  0.00     0.087 C 
BRANCH  11  12
ATOM     12  C   UNL     1      27.418  31.257 138.720  1.00  0.00     0.066 C 
BRANCH  12  13
ATOM     13  C   UNL     1      28.453  31.343 137.609  1.00  0.00     0.140 C 
ATOM     14  O   UNL     1      28.250  30.773 136.546  1.00  0.00    -0.299 OA
BRANCH  13  15
ATOM     15  C   UNL     1      29.719  32.141 137.770  1.00  0.00     0.106 CG0
ATOM     16  G   UNL     1      29.447  33.609 138.046  1.00  0.00     0.000 G0
ENDBRANCH  13  15
ENDBRANCH  12  13
BRANCH  12  17
ATOM     17  C   UNL     1      25.968  31.160 138.139  1.00  0.00    -0.006 C 
ATOM     18  C   UNL     1      25.159  30.005 138.753  1.00  0.00     0.008 C 
ATOM     19  C   UNL     1      25.202  32.477 138.364  1.00  0.00     0.008 C 
ENDBRANCH  12  17
ENDBRANCH  11  12
ENDBRANCH   1  11
TORSDOF 1
ENDMDL
