MODEL 1
REMARK VINA RESULT:    -2.861      0.000      0.000
REMARK INTER + INTRA:          -3.331
REMARK INTER:                  -3.279
REMARK INTRA:                  -0.052
REMARK UNBOUND:                -0.052
REMARK SMILES CC(C)[C@H]([NH3+])C(=O)[O-]
REMARK SMILES IDX 4 1 5 2 6 6 7 7 8 8 2 9 1 10 3 11
REMARK H PARENT 5 3 5 4 5 5
REMARK Flexibility Score: inf
ROOT
ATOM      1  C   UNL     1      15.960  10.403  28.760  1.00  0.00     0.230 C 
ENDROOT
BRANCH   1   2
ATOM      2  N   UNL     1      15.637  10.422  30.193  1.00  0.00    -0.350 N 
ATOM      3  H   UNL     1      16.472  10.725  30.745  1.00  0.00     0.345 HD
ATOM      4  H   UNL     1      15.327   9.483  30.529  1.00  0.00     0.345 HD
ATOM      5  H   UNL     1      14.867  11.109  30.369  1.00  0.00     0.345 HD
ENDBRANCH   1   2
BRANCH   1   6
ATOM      6  C   UNL     1      17.183  11.244  28.479  1.00  0.00     0.099 C 
ATOM      7  O   UNL     1      17.057  12.466  28.201  1.00  0.00    -0.544 OA
ATOM      8  O   UNL     1      18.457  10.690  28.552  1.00  0.00    -0.544 OA
ENDBRANCH   1   6
BRANCH   1   9
ATOM      9  C   UNL     1      14.735  10.813  27.887  1.00  0.00     0.047 C 
ATOM     10  C   UNL     1      14.278   9.716  26.911  1.00  0.00     0.014 C 
ATOM     11  C   UNL     1      13.556  11.266  28.760  1.00  0.00     0.014 C 
ENDBRANCH   1   9
TORSDOF 3
ENDMDL
MODEL 2
REMARK VINA RESULT:    -2.795      2.055      2.354
REMARK INTER + INTRA:          -3.256
REMARK INTER:                  -3.204
REMARK INTRA:                  -0.052
REMARK UNBOUND:                -0.052
REMARK SMILES CC(C)[C@H]([NH3+])C(=O)[O-]
REMARK SMILES IDX 4 1 5 2 6 6 7 7 8 8 2 9 1 10 3 11
REMARK H PARENT 5 3 5 4 5 5
REMARK Flexibility Score: inf
ROOT
ATOM      1  C   UNL     1      15.103  10.839  30.081  1.00  0.00     0.230 C 
ENDROOT
BRANCH   1   2
ATOM      2  N   UNL     1      14.776  12.220  30.461  1.00  0.00    -0.350 N 
ATOM      3  H   UNL     1      13.871  12.508  30.024  1.00  0.00     0.345 HD
ATOM      4  H   UNL     1      15.525  12.886  30.167  1.00  0.00     0.345 HD
ATOM      5  H   UNL     1      14.666  12.281  31.500  1.00  0.00     0.345 HD
ENDBRANCH   1   2
BRANCH   1   6
ATOM      6  C   UNL     1      16.376  10.388  30.757  1.00  0.00     0.099 C 
ATOM      7  O   UNL     1      16.359   9.402  31.540  1.00  0.00    -0.544 OA
ATOM      8  O   UNL     1      17.581  11.036  30.504  1.00  0.00    -0.544 OA
ENDBRANCH   1   6
BRANCH   1   9
ATOM      9  C   UNL     1      15.150  10.663  28.533  1.00  0.00     0.047 C 
ATOM     10  C   UNL     1      15.772   9.331  28.082  1.00  0.00     0.014 C 
ATOM     11  C   UNL     1      13.756  10.831  27.910  1.00  0.00     0.014 C 
ENDBRANCH   1   9
TORSDOF 3
ENDMDL
MODEL 3
REMARK VINA RESULT:    -2.777      1.686      2.156
REMARK INTER + INTRA:          -3.235
REMARK INTER:                  -3.172
REMARK INTRA:                  -0.063
REMARK UNBOUND:                -0.052
REMARK SMILES CC(C)[C@H]([NH3+])C(=O)[O-]
REMARK SMILES IDX 4 1 5 2 6 6 7 7 8 8 2 9 1 10 3 11
REMARK H PARENT 5 3 5 4 5 5
REMARK Flexibility Score: inf
ROOT
ATOM      1  C   UNL     1      16.086  11.728  29.109  1.00  0.00     0.230 C 
ENDROOT
BRANCH   1   2
ATOM      2  N   UNL     1      16.298  12.460  27.853  1.00  0.00    -0.350 N 
ATOM      3  H   UNL     1      16.894  11.896  27.205  1.00  0.00     0.345 HD
ATOM      4  H   UNL     1      16.755  13.384  28.020  1.00  0.00     0.345 HD
ATOM      5  H   UNL     1      15.378  12.625  27.384  1.00  0.00     0.345 HD
ENDBRANCH   1   2
BRANCH   1   6
ATOM      6  C   UNL     1      17.402  11.247  29.674  1.00  0.00     0.099 C 
ATOM      7  O   UNL     1      17.478  10.894  30.880  1.00  0.00    -0.544 OA
ATOM      8  O   UNL     1      18.531  11.162  28.866  1.00  0.00    -0.544 OA
ENDBRANCH   1   6
BRANCH   1   9
ATOM      9  C   UNL     1      15.049  10.577  28.937  1.00  0.00     0.047 C 
ATOM     10  C   UNL     1      13.686  11.048  28.403  1.00  0.00     0.014 C 
ATOM     11  C   UNL     1      15.605   9.455  28.046  1.00  0.00     0.014 C 
ENDBRANCH   1   9
TORSDOF 3
ENDMDL
MODEL 4
REMARK VINA RESULT:    -2.748      2.133      2.412
REMARK INTER + INTRA:          -3.202
REMARK INTER:                  -3.127
REMARK INTRA:                  -0.075
REMARK UNBOUND:                -0.052
REMARK SMILES CC(C)[C@H]([NH3+])C(=O)[O-]
REMARK SMILES IDX 4 1 5 2 6 6 7 7 8 8 2 9 1 10 3 11
REMARK H PARENT 5 3 5 4 5 5
REMARK Flexibility Score: inf
ROOT
ATOM      1  C   UNL     1      15.514  11.369  29.115  1.00  0.00     0.230 C 
ENDROOT
BRANCH   1   2
ATOM      2  N   UNL     1      16.473  12.071  28.251  1.00  0.00    -0.350 N 
ATOM      3  H   UNL     1      16.001  12.387  27.373  1.00  0.00     0.345 HD
ATOM      4  H   UNL     1      17.284  11.461  28.004  1.00  0.00     0.345 HD
ATOM      5  H   UNL     1      16.835  12.919  28.747  1.00  0.00     0.345 HD
ENDBRANCH   1   2
BRANCH   1   6
ATOM      6  C   UNL     1      16.168  10.959  30.413  1.00  0.00     0.099 C 
ATOM      7  O   UNL     1      15.459  10.595  31.388  1.00  0.00    -0.544 OA
ATOM      8  O   UNL     1      17.553  10.951  30.538  1.00  0.00    -0.544 OA
ENDBRANCH   1   6
BRANCH   1   9
ATOM      9  C   UNL     1      14.841  10.172  28.376  1.00  0.00     0.047 C 
ATOM     10  C   UNL     1      14.031  10.588  27.138  1.00  0.00     0.014 C 
ATOM     11  C   UNL     1      15.875   9.102  27.994  1.00  0.00     0.014 C 
ENDBRANCH   1   9
TORSDOF 3
ENDMDL
MODEL 5
REMARK VINA RESULT:    -2.734      1.727      2.274
REMARK INTER + INTRA:          -3.186
REMARK INTER:                  -3.174
REMARK INTRA:                  -0.012
REMARK UNBOUND:                -0.052
REMARK SMILES CC(C)[C@H]([NH3+])C(=O)[O-]
REMARK SMILES IDX 4 1 5 2 6 6 7 7 8 8 2 9 1 10 3 11
REMARK H PARENT 5 3 5 4 5 5
REMARK Flexibility Score: inf
ROOT
ATOM      1  C   UNL     1      15.456  11.473  28.421  1.00  0.00     0.230 C 
ENDROOT
BRANCH   1   2
ATOM      2  N   UNL     1      15.762  12.463  27.380  1.00  0.00    -0.350 N 
ATOM      3  H   UNL     1      15.448  12.111  26.447  1.00  0.00     0.345 HD
ATOM      4  H   UNL     1      16.784  12.674  27.341  1.00  0.00     0.345 HD
ATOM      5  H   UNL     1      15.246  13.351  27.580  1.00  0.00     0.345 HD
ENDBRANCH   1   2
BRANCH   1   6
ATOM      6  C   UNL     1      16.532  10.414  28.482  1.00  0.00     0.099 C 
ATOM      7  O   UNL     1      16.217   9.195  28.477  1.00  0.00    -0.544 OA
ATOM      8  O   UNL     1      17.876  10.770  28.515  1.00  0.00    -0.544 OA
ENDBRANCH   1   6
BRANCH   1   9
ATOM      9  C   UNL     1      14.029  10.869  28.242  1.00  0.00     0.047 C 
ATOM     10  C   UNL     1      12.923  11.685  28.932  1.00  0.00     0.014 C 
ATOM     11  C   UNL     1      13.690  10.672  26.757  1.00  0.00     0.014 C 
ENDBRANCH   1   9
TORSDOF 3
ENDMDL
MODEL 6
REMARK VINA RESULT:    -2.686      2.723      3.698
REMARK INTER + INTRA:          -3.130
REMARK INTER:                  -3.070
REMARK INTRA:                  -0.060
REMARK UNBOUND:                -0.052
REMARK SMILES CC(C)[C@H]([NH3+])C(=O)[O-]
REMARK SMILES IDX 4 1 5 2 6 6 7 7 8 8 2 9 1 10 3 11
REMARK H PARENT 5 3 5 4 5 5
REMARK Flexibility Score: inf
ROOT
ATOM      1  C   UNL     1      13.978  10.712  27.199  1.00  0.00     0.230 C 
ENDROOT
BRANCH   1   2
ATOM      2  N   UNL     1      14.042   9.509  26.358  1.00  0.00    -0.350 N 
ATOM      3  H   UNL     1      14.868   8.927  26.627  1.00  0.00     0.345 HD
ATOM      4  H   UNL     1      14.111   9.753  25.344  1.00  0.00     0.345 HD
ATOM      5  H   UNL     1      13.180   8.934  26.504  1.00  0.00     0.345 HD
ENDBRANCH   1   2
BRANCH   1   6
ATOM      6  C   UNL     1      13.978  11.959  26.345  1.00  0.00     0.099 C 
ATOM      7  O   UNL     1      14.991  12.707  26.324  1.00  0.00    -0.544 OA
ATOM      8  O   UNL     1      12.878  12.279  25.557  1.00  0.00    -0.544 OA
ENDBRANCH   1   6
BRANCH   1   9
ATOM      9  C   UNL     1      15.103  10.722  28.277  1.00  0.00     0.047 C 
ATOM     10  C   UNL     1      14.593  11.007  29.700  1.00  0.00     0.014 C 
ATOM     11  C   UNL     1      15.906   9.413  28.258  1.00  0.00     0.014 C 
ENDBRANCH   1   9
TORSDOF 3
ENDMDL
MODEL 7
REMARK VINA RESULT:    -2.671     20.739     21.537
REMARK INTER + INTRA:          -3.113
REMARK INTER:                  -3.058
REMARK INTRA:                  -0.055
REMARK UNBOUND:                -0.052
REMARK SMILES CC(C)[C@H]([NH3+])C(=O)[O-]
REMARK SMILES IDX 4 1 5 2 6 6 7 7 8 8 2 9 1 10 3 11
REMARK H PARENT 5 3 5 4 5 5
REMARK Flexibility Score: inf
ROOT
ATOM      1  C   UNL     1      21.934  -6.754  17.257  1.00  0.00     0.230 C 
ENDROOT
BRANCH   1   2
ATOM      2  N   UNL     1      22.074  -6.670  15.796  1.00  0.00    -0.350 N 
ATOM      3  H   UNL     1      22.521  -5.763  15.530  1.00  0.00     0.345 HD
ATOM      4  H   UNL     1      21.149  -6.750  15.318  1.00  0.00     0.345 HD
ATOM      5  H   UNL     1      22.691  -7.445  15.459  1.00  0.00     0.345 HD
ENDBRANCH   1   2
BRANCH   1   6
ATOM      6  C   UNL     1      20.631  -6.133  17.703  1.00  0.00     0.099 C 
ATOM      7  O   UNL     1      20.608  -4.942  18.111  1.00  0.00    -0.544 OA
ATOM      8  O   UNL     1      19.444  -6.855  17.643  1.00  0.00    -0.544 OA
ENDBRANCH   1   6
BRANCH   1   9
ATOM      9  C   UNL     1      23.170  -6.149  17.990  1.00  0.00     0.047 C 
ATOM     10  C   UNL     1      23.755  -7.068  19.075  1.00  0.00     0.014 C 
ATOM     11  C   UNL     1      24.267  -5.745  16.993  1.00  0.00     0.014 C 
ENDBRANCH   1   9
TORSDOF 3
ENDMDL
MODEL 8
REMARK VINA RESULT:    -2.622     19.800     20.794
REMARK INTER + INTRA:          -3.057
REMARK INTER:                  -3.017
REMARK INTRA:                  -0.039
REMARK UNBOUND:                -0.052
REMARK SMILES CC(C)[C@H]([NH3+])C(=O)[O-]
REMARK SMILES IDX 4 1 5 2 6 6 7 7 8 8 2 9 1 10 3 11
REMARK H PARENT 5 3 5 4 5 5
REMARK Flexibility Score: inf
ROOT
ATOM      1  C   UNL     1      18.044  -6.321  16.353  1.00  0.00     0.230 C 
ENDROOT
BRANCH   1   2
ATOM      2  N   UNL     1      19.408  -6.326  16.897  1.00  0.00    -0.350 N 
ATOM      3  H   UNL     1      19.486  -5.632  17.676  1.00  0.00     0.345 HD
ATOM      4  H   UNL     1      20.115  -6.098  16.163  1.00  0.00     0.345 HD
ATOM      5  H   UNL     1      19.626  -7.273  17.286  1.00  0.00     0.345 HD
ENDBRANCH   1   2
BRANCH   1   6
ATOM      6  C   UNL     1      18.016  -5.661  14.994  1.00  0.00     0.099 C 
ATOM      7  O   UNL     1      17.297  -6.137  14.077  1.00  0.00    -0.544 OA
ATOM      8  O   UNL     1      18.759  -4.510  14.749  1.00  0.00    -0.544 OA
ENDBRANCH   1   6
BRANCH   1   9
ATOM      9  C   UNL     1      17.027  -5.686  17.349  1.00  0.00     0.047 C 
ATOM     10  C   UNL     1      16.462  -6.684  18.373  1.00  0.00     0.014 C 
ATOM     11  C   UNL     1      17.638  -4.477  18.074  1.00  0.00     0.014 C 
ENDBRANCH   1   9
TORSDOF 3
ENDMDL
MODEL 9
REMARK VINA RESULT:    -2.529     19.860     20.880
REMARK INTER + INTRA:          -2.951
REMARK INTER:                  -2.905
REMARK INTRA:                  -0.045
REMARK UNBOUND:                -0.052
REMARK SMILES CC(C)[C@H]([NH3+])C(=O)[O-]
REMARK SMILES IDX 4 1 5 2 6 6 7 7 8 8 2 9 1 10 3 11
REMARK H PARENT 5 3 5 4 5 5
REMARK Flexibility Score: inf
ROOT
ATOM      1  C   UNL     1      18.111  -5.768  16.462  1.00  0.00     0.230 C 
ENDROOT
BRANCH   1   2
ATOM      2  N   UNL     1      17.709  -6.120  15.093  1.00  0.00    -0.350 N 
ATOM      3  H   UNL     1      18.297  -6.910  14.739  1.00  0.00     0.345 HD
ATOM      4  H   UNL     1      17.803  -5.307  14.445  1.00  0.00     0.345 HD
ATOM      5  H   UNL     1      16.711  -6.434  15.091  1.00  0.00     0.345 HD
ENDBRANCH   1   2
BRANCH   1   6
ATOM      6  C   UNL     1      19.531  -6.209  16.730  1.00  0.00     0.099 C 
ATOM      7  O   UNL     1      20.056  -7.109  16.022  1.00  0.00    -0.544 OA
ATOM      8  O   UNL     1      20.281  -5.610  17.736  1.00  0.00    -0.544 OA
ENDBRANCH   1   6
BRANCH   1   9
ATOM      9  C   UNL     1      17.103  -6.316  17.518  1.00  0.00     0.047 C 
ATOM     10  C   UNL     1      16.569  -5.241  18.478  1.00  0.00     0.014 C 
ATOM     11  C   UNL     1      15.933  -7.049  16.844  1.00  0.00     0.014 C 
ENDBRANCH   1   9
TORSDOF 3
ENDMDL
