MODEL 1
REMARK VINA RESULT:    -5.632      0.000      0.000
REMARK INTER + INTRA:          -8.619
REMARK INTER:                  -8.595
REMARK INTRA:                  -0.025
REMARK UNBOUND:                -0.025
REMARK SMILES CC1=CCC[C@H](C)C(=O)C[C@@H](C(C)C)C(=O)C1
REMARK SMILES IDX 8 1 9 2 6 3 7 4 5 5 4 6 3 7 2 8 1 9 10 11 11 12 15 13 16 14
REMARK SMILES IDX 17 15 12 17 13 18 14 19
REMARK H PARENT
REMARK Flexibility Score: 70.00
ROOT
ATOM      1  C   UNL     1       1.153  14.844  22.893  1.00  0.00     0.136 C 
ATOM      2  O   UNL     1       2.353  15.081  22.894  1.00  0.00    -0.299 OA
ENDROOT
BRANCH   1   3
ATOM      3  C   UNL     1       0.178  15.928  23.316  1.00  0.00     0.053 C 
ATOM      4  C   UNL     1      -0.008  16.952  22.188  1.00  0.00     0.016 C 
BRANCH   3   5
ATOM      5  C   UNL     1      -1.177  15.306  23.726  1.00  0.00     0.015 C 
BRANCH   5   6
ATOM      6  C   UNL     1      -2.210  15.399  22.586  1.00  0.00     0.028 C 
BRANCH   6   7
ATOM      7  C   UNL     1      -2.796  14.063  22.200  1.00  0.00    -0.028 C 
ATOM      8  C   UNL     1      -2.363  13.276  21.182  1.00  0.00    -0.070 CG0
ATOM      9  C   UNL     1      -3.012  11.923  21.020  1.00  0.00     0.039 C 
ATOM     10  G   UNL     1      -1.301  13.703  20.177  1.00  0.00     0.000 G0
ENDBRANCH   6   7
ENDBRANCH   5   6
ENDBRANCH   3   5
ENDBRANCH   1   3
BRANCH   1  11
ATOM     11  C   UNL     1       0.678  13.469  22.476  1.00  0.00     0.087 C 
BRANCH  11  12
ATOM     12  C   UNL     1       1.132  13.106  21.040  1.00  0.00     0.066 C 
BRANCH  12  13
ATOM     13  C   UNL     1      -0.062  12.806  20.144  1.00  0.00     0.140 C 
ATOM     14  O   UNL     1      -0.041  11.856  19.378  1.00  0.00    -0.299 OA
BRANCH  13  15
ATOM     15  C   UNL     1      -1.270  13.710  20.181  1.00  0.00     0.106 CG0
ATOM     16  G   UNL     1      -2.341  13.276  21.173  1.00  0.00     0.000 G0
ENDBRANCH  13  15
ENDBRANCH  12  13
BRANCH  12  17
ATOM     17  C   UNL     1       2.235  12.001  21.025  1.00  0.00    -0.006 C 
ATOM     18  C   UNL     1       2.107  11.055  22.229  1.00  0.00     0.008 C 
ATOM     19  C   UNL     1       3.676  12.534  20.913  1.00  0.00     0.008 C 
ENDBRANCH  12  17
ENDBRANCH  11  12
ENDBRANCH   1  11
TORSDOF 1
ENDMDL
MODEL 2
REMARK VINA RESULT:    -5.597      2.255      3.014
REMARK INTER + INTRA:          -8.566
REMARK INTER:                  -8.469
REMARK INTRA:                  -0.097
REMARK UNBOUND:                -0.025
REMARK SMILES CC1=CCC[C@H](C)C(=O)C[C@@H](C(C)C)C(=O)C1
REMARK SMILES IDX 8 1 9 2 6 3 7 4 5 5 4 6 3 7 2 8 1 9 10 11 11 12 15 13 16 14
REMARK SMILES IDX 17 15 12 17 13 18 14 19
REMARK H PARENT
REMARK Flexibility Score: 70.00
ROOT
ATOM      1  C   UNL     1      -0.458  14.083  22.111  1.00  0.00     0.136 C 
ATOM      2  O   UNL     1      -0.377  14.555  20.986  1.00  0.00    -0.299 OA
ENDROOT
BRANCH   1   3
ATOM      3  C   UNL     1      -1.803  14.053  22.813  1.00  0.00     0.053 C 
ATOM      4  C   UNL     1      -2.167  15.450  23.336  1.00  0.00     0.016 C 
BRANCH   3   5
ATOM      5  C   UNL     1      -2.898  13.518  21.861  1.00  0.00     0.015 C 
BRANCH   5   6
ATOM      6  C   UNL     1      -2.472  12.195  21.194  1.00  0.00     0.028 C 
BRANCH   6   7
ATOM      7  C   UNL     1      -2.287  11.064  22.176  1.00  0.00    -0.028 C 
ATOM      8  C   UNL     1      -1.145  10.350  22.351  1.00  0.00    -0.070 CG0
ATOM      9  C   UNL     1      -1.126   9.325  23.458  1.00  0.00     0.039 C 
ATOM     10  G   UNL     1       0.086  10.495  21.467  1.00  0.00     0.000 G0
ENDBRANCH   6   7
ENDBRANCH   5   6
ENDBRANCH   3   5
ENDBRANCH   1   3
BRANCH   1  11
ATOM     11  C   UNL     1       0.794  13.551  22.774  1.00  0.00     0.087 C 
BRANCH  11  12
ATOM     12  C   UNL     1       1.597  12.615  21.836  1.00  0.00     0.066 C 
BRANCH  12  13
ATOM     13  C   UNL     1       1.293  11.152  22.127  1.00  0.00     0.140 C 
ATOM     14  O   UNL     1       2.013  10.503  22.871  1.00  0.00    -0.299 OA
BRANCH  13  15
ATOM     15  C   UNL     1       0.110  10.488  21.465  1.00  0.00     0.106 CG0
ATOM     16  G   UNL     1      -1.117  10.371  22.360  1.00  0.00     0.000 G0
ENDBRANCH  13  15
ENDBRANCH  12  13
BRANCH  12  17
ATOM     17  C   UNL     1       3.120  12.959  21.811  1.00  0.00    -0.006 C 
ATOM     18  C   UNL     1       3.372  14.440  22.131  1.00  0.00     0.008 C 
ATOM     19  C   UNL     1       3.847  12.559  20.514  1.00  0.00     0.008 C 
ENDBRANCH  12  17
ENDBRANCH  11  12
ENDBRANCH   1  11
TORSDOF 1
ENDMDL
MODEL 3
REMARK VINA RESULT:    -5.565      2.561      5.438
REMARK INTER + INTRA:          -8.517
REMARK INTER:                  -8.427
REMARK INTRA:                  -0.090
REMARK UNBOUND:                -0.025
REMARK SMILES CC1=CCC[C@H](C)C(=O)C[C@@H](C(C)C)C(=O)C1
REMARK SMILES IDX 8 1 9 2 6 3 7 4 5 5 4 6 3 7 2 8 1 9 10 11 11 12 15 13 16 14
REMARK SMILES IDX 17 15 12 17 13 18 14 19
REMARK H PARENT
REMARK Flexibility Score: 70.00
ROOT
ATOM      1  C   UNL     1      -0.991  10.172  22.857  1.00  0.00     0.136 C 
ATOM      2  O   UNL     1      -2.173   9.876  22.965  1.00  0.00    -0.299 OA
ENDROOT
BRANCH   1   3
ATOM      3  C   UNL     1       0.070   9.126  23.147  1.00  0.00     0.053 C 
ATOM      4  C   UNL     1       0.362   8.296  21.889  1.00  0.00     0.016 C 
BRANCH   3   5
ATOM      5  C   UNL     1       1.358   9.796  23.678  1.00  0.00     0.015 C 
BRANCH   5   6
ATOM      6  C   UNL     1       2.532   9.625  22.694  1.00  0.00     0.028 C 
BRANCH   6   7
ATOM      7  C   UNL     1       3.065  10.934  22.167  1.00  0.00    -0.028 C 
ATOM      8  C   UNL     1       2.537  11.643  21.137  1.00  0.00    -0.070 CG0
ATOM      9  C   UNL     1       3.153  12.986  20.825  1.00  0.00     0.039 C 
ATOM     10  G   UNL     1       1.400  11.139  20.258  1.00  0.00     0.000 G0
ENDBRANCH   6   7
ENDBRANCH   5   6
ENDBRANCH   3   5
ENDBRANCH   1   3
BRANCH   1  11
ATOM     11  C   UNL     1      -0.624  11.581  22.445  1.00  0.00     0.087 C 
BRANCH  11  12
ATOM     12  C   UNL     1      -1.009  11.877  20.974  1.00  0.00     0.066 C 
BRANCH  12  13
ATOM     13  C   UNL     1       0.229  12.080  20.111  1.00  0.00     0.140 C 
ATOM     14  O   UNL     1       0.278  12.992  19.299  1.00  0.00    -0.299 OA
BRANCH  13  15
ATOM     15  C   UNL     1       1.394  11.129  20.238  1.00  0.00     0.106 CG0
ATOM     16  G   UNL     1       2.521  11.641  21.124  1.00  0.00     0.000 G0
ENDBRANCH  13  15
ENDBRANCH  12  13
BRANCH  12  17
ATOM     17  C   UNL     1      -2.067  13.018  20.852  1.00  0.00    -0.006 C 
ATOM     18  C   UNL     1      -2.495  13.543  22.230  1.00  0.00     0.008 C 
ATOM     19  C   UNL     1      -3.303  12.659  20.007  1.00  0.00     0.008 C 
ENDBRANCH  12  17
ENDBRANCH  11  12
ENDBRANCH   1  11
TORSDOF 1
ENDMDL
MODEL 4
REMARK VINA RESULT:    -5.498      2.519      5.549
REMARK INTER + INTRA:          -8.415
REMARK INTER:                  -8.547
REMARK INTRA:                   0.132
REMARK UNBOUND:                -0.025
REMARK SMILES CC1=CCC[C@H](C)C(=O)C[C@@H](C(C)C)C(=O)C1
REMARK SMILES IDX 8 1 9 2 6 3 7 4 5 5 4 6 3 7 2 8 1 9 10 11 11 12 15 13 16 14
REMARK SMILES IDX 17 15 12 17 13 18 14 19
REMARK H PARENT
REMARK Flexibility Score: 70.00
ROOT
ATOM      1  C   UNL     1       0.111   9.287  22.739  1.00  0.00     0.136 C 
ATOM      2  O   UNL     1      -0.744   8.430  22.562  1.00  0.00    -0.299 OA
ENDROOT
BRANCH   1   3
ATOM      3  C   UNL     1       1.561   8.971  22.419  1.00  0.00     0.053 C 
ATOM      4  C   UNL     1       1.733   8.709  20.916  1.00  0.00     0.016 C 
BRANCH   3   5
ATOM      5  C   UNL     1       2.480  10.123  22.886  1.00  0.00     0.015 C 
BRANCH   5   6
ATOM      6  C   UNL     1       3.136  10.844  21.693  1.00  0.00     0.028 C 
BRANCH   6   7
ATOM      7  C   UNL     1       3.536  12.266  22.001  1.00  0.00    -0.028 C 
ATOM      8  C   UNL     1       2.722  13.349  21.922  1.00  0.00    -0.070 CG0
ATOM      9  C   UNL     1       3.280  14.677  22.373  1.00  0.00     0.039 C 
ATOM     10  G   UNL     1       1.306  13.304  21.363  1.00  0.00     0.000 G0
ENDBRANCH   6   7
ENDBRANCH   5   6
ENDBRANCH   3   5
ENDBRANCH   1   3
BRANCH   1  11
ATOM     11  C   UNL     1      -0.305  10.636  23.283  1.00  0.00     0.087 C 
BRANCH  11  12
ATOM     12  C   UNL     1      -0.570  11.663  22.153  1.00  0.00     0.066 C 
BRANCH  12  13
ATOM     13  C   UNL     1       0.237  12.937  22.366  1.00  0.00     0.140 C 
ATOM     14  O   UNL     1       0.015  13.660  23.325  1.00  0.00    -0.299 OA
BRANCH  13  15
ATOM     15  C   UNL     1       1.299  13.325  21.367  1.00  0.00     0.106 CG0
ATOM     16  G   UNL     1       2.713  13.332  21.934  1.00  0.00     0.000 G0
ENDBRANCH  13  15
ENDBRANCH  12  13
BRANCH  12  17
ATOM     17  C   UNL     1      -2.093  11.904  21.911  1.00  0.00    -0.006 C 
ATOM     18  C   UNL     1      -2.941  10.727  22.415  1.00  0.00     0.008 C 
ATOM     19  C   UNL     1      -2.465  12.251  20.458  1.00  0.00     0.008 C 
ENDBRANCH  12  17
ENDBRANCH  11  12
ENDBRANCH   1  11
TORSDOF 1
ENDMDL
MODEL 5
REMARK VINA RESULT:    -5.467      2.261      4.765
REMARK INTER + INTRA:          -8.368
REMARK INTER:                  -8.319
REMARK INTRA:                  -0.049
REMARK UNBOUND:                -0.025
REMARK SMILES CC1=CCC[C@H](C)C(=O)C[C@@H](C(C)C)C(=O)C1
REMARK SMILES IDX 8 1 9 2 6 3 7 4 5 5 4 6 3 7 2 8 1 9 10 11 11 12 15 13 16 14
REMARK SMILES IDX 17 15 12 17 13 18 14 19
REMARK H PARENT
REMARK Flexibility Score: 70.00
ROOT
ATOM      1  C   UNL     1       1.468  12.340  20.160  1.00  0.00     0.136 C 
ATOM      2  O   UNL     1       1.179  11.403  19.429  1.00  0.00    -0.299 OA
ENDROOT
BRANCH   1   3
ATOM      3  C   UNL     1       2.882  12.457  20.701  1.00  0.00     0.053 C 
ATOM      4  C   UNL     1       2.942  13.502  21.823  1.00  0.00     0.016 C 
BRANCH   3   5
ATOM      5  C   UNL     1       3.384  11.082  21.199  1.00  0.00     0.015 C 
BRANCH   5   6
ATOM      6  C   UNL     1       2.831  10.750  22.599  1.00  0.00     0.028 C 
BRANCH   6   7
ATOM      7  C   UNL     1       1.875   9.583  22.602  1.00  0.00    -0.028 C 
ATOM      8  C   UNL     1       0.539   9.659  22.832  1.00  0.00    -0.070 CG0
ATOM      9  C   UNL     1      -0.267   8.391  22.689  1.00  0.00     0.039 C 
ATOM     10  G   UNL     1      -0.173  10.932  23.270  1.00  0.00     0.000 G0
ENDBRANCH   6   7
ENDBRANCH   5   6
ENDBRANCH   3   5
ENDBRANCH   1   3
BRANCH   1  11
ATOM     11  C   UNL     1       0.399  13.352  20.512  1.00  0.00     0.087 C 
BRANCH  11  12
ATOM     12  C   UNL     1      -0.112  13.179  21.964  1.00  0.00     0.066 C 
BRANCH  12  13
ATOM     13  C   UNL     1      -0.702  11.792  22.178  1.00  0.00     0.140 C 
ATOM     14  O   UNL     1      -1.611  11.386  21.469  1.00  0.00    -0.299 OA
BRANCH  13  15
ATOM     15  C   UNL     1      -0.181  10.921  23.296  1.00  0.00     0.106 CG0
ATOM     16  G   UNL     1       0.519   9.655  22.822  1.00  0.00     0.000 G0
ENDBRANCH  13  15
ENDBRANCH  12  13
BRANCH  12  17
ATOM     17  C   UNL     1      -1.047  14.347  22.411  1.00  0.00    -0.006 C 
ATOM     18  C   UNL     1      -1.040  15.498  21.395  1.00  0.00     0.008 C 
ATOM     19  C   UNL     1      -0.773  14.881  23.829  1.00  0.00     0.008 C 
ENDBRANCH  12  17
ENDBRANCH  11  12
ENDBRANCH   1  11
TORSDOF 1
ENDMDL
MODEL 6
REMARK VINA RESULT:    -5.411      2.335      4.405
REMARK INTER + INTRA:          -8.283
REMARK INTER:                  -8.265
REMARK INTRA:                  -0.017
REMARK UNBOUND:                -0.025
REMARK SMILES CC1=CCC[C@H](C)C(=O)C[C@@H](C(C)C)C(=O)C1
REMARK SMILES IDX 8 1 9 2 6 3 7 4 5 5 4 6 3 7 2 8 1 9 10 11 11 12 15 13 16 14
REMARK SMILES IDX 17 15 12 17 13 18 14 19
REMARK H PARENT
REMARK Flexibility Score: 70.00
ROOT
ATOM      1  C   UNL     1       1.783   9.703  20.460  1.00  0.00     0.136 C 
ATOM      2  O   UNL     1       2.670   9.014  19.975  1.00  0.00    -0.299 OA
ENDROOT
BRANCH   1   3
ATOM      3  C   UNL     1       0.905   9.125  21.555  1.00  0.00     0.053 C 
ATOM      4  C   UNL     1       0.803   7.600  21.412  1.00  0.00     0.016 C 
BRANCH   3   5
ATOM      5  C   UNL     1       1.453   9.512  22.948  1.00  0.00     0.015 C 
BRANCH   5   6
ATOM      6  C   UNL     1       0.376  10.200  23.810  1.00  0.00     0.028 C 
BRANCH   6   7
ATOM      7  C   UNL     1      -0.944  10.364  23.097  1.00  0.00    -0.028 C 
ATOM      8  C   UNL     1      -1.339  11.469  22.414  1.00  0.00    -0.070 CG0
ATOM      9  C   UNL     1      -2.656  11.401  21.679  1.00  0.00     0.039 C 
ATOM     10  G   UNL     1      -0.555  12.774  22.390  1.00  0.00     0.000 G0
ENDBRANCH   6   7
ENDBRANCH   5   6
ENDBRANCH   3   5
ENDBRANCH   1   3
BRANCH   1  11
ATOM     11  C   UNL     1       1.583  11.111  19.944  1.00  0.00     0.087 C 
BRANCH  11  12
ATOM     12  C   UNL     1       1.635  12.161  21.082  1.00  0.00     0.066 C 
BRANCH  12  13
ATOM     13  C   UNL     1       0.334  12.948  21.165  1.00  0.00     0.140 C 
ATOM     14  O   UNL     1       0.022  13.728  20.279  1.00  0.00    -0.299 OA
BRANCH  13  15
ATOM     15  C   UNL     1      -0.563  12.785  22.368  1.00  0.00     0.106 CG0
ATOM     16  G   UNL     1      -1.322  11.465  22.403  1.00  0.00     0.000 G0
ENDBRANCH  13  15
ENDBRANCH  12  13
BRANCH  12  17
ATOM     17  C   UNL     1       2.916  13.051  21.015  1.00  0.00    -0.006 C 
ATOM     18  C   UNL     1       4.196  12.202  21.004  1.00  0.00     0.008 C 
ATOM     19  C   UNL     1       3.001  14.136  22.103  1.00  0.00     0.008 C 
ENDBRANCH  12  17
ENDBRANCH  11  12
ENDBRANCH   1  11
TORSDOF 1
ENDMDL
MODEL 7
REMARK VINA RESULT:    -5.408      1.924      3.979
REMARK INTER + INTRA:          -8.279
REMARK INTER:                  -8.226
REMARK INTRA:                  -0.053
REMARK UNBOUND:                -0.025
REMARK SMILES CC1=CCC[C@H](C)C(=O)C[C@@H](C(C)C)C(=O)C1
REMARK SMILES IDX 8 1 9 2 6 3 7 4 5 5 4 6 3 7 2 8 1 9 10 11 11 12 15 13 16 14
REMARK SMILES IDX 17 15 12 17 13 18 14 19
REMARK H PARENT
REMARK Flexibility Score: 70.00
ROOT
ATOM      1  C   UNL     1      -1.776  15.577  20.528  1.00  0.00     0.136 C 
ATOM      2  O   UNL     1      -2.694  16.299  20.164  1.00  0.00    -0.299 OA
ENDROOT
BRANCH   1   3
ATOM      3  C   UNL     1      -0.790  16.090  21.562  1.00  0.00     0.053 C 
ATOM      4  C   UNL     1      -0.544  17.593  21.369  1.00  0.00     0.016 C 
BRANCH   3   5
ATOM      5  C   UNL     1      -1.302  15.794  22.991  1.00  0.00     0.015 C 
BRANCH   5   6
ATOM      6  C   UNL     1      -0.378  14.807  23.730  1.00  0.00     0.028 C 
BRANCH   6   7
ATOM      7  C   UNL     1       0.990  14.685  23.104  1.00  0.00    -0.028 C 
ATOM      8  C   UNL     1       1.427  13.635  22.362  1.00  0.00    -0.070 CG0
ATOM      9  C   UNL     1       2.794  13.747  21.733  1.00  0.00     0.039 C 
ATOM     10  G   UNL     1       0.639  12.346  22.174  1.00  0.00     0.000 G0
ENDBRANCH   6   7
ENDBRANCH   5   6
ENDBRANCH   3   5
ENDBRANCH   1   3
BRANCH   1  11
ATOM     11  C   UNL     1      -1.647  14.195  19.927  1.00  0.00     0.087 C 
BRANCH  11  12
ATOM     12  C   UNL     1      -1.590  13.090  21.013  1.00  0.00     0.066 C 
BRANCH  12  13
ATOM     13  C   UNL     1      -0.270  12.334  20.960  1.00  0.00     0.140 C 
ATOM     14  O   UNL     1       0.046  11.704  19.962  1.00  0.00    -0.299 OA
BRANCH  13  15
ATOM     15  C   UNL     1       0.642  12.336  22.163  1.00  0.00     0.106 CG0
ATOM     16  G   UNL     1       1.420  13.632  22.350  1.00  0.00     0.000 G0
ENDBRANCH  13  15
ENDBRANCH  12  13
BRANCH  12  17
ATOM     17  C   UNL     1      -2.853  12.173  20.997  1.00  0.00    -0.006 C 
ATOM     18  C   UNL     1      -4.147  12.986  21.158  1.00  0.00     0.008 C 
ATOM     19  C   UNL     1      -2.818  11.015  22.011  1.00  0.00     0.008 C 
ENDBRANCH  12  17
ENDBRANCH  11  12
ENDBRANCH   1  11
TORSDOF 1
ENDMDL
MODEL 8
REMARK VINA RESULT:    -5.381      1.633      3.705
REMARK INTER + INTRA:          -8.237
REMARK INTER:                  -8.327
REMARK INTRA:                   0.089
REMARK UNBOUND:                -0.025
REMARK SMILES CC1=CCC[C@H](C)C(=O)C[C@@H](C(C)C)C(=O)C1
REMARK SMILES IDX 8 1 9 2 6 3 7 4 5 5 4 6 3 7 2 8 1 9 10 11 11 12 15 13 16 14
REMARK SMILES IDX 17 15 12 17 13 18 14 19
REMARK H PARENT
REMARK Flexibility Score: 70.00
ROOT
ATOM      1  C   UNL     1      -1.367  12.599  20.315  1.00  0.00     0.136 C 
ATOM      2  O   UNL     1      -1.068  13.584  19.654  1.00  0.00    -0.299 OA
ENDROOT
BRANCH   1   3
ATOM      3  C   UNL     1      -2.812  12.392  20.733  1.00  0.00     0.053 C 
ATOM      4  C   UNL     1      -2.898  11.374  21.879  1.00  0.00     0.016 C 
BRANCH   3   5
ATOM      5  C   UNL     1      -3.455  13.738  21.141  1.00  0.00     0.015 C 
BRANCH   5   6
ATOM      6  C   UNL     1      -2.937  14.221  22.510  1.00  0.00     0.028 C 
BRANCH   6   7
ATOM      7  C   UNL     1      -2.036  15.428  22.416  1.00  0.00    -0.028 C 
ATOM      8  C   UNL     1      -0.706  15.441  22.686  1.00  0.00    -0.070 CG0
ATOM      9  C   UNL     1       0.045  16.726  22.432  1.00  0.00     0.039 C 
ATOM     10  G   UNL     1       0.051  14.256  23.270  1.00  0.00     0.000 G0
ENDBRANCH   6   7
ENDBRANCH   5   6
ENDBRANCH   3   5
ENDBRANCH   1   3
BRANCH   1  11
ATOM     11  C   UNL     1      -0.282  11.620  20.705  1.00  0.00     0.087 C 
BRANCH  11  12
ATOM     12  C   UNL     1       0.293  11.917  22.114  1.00  0.00     0.066 C 
BRANCH  12  13
ATOM     13  C   UNL     1       0.719  13.374  22.238  1.00  0.00     0.140 C 
ATOM     14  O   UNL     1       1.603  13.825  21.526  1.00  0.00    -0.299 OA
BRANCH  13  15
ATOM     15  C   UNL     1       0.066  14.259  23.271  1.00  0.00     0.106 CG0
ATOM     16  G   UNL     1      -0.702  15.436  22.684  1.00  0.00     0.000 G0
ENDBRANCH  13  15
ENDBRANCH  12  13
BRANCH  12  17
ATOM     17  C   UNL     1       1.390  10.891  22.539  1.00  0.00    -0.006 C 
ATOM     18  C   UNL     1       2.032  10.210  21.321  1.00  0.00     0.008 C 
ATOM     19  C   UNL     1       0.921   9.837  23.559  1.00  0.00     0.008 C 
ENDBRANCH  12  17
ENDBRANCH  11  12
ENDBRANCH   1  11
TORSDOF 1
ENDMDL
MODEL 9
REMARK VINA RESULT:    -5.255      1.480      2.130
REMARK INTER + INTRA:          -8.044
REMARK INTER:                  -8.272
REMARK INTRA:                   0.228
REMARK UNBOUND:                -0.025
REMARK SMILES CC1=CCC[C@H](C)C(=O)C[C@@H](C(C)C)C(=O)C1
REMARK SMILES IDX 8 1 9 2 6 3 7 4 5 5 4 6 3 7 2 8 1 9 10 11 11 12 15 13 16 14
REMARK SMILES IDX 17 15 12 17 13 18 14 19
REMARK H PARENT
REMARK Flexibility Score: 70.00
ROOT
ATOM      1  C   UNL     1       0.564  14.477  22.702  1.00  0.00     0.136 C 
ATOM      2  O   UNL     1       1.682  14.573  22.213  1.00  0.00    -0.299 OA
ENDROOT
BRANCH   1   3
ATOM      3  C   UNL     1      -0.217  15.737  23.029  1.00  0.00     0.053 C 
ATOM      4  C   UNL     1       0.720  16.820  23.583  1.00  0.00     0.016 C 
BRANCH   3   5
ATOM      5  C   UNL     1      -0.970  16.246  21.779  1.00  0.00     0.015 C 
BRANCH   5   6
ATOM      6  C   UNL     1      -1.946  15.185  21.234  1.00  0.00     0.028 C 
BRANCH   6   7
ATOM      7  C   UNL     1      -1.570  14.674  19.865  1.00  0.00    -0.028 C 
ATOM      8  C   UNL     1      -1.343  13.374  19.543  1.00  0.00    -0.070 CG0
ATOM      9  C   UNL     1      -1.079  13.050  18.092  1.00  0.00     0.039 C 
ATOM     10  G   UNL     1      -1.292  12.246  20.564  1.00  0.00     0.000 G0
ENDBRANCH   6   7
ENDBRANCH   5   6
ENDBRANCH   3   5
ENDBRANCH   1   3
BRANCH   1  11
ATOM     11  C   UNL     1      -0.001  13.101  22.974  1.00  0.00     0.087 C 
BRANCH  11  12
ATOM     12  C   UNL     1       0.760  11.994  22.201  1.00  0.00     0.066 C 
BRANCH  12  13
ATOM     13  C   UNL     1       0.120  11.730  20.846  1.00  0.00     0.140 C 
ATOM     14  O   UNL     1       0.732  11.131  19.975  1.00  0.00    -0.299 OA
BRANCH  13  15
ATOM     15  C   UNL     1      -1.273  12.239  20.564  1.00  0.00     0.106 CG0
ATOM     16  G   UNL     1      -1.328  13.363  19.538  1.00  0.00     0.000 G0
ENDBRANCH  13  15
ENDBRANCH  12  13
BRANCH  12  17
ATOM     17  C   UNL     1       0.986  10.712  23.063  1.00  0.00    -0.006 C 
ATOM     18  C   UNL     1       2.370  10.096  22.812  1.00  0.00     0.008 C 
ATOM     19  C   UNL     1      -0.112   9.642  22.919  1.00  0.00     0.008 C 
ENDBRANCH  12  17
ENDBRANCH  11  12
ENDBRANCH   1  11
TORSDOF 1
ENDMDL
