MODEL 1
REMARK VINA RESULT:    -5.519      0.000      0.000
REMARK INTER + INTRA:          -6.037
REMARK INTER:                  -6.003
REMARK INTRA:                  -0.035
REMARK UNBOUND:                -0.035
REMARK SMILES O=C([O-])c1ccc(O)cc1
REMARK SMILES IDX 4 1 5 2 10 3 6 4 9 5 7 6 2 7 1 8 3 9 8 10
REMARK H PARENT 8 11
REMARK Flexibility Score: inf
ROOT
ATOM      1  C   UNL     1     -13.971  61.662  38.955  1.00  0.00    -0.003 A 
ATOM      2  C   UNL     1     -12.852  62.515  38.995  1.00  0.00     0.014 A 
ATOM      3  C   UNL     1     -13.863  60.371  39.503  1.00  0.00     0.014 A 
ATOM      4  C   UNL     1     -11.653  62.084  39.571  1.00  0.00     0.047 A 
ATOM      5  C   UNL     1     -12.662  59.944  40.078  1.00  0.00     0.047 A 
ATOM      6  C   UNL     1     -11.555  60.797  40.114  1.00  0.00     0.115 A 
ENDROOT
BRANCH   1   7
ATOM      7  C   UNL     1     -15.242  62.111  38.348  1.00  0.00     0.071 C 
ATOM      8  O   UNL     1     -15.507  63.340  38.251  1.00  0.00    -0.545 OA
ATOM      9  O   UNL     1     -16.164  61.184  37.875  1.00  0.00    -0.545 OA
ENDBRANCH   1   7
BRANCH   6  10
ATOM     10  O   UNL     1     -10.365  60.358  40.690  1.00  0.00    -0.508 OA
ATOM     11  H   UNL     1     -10.183  59.373  40.844  1.00  0.00     0.293 HD
ENDBRANCH   6  10
TORSDOF 2
ENDMDL
MODEL 2
REMARK VINA RESULT:    -5.345     17.374     18.654
REMARK INTER + INTRA:          -5.849
REMARK INTER:                  -5.816
REMARK INTRA:                  -0.032
REMARK UNBOUND:                -0.035
REMARK SMILES O=C([O-])c1ccc(O)cc1
REMARK SMILES IDX 4 1 5 2 10 3 6 4 9 5 7 6 2 7 1 8 3 9 8 10
REMARK H PARENT 8 11
REMARK Flexibility Score: inf
ROOT
ATOM      1  C   UNL     1     -12.294  50.045  53.505  1.00  0.00    -0.003 A 
ATOM      2  C   UNL     1     -11.855  49.058  54.407  1.00  0.00     0.014 A 
ATOM      3  C   UNL     1     -11.511  51.200  53.326  1.00  0.00     0.014 A 
ATOM      4  C   UNL     1     -10.659  49.224  55.113  1.00  0.00     0.047 A 
ATOM      5  C   UNL     1     -10.317  51.362  54.034  1.00  0.00     0.047 A 
ATOM      6  C   UNL     1      -9.887  50.378  54.927  1.00  0.00     0.115 A 
ENDROOT
BRANCH   1   7
ATOM      7  C   UNL     1     -13.558  49.876  52.756  1.00  0.00     0.071 C 
ATOM      8  O   UNL     1     -13.646  50.251  51.556  1.00  0.00    -0.545 OA
ATOM      9  O   UNL     1     -14.667  49.301  53.366  1.00  0.00    -0.545 OA
ENDBRANCH   1   7
BRANCH   6  10
ATOM     10  O   UNL     1      -8.694  50.553  55.625  1.00  0.00    -0.508 OA
ATOM     11  H   UNL     1      -8.675  50.985  56.542  1.00  0.00     0.293 HD
ENDBRANCH   6  10
TORSDOF 2
ENDMDL
MODEL 3
REMARK VINA RESULT:    -5.118      1.385      3.989
REMARK INTER + INTRA:          -5.601
REMARK INTER:                  -5.565
REMARK INTRA:                  -0.036
REMARK UNBOUND:                -0.035
REMARK SMILES O=C([O-])c1ccc(O)cc1
REMARK SMILES IDX 4 1 5 2 10 3 6 4 9 5 7 6 2 7 1 8 3 9 8 10
REMARK H PARENT 8 11
REMARK Flexibility Score: inf
ROOT
ATOM      1  C   UNL     1     -12.471  61.864  39.202  1.00  0.00    -0.003 A 
ATOM      2  C   UNL     1     -13.511  62.779  38.953  1.00  0.00     0.014 A 
ATOM      3  C   UNL     1     -12.713  60.491  39.018  1.00  0.00     0.014 A 
ATOM      4  C   UNL     1     -14.765  62.328  38.530  1.00  0.00     0.047 A 
ATOM      5  C   UNL     1     -13.969  60.044  38.595  1.00  0.00     0.047 A 
ATOM      6  C   UNL     1     -14.997  60.959  38.349  1.00  0.00     0.115 A 
ENDROOT
BRANCH   1   7
ATOM      7  C   UNL     1     -11.142  62.334  39.650  1.00  0.00     0.071 C 
ATOM      8  O   UNL     1     -10.900  63.568  39.752  1.00  0.00    -0.545 OA
ATOM      9  O   UNL     1     -10.141  61.423  39.966  1.00  0.00    -0.545 OA
ENDBRANCH   1   7
BRANCH   6  10
ATOM     10  O   UNL     1     -16.242  60.498  37.928  1.00  0.00    -0.508 OA
ATOM     11  H   UNL     1     -16.842  61.061  37.335  1.00  0.00     0.293 HD
ENDBRANCH   6  10
TORSDOF 2
ENDMDL
MODEL 4
REMARK VINA RESULT:    -5.114     15.214     16.867
REMARK INTER + INTRA:          -5.597
REMARK INTER:                  -5.565
REMARK INTRA:                  -0.032
REMARK UNBOUND:                -0.035
REMARK SMILES O=C([O-])c1ccc(O)cc1
REMARK SMILES IDX 4 1 5 2 10 3 6 4 9 5 7 6 2 7 1 8 3 9 8 10
REMARK H PARENT 8 11
REMARK Flexibility Score: inf
ROOT
ATOM      1  C   UNL     1      -6.157  61.520  54.261  1.00  0.00    -0.003 A 
ATOM      2  C   UNL     1      -7.336  61.876  54.943  1.00  0.00     0.014 A 
ATOM      3  C   UNL     1      -5.787  62.249  53.116  1.00  0.00     0.014 A 
ATOM      4  C   UNL     1      -8.125  62.937  54.488  1.00  0.00     0.047 A 
ATOM      5  C   UNL     1      -6.578  63.309  52.665  1.00  0.00     0.047 A 
ATOM      6  C   UNL     1      -7.747  63.657  53.348  1.00  0.00     0.115 A 
ENDROOT
BRANCH   1   7
ATOM      7  C   UNL     1      -5.319  60.398  54.736  1.00  0.00     0.071 C 
ATOM      8  O   UNL     1      -5.850  59.338  55.164  1.00  0.00    -0.545 OA
ATOM      9  O   UNL     1      -3.933  60.498  54.718  1.00  0.00    -0.545 OA
ENDBRANCH   1   7
BRANCH   6  10
ATOM     10  O   UNL     1      -8.526  64.716  52.886  1.00  0.00    -0.508 OA
ATOM     11  H   UNL     1      -8.675  65.547  53.446  1.00  0.00     0.293 HD
ENDBRANCH   6  10
TORSDOF 2
ENDMDL
MODEL 5
REMARK VINA RESULT:    -5.112      1.389      4.195
REMARK INTER + INTRA:          -5.595
REMARK INTER:                  -5.559
REMARK INTRA:                  -0.036
REMARK UNBOUND:                -0.035
REMARK SMILES O=C([O-])c1ccc(O)cc1
REMARK SMILES IDX 4 1 5 2 10 3 6 4 9 5 7 6 2 7 1 8 3 9 8 10
REMARK H PARENT 8 11
REMARK Flexibility Score: inf
ROOT
ATOM      1  C   UNL     1     -12.480  61.898  39.213  1.00  0.00    -0.003 A 
ATOM      2  C   UNL     1     -12.723  60.525  39.021  1.00  0.00     0.014 A 
ATOM      3  C   UNL     1     -13.516  62.815  38.960  1.00  0.00     0.014 A 
ATOM      4  C   UNL     1     -13.975  60.082  38.585  1.00  0.00     0.047 A 
ATOM      5  C   UNL     1     -14.766  62.367  38.524  1.00  0.00     0.047 A 
ATOM      6  C   UNL     1     -15.001  61.003  38.336  1.00  0.00     0.115 A 
ENDROOT
BRANCH   1   7
ATOM      7  C   UNL     1     -11.157  62.374  39.674  1.00  0.00     0.071 C 
ATOM      8  O   UNL     1     -10.924  63.608  39.784  1.00  0.00    -0.545 OA
ATOM      9  O   UNL     1     -10.153  61.467  39.991  1.00  0.00    -0.545 OA
ENDBRANCH   1   7
BRANCH   6  10
ATOM     10  O   UNL     1     -16.252  60.571  37.901  1.00  0.00    -0.508 OA
ATOM     11  H   UNL     1     -16.726  61.018  37.125  1.00  0.00     0.293 HD
ENDBRANCH   6  10
TORSDOF 2
ENDMDL
MODEL 6
REMARK VINA RESULT:    -5.072     18.039     20.084
REMARK INTER + INTRA:          -5.551
REMARK INTER:                  -5.516
REMARK INTRA:                  -0.035
REMARK UNBOUND:                -0.035
REMARK SMILES O=C([O-])c1ccc(O)cc1
REMARK SMILES IDX 4 1 5 2 10 3 6 4 9 5 7 6 2 7 1 8 3 9 8 10
REMARK H PARENT 8 11
REMARK Flexibility Score: inf
ROOT
ATOM      1  C   UNL     1     -10.273  49.106  55.055  1.00  0.00    -0.003 A 
ATOM      2  C   UNL     1      -9.582  50.233  54.572  1.00  0.00     0.014 A 
ATOM      3  C   UNL     1     -11.640  48.964  54.753  1.00  0.00     0.014 A 
ATOM      4  C   UNL     1     -10.246  51.195  53.805  1.00  0.00     0.047 A 
ATOM      5  C   UNL     1     -12.299  49.929  53.986  1.00  0.00     0.047 A 
ATOM      6  C   UNL     1     -11.606  51.045  53.510  1.00  0.00     0.115 A 
ENDROOT
BRANCH   1   7
ATOM      7  C   UNL     1      -9.577  48.084  55.867  1.00  0.00     0.071 C 
ATOM      8  O   UNL     1     -10.109  46.960  56.074  1.00  0.00    -0.545 OA
ATOM      9  O   UNL     1      -8.328  48.349  56.414  1.00  0.00    -0.545 OA
ENDBRANCH   1   7
BRANCH   6  10
ATOM     10  O   UNL     1     -12.277  51.998  52.746  1.00  0.00    -0.508 OA
ATOM     11  H   UNL     1     -12.440  51.864  51.755  1.00  0.00     0.293 HD
ENDBRANCH   6  10
TORSDOF 2
ENDMDL
MODEL 7
REMARK VINA RESULT:    -4.990     17.347     18.759
REMARK INTER + INTRA:          -5.462
REMARK INTER:                  -5.427
REMARK INTRA:                  -0.035
REMARK UNBOUND:                -0.035
REMARK SMILES O=C([O-])c1ccc(O)cc1
REMARK SMILES IDX 4 1 5 2 10 3 6 4 9 5 7 6 2 7 1 8 3 9 8 10
REMARK H PARENT 8 11
REMARK Flexibility Score: inf
ROOT
ATOM      1  C   UNL     1     -11.796  50.257  53.636  1.00  0.00    -0.003 A 
ATOM      2  C   UNL     1     -12.624  50.620  52.557  1.00  0.00     0.014 A 
ATOM      3  C   UNL     1     -12.094  49.088  54.359  1.00  0.00     0.014 A 
ATOM      4  C   UNL     1     -13.726  49.831  52.213  1.00  0.00     0.047 A 
ATOM      5  C   UNL     1     -13.196  48.302  54.011  1.00  0.00     0.047 A 
ATOM      6  C   UNL     1     -14.014  48.669  52.939  1.00  0.00     0.115 A 
ENDROOT
BRANCH   1   7
ATOM      7  C   UNL     1     -10.629  51.087  54.006  1.00  0.00     0.071 C 
ATOM      8  O   UNL     1      -9.702  50.609  54.713  1.00  0.00    -0.545 OA
ATOM      9  O   UNL     1     -10.540  52.407  53.579  1.00  0.00    -0.545 OA
ENDBRANCH   1   7
BRANCH   6  10
ATOM     10  O   UNL     1     -15.109  47.875  52.604  1.00  0.00    -0.508 OA
ATOM     11  H   UNL     1     -15.818  48.197  51.956  1.00  0.00     0.293 HD
ENDBRANCH   6  10
TORSDOF 2
ENDMDL
MODEL 8
REMARK VINA RESULT:    -4.972     14.249     15.861
REMARK INTER + INTRA:          -5.443
REMARK INTER:                  -5.408
REMARK INTRA:                  -0.035
REMARK UNBOUND:                -0.035
REMARK SMILES O=C([O-])c1ccc(O)cc1
REMARK SMILES IDX 4 1 5 2 10 3 6 4 9 5 7 6 2 7 1 8 3 9 8 10
REMARK H PARENT 8 11
REMARK Flexibility Score: inf
ROOT
ATOM      1  C   UNL     1      -6.893  63.179  52.898  1.00  0.00    -0.003 A 
ATOM      2  C   UNL     1      -7.843  63.245  53.935  1.00  0.00     0.014 A 
ATOM      3  C   UNL     1      -5.840  62.252  52.999  1.00  0.00     0.014 A 
ATOM      4  C   UNL     1      -7.739  62.403  55.046  1.00  0.00     0.047 A 
ATOM      5  C   UNL     1      -5.740  61.411  54.111  1.00  0.00     0.047 A 
ATOM      6  C   UNL     1      -6.687  61.483  55.137  1.00  0.00     0.115 A 
ENDROOT
BRANCH   1   7
ATOM      7  C   UNL     1      -6.997  64.067  51.721  1.00  0.00     0.071 C 
ATOM      8  O   UNL     1      -7.751  65.077  51.745  1.00  0.00    -0.545 OA
ATOM      9  O   UNL     1      -6.265  63.800  50.570  1.00  0.00    -0.545 OA
ENDBRANCH   1   7
BRANCH   6  10
ATOM     10  O   UNL     1      -6.574  60.639  56.240  1.00  0.00    -0.508 OA
ATOM     11  H   UNL     1      -6.893  60.923  57.159  1.00  0.00     0.293 HD
ENDBRANCH   6  10
TORSDOF 2
ENDMDL
MODEL 9
REMARK VINA RESULT:    -4.848      4.202      5.706
REMARK INTER + INTRA:          -5.307
REMARK INTER:                  -5.271
REMARK INTRA:                  -0.036
REMARK UNBOUND:                -0.035
REMARK SMILES O=C([O-])c1ccc(O)cc1
REMARK SMILES IDX 4 1 5 2 10 3 6 4 9 5 7 6 2 7 1 8 3 9 8 10
REMARK H PARENT 8 11
REMARK Flexibility Score: inf
ROOT
ATOM      1  C   UNL     1      -9.305  64.448  40.681  1.00  0.00    -0.003 A 
ATOM      2  C   UNL     1      -9.598  63.773  41.881  1.00  0.00     0.014 A 
ATOM      3  C   UNL     1      -9.386  63.742  39.467  1.00  0.00     0.014 A 
ATOM      4  C   UNL     1      -9.964  62.424  41.864  1.00  0.00     0.047 A 
ATOM      5  C   UNL     1      -9.753  62.393  39.455  1.00  0.00     0.047 A 
ATOM      6  C   UNL     1     -10.043  61.730  40.650  1.00  0.00     0.115 A 
ENDROOT
BRANCH   1   7
ATOM      7  C   UNL     1      -8.917  65.875  40.692  1.00  0.00     0.071 C 
ATOM      8  O   UNL     1      -8.863  66.515  41.776  1.00  0.00    -0.545 OA
ATOM      9  O   UNL     1      -8.607  66.529  39.506  1.00  0.00    -0.545 OA
ENDBRANCH   1   7
BRANCH   6  10
ATOM     10  O   UNL     1     -10.406  60.386  40.622  1.00  0.00    -0.508 OA
ATOM     11  H   UNL     1      -9.715  59.649  40.697  1.00  0.00     0.293 HD
ENDBRANCH   6  10
TORSDOF 2
ENDMDL
