MODEL 1
REMARK VINA RESULT:    -4.804      0.000      0.000
REMARK INTER + INTRA:          -7.565
REMARK INTER:                  -7.050
REMARK INTRA:                  -0.515
REMARK UNBOUND:                -0.515
REMARK SMILES O=C([O-])CCCCCCCC(=O)[O-]
REMARK SMILES IDX 7 1 6 2 5 3 4 4 2 5 1 6 3 7 8 8 9 9 10 10 11 11 12 12 13 13
REMARK H PARENT
REMARK Flexibility Score: inf
ROOT
ATOM      1  C   UNL     1      35.914  42.607  46.690  1.00  0.00     0.000 C 
ENDROOT
BRANCH   1   2
ATOM      2  C   UNL     1      35.893  43.994  46.029  1.00  0.00     0.000 C 
BRANCH   2   3
ATOM      3  C   UNL     1      34.459  44.422  45.699  1.00  0.00     0.006 C 
BRANCH   3   4
ATOM      4  C   UNL     1      34.336  44.850  44.233  1.00  0.00     0.053 C 
BRANCH   4   5
ATOM      5  C   UNL     1      32.922  44.709  43.764  1.00  0.00     0.041 C 
ATOM      6  O   UNL     1      32.510  45.383  42.784  1.00  0.00    -0.550 OA
ATOM      7  O   UNL     1      32.046  43.869  44.439  1.00  0.00    -0.550 OA
ENDBRANCH   4   5
ENDBRANCH   3   4
ENDBRANCH   2   3
ENDBRANCH   1   2
BRANCH   1   8
ATOM      8  C   UNL     1      36.929  42.513  47.841  1.00  0.00     0.000 C 
BRANCH   8   9
ATOM      9  C   UNL     1      36.304  42.839  49.209  1.00  0.00     0.006 C 
BRANCH   9  10
ATOM     10  C   UNL     1      34.774  42.716  49.192  1.00  0.00     0.053 C 
BRANCH  10  11
ATOM     11  C   UNL     1      34.108  44.004  49.570  1.00  0.00     0.041 C 
ATOM     12  O   UNL     1      32.989  43.992  50.146  1.00  0.00    -0.550 OA
ATOM     13  O   UNL     1      34.710  45.217  49.260  1.00  0.00    -0.550 OA
ENDBRANCH  10  11
ENDBRANCH   9  10
ENDBRANCH   8   9
ENDBRANCH   1   8
TORSDOF 8
ENDMDL
MODEL 2
REMARK VINA RESULT:    -4.789      3.309      6.352
REMARK INTER + INTRA:          -7.544
REMARK INTER:                  -6.941
REMARK INTRA:                  -0.603
REMARK UNBOUND:                -0.515
REMARK SMILES O=C([O-])CCCCCCCC(=O)[O-]
REMARK SMILES IDX 7 1 6 2 5 3 4 4 2 5 1 6 3 7 8 8 9 9 10 10 11 11 12 12 13 13
REMARK H PARENT
REMARK Flexibility Score: inf
ROOT
ATOM      1  C   UNL     1      34.463  43.606  49.859  1.00  0.00     0.000 C 
ENDROOT
BRANCH   1   2
ATOM      2  C   UNL     1      35.834  43.908  50.484  1.00  0.00     0.000 C 
BRANCH   2   3
ATOM      3  C   UNL     1      36.650  42.623  50.665  1.00  0.00     0.006 C 
BRANCH   3   4
ATOM      4  C   UNL     1      38.153  42.918  50.642  1.00  0.00     0.053 C 
BRANCH   4   5
ATOM      5  C   UNL     1      38.933  41.649  50.507  1.00  0.00     0.041 C 
ATOM      6  O   UNL     1      39.626  41.226  51.469  1.00  0.00    -0.550 OA
ATOM      7  O   UNL     1      38.932  40.957  49.303  1.00  0.00    -0.550 OA
ENDBRANCH   4   5
ENDBRANCH   3   4
ENDBRANCH   2   3
ENDBRANCH   1   2
BRANCH   1   8
ATOM      8  C   UNL     1      34.111  44.562  48.708  1.00  0.00     0.000 C 
BRANCH   8   9
ATOM      9  C   UNL     1      33.752  43.818  47.409  1.00  0.00     0.006 C 
BRANCH   9  10
ATOM     10  C   UNL     1      34.706  42.648  47.129  1.00  0.00     0.053 C 
BRANCH  10  11
ATOM     11  C   UNL     1      36.026  43.121  46.601  1.00  0.00     0.041 C 
ATOM     12  O   UNL     1      37.098  42.626  47.039  1.00  0.00    -0.550 OA
ATOM     13  O   UNL     1      36.074  44.128  45.646  1.00  0.00    -0.550 OA
ENDBRANCH  10  11
ENDBRANCH   9  10
ENDBRANCH   8   9
ENDBRANCH   1   8
TORSDOF 8
ENDMDL
MODEL 3
REMARK VINA RESULT:    -4.787      2.307      3.006
REMARK INTER + INTRA:          -7.540
REMARK INTER:                  -7.246
REMARK INTRA:                  -0.294
REMARK UNBOUND:                -0.515
REMARK SMILES O=C([O-])CCCCCCCC(=O)[O-]
REMARK SMILES IDX 7 1 6 2 5 3 4 4 2 5 1 6 3 7 8 8 9 9 10 10 11 11 12 12 13 13
REMARK H PARENT
REMARK Flexibility Score: inf
ROOT
ATOM      1  C   UNL     1      35.990  43.967  46.335  1.00  0.00     0.000 C 
ENDROOT
BRANCH   1   2
ATOM      2  C   UNL     1      34.694  44.253  47.109  1.00  0.00     0.000 C 
BRANCH   2   3
ATOM      3  C   UNL     1      33.469  44.106  46.199  1.00  0.00     0.006 C 
BRANCH   3   4
ATOM      4  C   UNL     1      33.789  44.551  44.769  1.00  0.00     0.053 C 
BRANCH   4   5
ATOM      5  C   UNL     1      32.555  44.523  43.924  1.00  0.00     0.041 C 
ATOM      6  O   UNL     1      31.537  43.892  44.311  1.00  0.00    -0.550 OA
ATOM      7  O   UNL     1      32.546  45.153  42.687  1.00  0.00    -0.550 OA
ENDBRANCH   4   5
ENDBRANCH   3   4
ENDBRANCH   2   3
ENDBRANCH   1   2
BRANCH   1   8
ATOM      8  C   UNL     1      36.693  42.684  46.808  1.00  0.00     0.000 C 
BRANCH   8   9
ATOM      9  C   UNL     1      36.821  42.610  48.340  1.00  0.00     0.006 C 
BRANCH   9  10
ATOM     10  C   UNL     1      38.159  42.000  48.780  1.00  0.00     0.053 C 
BRANCH  10  11
ATOM     11  C   UNL     1      38.424  42.231  50.237  1.00  0.00     0.041 C 
ATOM     12  O   UNL     1      37.900  43.211  50.829  1.00  0.00    -0.550 OA
ATOM     13  O   UNL     1      39.273  41.380  50.934  1.00  0.00    -0.550 OA
ENDBRANCH  10  11
ENDBRANCH   9  10
ENDBRANCH   8   9
ENDBRANCH   1   8
TORSDOF 8
ENDMDL
MODEL 4
REMARK VINA RESULT:    -4.779      3.325      4.523
REMARK INTER + INTRA:          -7.528
REMARK INTER:                  -6.914
REMARK INTRA:                  -0.614
REMARK UNBOUND:                -0.515
REMARK SMILES O=C([O-])CCCCCCCC(=O)[O-]
REMARK SMILES IDX 7 1 6 2 5 3 4 4 2 5 1 6 3 7 8 8 9 9 10 10 11 11 12 12 13 13
REMARK H PARENT
REMARK Flexibility Score: inf
ROOT
ATOM      1  C   UNL     1      34.444  43.953  50.123  1.00  0.00     0.000 C 
ENDROOT
BRANCH   1   2
ATOM      2  C   UNL     1      34.630  44.850  48.889  1.00  0.00     0.000 C 
BRANCH   2   3
ATOM      3  C   UNL     1      33.953  44.235  47.659  1.00  0.00     0.006 C 
BRANCH   3   4
ATOM      4  C   UNL     1      34.663  42.949  47.225  1.00  0.00     0.053 C 
BRANCH   4   5
ATOM      5  C   UNL     1      35.981  43.267  46.593  1.00  0.00     0.041 C 
ATOM      6  O   UNL     1      36.051  44.116  45.666  1.00  0.00    -0.550 OA
ATOM      7  O   UNL     1      37.125  42.592  46.996  1.00  0.00    -0.550 OA
ENDBRANCH   4   5
ENDBRANCH   3   4
ENDBRANCH   2   3
ENDBRANCH   1   2
BRANCH   1   8
ATOM      8  C   UNL     1      35.733  43.804  50.948  1.00  0.00     0.000 C 
BRANCH   8   9
ATOM      9  C   UNL     1      36.629  42.658  50.445  1.00  0.00     0.006 C 
BRANCH   9  10
ATOM     10  C   UNL     1      38.120  42.950  50.664  1.00  0.00     0.053 C 
BRANCH  10  11
ATOM     11  C   UNL     1      38.955  41.714  50.525  1.00  0.00     0.041 C 
ATOM     12  O   UNL     1      39.698  41.342  51.471  1.00  0.00    -0.550 OA
ATOM     13  O   UNL     1      38.934  40.989  49.340  1.00  0.00    -0.550 OA
ENDBRANCH  10  11
ENDBRANCH   9  10
ENDBRANCH   8   9
ENDBRANCH   1   8
TORSDOF 8
ENDMDL
MODEL 5
REMARK VINA RESULT:    -4.737      1.263      5.184
REMARK INTER + INTRA:          -7.466
REMARK INTER:                  -6.935
REMARK INTRA:                  -0.531
REMARK UNBOUND:                -0.515
REMARK SMILES O=C([O-])CCCCCCCC(=O)[O-]
REMARK SMILES IDX 7 1 6 2 5 3 4 4 2 5 1 6 3 7 8 8 9 9 10 10 11 11 12 12 13 13
REMARK H PARENT
REMARK Flexibility Score: inf
ROOT
ATOM      1  C   UNL     1      36.319  42.872  46.627  1.00  0.00     0.000 C 
ENDROOT
BRANCH   1   2
ATOM      2  C   UNL     1      36.630  42.612  48.109  1.00  0.00     0.000 C 
BRANCH   2   3
ATOM      3  C   UNL     1      35.442  43.005  48.995  1.00  0.00     0.006 C 
BRANCH   3   4
ATOM      4  C   UNL     1      35.918  43.677  50.286  1.00  0.00     0.053 C 
BRANCH   4   5
ATOM      5  C   UNL     1      35.293  45.028  50.434  1.00  0.00     0.041 C 
ATOM      6  O   UNL     1      34.930  45.673  49.416  1.00  0.00    -0.550 OA
ATOM      7  O   UNL     1      35.154  45.596  51.694  1.00  0.00    -0.550 OA
ENDBRANCH   4   5
ENDBRANCH   3   4
ENDBRANCH   2   3
ENDBRANCH   1   2
BRANCH   1   8
ATOM      8  C   UNL     1      35.861  44.315  46.360  1.00  0.00     0.000 C 
BRANCH   8   9
ATOM      9  C   UNL     1      34.651  44.386  45.412  1.00  0.00     0.006 C 
BRANCH   9  10
ATOM     10  C   UNL     1      33.326  44.130  46.143  1.00  0.00     0.053 C 
BRANCH  10  11
ATOM     11  C   UNL     1      32.175  44.025  45.190  1.00  0.00     0.041 C 
ATOM     12  O   UNL     1      31.077  43.541  45.571  1.00  0.00    -0.550 OA
ATOM     13  O   UNL     1      32.323  44.436  43.871  1.00  0.00    -0.550 OA
ENDBRANCH  10  11
ENDBRANCH   9  10
ENDBRANCH   8   9
ENDBRANCH   1   8
TORSDOF 8
ENDMDL
MODEL 6
REMARK VINA RESULT:    -4.725      3.179      4.112
REMARK INTER + INTRA:          -7.449
REMARK INTER:                  -7.091
REMARK INTRA:                  -0.357
REMARK UNBOUND:                -0.515
REMARK SMILES O=C([O-])CCCCCCCC(=O)[O-]
REMARK SMILES IDX 7 1 6 2 5 3 4 4 2 5 1 6 3 7 8 8 9 9 10 10 11 11 12 12 13 13
REMARK H PARENT
REMARK Flexibility Score: inf
ROOT
ATOM      1  C   UNL     1      34.621  43.347  49.646  1.00  0.00     0.000 C 
ENDROOT
BRANCH   1   2
ATOM      2  C   UNL     1      33.667  42.588  48.711  1.00  0.00     0.000 C 
BRANCH   2   3
ATOM      3  C   UNL     1      34.166  42.638  47.262  1.00  0.00     0.006 C 
BRANCH   3   4
ATOM      4  C   UNL     1      33.861  43.996  46.622  1.00  0.00     0.053 C 
BRANCH   4   5
ATOM      5  C   UNL     1      34.886  44.327  45.583  1.00  0.00     0.041 C 
ATOM      6  O   UNL     1      36.109  44.149  45.821  1.00  0.00    -0.550 OA
ATOM      7  O   UNL     1      34.493  44.877  44.370  1.00  0.00    -0.550 OA
ENDBRANCH   4   5
ENDBRANCH   3   4
ENDBRANCH   2   3
ENDBRANCH   1   2
BRANCH   1   8
ATOM      8  C   UNL     1      36.092  42.952  49.442  1.00  0.00     0.000 C 
BRANCH   8   9
ATOM      9  C   UNL     1      36.876  42.884  50.765  1.00  0.00     0.006 C 
BRANCH   9  10
ATOM     10  C   UNL     1      38.392  42.976  50.546  1.00  0.00     0.053 C 
BRANCH  10  11
ATOM     11  C   UNL     1      39.026  41.621  50.460  1.00  0.00     0.041 C 
ATOM     12  O   UNL     1      38.980  40.967  49.386  1.00  0.00    -0.550 OA
ATOM     13  O   UNL     1      39.643  41.069  51.576  1.00  0.00    -0.550 OA
ENDBRANCH  10  11
ENDBRANCH   9  10
ENDBRANCH   8   9
ENDBRANCH   1   8
TORSDOF 8
ENDMDL
MODEL 7
REMARK VINA RESULT:    -4.702      2.077      5.386
REMARK INTER + INTRA:          -7.416
REMARK INTER:                  -6.857
REMARK INTRA:                  -0.559
REMARK UNBOUND:                -0.515
REMARK SMILES O=C([O-])CCCCCCCC(=O)[O-]
REMARK SMILES IDX 7 1 6 2 5 3 4 4 2 5 1 6 3 7 8 8 9 9 10 10 11 11 12 12 13 13
REMARK H PARENT
REMARK Flexibility Score: inf
ROOT
ATOM      1  C   UNL     1      35.612  44.288  46.368  1.00  0.00     0.000 C 
ENDROOT
BRANCH   1   2
ATOM      2  C   UNL     1      36.267  42.900  46.448  1.00  0.00     0.000 C 
BRANCH   2   3
ATOM      3  C   UNL     1      36.739  42.599  47.875  1.00  0.00     0.006 C 
BRANCH   3   4
ATOM      4  C   UNL     1      35.697  43.045  48.905  1.00  0.00     0.053 C 
BRANCH   4   5
ATOM      5  C   UNL     1      36.241  42.911  50.292  1.00  0.00     0.041 C 
ATOM      6  O   UNL     1      35.459  42.753  51.266  1.00  0.00    -0.550 OA
ATOM      7  O   UNL     1      37.608  43.009  50.515  1.00  0.00    -0.550 OA
ENDBRANCH   4   5
ENDBRANCH   3   4
ENDBRANCH   2   3
ENDBRANCH   1   2
BRANCH   1   8
ATOM      8  C   UNL     1      34.949  44.553  45.007  1.00  0.00     0.000 C 
BRANCH   8   9
ATOM      9  C   UNL     1      33.413  44.468  45.070  1.00  0.00     0.006 C 
BRANCH   9  10
ATOM     10  C   UNL     1      32.912  44.058  46.461  1.00  0.00     0.053 C 
BRANCH  10  11
ATOM     11  C   UNL     1      32.270  42.704  46.445  1.00  0.00     0.041 C 
ATOM     12  O   UNL     1      32.820  41.736  47.033  1.00  0.00    -0.550 OA
ATOM     13  O   UNL     1      31.080  42.506  45.757  1.00  0.00    -0.550 OA
ENDBRANCH  10  11
ENDBRANCH   9  10
ENDBRANCH   8   9
ENDBRANCH   1   8
TORSDOF 8
ENDMDL
MODEL 8
REMARK VINA RESULT:    -4.689      2.643      3.477
REMARK INTER + INTRA:          -7.397
REMARK INTER:                  -6.799
REMARK INTRA:                  -0.598
REMARK UNBOUND:                -0.515
REMARK SMILES O=C([O-])CCCCCCCC(=O)[O-]
REMARK SMILES IDX 7 1 6 2 5 3 4 4 2 5 1 6 3 7 8 8 9 9 10 10 11 11 12 12 13 13
REMARK H PARENT
REMARK Flexibility Score: inf
ROOT
ATOM      1  C   UNL     1      35.233  44.409  46.513  1.00  0.00     0.000 C 
ENDROOT
BRANCH   1   2
ATOM      2  C   UNL     1      34.457  44.353  47.838  1.00  0.00     0.000 C 
BRANCH   2   3
ATOM      3  C   UNL     1      32.945  44.404  47.589  1.00  0.00     0.006 C 
BRANCH   3   4
ATOM      4  C   UNL     1      32.578  43.693  46.283  1.00  0.00     0.053 C 
BRANCH   4   5
ATOM      5  C   UNL     1      32.080  42.311  46.561  1.00  0.00     0.041 C 
ATOM      6  O   UNL     1      32.861  41.436  47.020  1.00  0.00    -0.550 OA
ATOM      7  O   UNL     1      30.765  41.974  46.269  1.00  0.00    -0.550 OA
ENDBRANCH   4   5
ENDBRANCH   3   4
ENDBRANCH   2   3
ENDBRANCH   1   2
BRANCH   1   8
ATOM      8  C   UNL     1      36.315  43.322  46.412  1.00  0.00     0.000 C 
BRANCH   8   9
ATOM      9  C   UNL     1      36.351  42.406  47.649  1.00  0.00     0.006 C 
BRANCH   9  10
ATOM     10  C   UNL     1      37.760  42.299  48.249  1.00  0.00     0.053 C 
BRANCH  10  11
ATOM     11  C   UNL     1      37.739  42.409  49.743  1.00  0.00     0.041 C 
ATOM     12  O   UNL     1      36.899  43.155  50.311  1.00  0.00    -0.550 OA
ATOM     13  O   UNL     1      38.666  41.710  50.506  1.00  0.00    -0.550 OA
ENDBRANCH  10  11
ENDBRANCH   9  10
ENDBRANCH   8   9
ENDBRANCH   1   8
TORSDOF 8
ENDMDL
MODEL 9
REMARK VINA RESULT:    -4.668      1.586      2.095
REMARK INTER + INTRA:          -7.365
REMARK INTER:                  -6.952
REMARK INTRA:                  -0.413
REMARK UNBOUND:                -0.515
REMARK SMILES O=C([O-])CCCCCCCC(=O)[O-]
REMARK SMILES IDX 7 1 6 2 5 3 4 4 2 5 1 6 3 7 8 8 9 9 10 10 11 11 12 12 13 13
REMARK H PARENT
REMARK Flexibility Score: inf
ROOT
ATOM      1  C   UNL     1      36.219  42.789  46.616  1.00  0.00     0.000 C 
ENDROOT
BRANCH   1   2
ATOM      2  C   UNL     1      35.865  44.264  46.373  1.00  0.00     0.000 C 
BRANCH   2   3
ATOM      3  C   UNL     1      34.607  44.390  45.505  1.00  0.00     0.006 C 
BRANCH   3   4
ATOM      4  C   UNL     1      33.346  44.077  46.316  1.00  0.00     0.053 C 
BRANCH   4   5
ATOM      5  C   UNL     1      32.142  44.074  45.429  1.00  0.00     0.041 C 
ATOM      6  O   UNL     1      30.988  43.991  45.928  1.00  0.00    -0.550 OA
ATOM      7  O   UNL     1      32.294  44.116  44.050  1.00  0.00    -0.550 OA
ENDBRANCH   4   5
ENDBRANCH   3   4
ENDBRANCH   2   3
ENDBRANCH   1   2
BRANCH   1   8
ATOM      8  C   UNL     1      36.750  42.532  48.036  1.00  0.00     0.000 C 
BRANCH   8   9
ATOM      9  C   UNL     1      35.758  42.972  49.127  1.00  0.00     0.006 C 
BRANCH   9  10
ATOM     10  C   UNL     1      36.449  43.209  50.477  1.00  0.00     0.053 C 
BRANCH  10  11
ATOM     11  C   UNL     1      35.922  44.431  51.166  1.00  0.00     0.041 C 
ATOM     12  O   UNL     1      35.543  45.424  50.492  1.00  0.00    -0.550 OA
ATOM     13  O   UNL     1      35.878  44.484  52.553  1.00  0.00    -0.550 OA
ENDBRANCH  10  11
ENDBRANCH   9  10
ENDBRANCH   8   9
ENDBRANCH   1   8
TORSDOF 8
ENDMDL
