MODEL 1
REMARK VINA RESULT:     3.685      0.000      0.000
REMARK INTER + INTRA:           3.625
REMARK INTER:                   3.901
REMARK INTRA:                  -0.276
REMARK UNBOUND:                -0.276
REMARK SMILES C=C1CC[C@@H](C(C)C)[C@@H]2C=C(C)CC[C@@H]12
REMARK SMILES IDX 12 1 11 2 10 3 9 4 15 5 14 6 13 7 2 8 1 9 3 10 4 11 5 12
REMARK SMILES IDX 6 13 7 14 8 15
REMARK H PARENT
REMARK Flexibility Score: inf
ROOT
ATOM      1  C   UNL     1     -12.915  -2.981  21.288  1.00  0.00     0.039 C 
ATOM      2  C   UNL     1     -13.791  -2.332  20.250  1.00  0.00    -0.077 C 
ATOM      3  C   UNL     1     -13.724  -2.765  18.971  1.00  0.00    -0.024 C 
ATOM      4  C   UNL     1     -14.492  -2.121  17.825  1.00  0.00     0.022 C 
ATOM      5  C   UNL     1     -15.735  -1.370  18.374  1.00  0.00     0.022 C 
ATOM      6  C   UNL     1     -15.328  -0.449  19.535  1.00  0.00     0.013 C 
ATOM      7  C   UNL     1     -14.790  -1.287  20.697  1.00  0.00     0.031 C 
ATOM      8  C   UNL     1     -16.450  -0.681  17.226  1.00  0.00    -0.074 C 
ATOM      9  C   UNL     1     -16.596   0.652  17.109  1.00  0.00     0.008 C 
ATOM     10  C   UNL     1     -16.915  -1.597  16.128  1.00  0.00     0.031 C 
ATOM     11  C   UNL     1     -15.719  -2.383  15.588  1.00  0.00     0.009 C 
ATOM     12  C   UNL     1     -14.927  -3.134  16.699  1.00  0.00    -0.001 C 
ENDROOT
BRANCH  12  13
ATOM     13  C   UNL     1     -13.779  -3.964  16.010  1.00  0.00    -0.014 C 
ATOM     14  C   UNL     1     -12.739  -3.087  15.290  1.00  0.00     0.007 C 
ATOM     15  C   UNL     1     -14.268  -5.117  15.120  1.00  0.00     0.007 C 
ENDBRANCH  12  13
TORSDOF 1
ENDMDL
MODEL 2
REMARK VINA RESULT:     5.531      1.214      4.244
REMARK INTER + INTRA:           5.578
REMARK INTER:                   5.848
REMARK INTRA:                  -0.270
REMARK UNBOUND:                -0.276
REMARK SMILES C=C1CC[C@@H](C(C)C)[C@@H]2C=C(C)CC[C@@H]12
REMARK SMILES IDX 12 1 11 2 10 3 9 4 15 5 14 6 13 7 2 8 1 9 3 10 4 11 5 12
REMARK SMILES IDX 6 13 7 14 8 15
REMARK H PARENT
REMARK Flexibility Score: inf
ROOT
ATOM      1  C   UNL     1     -10.796  -4.139  16.363  1.00  0.00     0.039 C 
ATOM      2  C   UNL     1     -12.173  -3.533  16.332  1.00  0.00    -0.077 C 
ATOM      3  C   UNL     1     -12.795  -3.254  17.499  1.00  0.00    -0.024 C 
ATOM      4  C   UNL     1     -14.222  -2.729  17.586  1.00  0.00     0.022 C 
ATOM      5  C   UNL     1     -14.611  -2.022  16.260  1.00  0.00     0.022 C 
ATOM      6  C   UNL     1     -14.280  -2.926  15.061  1.00  0.00     0.013 C 
ATOM      7  C   UNL     1     -12.770  -3.162  14.992  1.00  0.00     0.031 C 
ATOM      8  C   UNL     1     -16.055  -1.564  16.343  1.00  0.00    -0.074 C 
ATOM      9  C   UNL     1     -17.045  -2.016  15.549  1.00  0.00     0.008 C 
ATOM     10  C   UNL     1     -16.357  -0.619  17.472  1.00  0.00     0.031 C 
ATOM     11  C   UNL     1     -15.950  -1.270  18.796  1.00  0.00     0.009 C 
ATOM     12  C   UNL     1     -14.473  -1.764  18.807  1.00  0.00    -0.001 C 
ENDROOT
BRANCH  12  13
ATOM     13  C   UNL     1     -14.156  -2.337  20.240  1.00  0.00    -0.014 C 
ATOM     14  C   UNL     1     -15.416  -2.611  21.081  1.00  0.00     0.007 C 
ATOM     15  C   UNL     1     -13.104  -1.540  21.029  1.00  0.00     0.007 C 
ENDBRANCH  12  13
TORSDOF 1
ENDMDL
MODEL 3
REMARK VINA RESULT:     5.765      1.244      3.705
REMARK INTER + INTRA:           5.826
REMARK INTER:                   6.093
REMARK INTRA:                  -0.268
REMARK UNBOUND:                -0.276
REMARK SMILES C=C1CC[C@@H](C(C)C)[C@@H]2C=C(C)CC[C@@H]12
REMARK SMILES IDX 12 1 11 2 10 3 9 4 15 5 14 6 13 7 2 8 1 9 3 10 4 11 5 12
REMARK SMILES IDX 6 13 7 14 8 15
REMARK H PARENT
REMARK Flexibility Score: inf
ROOT
ATOM      1  C   UNL     1     -15.125  -1.534  22.181  1.00  0.00     0.039 C 
ATOM      2  C   UNL     1     -14.531  -1.988  20.875  1.00  0.00    -0.077 C 
ATOM      3  C   UNL     1     -15.227  -1.791  19.734  1.00  0.00    -0.024 C 
ATOM      4  C   UNL     1     -14.767  -2.293  18.372  1.00  0.00     0.022 C 
ATOM      5  C   UNL     1     -13.227  -2.493  18.370  1.00  0.00     0.022 C 
ATOM      6  C   UNL     1     -12.799  -3.321  19.592  1.00  0.00     0.013 C 
ATOM      7  C   UNL     1     -13.129  -2.558  20.877  1.00  0.00     0.031 C 
ATOM      8  C   UNL     1     -12.797  -3.055  17.028  1.00  0.00    -0.074 C 
ATOM      9  C   UNL     1     -12.227  -4.262  16.854  1.00  0.00     0.008 C 
ATOM     10  C   UNL     1     -13.150  -2.202  15.841  1.00  0.00     0.031 C 
ATOM     11  C   UNL     1     -14.660  -1.954  15.831  1.00  0.00     0.009 C 
ATOM     12  C   UNL     1     -15.192  -1.365  17.172  1.00  0.00    -0.001 C 
ENDROOT
BRANCH  12  13
ATOM     13  C   UNL     1     -16.733  -1.080  17.007  1.00  0.00    -0.014 C 
ATOM     14  C   UNL     1     -17.300  -1.550  15.655  1.00  0.00     0.007 C 
ATOM     15  C   UNL     1     -17.157   0.361  17.335  1.00  0.00     0.007 C 
ENDBRANCH  12  13
TORSDOF 1
ENDMDL
MODEL 4
REMARK VINA RESULT:     5.854      1.235      4.279
REMARK INTER + INTRA:           5.921
REMARK INTER:                   6.197
REMARK INTRA:                  -0.276
REMARK UNBOUND:                -0.276
REMARK SMILES C=C1CC[C@@H](C(C)C)[C@@H]2C=C(C)CC[C@@H]12
REMARK SMILES IDX 12 1 11 2 10 3 9 4 15 5 14 6 13 7 2 8 1 9 3 10 4 11 5 12
REMARK SMILES IDX 6 13 7 14 8 15
REMARK H PARENT
REMARK Flexibility Score: inf
ROOT
ATOM      1  C   UNL     1     -14.943  -5.439  15.628  1.00  0.00     0.039 C 
ATOM      2  C   UNL     1     -15.388  -4.055  16.019  1.00  0.00    -0.077 C 
ATOM      3  C   UNL     1     -15.067  -3.584  17.244  1.00  0.00    -0.024 C 
ATOM      4  C   UNL     1     -15.544  -2.240  17.779  1.00  0.00     0.022 C 
ATOM      5  C   UNL     1     -15.894  -1.292  16.600  1.00  0.00     0.022 C 
ATOM      6  C   UNL     1     -16.820  -2.006  15.602  1.00  0.00     0.013 C 
ATOM      7  C   UNL     1     -16.093  -3.203  14.986  1.00  0.00     0.031 C 
ATOM      8  C   UNL     1     -16.428   0.016  17.153  1.00  0.00    -0.074 C 
ATOM      9  C   UNL     1     -17.676   0.478  16.946  1.00  0.00     0.008 C 
ATOM     10  C   UNL     1     -15.487   0.750  18.067  1.00  0.00     0.031 C 
ATOM     11  C   UNL     1     -15.091  -0.170  19.224  1.00  0.00     0.009 C 
ATOM     12  C   UNL     1     -14.519  -1.539  18.749  1.00  0.00    -0.001 C 
ENDROOT
BRANCH  12  13
ATOM     13  C   UNL     1     -14.076  -2.355  20.022  1.00  0.00    -0.014 C 
ATOM     14  C   UNL     1     -15.247  -2.714  20.956  1.00  0.00     0.007 C 
ATOM     15  C   UNL     1     -12.895  -1.746  20.794  1.00  0.00     0.007 C 
ENDBRANCH  12  13
TORSDOF 1
ENDMDL
MODEL 5
REMARK VINA RESULT:     5.910      1.149      4.733
REMARK INTER + INTRA:           5.980
REMARK INTER:                   6.250
REMARK INTRA:                  -0.270
REMARK UNBOUND:                -0.276
REMARK SMILES C=C1CC[C@@H](C(C)C)[C@@H]2C=C(C)CC[C@@H]12
REMARK SMILES IDX 12 1 11 2 10 3 9 4 15 5 14 6 13 7 2 8 1 9 3 10 4 11 5 12
REMARK SMILES IDX 6 13 7 14 8 15
REMARK H PARENT
REMARK Flexibility Score: inf
ROOT
ATOM      1  C   UNL     1     -18.274   0.254  17.579  1.00  0.00     0.039 C 
ATOM      2  C   UNL     1     -17.024  -0.500  17.210  1.00  0.00    -0.077 C 
ATOM      3  C   UNL     1     -16.134  -0.810  18.178  1.00  0.00    -0.024 C 
ATOM      4  C   UNL     1     -14.797  -1.485  17.905  1.00  0.00     0.022 C 
ATOM      5  C   UNL     1     -14.860  -2.269  16.567  1.00  0.00     0.022 C 
ATOM      6  C   UNL     1     -15.421  -1.372  15.452  1.00  0.00     0.013 C 
ATOM      7  C   UNL     1     -16.861  -0.974  15.782  1.00  0.00     0.031 C 
ATOM      8  C   UNL     1     -13.500  -2.880  16.280  1.00  0.00    -0.074 C 
ATOM      9  C   UNL     1     -12.730  -2.563  15.222  1.00  0.00     0.008 C 
ATOM     10  C   UNL     1     -12.991  -3.818  17.338  1.00  0.00     0.031 C 
ATOM     11  C   UNL     1     -12.950  -3.087  18.682  1.00  0.00     0.009 C 
ATOM     12  C   UNL     1     -14.312  -2.434  19.065  1.00  0.00    -0.001 C 
ENDROOT
BRANCH  12  13
ATOM     13  C   UNL     1     -14.163  -1.789  20.494  1.00  0.00    -0.014 C 
ATOM     14  C   UNL     1     -12.707  -1.731  20.991  1.00  0.00     0.007 C 
ATOM     15  C   UNL     1     -15.108  -2.367  21.560  1.00  0.00     0.007 C 
ENDBRANCH  12  13
TORSDOF 1
ENDMDL
