MODEL 1
REMARK VINA RESULT:    -3.705      0.000      0.000
REMARK INTER + INTRA:          -7.229
REMARK INTER:                  -5.654
REMARK INTRA:                  -1.575
REMARK UNBOUND:                -1.575
REMARK SMILES OC[C@@H]1O[C@@](CO)(O[C@@H]2O[C@H](CO)[C@H](O)[C@H](O)[C@@H]2O)[C@@H](O)[C@@H]1O
REMARK SMILES IDX 8 1 9 2 11 3 14 4 10 5 16 6 18 7 12 8 13 9 15 11 17 13 19 15
REMARK SMILES IDX 5 17 20 18 4 19 22 20 3 21 6 22 7 23 21 25 23 27 2 29 1 30
REMARK H PARENT 13 10 15 12 17 14 19 16 7 24 21 26 23 28 1 31
REMARK Flexibility Score: inf
ROOT
ATOM      1  O   UNL     1     -51.753 451.649 -12.573  1.00  0.00    -0.313 OA
ENDROOT
BRANCH   1   2
ATOM      2  C   UNL     1     -53.039 451.607 -13.186  1.00  0.00     0.285 C 
ATOM      3  C   UNL     1     -54.535 450.721 -11.528  1.00  0.00     0.178 C 
ATOM      4  C   UNL     1     -55.125 449.633 -12.482  1.00  0.00     0.177 C 
ATOM      5  O   UNL     1     -54.061 451.862 -12.223  1.00  0.00    -0.341 OA
ATOM      6  C   UNL     1     -54.668 449.850 -13.940  1.00  0.00     0.179 C 
ATOM      7  C   UNL     1     -53.204 450.274 -13.971  1.00  0.00     0.202 C 
BRANCH   3   8
ATOM      8  C   UNL     1     -53.495 450.223 -10.504  1.00  0.00     0.191 C 
BRANCH   8   9
ATOM      9  O   UNL     1     -53.089 451.280  -9.676  1.00  0.00    -0.394 OA
ATOM     10  H   UNL     1     -52.381 451.767 -10.179  1.00  0.00     0.210 HD
ENDBRANCH   8   9
ENDBRANCH   3   8
BRANCH   4  11
ATOM     11  O   UNL     1     -54.764 448.345 -12.046  1.00  0.00    -0.387 OA
ATOM     12  H   UNL     1     -55.513 447.735 -12.264  1.00  0.00     0.211 HD
ENDBRANCH   4  11
BRANCH   6  13
ATOM     13  O   UNL     1     -54.833 448.683 -14.702  1.00  0.00    -0.387 OA
ATOM     14  H   UNL     1     -54.064 448.638 -15.333  1.00  0.00     0.211 HD
ENDBRANCH   6  13
BRANCH   7  15
ATOM     15  O   UNL     1     -52.409 449.253 -13.430  1.00  0.00    -0.385 OA
ATOM     16  H   UNL     1     -52.396 448.511 -14.085  1.00  0.00     0.211 HD
ENDBRANCH   7  15
ENDBRANCH   1   2
BRANCH   1  17
ATOM     17  C   UNL     1     -50.937 452.757 -12.947  1.00  0.00     0.224 C 
ATOM     18  C   UNL     1     -50.684 453.624 -11.695  1.00  0.00     0.208 C 
ATOM     19  O   UNL     1     -49.669 452.323 -13.425  1.00  0.00    -0.337 OA
ATOM     20  C   UNL     1     -49.362 453.112 -11.202  1.00  0.00     0.180 C 
ATOM     21  C   UNL     1     -48.672 452.683 -12.493  1.00  0.00     0.179 C 
BRANCH  17  22
ATOM     22  C   UNL     1     -51.625 453.592 -14.048  1.00  0.00     0.225 C 
BRANCH  22  23
ATOM     23  O   UNL     1     -50.755 453.821 -15.123  1.00  0.00    -0.391 OA
ATOM     24  H   UNL     1     -50.723 454.803 -15.267  1.00  0.00     0.210 HD
ENDBRANCH  22  23
ENDBRANCH  17  22
BRANCH  18  25
ATOM     25  O   UNL     1     -51.668 453.451 -10.706  1.00  0.00    -0.385 OA
ATOM     26  H   UNL     1     -51.491 452.576 -10.277  1.00  0.00     0.211 HD
ENDBRANCH  18  25
BRANCH  20  27
ATOM     27  O   UNL     1     -48.651 454.102 -10.503  1.00  0.00    -0.387 OA
ATOM     28  H   UNL     1     -49.031 454.975 -10.795  1.00  0.00     0.211 HD
ENDBRANCH  20  27
BRANCH  21  29
ATOM     29  C   UNL     1     -47.774 453.767 -13.107  1.00  0.00     0.191 C 
BRANCH  29  30
ATOM     30  O   UNL     1     -47.783 453.676 -14.507  1.00  0.00    -0.394 OA
ATOM     31  H   UNL     1     -48.057 454.565 -14.856  1.00  0.00     0.210 HD
ENDBRANCH  29  30
ENDBRANCH  21  29
ENDBRANCH   1  17
TORSDOF 13
ENDMDL
MODEL 2
REMARK VINA RESULT:    -3.580      2.085      3.121
REMARK INTER + INTRA:          -7.039
REMARK INTER:                  -5.659
REMARK INTRA:                  -1.380
REMARK UNBOUND:                -1.575
REMARK SMILES OC[C@@H]1O[C@@](CO)(O[C@@H]2O[C@H](CO)[C@H](O)[C@H](O)[C@@H]2O)[C@@H](O)[C@@H]1O
REMARK SMILES IDX 8 1 9 2 11 3 14 4 10 5 16 6 18 7 12 8 13 9 15 11 17 13 19 15
REMARK SMILES IDX 5 17 20 18 4 19 22 20 3 21 6 22 7 23 21 25 23 27 2 29 1 30
REMARK H PARENT 13 10 15 12 17 14 19 16 7 24 21 26 23 28 1 31
REMARK Flexibility Score: inf
ROOT
ATOM      1  O   UNL     1     -53.084 449.918 -12.171  1.00  0.00    -0.313 OA
ENDROOT
BRANCH   1   2
ATOM      2  C   UNL     1     -54.298 449.171 -12.216  1.00  0.00     0.285 C 
ATOM      3  C   UNL     1     -54.311 447.808 -10.237  1.00  0.00     0.178 C 
ATOM      4  C   UNL     1     -54.615 446.488 -11.015  1.00  0.00     0.177 C 
ATOM      5  O   UNL     1     -54.804 448.961 -10.899  1.00  0.00    -0.341 OA
ATOM      6  C   UNL     1     -54.977 446.769 -12.489  1.00  0.00     0.179 C 
ATOM      7  C   UNL     1     -54.085 447.872 -13.044  1.00  0.00     0.202 C 
BRANCH   3   8
ATOM      8  C   UNL     1     -52.847 448.006  -9.796  1.00  0.00     0.191 C 
BRANCH   8   9
ATOM      9  O   UNL     1     -52.636 447.414  -8.543  1.00  0.00    -0.394 OA
ATOM     10  H   UNL     1     -53.093 448.001  -7.882  1.00  0.00     0.210 HD
ENDBRANCH   8   9
ENDBRANCH   3   8
BRANCH   4  11
ATOM     11  O   UNL     1     -53.518 445.608 -10.943  1.00  0.00    -0.387 OA
ATOM     12  H   UNL     1     -52.715 446.149 -10.735  1.00  0.00     0.211 HD
ENDBRANCH   4  11
BRANCH   6  13
ATOM     13  O   UNL     1     -54.838 445.614 -13.274  1.00  0.00    -0.387 OA
ATOM     14  H   UNL     1     -55.570 445.632 -13.949  1.00  0.00     0.211 HD
ENDBRANCH   6  13
BRANCH   7  15
ATOM     15  O   UNL     1     -52.747 447.452 -13.015  1.00  0.00    -0.385 OA
ATOM     16  H   UNL     1     -52.548 447.040 -13.893  1.00  0.00     0.211 HD
ENDBRANCH   7  15
ENDBRANCH   1   2
BRANCH   1  17
ATOM     17  C   UNL     1     -53.194 451.283 -12.565  1.00  0.00     0.224 C 
ATOM     18  C   UNL     1     -52.920 452.173 -11.335  1.00  0.00     0.208 C 
ATOM     19  O   UNL     1     -52.224 451.613 -13.553  1.00  0.00    -0.337 OA
ATOM     20  C   UNL     1     -51.459 452.490 -11.478  1.00  0.00     0.180 C 
ATOM     21  C   UNL     1     -51.267 452.485 -12.991  1.00  0.00     0.179 C 
BRANCH  17  22
ATOM     22  C   UNL     1     -54.601 451.572 -13.133  1.00  0.00     0.225 C 
BRANCH  22  23
ATOM     23  O   UNL     1     -54.518 452.216 -14.376  1.00  0.00    -0.391 OA
ATOM     24  H   UNL     1     -53.685 451.899 -14.812  1.00  0.00     0.210 HD
ENDBRANCH  22  23
ENDBRANCH  17  22
BRANCH  18  25
ATOM     25  O   UNL     1     -53.152 451.507 -10.119  1.00  0.00    -0.385 OA
ATOM     26  H   UNL     1     -53.897 450.875 -10.277  1.00  0.00     0.211 HD
ENDBRANCH  18  25
BRANCH  20  27
ATOM     27  O   UNL     1     -51.136 453.723 -10.887  1.00  0.00    -0.387 OA
ATOM     28  H   UNL     1     -51.419 453.656  -9.934  1.00  0.00     0.211 HD
ENDBRANCH  20  27
BRANCH  21  29
ATOM     29  C   UNL     1     -51.406 453.871 -13.639  1.00  0.00     0.191 C 
BRANCH  29  30
ATOM     30  O   UNL     1     -52.226 453.801 -14.774  1.00  0.00    -0.394 OA
ATOM     31  H   UNL     1     -52.899 453.091 -14.605  1.00  0.00     0.210 HD
ENDBRANCH  29  30
ENDBRANCH  21  29
ENDBRANCH   1  17
TORSDOF 13
ENDMDL
MODEL 3
REMARK VINA RESULT:    -2.517      2.001      6.045
REMARK INTER + INTRA:          -5.416
REMARK INTER:                  -4.207
REMARK INTRA:                  -1.209
REMARK UNBOUND:                -1.575
REMARK SMILES OC[C@@H]1O[C@@](CO)(O[C@@H]2O[C@H](CO)[C@H](O)[C@H](O)[C@@H]2O)[C@@H](O)[C@@H]1O
REMARK SMILES IDX 8 1 9 2 11 3 14 4 10 5 16 6 18 7 12 8 13 9 15 11 17 13 19 15
REMARK SMILES IDX 5 17 20 18 4 19 22 20 3 21 6 22 7 23 21 25 23 27 2 29 1 30
REMARK H PARENT 13 10 15 12 17 14 19 16 7 24 21 26 23 28 1 31
REMARK Flexibility Score: inf
ROOT
ATOM      1  O   UNL     1     -53.151 450.410 -12.257  1.00  0.00    -0.313 OA
ENDROOT
BRANCH   1   2
ATOM      2  C   UNL     1     -53.152 451.787 -12.623  1.00  0.00     0.285 C 
ATOM      3  C   UNL     1     -52.567 451.853 -14.952  1.00  0.00     0.178 C 
ATOM      4  C   UNL     1     -51.439 452.916 -14.753  1.00  0.00     0.177 C 
ATOM      5  O   UNL     1     -53.587 451.945 -13.973  1.00  0.00    -0.341 OA
ATOM      6  C   UNL     1     -51.467 453.511 -13.329  1.00  0.00     0.179 C 
ATOM      7  C   UNL     1     -51.764 452.415 -12.312  1.00  0.00     0.202 C 
BRANCH   3   8
ATOM      8  C   UNL     1     -52.093 450.396 -15.125  1.00  0.00     0.191 C 
BRANCH   8   9
ATOM      9  O   UNL     1     -53.193 449.527 -15.119  1.00  0.00    -0.394 OA
ATOM     10  H   UNL     1     -53.521 449.492 -16.058  1.00  0.00     0.210 HD
ENDBRANCH   8   9
ENDBRANCH   3   8
BRANCH   4  11
ATOM     11  O   UNL     1     -50.177 452.354 -15.020  1.00  0.00    -0.387 OA
ATOM     12  H   UNL     1     -50.327 451.466 -15.430  1.00  0.00     0.211 HD
ENDBRANCH   4  11
BRANCH   6  13
ATOM     13  O   UNL     1     -50.245 454.125 -13.012  1.00  0.00    -0.387 OA
ATOM     14  H   UNL     1     -50.227 454.242 -12.023  1.00  0.00     0.211 HD
ENDBRANCH   6  13
BRANCH   7  15
ATOM     15  O   UNL     1     -50.741 451.455 -12.345  1.00  0.00    -0.385 OA
ATOM     16  H   UNL     1     -51.097 450.662 -12.819  1.00  0.00     0.211 HD
ENDBRANCH   7  15
ENDBRANCH   1   2
BRANCH   1  17
ATOM     17  C   UNL     1     -53.977 450.075 -11.144  1.00  0.00     0.224 C 
ATOM     18  C   UNL     1     -54.557 448.664 -11.370  1.00  0.00     0.208 C 
ATOM     19  O   UNL     1     -53.223 450.036  -9.938  1.00  0.00    -0.337 OA
ATOM     20  C   UNL     1     -53.593 447.789 -10.623  1.00  0.00     0.180 C 
ATOM     21  C   UNL     1     -53.128 448.700  -9.492  1.00  0.00     0.179 C 
BRANCH  17  22
ATOM     22  C   UNL     1     -55.118 451.105 -10.985  1.00  0.00     0.225 C 
BRANCH  22  23
ATOM     23  O   UNL     1     -54.877 451.958  -9.899  1.00  0.00    -0.391 OA
ATOM     24  H   UNL     1     -55.501 452.724  -9.989  1.00  0.00     0.210 HD
ENDBRANCH  22  23
ENDBRANCH  17  22
BRANCH  18  25
ATOM     25  O   UNL     1     -54.586 448.298 -12.728  1.00  0.00    -0.385 OA
ATOM     26  H   UNL     1     -53.915 447.580 -12.845  1.00  0.00     0.211 HD
ENDBRANCH  18  25
BRANCH  20  27
ATOM     27  O   UNL     1     -54.209 446.613 -10.162  1.00  0.00    -0.387 OA
ATOM     28  H   UNL     1     -55.058 446.899  -9.725  1.00  0.00     0.211 HD
ENDBRANCH  20  27
BRANCH  21  29
ATOM     29  C   UNL     1     -53.936 448.542  -8.195  1.00  0.00     0.191 C 
BRANCH  29  30
ATOM     30  O   UNL     1     -53.231 447.754  -7.273  1.00  0.00    -0.394 OA
ATOM     31  H   UNL     1     -53.758 446.923  -7.135  1.00  0.00     0.210 HD
ENDBRANCH  29  30
ENDBRANCH  21  29
ENDBRANCH   1  17
TORSDOF 13
ENDMDL
MODEL 4
REMARK VINA RESULT:    -2.284      2.006      3.743
REMARK INTER + INTRA:          -5.060
REMARK INTER:                  -3.916
REMARK INTRA:                  -1.145
REMARK UNBOUND:                -1.575
REMARK SMILES OC[C@@H]1O[C@@](CO)(O[C@@H]2O[C@H](CO)[C@H](O)[C@H](O)[C@@H]2O)[C@@H](O)[C@@H]1O
REMARK SMILES IDX 8 1 9 2 11 3 14 4 10 5 16 6 18 7 12 8 13 9 15 11 17 13 19 15
REMARK SMILES IDX 5 17 20 18 4 19 22 20 3 21 6 22 7 23 21 25 23 27 2 29 1 30
REMARK H PARENT 13 10 15 12 17 14 19 16 7 24 21 26 23 28 1 31
REMARK Flexibility Score: inf
ROOT
ATOM      1  O   UNL     1     -53.803 449.905 -13.119  1.00  0.00    -0.313 OA
ENDROOT
BRANCH   1   2
ATOM      2  C   UNL     1     -52.930 448.958 -12.507  1.00  0.00     0.285 C 
ATOM      3  C   UNL     1     -53.760 446.792 -13.134  1.00  0.00     0.178 C 
ATOM      4  C   UNL     1     -53.780 446.253 -11.667  1.00  0.00     0.177 C 
ATOM      5  O   UNL     1     -52.787 447.803 -13.333  1.00  0.00    -0.341 OA
ATOM      6  C   UNL     1     -53.069 447.221 -10.698  1.00  0.00     0.179 C 
ATOM      7  C   UNL     1     -53.410 448.662 -11.057  1.00  0.00     0.202 C 
BRANCH   3   8
ATOM      8  C   UNL     1     -55.125 447.213 -13.714  1.00  0.00     0.191 C 
BRANCH   8   9
ATOM      9  O   UNL     1     -54.958 447.753 -14.997  1.00  0.00    -0.394 OA
ATOM     10  H   UNL     1     -54.044 447.488 -15.289  1.00  0.00     0.210 HD
ENDBRANCH   8   9
ENDBRANCH   3   8
BRANCH   4  11
ATOM     11  O   UNL     1     -55.102 446.024 -11.243  1.00  0.00    -0.387 OA
ATOM     12  H   UNL     1     -55.101 445.199 -10.696  1.00  0.00     0.211 HD
ENDBRANCH   4  11
BRANCH   6  13
ATOM     13  O   UNL     1     -53.440 446.970  -9.368  1.00  0.00    -0.387 OA
ATOM     14  H   UNL     1     -52.867 446.223  -9.044  1.00  0.00     0.211 HD
ENDBRANCH   6  13
BRANCH   7  15
ATOM     15  O   UNL     1     -54.790 448.867 -10.915  1.00  0.00    -0.385 OA
ATOM     16  H   UNL     1     -55.127 449.214 -11.779  1.00  0.00     0.211 HD
ENDBRANCH   7  15
ENDBRANCH   1   2
BRANCH   1  17
ATOM     17  C   UNL     1     -53.187 451.123 -13.529  1.00  0.00     0.224 C 
ATOM     18  C   UNL     1     -53.378 452.169 -12.410  1.00  0.00     0.208 C 
ATOM     19  O   UNL     1     -51.788 450.955 -13.718  1.00  0.00    -0.337 OA
ATOM     20  C   UNL     1     -52.099 452.054 -11.632  1.00  0.00     0.180 C 
ATOM     21  C   UNL     1     -51.094 451.653 -12.706  1.00  0.00     0.179 C 
BRANCH  17  22
ATOM     22  C   UNL     1     -53.811 451.631 -14.848  1.00  0.00     0.225 C 
BRANCH  22  23
ATOM     23  O   UNL     1     -55.042 452.258 -14.613  1.00  0.00    -0.391 OA
ATOM     24  H   UNL     1     -55.214 452.202 -13.637  1.00  0.00     0.210 HD
ENDBRANCH  22  23
ENDBRANCH  17  22
BRANCH  18  25
ATOM     25  O   UNL     1     -54.475 451.883 -11.579  1.00  0.00    -0.385 OA
ATOM     26  H   UNL     1     -54.332 452.380 -10.735  1.00  0.00     0.211 HD
ENDBRANCH  18  25
BRANCH  20  27
ATOM     27  O   UNL     1     -51.769 453.262 -10.995  1.00  0.00    -0.387 OA
ATOM     28  H   UNL     1     -52.588 453.549 -10.503  1.00  0.00     0.211 HD
ENDBRANCH  20  27
BRANCH  21  29
ATOM     29  C   UNL     1     -50.348 452.841 -13.333  1.00  0.00     0.191 C 
BRANCH  29  30
ATOM     30  O   UNL     1     -49.301 453.257 -12.497  1.00  0.00    -0.394 OA
ATOM     31  H   UNL     1     -48.522 453.454 -13.081  1.00  0.00     0.210 HD
ENDBRANCH  29  30
ENDBRANCH  21  29
ENDBRANCH   1  17
TORSDOF 13
ENDMDL
MODEL 5
REMARK VINA RESULT:    -1.878      1.471      6.091
REMARK INTER + INTRA:          -4.442
REMARK INTER:                  -3.359
REMARK INTRA:                  -1.083
REMARK UNBOUND:                -1.575
REMARK SMILES OC[C@@H]1O[C@@](CO)(O[C@@H]2O[C@H](CO)[C@H](O)[C@H](O)[C@@H]2O)[C@@H](O)[C@@H]1O
REMARK SMILES IDX 8 1 9 2 11 3 14 4 10 5 16 6 18 7 12 8 13 9 15 11 17 13 19 15
REMARK SMILES IDX 5 17 20 18 4 19 22 20 3 21 6 22 7 23 21 25 23 27 2 29 1 30
REMARK H PARENT 13 10 15 12 17 14 19 16 7 24 21 26 23 28 1 31
REMARK Flexibility Score: inf
ROOT
ATOM      1  O   UNL     1     -51.633 451.730 -12.339  1.00  0.00    -0.313 OA
ENDROOT
BRANCH   1   2
ATOM      2  C   UNL     1     -51.097 453.049 -12.268  1.00  0.00     0.285 C 
ATOM      3  C   UNL     1     -50.079 453.466 -14.404  1.00  0.00     0.178 C 
ATOM      4  C   UNL     1     -48.722 453.935 -13.789  1.00  0.00     0.177 C 
ATOM      5  O   UNL     1     -51.180 453.691 -13.540  1.00  0.00    -0.341 OA
ATOM      6  C   UNL     1     -48.825 454.120 -12.260  1.00  0.00     0.179 C 
ATOM      7  C   UNL     1     -49.668 453.004 -11.656  1.00  0.00     0.202 C 
BRANCH   3   8
ATOM      8  C   UNL     1     -50.101 452.032 -14.968  1.00  0.00     0.191 C 
BRANCH   8   9
ATOM      9  O   UNL     1     -51.424 451.595 -15.125  1.00  0.00    -0.394 OA
ATOM     10  H   UNL     1     -51.564 451.491 -16.105  1.00  0.00     0.210 HD
ENDBRANCH   8   9
ENDBRANCH   3   8
BRANCH   4  11
ATOM     11  O   UNL     1     -47.697 453.022 -14.100  1.00  0.00    -0.387 OA
ATOM     12  H   UNL     1     -48.013 452.463 -14.853  1.00  0.00     0.211 HD
ENDBRANCH   4  11
BRANCH   6  13
ATOM     13  O   UNL     1     -47.556 454.125 -11.663  1.00  0.00    -0.387 OA
ATOM     14  H   UNL     1     -47.310 455.077 -11.510  1.00  0.00     0.211 HD
ENDBRANCH   6  13
BRANCH   7  15
ATOM     15  O   UNL     1     -49.044 451.768 -11.886  1.00  0.00    -0.385 OA
ATOM     16  H   UNL     1     -48.850 451.712 -12.856  1.00  0.00     0.211 HD
ENDBRANCH   7  15
ENDBRANCH   1   2
BRANCH   1  17
ATOM     17  C   UNL     1     -53.012 451.614 -11.996  1.00  0.00     0.224 C 
ATOM     18  C   UNL     1     -53.464 450.164 -12.269  1.00  0.00     0.208 C 
ATOM     19  O   UNL     1     -53.221 451.871 -10.613  1.00  0.00    -0.337 OA
ATOM     20  C   UNL     1     -53.313 449.515 -10.924  1.00  0.00     0.180 C 
ATOM     21  C   UNL     1     -53.586 450.670  -9.967  1.00  0.00     0.179 C 
BRANCH  17  22
ATOM     22  C   UNL     1     -53.862 452.605 -12.821  1.00  0.00     0.225 C 
BRANCH  22  23
ATOM     23  O   UNL     1     -54.496 451.955 -13.889  1.00  0.00    -0.391 OA
ATOM     24  H   UNL     1     -54.274 450.990 -13.814  1.00  0.00     0.210 HD
ENDBRANCH  22  23
ENDBRANCH  17  22
BRANCH  18  25
ATOM     25  O   UNL     1     -52.655 449.510 -13.214  1.00  0.00    -0.385 OA
ATOM     26  H   UNL     1     -53.042 449.702 -14.104  1.00  0.00     0.211 HD
ENDBRANCH  18  25
BRANCH  20  27
ATOM     27  O   UNL     1     -54.209 448.444 -10.761  1.00  0.00    -0.387 OA
ATOM     28  H   UNL     1     -55.029 448.689 -11.272  1.00  0.00     0.211 HD
ENDBRANCH  20  27
BRANCH  21  29
ATOM     29  C   UNL     1     -55.050 450.766  -9.511  1.00  0.00     0.191 C 
BRANCH  29  30
ATOM     30  O   UNL     1     -55.125 450.807  -8.111  1.00  0.00    -0.394 OA
ATOM     31  H   UNL     1     -55.913 451.364  -7.876  1.00  0.00     0.210 HD
ENDBRANCH  29  30
ENDBRANCH  21  29
ENDBRANCH   1  17
TORSDOF 13
ENDMDL
MODEL 6
REMARK VINA RESULT:    -1.783      2.327      3.949
REMARK INTER + INTRA:          -4.297
REMARK INTER:                  -3.264
REMARK INTRA:                  -1.033
REMARK UNBOUND:                -1.575
REMARK SMILES OC[C@@H]1O[C@@](CO)(O[C@@H]2O[C@H](CO)[C@H](O)[C@H](O)[C@@H]2O)[C@@H](O)[C@@H]1O
REMARK SMILES IDX 8 1 9 2 11 3 14 4 10 5 16 6 18 7 12 8 13 9 15 11 17 13 19 15
REMARK SMILES IDX 5 17 20 18 4 19 22 20 3 21 6 22 7 23 21 25 23 27 2 29 1 30
REMARK H PARENT 13 10 15 12 17 14 19 16 7 24 21 26 23 28 1 31
REMARK Flexibility Score: inf
ROOT
ATOM      1  O   UNL     1     -52.957 450.148 -11.068  1.00  0.00    -0.313 OA
ENDROOT
BRANCH   1   2
ATOM      2  C   UNL     1     -54.000 449.221 -10.773  1.00  0.00     0.285 C 
ATOM      3  C   UNL     1     -54.103 449.083  -8.377  1.00  0.00     0.178 C 
ATOM      4  C   UNL     1     -54.042 447.522  -8.354  1.00  0.00     0.177 C 
ATOM      5  O   UNL     1     -54.672 449.592  -9.570  1.00  0.00    -0.341 OA
ATOM      6  C   UNL     1     -54.200 446.928  -9.770  1.00  0.00     0.179 C 
ATOM      7  C   UNL     1     -53.432 447.773 -10.779  1.00  0.00     0.202 C 
BRANCH   3   8
ATOM      8  C   UNL     1     -52.788 449.811  -8.034  1.00  0.00     0.191 C 
BRANCH   8   9
ATOM      9  O   UNL     1     -52.915 451.183  -8.292  1.00  0.00    -0.394 OA
ATOM     10  H   UNL     1     -53.883 451.392  -8.192  1.00  0.00     0.210 HD
ENDBRANCH   8   9
ENDBRANCH   3   8
BRANCH   4  11
ATOM     11  O   UNL     1     -52.837 447.082  -7.775  1.00  0.00    -0.387 OA
ATOM     12  H   UNL     1     -52.392 446.485  -8.427  1.00  0.00     0.211 HD
ENDBRANCH   4  11
BRANCH   6  13
ATOM     13  O   UNL     1     -53.736 445.604  -9.820  1.00  0.00    -0.387 OA
ATOM     14  H   UNL     1     -54.489 445.022  -9.527  1.00  0.00     0.211 HD
ENDBRANCH   6  13
BRANCH   7  15
ATOM     15  O   UNL     1     -52.065 447.751 -10.466  1.00  0.00    -0.385 OA
ATOM     16  H   UNL     1     -51.930 448.351  -9.691  1.00  0.00     0.211 HD
ENDBRANCH   7  15
ENDBRANCH   1   2
BRANCH   1  17
ATOM     17  C   UNL     1     -53.241 451.069 -12.119  1.00  0.00     0.224 C 
ATOM     18  C   UNL     1     -52.389 452.337 -11.903  1.00  0.00     0.208 C 
ATOM     19  O   UNL     1     -52.884 450.528 -13.386  1.00  0.00    -0.337 OA
ATOM     20  C   UNL     1     -51.189 452.077 -12.767  1.00  0.00     0.180 C 
ATOM     21  C   UNL     1     -51.770 451.230 -13.894  1.00  0.00     0.179 C 
BRANCH  17  22
ATOM     22  C   UNL     1     -54.743 451.428 -12.136  1.00  0.00     0.225 C 
BRANCH  22  23
ATOM     23  O   UNL     1     -55.125 452.046 -10.937  1.00  0.00    -0.391 OA
ATOM     24  H   UNL     1     -55.387 451.323 -10.309  1.00  0.00     0.210 HD
ENDBRANCH  22  23
ENDBRANCH  17  22
BRANCH  18  25
ATOM     25  O   UNL     1     -51.993 452.505 -10.565  1.00  0.00    -0.385 OA
ATOM     26  H   UNL     1     -51.548 451.665 -10.290  1.00  0.00     0.211 HD
ENDBRANCH  18  25
BRANCH  20  27
ATOM     27  O   UNL     1     -50.609 453.274 -13.222  1.00  0.00    -0.387 OA
ATOM     28  H   UNL     1     -50.321 453.770 -12.407  1.00  0.00     0.211 HD
ENDBRANCH  20  27
BRANCH  21  29
ATOM     29  C   UNL     1     -52.203 452.045 -15.123  1.00  0.00     0.191 C 
BRANCH  29  30
ATOM     30  O   UNL     1     -52.929 453.178 -14.727  1.00  0.00    -0.394 OA
ATOM     31  H   UNL     1     -53.800 453.148 -15.204  1.00  0.00     0.210 HD
ENDBRANCH  29  30
ENDBRANCH  21  29
ENDBRANCH   1  17
TORSDOF 13
ENDMDL
MODEL 7
REMARK VINA RESULT:    -1.782      1.687      6.242
REMARK INTER + INTRA:          -4.294
REMARK INTER:                  -3.979
REMARK INTRA:                  -0.315
REMARK UNBOUND:                -1.575
REMARK SMILES OC[C@@H]1O[C@@](CO)(O[C@@H]2O[C@H](CO)[C@H](O)[C@H](O)[C@@H]2O)[C@@H](O)[C@@H]1O
REMARK SMILES IDX 8 1 9 2 11 3 14 4 10 5 16 6 18 7 12 8 13 9 15 11 17 13 19 15
REMARK SMILES IDX 5 17 20 18 4 19 22 20 3 21 6 22 7 23 21 25 23 27 2 29 1 30
REMARK H PARENT 13 10 15 12 17 14 19 16 7 24 21 26 23 28 1 31
REMARK Flexibility Score: inf
ROOT
ATOM      1  O   UNL     1     -52.806 451.001 -13.550  1.00  0.00    -0.313 OA
ENDROOT
BRANCH   1   2
ATOM      2  C   UNL     1     -52.696 452.389 -13.244  1.00  0.00     0.285 C 
ATOM      3  C   UNL     1     -50.929 453.236 -14.635  1.00  0.00     0.178 C 
ATOM      4  C   UNL     1     -50.172 453.916 -13.449  1.00  0.00     0.177 C 
ATOM      5  O   UNL     1     -52.324 453.129 -14.406  1.00  0.00    -0.341 OA
ATOM      6  C   UNL     1     -51.020 453.913 -12.159  1.00  0.00     0.179 C 
ATOM      7  C   UNL     1     -51.755 452.585 -12.021  1.00  0.00     0.202 C 
BRANCH   3   8
ATOM      8  C   UNL     1     -50.344 451.896 -15.125  1.00  0.00     0.191 C 
BRANCH   8   9
ATOM      9  O   UNL     1     -49.057 451.711 -14.598  1.00  0.00    -0.394 OA
ATOM     10  H   UNL     1     -48.452 451.604 -15.381  1.00  0.00     0.210 HD
ENDBRANCH   8   9
ENDBRANCH   3   8
BRANCH   4  11
ATOM     11  O   UNL     1     -48.938 453.280 -13.221  1.00  0.00    -0.387 OA
ATOM     12  H   UNL     1     -48.946 452.425 -13.720  1.00  0.00     0.211 HD
ENDBRANCH   4  11
BRANCH   6  13
ATOM     13  O   UNL     1     -50.220 454.125 -11.026  1.00  0.00    -0.387 OA
ATOM     14  H   UNL     1     -49.340 453.696 -11.208  1.00  0.00     0.211 HD
ENDBRANCH   6  13
BRANCH   7  15
ATOM     15  O   UNL     1     -50.823 451.542 -11.912  1.00  0.00    -0.385 OA
ATOM     16  H   UNL     1     -50.929 451.145 -11.011  1.00  0.00     0.211 HD
ENDBRANCH   7  15
ENDBRANCH   1   2
BRANCH   1  17
ATOM     17  C   UNL     1     -53.814 450.297 -12.828  1.00  0.00     0.224 C 
ATOM     18  C   UNL     1     -54.424 449.226 -13.757  1.00  0.00     0.208 C 
ATOM     19  O   UNL     1     -53.265 449.621 -11.704  1.00  0.00    -0.337 OA
ATOM     20  C   UNL     1     -53.637 447.998 -13.402  1.00  0.00     0.180 C 
ATOM     21  C   UNL     1     -53.311 448.228 -11.931  1.00  0.00     0.179 C 
BRANCH  17  22
ATOM     22  C   UNL     1     -54.910 451.269 -12.338  1.00  0.00     0.225 C 
BRANCH  22  23
ATOM     23  O   UNL     1     -55.012 451.247 -10.940  1.00  0.00    -0.391 OA
ATOM     24  H   UNL     1     -54.087 451.291 -10.582  1.00  0.00     0.210 HD
ENDBRANCH  22  23
ENDBRANCH  17  22
BRANCH  18  25
ATOM     25  O   UNL     1     -54.257 449.529 -15.120  1.00  0.00    -0.385 OA
ATOM     26  H   UNL     1     -53.321 449.304 -15.350  1.00  0.00     0.211 HD
ENDBRANCH  18  25
BRANCH  20  27
ATOM     27  O   UNL     1     -54.380 446.825 -13.623  1.00  0.00    -0.387 OA
ATOM     28  H   UNL     1     -54.605 446.818 -14.594  1.00  0.00     0.211 HD
ENDBRANCH  20  27
BRANCH  21  29
ATOM     29  C   UNL     1     -54.321 447.593 -10.963  1.00  0.00     0.191 C 
BRANCH  29  30
ATOM     30  O   UNL     1     -53.946 446.276 -10.660  1.00  0.00    -0.394 OA
ATOM     31  H   UNL     1     -53.531 445.894 -11.477  1.00  0.00     0.210 HD
ENDBRANCH  29  30
ENDBRANCH  21  29
ENDBRANCH   1  17
TORSDOF 13
ENDMDL
MODEL 8
REMARK VINA RESULT:    -0.852      1.663      6.021
REMARK INTER + INTRA:          -2.875
REMARK INTER:                  -2.400
REMARK INTRA:                  -0.475
REMARK UNBOUND:                -1.575
REMARK SMILES OC[C@@H]1O[C@@](CO)(O[C@@H]2O[C@H](CO)[C@H](O)[C@H](O)[C@@H]2O)[C@@H](O)[C@@H]1O
REMARK SMILES IDX 8 1 9 2 11 3 14 4 10 5 16 6 18 7 12 8 13 9 15 11 17 13 19 15
REMARK SMILES IDX 5 17 20 18 4 19 22 20 3 21 6 22 7 23 21 25 23 27 2 29 1 30
REMARK H PARENT 13 10 15 12 17 14 19 16 7 24 21 26 23 28 1 31
REMARK Flexibility Score: inf
ROOT
ATOM      1  O   UNL     1     -52.939 451.653 -12.613  1.00  0.00    -0.313 OA
ENDROOT
BRANCH   1   2
ATOM      2  C   UNL     1     -51.664 452.006 -12.081  1.00  0.00     0.285 C 
ATOM      3  C   UNL     1     -51.048 454.068 -13.149  1.00  0.00     0.178 C 
ATOM      4  C   UNL     1     -49.636 453.553 -13.576  1.00  0.00     0.177 C 
ATOM      5  O   UNL     1     -51.538 453.424 -11.985  1.00  0.00    -0.341 OA
ATOM      6  C   UNL     1     -49.304 452.197 -12.916  1.00  0.00     0.179 C 
ATOM      7  C   UNL     1     -50.541 451.308 -12.899  1.00  0.00     0.202 C 
BRANCH   3   8
ATOM      8  C   UNL     1     -52.117 454.095 -14.259  1.00  0.00     0.191 C 
BRANCH   8   9
ATOM      9  O   UNL     1     -52.007 452.951 -15.063  1.00  0.00    -0.394 OA
ATOM     10  H   UNL     1     -52.888 452.848 -15.515  1.00  0.00     0.210 HD
ENDBRANCH   8   9
ENDBRANCH   3   8
BRANCH   4  11
ATOM     11  O   UNL     1     -49.552 453.445 -14.977  1.00  0.00    -0.387 OA
ATOM     12  H   UNL     1     -50.357 453.877 -15.358  1.00  0.00     0.211 HD
ENDBRANCH   4  11
BRANCH   6  13
ATOM     13  O   UNL     1     -48.266 451.543 -13.598  1.00  0.00    -0.387 OA
ATOM     14  H   UNL     1     -47.664 452.250 -13.956  1.00  0.00     0.211 HD
ENDBRANCH   6  13
BRANCH   7  15
ATOM     15  O   UNL     1     -50.947 451.044 -14.216  1.00  0.00    -0.385 OA
ATOM     16  H   UNL     1     -51.792 451.536 -14.368  1.00  0.00     0.211 HD
ENDBRANCH   7  15
ENDBRANCH   1   2
BRANCH   1  17
ATOM     17  C   UNL     1     -53.761 450.867 -11.755  1.00  0.00     0.224 C 
ATOM     18  C   UNL     1     -54.800 450.122 -12.618  1.00  0.00     0.208 C 
ATOM     19  O   UNL     1     -52.995 449.883 -11.069  1.00  0.00    -0.337 OA
ATOM     20  C   UNL     1     -54.149 448.786 -12.836  1.00  0.00     0.180 C 
ATOM     21  C   UNL     1     -53.335 448.604 -11.560  1.00  0.00     0.179 C 
BRANCH  17  22
ATOM     22  C   UNL     1     -54.471 451.760 -10.714  1.00  0.00     0.225 C 
BRANCH  22  23
ATOM     23  O   UNL     1     -55.054 450.986  -9.701  1.00  0.00    -0.391 OA
ATOM     24  H   UNL     1     -54.950 450.035  -9.967  1.00  0.00     0.210 HD
ENDBRANCH  22  23
ENDBRANCH  17  22
BRANCH  18  25
ATOM     25  O   UNL     1     -55.034 450.751 -13.854  1.00  0.00    -0.385 OA
ATOM     26  H   UNL     1     -54.376 450.379 -14.493  1.00  0.00     0.211 HD
ENDBRANCH  18  25
BRANCH  20  27
ATOM     27  O   UNL     1     -55.101 447.771 -13.030  1.00  0.00    -0.387 OA
ATOM     28  H   UNL     1     -55.895 448.210 -13.443  1.00  0.00     0.211 HD
ENDBRANCH  20  27
BRANCH  21  29
ATOM     29  C   UNL     1     -54.069 447.820 -10.461  1.00  0.00     0.191 C 
BRANCH  29  30
ATOM     30  O   UNL     1     -53.865 448.422  -9.211  1.00  0.00    -0.394 OA
ATOM     31  H   UNL     1     -53.814 449.402  -9.363  1.00  0.00     0.210 HD
ENDBRANCH  29  30
ENDBRANCH  21  29
ENDBRANCH   1  17
TORSDOF 13
ENDMDL
MODEL 9
REMARK VINA RESULT:    -0.752      2.295      5.412
REMARK INTER + INTRA:          -2.723
REMARK INTER:                  -1.498
REMARK INTRA:                  -1.225
REMARK UNBOUND:                -1.575
REMARK SMILES OC[C@@H]1O[C@@](CO)(O[C@@H]2O[C@H](CO)[C@H](O)[C@H](O)[C@@H]2O)[C@@H](O)[C@@H]1O
REMARK SMILES IDX 8 1 9 2 11 3 14 4 10 5 16 6 18 7 12 8 13 9 15 11 17 13 19 15
REMARK SMILES IDX 5 17 20 18 4 19 22 20 3 21 6 22 7 23 21 25 23 27 2 29 1 30
REMARK H PARENT 13 10 15 12 17 14 19 16 7 24 21 26 23 28 1 31
REMARK Flexibility Score: inf
ROOT
ATOM      1  O   UNL     1     -53.396 450.362 -11.520  1.00  0.00    -0.313 OA
ENDROOT
BRANCH   1   2
ATOM      2  C   UNL     1     -53.651 451.392 -12.473  1.00  0.00     0.285 C 
ATOM      3  C   UNL     1     -53.104 450.459 -14.618  1.00  0.00     0.178 C 
ATOM      4  C   UNL     1     -52.188 451.657 -15.028  1.00  0.00     0.177 C 
ATOM      5  O   UNL     1     -54.117 450.833 -13.700  1.00  0.00    -0.341 OA
ATOM      6  C   UNL     1     -52.314 452.832 -14.036  1.00  0.00     0.179 C 
ATOM      7  C   UNL     1     -52.398 452.304 -12.609  1.00  0.00     0.202 C 
BRANCH   3   8
ATOM      8  C   UNL     1     -52.373 449.185 -14.150  1.00  0.00     0.191 C 
BRANCH   8   9
ATOM      9  O   UNL     1     -53.298 448.157 -13.916  1.00  0.00    -0.394 OA
ATOM     10  H   UNL     1     -53.972 448.532 -13.286  1.00  0.00     0.210 HD
ENDBRANCH   8   9
ENDBRANCH   3   8
BRANCH   4  11
ATOM     11  O   UNL     1     -50.846 451.243 -15.124  1.00  0.00    -0.387 OA
ATOM     12  H   UNL     1     -50.784 450.604 -15.878  1.00  0.00     0.211 HD
ENDBRANCH   4  11
BRANCH   6  13
ATOM     13  O   UNL     1     -51.223 453.708 -14.147  1.00  0.00    -0.387 OA
ATOM     14  H   UNL     1     -51.596 454.624 -14.257  1.00  0.00     0.211 HD
ENDBRANCH   6  13
BRANCH   7  15
ATOM     15  O   UNL     1     -51.218 451.614 -12.294  1.00  0.00    -0.385 OA
ATOM     16  H   UNL     1     -51.440 450.650 -12.261  1.00  0.00     0.211 HD
ENDBRANCH   7  15
ENDBRANCH   1   2
BRANCH   1  17
ATOM     17  C   UNL     1     -53.825 450.644 -10.190  1.00  0.00     0.224 C 
ATOM     18  C   UNL     1     -54.134 449.308  -9.482  1.00  0.00     0.208 C 
ATOM     19  O   UNL     1     -52.802 451.293  -9.446  1.00  0.00    -0.337 OA
ATOM     20  C   UNL     1     -52.851 449.016  -8.759  1.00  0.00     0.180 C 
ATOM     21  C   UNL     1     -52.319 450.413  -8.454  1.00  0.00     0.179 C 
BRANCH  17  22
ATOM     22  C   UNL     1     -55.080 451.545 -10.204  1.00  0.00     0.225 C 
BRANCH  22  23
ATOM     23  O   UNL     1     -55.123 452.363  -9.066  1.00  0.00    -0.391 OA
ATOM     24  H   UNL     1     -55.982 452.175  -8.606  1.00  0.00     0.210 HD
ENDBRANCH  22  23
ENDBRANCH  17  22
BRANCH  18  25
ATOM     25  O   UNL     1     -54.427 448.269 -10.382  1.00  0.00    -0.385 OA
ATOM     26  H   UNL     1     -53.959 448.484 -11.228  1.00  0.00     0.211 HD
ENDBRANCH  18  25
BRANCH  20  27
ATOM     27  O   UNL     1     -53.070 448.248  -7.603  1.00  0.00    -0.387 OA
ATOM     28  H   UNL     1     -53.280 448.896  -6.875  1.00  0.00     0.211 HD
ENDBRANCH  20  27
BRANCH  21  29
ATOM     29  C   UNL     1     -52.722 450.942  -7.069  1.00  0.00     0.191 C 
BRANCH  29  30
ATOM     30  O   UNL     1     -52.790 452.343  -7.081  1.00  0.00    -0.394 OA
ATOM     31  H   UNL     1     -53.371 452.614  -6.323  1.00  0.00     0.210 HD
ENDBRANCH  29  30
ENDBRANCH  21  29
ENDBRANCH   1  17
TORSDOF 13
ENDMDL
