MODEL 1
REMARK VINA RESULT:    -6.305      0.000      0.000
REMARK INTER + INTRA:          -7.508
REMARK INTER:                  -7.226
REMARK INTRA:                  -0.282
REMARK UNBOUND:                -0.282
REMARK SMILES O=C1C[C@@H](c2ccc(O)cc2)Oc2cc(O)cc(O)c21
REMARK SMILES IDX 3 1 4 2 12 3 13 4 14 5 15 6 17 7 18 8 20 9 2 10 1 11 5 12
REMARK SMILES IDX 6 13 11 14 7 15 10 16 8 17 9 18 19 20 16 22
REMARK H PARENT 9 19 19 21 16 23
REMARK Flexibility Score: inf
ROOT
ATOM      1  C   UNL     1      13.743  -7.506   2.869  1.00  0.00     0.131 C 
ATOM      2  C   UNL     1      13.658  -8.415   1.632  1.00  0.00     0.211 C 
ATOM      3  O   UNL     1      12.844  -7.813   0.620  1.00  0.00    -0.484 OA
ATOM      4  C   UNL     1      12.938  -6.453   0.305  1.00  0.00     0.138 A 
ATOM      5  C   UNL     1      12.370  -5.983  -0.882  1.00  0.00     0.093 A 
ATOM      6  C   UNL     1      12.475  -4.630  -1.226  1.00  0.00     0.123 A 
ATOM      7  C   UNL     1      13.143  -3.746  -0.374  1.00  0.00     0.093 A 
ATOM      8  C   UNL     1      13.701  -4.201   0.831  1.00  0.00     0.133 A 
ATOM      9  C   UNL     1      13.594  -5.565   1.179  1.00  0.00     0.102 A 
ATOM     10  C   UNL     1      14.113  -6.109   2.457  1.00  0.00     0.174 C 
ATOM     11  O   UNL     1      14.816  -5.404   3.230  1.00  0.00    -0.294 OA
ENDROOT
BRANCH   2  12
ATOM     12  C   UNL     1      13.106  -9.770   2.001  1.00  0.00    -0.007 A 
ATOM     13  C   UNL     1      12.245  -9.907   3.104  1.00  0.00     0.011 A 
ATOM     14  C   UNL     1      13.398 -10.901   1.217  1.00  0.00     0.011 A 
ATOM     15  C   UNL     1      11.708 -11.155   3.431  1.00  0.00     0.046 A 
ATOM     16  C   UNL     1      12.860 -12.148   1.546  1.00  0.00     0.046 A 
ATOM     17  C   UNL     1      12.013 -12.279   2.655  1.00  0.00     0.115 A 
BRANCH  17  18
ATOM     18  O   UNL     1      11.471 -13.516   2.993  1.00  0.00    -0.508 OA
ATOM     19  H   UNL     1      10.804 -13.983   2.391  1.00  0.00     0.293 HD
ENDBRANCH  17  18
ENDBRANCH   2  12
BRANCH   8  20
ATOM     20  O   UNL     1      14.349  -3.299   1.675  1.00  0.00    -0.507 OA
ATOM     21  H   UNL     1      15.359  -3.263   1.741  1.00  0.00     0.293 HD
ENDBRANCH   8  20
BRANCH   6  22
ATOM     22  O   UNL     1      11.920  -4.153  -2.412  1.00  0.00    -0.508 OA
ATOM     23  H   UNL     1      11.066  -3.608  -2.415  1.00  0.00     0.293 HD
ENDBRANCH   6  22
TORSDOF 4
ENDMDL
MODEL 2
REMARK VINA RESULT:    -6.239      1.756      6.726
REMARK INTER + INTRA:          -7.433
REMARK INTER:                  -7.145
REMARK INTRA:                  -0.288
REMARK UNBOUND:                -0.282
REMARK SMILES O=C1C[C@@H](c2ccc(O)cc2)Oc2cc(O)cc(O)c21
REMARK SMILES IDX 3 1 4 2 12 3 13 4 14 5 15 6 17 7 18 8 20 9 2 10 1 11 5 12
REMARK SMILES IDX 6 13 11 14 7 15 10 16 8 17 9 18 19 20 16 22
REMARK H PARENT 9 19 19 21 16 23
REMARK Flexibility Score: inf
ROOT
ATOM      1  C   UNL     1      12.575  -8.001   2.860  1.00  0.00     0.131 C 
ATOM      2  C   UNL     1      12.422  -7.724   1.356  1.00  0.00     0.211 C 
ATOM      3  O   UNL     1      13.254  -8.605   0.594  1.00  0.00    -0.484 OA
ATOM      4  C   UNL     1      13.368  -9.967   0.901  1.00  0.00     0.138 A 
ATOM      5  C   UNL     1      13.924 -10.837  -0.041  1.00  0.00     0.093 A 
ATOM      6  C   UNL     1      14.024 -12.205   0.238  1.00  0.00     0.123 A 
ATOM      7  C   UNL     1      13.573 -12.699   1.465  1.00  0.00     0.093 A 
ATOM      8  C   UNL     1      13.031 -11.833   2.427  1.00  0.00     0.133 A 
ATOM      9  C   UNL     1      12.932 -10.453   2.148  1.00  0.00     0.102 A 
ATOM     10  C   UNL     1      12.417  -9.470   3.133  1.00  0.00     0.174 C 
ATOM     11  O   UNL     1      11.897  -9.844   4.218  1.00  0.00    -0.294 OA
ENDROOT
BRANCH   2  12
ATOM     12  C   UNL     1      12.763  -6.288   1.039  1.00  0.00    -0.007 A 
ATOM     13  C   UNL     1      13.499  -5.517   1.956  1.00  0.00     0.011 A 
ATOM     14  C   UNL     1      12.400  -5.722  -0.196  1.00  0.00     0.011 A 
ATOM     15  C   UNL     1      13.843  -4.197   1.653  1.00  0.00     0.046 A 
ATOM     16  C   UNL     1      12.746  -4.401  -0.496  1.00  0.00     0.046 A 
ATOM     17  C   UNL     1      13.468  -3.634   0.429  1.00  0.00     0.115 A 
BRANCH  17  18
ATOM     18  O   UNL     1      13.816  -2.318   0.141  1.00  0.00    -0.508 OA
ATOM     19  H   UNL     1      14.608  -2.098  -0.452  1.00  0.00     0.293 HD
ENDBRANCH  17  18
ENDBRANCH   2  12
BRANCH   8  20
ATOM     20  O   UNL     1      12.603 -12.345   3.652  1.00  0.00    -0.507 OA
ATOM     21  H   UNL     1      11.646 -12.239   3.968  1.00  0.00     0.293 HD
ENDBRANCH   8  20
BRANCH   6  22
ATOM     22  O   UNL     1      14.568 -13.082  -0.697  1.00  0.00    -0.508 OA
ATOM     23  H   UNL     1      14.556 -12.873  -1.689  1.00  0.00     0.293 HD
ENDBRANCH   6  22
TORSDOF 4
ENDMDL
MODEL 3
REMARK VINA RESULT:    -6.081     12.411     14.254
REMARK INTER + INTRA:          -7.252
REMARK INTER:                  -6.933
REMARK INTRA:                  -0.319
REMARK UNBOUND:                -0.282
REMARK SMILES O=C1C[C@@H](c2ccc(O)cc2)Oc2cc(O)cc(O)c21
REMARK SMILES IDX 3 1 4 2 12 3 13 4 14 5 15 6 17 7 18 8 20 9 2 10 1 11 5 12
REMARK SMILES IDX 6 13 11 14 7 15 10 16 8 17 9 18 19 20 16 22
REMARK H PARENT 9 19 19 21 16 23
REMARK Flexibility Score: inf
ROOT
ATOM      1  C   UNL     1      20.307 -14.137  -5.242  1.00  0.00     0.131 C 
ATOM      2  C   UNL     1      21.480 -13.209  -5.596  1.00  0.00     0.211 C 
ATOM      3  O   UNL     1      22.390 -13.865  -6.485  1.00  0.00    -0.484 OA
ATOM      4  C   UNL     1      21.946 -14.636  -7.565  1.00  0.00     0.138 A 
ATOM      5  C   UNL     1      22.846 -14.986  -8.574  1.00  0.00     0.093 A 
ATOM      6  C   UNL     1      22.414 -15.737  -9.674  1.00  0.00     0.123 A 
ATOM      7  C   UNL     1      21.080 -16.143  -9.758  1.00  0.00     0.093 A 
ATOM      8  C   UNL     1      20.169 -15.815  -8.741  1.00  0.00     0.133 A 
ATOM      9  C   UNL     1      20.605 -15.061  -7.630  1.00  0.00     0.102 A 
ATOM     10  C   UNL     1      19.714 -14.719  -6.494  1.00  0.00     0.174 C 
ATOM     11  O   UNL     1      18.477 -14.957  -6.539  1.00  0.00    -0.294 OA
ENDROOT
BRANCH   2  12
ATOM     12  C   UNL     1      22.205 -12.764  -4.349  1.00  0.00    -0.007 A 
ATOM     13  C   UNL     1      21.479 -12.350  -3.219  1.00  0.00     0.011 A 
ATOM     14  C   UNL     1      23.609 -12.812  -4.282  1.00  0.00     0.011 A 
ATOM     15  C   UNL     1      22.146 -11.966  -2.052  1.00  0.00     0.046 A 
ATOM     16  C   UNL     1      24.273 -12.428  -3.113  1.00  0.00     0.046 A 
ATOM     17  C   UNL     1      23.543 -12.003  -1.995  1.00  0.00     0.115 A 
BRANCH  17  18
ATOM     18  O   UNL     1      24.194 -11.617  -0.826  1.00  0.00    -0.508 OA
ATOM     19  H   UNL     1      23.678 -11.340  -0.000  1.00  0.00     0.293 HD
ENDBRANCH  17  18
ENDBRANCH   2  12
BRANCH   8  20
ATOM     20  O   UNL     1      18.846 -16.246  -8.835  1.00  0.00    -0.507 OA
ATOM     21  H   UNL     1      18.564 -17.170  -8.531  1.00  0.00     0.293 HD
ENDBRANCH   8  20
BRANCH   6  22
ATOM     22  O   UNL     1      23.303 -16.083 -10.691  1.00  0.00    -0.508 OA
ATOM     23  H   UNL     1      23.570 -17.047 -10.855  1.00  0.00     0.293 HD
ENDBRANCH   6  22
TORSDOF 4
ENDMDL
MODEL 4
REMARK VINA RESULT:    -6.032      2.646      4.968
REMARK INTER + INTRA:          -7.196
REMARK INTER:                  -6.901
REMARK INTRA:                  -0.295
REMARK UNBOUND:                -0.282
REMARK SMILES O=C1C[C@@H](c2ccc(O)cc2)Oc2cc(O)cc(O)c21
REMARK SMILES IDX 3 1 4 2 12 3 13 4 14 5 15 6 17 7 18 8 20 9 2 10 1 11 5 12
REMARK SMILES IDX 6 13 11 14 7 15 10 16 8 17 9 18 19 20 16 22
REMARK H PARENT 9 19 19 21 16 23
REMARK Flexibility Score: inf
ROOT
ATOM      1  C   UNL     1      13.251 -12.742   2.144  1.00  0.00     0.131 C 
ATOM      2  C   UNL     1      12.011 -12.210   2.880  1.00  0.00     0.211 C 
ATOM      3  O   UNL     1      12.182 -10.832   3.224  1.00  0.00    -0.484 OA
ATOM      4  C   UNL     1      12.738  -9.908   2.332  1.00  0.00     0.138 A 
ATOM      5  C   UNL     1      12.594  -8.540   2.582  1.00  0.00     0.093 A 
ATOM      6  C   UNL     1      13.123  -7.602   1.688  1.00  0.00     0.123 A 
ATOM      7  C   UNL     1      13.803  -8.034   0.546  1.00  0.00     0.093 A 
ATOM      8  C   UNL     1      13.971  -9.405   0.293  1.00  0.00     0.133 A 
ATOM      9  C   UNL     1      13.441 -10.352   1.195  1.00  0.00     0.102 A 
ATOM     10  C   UNL     1      13.622 -11.814   1.022  1.00  0.00     0.174 C 
ATOM     11  O   UNL     1      14.131 -12.289  -0.029  1.00  0.00    -0.294 OA
ENDROOT
BRANCH   2  12
ATOM     12  C   UNL     1      11.736 -13.024   4.121  1.00  0.00    -0.007 A 
ATOM     13  C   UNL     1      12.461 -12.782   5.300  1.00  0.00     0.011 A 
ATOM     14  C   UNL     1      10.716 -13.992   4.130  1.00  0.00     0.011 A 
ATOM     15  C   UNL     1      12.188 -13.512   6.460  1.00  0.00     0.046 A 
ATOM     16  C   UNL     1      10.446 -14.721   5.292  1.00  0.00     0.046 A 
ATOM     17  C   UNL     1      11.182 -14.484   6.460  1.00  0.00     0.115 A 
BRANCH  17  18
ATOM     18  O   UNL     1      10.922 -15.204   7.623  1.00  0.00    -0.508 OA
ATOM     19  H   UNL     1      10.669 -16.185   7.592  1.00  0.00     0.293 HD
ENDBRANCH  17  18
ENDBRANCH   2  12
BRANCH   8  20
ATOM     20  O   UNL     1      14.668  -9.815  -0.843  1.00  0.00    -0.507 OA
ATOM     21  H   UNL     1      14.578 -10.754  -1.212  1.00  0.00     0.293 HD
ENDBRANCH   8  20
BRANCH   6  22
ATOM     22  O   UNL     1      12.976  -6.236   1.924  1.00  0.00    -0.508 OA
ATOM     23  H   UNL     1      12.400  -5.889   2.682  1.00  0.00     0.293 HD
ENDBRANCH   6  22
TORSDOF 4
ENDMDL
MODEL 5
REMARK VINA RESULT:    -5.899     12.519     14.050
REMARK INTER + INTRA:          -7.043
REMARK INTER:                  -6.746
REMARK INTRA:                  -0.298
REMARK UNBOUND:                -0.282
REMARK SMILES O=C1C[C@@H](c2ccc(O)cc2)Oc2cc(O)cc(O)c21
REMARK SMILES IDX 3 1 4 2 12 3 13 4 14 5 15 6 17 7 18 8 20 9 2 10 1 11 5 12
REMARK SMILES IDX 6 13 11 14 7 15 10 16 8 17 9 18 19 20 16 22
REMARK H PARENT 9 19 19 21 16 23
REMARK Flexibility Score: inf
ROOT
ATOM      1  C   UNL     1      22.841 -11.644  -6.969  1.00  0.00     0.131 C 
ATOM      2  C   UNL     1      22.976 -12.930  -6.139  1.00  0.00     0.211 C 
ATOM      3  O   UNL     1      21.792 -13.727  -6.247  1.00  0.00    -0.484 OA
ATOM      4  C   UNL     1      21.138 -13.920  -7.469  1.00  0.00     0.138 A 
ATOM      5  C   UNL     1      20.192 -14.942  -7.586  1.00  0.00     0.093 A 
ATOM      6  C   UNL     1      19.545 -15.166  -8.807  1.00  0.00     0.123 A 
ATOM      7  C   UNL     1      19.840 -14.358  -9.909  1.00  0.00     0.093 A 
ATOM      8  C   UNL     1      20.773 -13.315  -9.799  1.00  0.00     0.133 A 
ATOM      9  C   UNL     1      21.424 -13.088  -8.567  1.00  0.00     0.102 A 
ATOM     10  C   UNL     1      22.383 -11.975  -8.361  1.00  0.00     0.174 C 
ATOM     11  O   UNL     1      22.781 -11.268  -9.326  1.00  0.00    -0.294 OA
ENDROOT
BRANCH   2  12
ATOM     12  C   UNL     1      23.251 -12.605  -4.691  1.00  0.00    -0.007 A 
ATOM     13  C   UNL     1      24.572 -12.566  -4.212  1.00  0.00     0.011 A 
ATOM     14  C   UNL     1      22.197 -12.282  -3.817  1.00  0.00     0.011 A 
ATOM     15  C   UNL     1      24.832 -12.236  -2.880  1.00  0.00     0.046 A 
ATOM     16  C   UNL     1      22.460 -11.952  -2.484  1.00  0.00     0.046 A 
ATOM     17  C   UNL     1      23.779 -11.929  -2.012  1.00  0.00     0.115 A 
BRANCH  17  18
ATOM     18  O   UNL     1      24.053 -11.602  -0.686  1.00  0.00    -0.508 OA
ATOM     19  H   UNL     1      24.848 -11.996  -0.198  1.00  0.00     0.293 HD
ENDBRANCH  17  18
ENDBRANCH   2  12
BRANCH   8  20
ATOM     20  O   UNL     1      21.040 -12.510 -10.906  1.00  0.00    -0.507 OA
ATOM     21  H   UNL     1      20.549 -12.632 -11.784  1.00  0.00     0.293 HD
ENDBRANCH   8  20
BRANCH   6  22
ATOM     22  O   UNL     1      18.608 -16.189  -8.937  1.00  0.00    -0.508 OA
ATOM     23  H   UNL     1      18.810 -17.028  -9.469  1.00  0.00     0.293 HD
ENDBRANCH   6  22
TORSDOF 4
ENDMDL
MODEL 6
REMARK VINA RESULT:    -5.883      3.793      6.098
REMARK INTER + INTRA:          -7.025
REMARK INTER:                  -6.728
REMARK INTRA:                  -0.297
REMARK UNBOUND:                -0.282
REMARK SMILES O=C1C[C@@H](c2ccc(O)cc2)Oc2cc(O)cc(O)c21
REMARK SMILES IDX 3 1 4 2 12 3 13 4 14 5 15 6 17 7 18 8 20 9 2 10 1 11 5 12
REMARK SMILES IDX 6 13 11 14 7 15 10 16 8 17 9 18 19 20 16 22
REMARK H PARENT 9 19 19 21 16 23
REMARK Flexibility Score: inf
ROOT
ATOM      1  C   UNL     1      10.932 -11.523   4.084  1.00  0.00     0.131 C 
ATOM      2  C   UNL     1      11.838 -12.749   4.285  1.00  0.00     0.211 C 
ATOM      3  O   UNL     1      12.377 -13.187   3.034  1.00  0.00    -0.484 OA
ATOM      4  C   UNL     1      12.864 -12.286   2.079  1.00  0.00     0.138 A 
ATOM      5  C   UNL     1      13.659 -12.760   1.032  1.00  0.00     0.093 A 
ATOM      6  C   UNL     1      14.175 -11.871   0.082  1.00  0.00     0.123 A 
ATOM      7  C   UNL     1      13.886 -10.506   0.178  1.00  0.00     0.093 A 
ATOM      8  C   UNL     1      13.073 -10.020   1.214  1.00  0.00     0.133 A 
ATOM      9  C   UNL     1      12.551 -10.917   2.171  1.00  0.00     0.102 A 
ATOM     10  C   UNL     1      11.644 -10.485   3.262  1.00  0.00     0.174 C 
ATOM     11  O   UNL     1      11.418  -9.264   3.480  1.00  0.00    -0.294 OA
ENDROOT
BRANCH   2  12
ATOM     12  C   UNL     1      11.077 -13.873   4.943  1.00  0.00    -0.007 A 
ATOM     13  C   UNL     1      10.315 -14.763   4.165  1.00  0.00     0.011 A 
ATOM     14  C   UNL     1      11.164 -14.080   6.332  1.00  0.00     0.011 A 
ATOM     15  C   UNL     1       9.634 -15.824   4.768  1.00  0.00     0.046 A 
ATOM     16  C   UNL     1      10.481 -15.142   6.932  1.00  0.00     0.046 A 
ATOM     17  C   UNL     1       9.713 -16.017   6.152  1.00  0.00     0.115 A 
BRANCH  17  18
ATOM     18  O   UNL     1       9.028 -17.077   6.738  1.00  0.00    -0.508 OA
ATOM     19  H   UNL     1       8.132 -17.389   6.384  1.00  0.00     0.293 HD
ENDBRANCH  17  18
ENDBRANCH   2  12
BRANCH   8  20
ATOM     20  O   UNL     1      12.784  -8.657   1.281  1.00  0.00    -0.507 OA
ATOM     21  H   UNL     1      11.834  -8.312   1.218  1.00  0.00     0.293 HD
ENDBRANCH   8  20
BRANCH   6  22
ATOM     22  O   UNL     1      14.976 -12.332  -0.960  1.00  0.00    -0.508 OA
ATOM     23  H   UNL     1      14.743 -13.173  -1.475  1.00  0.00     0.293 HD
ENDBRANCH   6  22
TORSDOF 4
ENDMDL
MODEL 7
REMARK VINA RESULT:    -5.841     12.514     13.957
REMARK INTER + INTRA:          -6.976
REMARK INTER:                  -6.685
REMARK INTRA:                  -0.292
REMARK UNBOUND:                -0.282
REMARK SMILES O=C1C[C@@H](c2ccc(O)cc2)Oc2cc(O)cc(O)c21
REMARK SMILES IDX 3 1 4 2 12 3 13 4 14 5 15 6 17 7 18 8 20 9 2 10 1 11 5 12
REMARK SMILES IDX 6 13 11 14 7 15 10 16 8 17 9 18 19 20 16 22
REMARK H PARENT 9 19 19 21 16 23
REMARK Flexibility Score: inf
ROOT
ATOM      1  C   UNL     1      23.431 -13.847  -6.980  1.00  0.00     0.131 C 
ATOM      2  C   UNL     1      21.908 -13.729  -7.156  1.00  0.00     0.211 C 
ATOM      3  O   UNL     1      21.245 -13.836  -5.893  1.00  0.00    -0.484 OA
ATOM      4  C   UNL     1      21.724 -13.189  -4.747  1.00  0.00     0.138 A 
ATOM      5  C   UNL     1      20.889 -13.059  -3.634  1.00  0.00     0.093 A 
ATOM      6  C   UNL     1      21.343 -12.394  -2.488  1.00  0.00     0.123 A 
ATOM      7  C   UNL     1      22.637 -11.867  -2.456  1.00  0.00     0.093 A 
ATOM      8  C   UNL     1      23.492 -12.009  -3.560  1.00  0.00     0.133 A 
ATOM      9  C   UNL     1      23.037 -12.681  -4.715  1.00  0.00     0.102 A 
ATOM     10  C   UNL     1      23.899 -12.914  -5.899  1.00  0.00     0.174 C 
ATOM     11  O   UNL     1      25.039 -12.384  -5.992  1.00  0.00    -0.294 OA
ENDROOT
BRANCH   2  12
ATOM     12  C   UNL     1      21.396 -14.789  -8.100  1.00  0.00    -0.007 A 
ATOM     13  C   UNL     1      22.240 -15.834  -8.516  1.00  0.00     0.011 A 
ATOM     14  C   UNL     1      20.057 -14.778  -8.530  1.00  0.00     0.011 A 
ATOM     15  C   UNL     1      21.760 -16.834  -9.366  1.00  0.00     0.046 A 
ATOM     16  C   UNL     1      19.580 -15.780  -9.381  1.00  0.00     0.046 A 
ATOM     17  C   UNL     1      20.431 -16.811  -9.802  1.00  0.00     0.115 A 
BRANCH  17  18
ATOM     18  O   UNL     1      19.967 -17.813 -10.649  1.00  0.00    -0.508 OA
ATOM     19  H   UNL     1      20.557 -18.590 -10.923  1.00  0.00     0.293 HD
ENDBRANCH  17  18
ENDBRANCH   2  12
BRANCH   8  20
ATOM     20  O   UNL     1      24.786 -11.491  -3.500  1.00  0.00    -0.507 OA
ATOM     21  H   UNL     1      24.976 -10.579  -3.102  1.00  0.00     0.293 HD
ENDBRANCH   8  20
BRANCH   6  22
ATOM     22  O   UNL     1      20.515 -12.250  -1.377  1.00  0.00    -0.508 OA
ATOM     23  H   UNL     1      20.473 -11.381  -0.857  1.00  0.00     0.293 HD
ENDBRANCH   6  22
TORSDOF 4
ENDMDL
MODEL 8
REMARK VINA RESULT:    -5.729      1.591      7.094
REMARK INTER + INTRA:          -6.849
REMARK INTER:                  -6.563
REMARK INTRA:                  -0.286
REMARK UNBOUND:                -0.282
REMARK SMILES O=C1C[C@@H](c2ccc(O)cc2)Oc2cc(O)cc(O)c21
REMARK SMILES IDX 3 1 4 2 12 3 13 4 14 5 15 6 17 7 18 8 20 9 2 10 1 11 5 12
REMARK SMILES IDX 6 13 11 14 7 15 10 16 8 17 9 18 19 20 16 22
REMARK H PARENT 9 19 19 21 16 23
REMARK Flexibility Score: inf
ROOT
ATOM      1  C   UNL     1      13.914  -9.229   0.263  1.00  0.00     0.131 C 
ATOM      2  C   UNL     1      13.681  -8.300   1.466  1.00  0.00     0.211 C 
ATOM      3  O   UNL     1      12.563  -8.747   2.238  1.00  0.00    -0.484 OA
ATOM      4  C   UNL     1      12.358 -10.101   2.532  1.00  0.00     0.138 A 
ATOM      5  C   UNL     1      11.454 -10.455   3.537  1.00  0.00     0.093 A 
ATOM      6  C   UNL     1      11.254 -11.802   3.861  1.00  0.00     0.123 A 
ATOM      7  C   UNL     1      11.956 -12.795   3.172  1.00  0.00     0.093 A 
ATOM      8  C   UNL     1      12.853 -12.453   2.148  1.00  0.00     0.133 A 
ATOM      9  C   UNL     1      13.053 -11.096   1.818  1.00  0.00     0.102 A 
ATOM     10  C   UNL     1      13.945 -10.661   0.715  1.00  0.00     0.174 C 
ATOM     11  O   UNL     1      14.690 -11.482   0.116  1.00  0.00    -0.294 OA
ENDROOT
BRANCH   2  12
ATOM     12  C   UNL     1      13.459  -6.879   1.009  1.00  0.00    -0.007 A 
ATOM     13  C   UNL     1      12.667  -6.614  -0.121  1.00  0.00     0.011 A 
ATOM     14  C   UNL     1      13.994  -5.801   1.738  1.00  0.00     0.011 A 
ATOM     15  C   UNL     1      12.434  -5.298  -0.529  1.00  0.00     0.046 A 
ATOM     16  C   UNL     1      13.760  -4.486   1.327  1.00  0.00     0.046 A 
ATOM     17  C   UNL     1      12.980  -4.230   0.192  1.00  0.00     0.115 A 
BRANCH  17  18
ATOM     18  O   UNL     1      12.740  -2.925  -0.227  1.00  0.00    -0.508 OA
ATOM     19  H   UNL     1      13.484  -2.342  -0.594  1.00  0.00     0.293 HD
ENDBRANCH  17  18
ENDBRANCH   2  12
BRANCH   8  20
ATOM     20  O   UNL     1      13.531 -13.461   1.461  1.00  0.00    -0.507 OA
ATOM     21  H   UNL     1      14.422 -13.291   1.011  1.00  0.00     0.293 HD
ENDBRANCH   8  20
BRANCH   6  22
ATOM     22  O   UNL     1      10.361 -12.165   4.868  1.00  0.00    -0.508 OA
ATOM     23  H   UNL     1      10.025 -13.117   4.959  1.00  0.00     0.293 HD
ENDBRANCH   6  22
TORSDOF 4
ENDMDL
MODEL 9
REMARK VINA RESULT:    -5.633      3.135      3.739
REMARK INTER + INTRA:          -6.738
REMARK INTER:                  -6.433
REMARK INTRA:                  -0.305
REMARK UNBOUND:                -0.282
REMARK SMILES O=C1C[C@@H](c2ccc(O)cc2)Oc2cc(O)cc(O)c21
REMARK SMILES IDX 3 1 4 2 12 3 13 4 14 5 15 6 17 7 18 8 20 9 2 10 1 11 5 12
REMARK SMILES IDX 6 13 11 14 7 15 10 16 8 17 9 18 19 20 16 22
REMARK H PARENT 9 19 19 21 16 23
REMARK Flexibility Score: inf
ROOT
ATOM      1  C   UNL     1      11.662  -9.331   3.654  1.00  0.00     0.131 C 
ATOM      2  C   UNL     1      12.660  -8.834   2.596  1.00  0.00     0.211 C 
ATOM      3  O   UNL     1      12.082  -7.786   1.811  1.00  0.00    -0.484 OA
ATOM      4  C   UNL     1      11.326  -6.759   2.388  1.00  0.00     0.138 A 
ATOM      5  C   UNL     1      11.056  -5.606   1.645  1.00  0.00     0.093 A 
ATOM      6  C   UNL     1      10.322  -4.559   2.213  1.00  0.00     0.123 A 
ATOM      7  C   UNL     1       9.851  -4.671   3.524  1.00  0.00     0.093 A 
ATOM      8  C   UNL     1      10.098  -5.831   4.274  1.00  0.00     0.133 A 
ATOM      9  C   UNL     1      10.836  -6.889   3.701  1.00  0.00     0.102 A 
ATOM     10  C   UNL     1      11.092  -8.165   4.412  1.00  0.00     0.174 C 
ATOM     11  O   UNL     1      10.793  -8.307   5.628  1.00  0.00    -0.294 OA
ENDROOT
BRANCH   2  12
ATOM     12  C   UNL     1      13.099  -9.968   1.702  1.00  0.00    -0.007 A 
ATOM     13  C   UNL     1      12.731 -11.291   2.004  1.00  0.00     0.011 A 
ATOM     14  C   UNL     1      13.831  -9.712   0.528  1.00  0.00     0.011 A 
ATOM     15  C   UNL     1      13.110 -12.340   1.162  1.00  0.00     0.046 A 
ATOM     16  C   UNL     1      14.209 -10.764  -0.312  1.00  0.00     0.046 A 
ATOM     17  C   UNL     1      13.850 -12.081   0.003  1.00  0.00     0.115 A 
BRANCH  17  18
ATOM     18  O   UNL     1      14.221 -13.136  -0.826  1.00  0.00    -0.508 OA
ATOM     19  H   UNL     1      14.856 -13.000  -1.604  1.00  0.00     0.293 HD
ENDBRANCH  17  18
ENDBRANCH   2  12
BRANCH   8  20
ATOM     20  O   UNL     1       9.603  -5.930   5.575  1.00  0.00    -0.507 OA
ATOM     21  H   UNL     1       8.918  -6.630   5.832  1.00  0.00     0.293 HD
ENDBRANCH   8  20
BRANCH   6  22
ATOM     22  O   UNL     1      10.057  -3.401   1.485  1.00  0.00    -0.508 OA
ATOM     23  H   UNL     1       9.600  -2.602   1.909  1.00  0.00     0.293 HD
ENDBRANCH   6  22
TORSDOF 4
ENDMDL
