MODEL 1
REMARK VINA RESULT:    -3.284      0.000      0.000
REMARK INTER + INTRA:          -3.979
REMARK INTER:                  -3.859
REMARK INTRA:                  -0.120
REMARK UNBOUND:                -0.120
REMARK SMILES O=C([O-])CCC(=O)[O-]
REMARK SMILES IDX 4 1 2 2 1 3 3 4 5 5 6 6 7 7 8 8
REMARK H PARENT
REMARK Flexibility Score: inf
ROOT
ATOM      1  C   UNL     1      -2.115  10.120 -15.323  1.00  0.00     0.059 C 
ENDROOT
BRANCH   1   2
ATOM      2  C   UNL     1      -2.928  10.931 -14.360  1.00  0.00     0.042 C 
ATOM      3  O   UNL     1      -3.099  10.528 -13.180  1.00  0.00    -0.550 OA
ATOM      4  O   UNL     1      -3.531  12.111 -14.779  1.00  0.00    -0.550 OA
ENDBRANCH   1   2
BRANCH   1   5
ATOM      5  C   UNL     1      -2.380  10.532 -16.775  1.00  0.00     0.059 C 
BRANCH   5   6
ATOM      6  C   UNL     1      -3.476   9.715 -17.388  1.00  0.00     0.042 C 
ATOM      7  O   UNL     1      -3.204   8.665 -18.027  1.00  0.00    -0.550 OA
ATOM      8  O   UNL     1      -4.803  10.094 -17.219  1.00  0.00    -0.550 OA
ENDBRANCH   5   6
ENDBRANCH   1   5
TORSDOF 3
ENDMDL
MODEL 2
REMARK VINA RESULT:    -3.278      6.389      7.190
REMARK INTER + INTRA:          -3.973
REMARK INTER:                  -3.934
REMARK INTRA:                  -0.039
REMARK UNBOUND:                -0.120
REMARK SMILES O=C([O-])CCC(=O)[O-]
REMARK SMILES IDX 4 1 2 2 1 3 3 4 5 5 6 6 7 7 8 8
REMARK H PARENT
REMARK Flexibility Score: inf
ROOT
ATOM      1  C   UNL     1      -2.409   9.053  -9.373  1.00  0.00     0.059 C 
ENDROOT
BRANCH   1   2
ATOM      2  C   UNL     1      -1.209   8.179  -9.166  1.00  0.00     0.042 C 
ATOM      3  O   UNL     1      -0.072   8.567  -9.539  1.00  0.00    -0.550 OA
ATOM      4  O   UNL     1      -1.354   6.919  -8.598  1.00  0.00    -0.550 OA
ENDBRANCH   1   2
BRANCH   1   5
ATOM      5  C   UNL     1      -3.710   8.315  -9.040  1.00  0.00     0.059 C 
BRANCH   5   6
ATOM      6  C   UNL     1      -4.845   8.784  -9.899  1.00  0.00     0.042 C 
ATOM      7  O   UNL     1      -4.838   9.948 -10.379  1.00  0.00    -0.550 OA
ATOM      8  O   UNL     1      -5.891   7.920 -10.201  1.00  0.00    -0.550 OA
ENDBRANCH   5   6
ENDBRANCH   1   5
TORSDOF 3
ENDMDL
MODEL 3
REMARK VINA RESULT:    -3.275      6.680      7.679
REMARK INTER + INTRA:          -3.969
REMARK INTER:                  -3.852
REMARK INTRA:                  -0.116
REMARK UNBOUND:                -0.120
REMARK SMILES O=C([O-])CCC(=O)[O-]
REMARK SMILES IDX 4 1 2 2 1 3 3 4 5 5 6 6 7 7 8 8
REMARK H PARENT
REMARK Flexibility Score: inf
ROOT
ATOM      1  C   UNL     1      -1.517   9.426  -9.961  1.00  0.00     0.059 C 
ENDROOT
BRANCH   1   2
ATOM      2  C   UNL     1      -1.671  10.659  -9.125  1.00  0.00     0.042 C 
ATOM      3  O   UNL     1      -1.851  10.563  -7.883  1.00  0.00    -0.550 OA
ATOM      4  O   UNL     1      -1.656  11.913  -9.723  1.00  0.00    -0.550 OA
ENDBRANCH   1   2
BRANCH   1   5
ATOM      5  C   UNL     1      -0.337   8.567  -9.492  1.00  0.00     0.059 C 
BRANCH   5   6
ATOM      6  C   UNL     1      -0.802   7.308  -8.827  1.00  0.00     0.042 C 
ATOM      7  O   UNL     1      -2.033   7.079  -8.692  1.00  0.00    -0.550 OA
ATOM      8  O   UNL     1       0.125   6.369  -8.392  1.00  0.00    -0.550 OA
ENDBRANCH   5   6
ENDBRANCH   1   5
TORSDOF 3
ENDMDL
MODEL 4
REMARK VINA RESULT:    -3.264      2.379      3.789
REMARK INTER + INTRA:          -3.956
REMARK INTER:                  -3.824
REMARK INTRA:                  -0.132
REMARK UNBOUND:                -0.120
REMARK SMILES O=C([O-])CCC(=O)[O-]
REMARK SMILES IDX 4 1 2 2 1 3 3 4 5 5 6 6 7 7 8 8
REMARK H PARENT
REMARK Flexibility Score: inf
ROOT
ATOM      1  C   UNL     1      -3.874  10.852 -16.152  1.00  0.00     0.059 C 
ENDROOT
BRANCH   1   2
ATOM      2  C   UNL     1      -2.861  10.179 -17.026  1.00  0.00     0.042 C 
ATOM      3  O   UNL     1      -3.206   9.238 -17.787  1.00  0.00    -0.550 OA
ATOM      4  O   UNL     1      -1.526  10.563 -16.969  1.00  0.00    -0.550 OA
ENDBRANCH   1   2
BRANCH   1   5
ATOM      5  C   UNL     1      -4.661  11.921 -16.918  1.00  0.00     0.059 C 
BRANCH   5   6
ATOM      6  C   UNL     1      -3.944  13.237 -16.920  1.00  0.00     0.042 C 
ATOM      7  O   UNL     1      -3.917  13.946 -15.881  1.00  0.00    -0.550 OA
ATOM      8  O   UNL     1      -3.272  13.659 -18.061  1.00  0.00    -0.550 OA
ENDBRANCH   5   6
ENDBRANCH   1   5
TORSDOF 3
ENDMDL
MODEL 5
REMARK VINA RESULT:    -3.261      2.333      3.097
REMARK INTER + INTRA:          -3.952
REMARK INTER:                  -3.822
REMARK INTRA:                  -0.130
REMARK UNBOUND:                -0.120
REMARK SMILES O=C([O-])CCC(=O)[O-]
REMARK SMILES IDX 4 1 2 2 1 3 3 4 5 5 6 6 7 7 8 8
REMARK H PARENT
REMARK Flexibility Score: inf
ROOT
ATOM      1  C   UNL     1      -4.703  11.843 -16.986  1.00  0.00     0.059 C 
ENDROOT
BRANCH   1   2
ATOM      2  C   UNL     1      -4.000  13.166 -16.964  1.00  0.00     0.042 C 
ATOM      3  O   UNL     1      -3.396  13.578 -17.989  1.00  0.00    -0.550 OA
ATOM      4  O   UNL     1      -3.978  13.924 -15.800  1.00  0.00    -0.550 OA
ENDBRANCH   1   2
BRANCH   1   5
ATOM      5  C   UNL     1      -3.928  10.778 -16.202  1.00  0.00     0.059 C 
BRANCH   5   6
ATOM      6  C   UNL     1      -2.895  10.107 -17.055  1.00  0.00     0.042 C 
ATOM      7  O   UNL     1      -3.222   9.165 -17.824  1.00  0.00    -0.550 OA
ATOM      8  O   UNL     1      -1.579  10.551 -17.030  1.00  0.00    -0.550 OA
ENDBRANCH   5   6
ENDBRANCH   1   5
TORSDOF 3
ENDMDL
MODEL 6
REMARK VINA RESULT:    -3.252      6.838      8.064
REMARK INTER + INTRA:          -3.942
REMARK INTER:                  -3.825
REMARK INTRA:                  -0.117
REMARK UNBOUND:                -0.120
REMARK SMILES O=C([O-])CCC(=O)[O-]
REMARK SMILES IDX 4 1 2 2 1 3 3 4 5 5 6 6 7 7 8 8
REMARK H PARENT
REMARK Flexibility Score: inf
ROOT
ATOM      1  C   UNL     1      -0.372   8.681  -9.267  1.00  0.00     0.059 C 
ENDROOT
BRANCH   1   2
ATOM      2  C   UNL     1      -0.815   7.329  -8.799  1.00  0.00     0.042 C 
ATOM      3  O   UNL     1      -2.041   7.054  -8.730  1.00  0.00    -0.550 OA
ATOM      4  O   UNL     1       0.125   6.387  -8.399  1.00  0.00    -0.550 OA
ENDBRANCH   1   2
BRANCH   1   5
ATOM      5  C   UNL     1      -1.548   9.510  -9.796  1.00  0.00     0.059 C 
BRANCH   5   6
ATOM      6  C   UNL     1      -1.838  10.684  -8.912  1.00  0.00     0.042 C 
ATOM      7  O   UNL     1      -1.969  10.525  -7.670  1.00  0.00    -0.550 OA
ATOM      8  O   UNL     1      -1.925  11.959  -9.456  1.00  0.00    -0.550 OA
ENDBRANCH   5   6
ENDBRANCH   1   5
TORSDOF 3
ENDMDL
MODEL 7
REMARK VINA RESULT:    -3.240      6.456      7.432
REMARK INTER + INTRA:          -3.928
REMARK INTER:                  -3.890
REMARK INTRA:                  -0.038
REMARK UNBOUND:                -0.120
REMARK SMILES O=C([O-])CCC(=O)[O-]
REMARK SMILES IDX 4 1 2 2 1 3 3 4 5 5 6 6 7 7 8 8
REMARK H PARENT
REMARK Flexibility Score: inf
ROOT
ATOM      1  C   UNL     1      -3.683   8.301  -9.052  1.00  0.00     0.059 C 
ENDROOT
BRANCH   1   2
ATOM      2  C   UNL     1      -4.799   8.864  -9.877  1.00  0.00     0.042 C 
ATOM      3  O   UNL     1      -4.782  10.074 -10.223  1.00  0.00    -0.550 OA
ATOM      4  O   UNL     1      -5.877   8.062 -10.231  1.00  0.00    -0.550 OA
ENDBRANCH   1   2
BRANCH   1   5
ATOM      5  C   UNL     1      -2.378   9.078  -9.259  1.00  0.00     0.059 C 
BRANCH   5   6
ATOM      6  C   UNL     1      -1.180   8.189  -9.124  1.00  0.00     0.042 C 
ATOM      7  O   UNL     1      -0.049   8.584  -9.512  1.00  0.00    -0.550 OA
ATOM      8  O   UNL     1      -1.306   6.938  -8.533  1.00  0.00    -0.550 OA
ENDBRANCH   5   6
ENDBRANCH   1   5
TORSDOF 3
ENDMDL
MODEL 8
REMARK VINA RESULT:    -3.226      0.816      3.738
REMARK INTER + INTRA:          -3.912
REMARK INTER:                  -3.801
REMARK INTRA:                  -0.111
REMARK UNBOUND:                -0.120
REMARK SMILES O=C([O-])CCC(=O)[O-]
REMARK SMILES IDX 4 1 2 2 1 3 3 4 5 5 6 6 7 7 8 8
REMARK H PARENT
REMARK Flexibility Score: inf
ROOT
ATOM      1  C   UNL     1      -2.221  10.529 -16.653  1.00  0.00     0.059 C 
ENDROOT
BRANCH   1   2
ATOM      2  C   UNL     1      -3.318   9.788 -17.354  1.00  0.00     0.042 C 
ATOM      3  O   UNL     1      -3.043   8.837 -18.131  1.00  0.00    -0.550 OA
ATOM      4  O   UNL     1      -4.641  10.174 -17.181  1.00  0.00    -0.550 OA
ENDBRANCH   1   2
BRANCH   1   5
ATOM      5  C   UNL     1      -2.064  10.066 -15.201  1.00  0.00     0.059 C 
BRANCH   5   6
ATOM      6  C   UNL     1      -2.734  11.008 -14.247  1.00  0.00     0.042 C 
ATOM      7  O   UNL     1      -3.975  10.933 -14.048  1.00  0.00    -0.550 OA
ATOM      8  O   UNL     1      -1.980  11.944 -13.550  1.00  0.00    -0.550 OA
ENDBRANCH   5   6
ENDBRANCH   1   5
TORSDOF 3
ENDMDL
MODEL 9
REMARK VINA RESULT:    -3.194     15.452     16.090
REMARK INTER + INTRA:          -3.873
REMARK INTER:                  -3.757
REMARK INTRA:                  -0.116
REMARK UNBOUND:                -0.120
REMARK SMILES O=C([O-])CCC(=O)[O-]
REMARK SMILES IDX 4 1 2 2 1 3 3 4 5 5 6 6 7 7 8 8
REMARK H PARENT
REMARK Flexibility Score: inf
ROOT
ATOM      1  C   UNL     1     -14.481  22.132 -17.874  1.00  0.00     0.059 C 
ENDROOT
BRANCH   1   2
ATOM      2  C   UNL     1     -13.698  22.559 -16.670  1.00  0.00     0.042 C 
ATOM      3  O   UNL     1     -13.703  23.764 -16.307  1.00  0.00    -0.550 OA
ATOM      4  O   UNL     1     -12.930  21.634 -15.974  1.00  0.00    -0.550 OA
ENDBRANCH   1   2
BRANCH   1   5
ATOM      5  C   UNL     1     -15.823  21.502 -17.481  1.00  0.00     0.059 C 
BRANCH   5   6
ATOM      6  C   UNL     1     -15.733  20.008 -17.419  1.00  0.00     0.042 C 
ATOM      7  O   UNL     1     -14.725  19.413 -17.884  1.00  0.00    -0.550 OA
ATOM      8  O   UNL     1     -16.745  19.275 -16.813  1.00  0.00    -0.550 OA
ENDBRANCH   5   6
ENDBRANCH   1   5
TORSDOF 3
ENDMDL
