MODEL 1
REMARK VINA RESULT:    -3.263      0.000      0.000
REMARK INTER + INTRA:         -11.300
REMARK INTER:                  -7.461
REMARK INTRA:                  -3.839
REMARK UNBOUND:                -3.839
REMARK SMILES CCCCCCCCCCCCCCCCCCCCCCCC(=O)[O-]
REMARK SMILES IDX 13 1 14 2 15 3 16 4 17 5 18 6 19 7 20 8 21 9 22 10 23 11
REMARK SMILES IDX 24 12 25 13 26 14 12 15 11 16 10 17 9 18 8 19 7 20 6 21 5 22
REMARK SMILES IDX 4 23 3 24 2 25 1 26
REMARK H PARENT
REMARK Flexibility Score: inf
ROOT
ATOM      1  C   UNL     1      47.849  44.808  15.162  1.00  0.00     0.000 C 
ENDROOT
BRANCH   1   2
ATOM      2  C   UNL     1      46.700  43.972  14.563  1.00  0.00     0.000 C 
BRANCH   2   3
ATOM      3  C   UNL     1      47.168  42.575  14.118  1.00  0.00     0.000 C 
BRANCH   3   4
ATOM      4  C   UNL     1      46.395  41.445  14.817  1.00  0.00     0.000 C 
BRANCH   4   5
ATOM      5  C   UNL     1      45.246  41.973  15.692  1.00  0.00     0.000 C 
BRANCH   5   6
ATOM      6  C   UNL     1      45.414  41.613  17.178  1.00  0.00     0.000 C 
BRANCH   6   7
ATOM      7  C   UNL     1      46.677  42.224  17.821  1.00  0.00     0.000 C 
BRANCH   7   8
ATOM      8  C   UNL     1      47.522  41.175  18.565  1.00  0.00     0.000 C 
BRANCH   8   9
ATOM      9  C   UNL     1      48.786  40.777  17.775  1.00  0.00     0.000 C 
BRANCH   9  10
ATOM     10  C   UNL     1      49.423  41.942  16.999  1.00  0.00     0.006 C 
BRANCH  10  11
ATOM     11  C   UNL     1      50.306  42.834  17.880  1.00  0.00     0.053 C 
BRANCH  11  12
ATOM     12  C   UNL     1      51.733  42.757  17.440  1.00  0.00     0.041 C 
ATOM     13  O   UNL     1      52.601  42.236  18.190  1.00  0.00    -0.550 OA
ATOM     14  O   UNL     1      52.115  43.301  16.219  1.00  0.00    -0.550 OA
ENDBRANCH  11  12
ENDBRANCH  10  11
ENDBRANCH   9  10
ENDBRANCH   8   9
ENDBRANCH   7   8
ENDBRANCH   6   7
ENDBRANCH   5   6
ENDBRANCH   4   5
ENDBRANCH   3   4
ENDBRANCH   2   3
ENDBRANCH   1   2
BRANCH   1  15
ATOM     15  C   UNL     1      49.232  44.457  14.584  1.00  0.00     0.000 C 
BRANCH  15  16
ATOM     16  C   UNL     1      50.095  45.698  14.300  1.00  0.00     0.000 C 
BRANCH  16  17
ATOM     17  C   UNL     1      50.385  46.509  15.580  1.00  0.00     0.000 C 
BRANCH  17  18
ATOM     18  C   UNL     1      49.799  47.931  15.555  1.00  0.00    -0.000 C 
BRANCH  18  19
ATOM     19  C   UNL     1      49.025  48.236  14.262  1.00  0.00    -0.000 C 
BRANCH  19  20
ATOM     20  C   UNL     1      49.290  49.658  13.739  1.00  0.00    -0.000 C 
BRANCH  20  21
ATOM     21  C   UNL     1      49.940  49.663  12.347  1.00  0.00    -0.000 C 
BRANCH  21  22
ATOM     22  C   UNL     1      51.471  49.593  12.457  1.00  0.00    -0.000 C 
BRANCH  22  23
ATOM     23  C   UNL     1      52.017  48.176  12.223  1.00  0.00    -0.000 C 
BRANCH  23  24
ATOM     24  C   UNL     1      53.137  47.802  13.210  1.00  0.00    -0.000 C 
BRANCH  24  25
ATOM     25  C   UNL     1      53.315  48.847  14.322  1.00  0.00    -0.003 C 
ATOM     26  C   UNL     1      53.680  48.220  15.667  1.00  0.00     0.004 C 
ENDBRANCH  24  25
ENDBRANCH  23  24
ENDBRANCH  22  23
ENDBRANCH  21  22
ENDBRANCH  20  21
ENDBRANCH  19  20
ENDBRANCH  18  19
ENDBRANCH  17  18
ENDBRANCH  16  17
ENDBRANCH  15  16
ENDBRANCH   1  15
TORSDOF 22
ENDMDL
MODEL 2
REMARK VINA RESULT:    -3.216      2.934      5.963
REMARK INTER + INTRA:         -11.192
REMARK INTER:                  -7.383
REMARK INTRA:                  -3.808
REMARK UNBOUND:                -3.839
REMARK SMILES CCCCCCCCCCCCCCCCCCCCCCCC(=O)[O-]
REMARK SMILES IDX 13 1 14 2 15 3 16 4 17 5 18 6 19 7 20 8 21 9 22 10 23 11
REMARK SMILES IDX 24 12 25 13 26 14 12 15 11 16 10 17 9 18 8 19 7 20 6 21 5 22
REMARK SMILES IDX 4 23 3 24 2 25 1 26
REMARK H PARENT
REMARK Flexibility Score: inf
ROOT
ATOM      1  C   UNL     1      51.437  47.672  12.859  1.00  0.00     0.000 C 
ENDROOT
BRANCH   1   2
ATOM      2  C   UNL     1      50.744  49.031  12.634  1.00  0.00     0.000 C 
BRANCH   2   3
ATOM      3  C   UNL     1      49.542  49.233  13.572  1.00  0.00     0.000 C 
BRANCH   3   4
ATOM      4  C   UNL     1      49.968  49.483  15.028  1.00  0.00     0.000 C 
BRANCH   4   5
ATOM      5  C   UNL     1      49.232  48.566  16.021  1.00  0.00     0.000 C 
BRANCH   5   6
ATOM      6  C   UNL     1      50.183  47.634  16.788  1.00  0.00     0.000 C 
BRANCH   6   7
ATOM      7  C   UNL     1      50.074  46.154  16.361  1.00  0.00     0.000 C 
BRANCH   7   8
ATOM      8  C   UNL     1      49.123  45.958  15.166  1.00  0.00     0.000 C 
BRANCH   8   9
ATOM      9  C   UNL     1      49.302  44.577  14.500  1.00  0.00     0.000 C 
BRANCH   9  10
ATOM     10  C   UNL     1      48.979  43.395  15.430  1.00  0.00     0.006 C 
BRANCH  10  11
ATOM     11  C   UNL     1      47.685  42.668  15.043  1.00  0.00     0.053 C 
BRANCH  11  12
ATOM     12  C   UNL     1      46.528  43.207  15.821  1.00  0.00     0.041 C 
ATOM     13  O   UNL     1      46.696  43.637  16.993  1.00  0.00    -0.550 OA
ATOM     14  O   UNL     1      45.252  43.196  15.268  1.00  0.00    -0.550 OA
ENDBRANCH  11  12
ENDBRANCH  10  11
ENDBRANCH   9  10
ENDBRANCH   8   9
ENDBRANCH   7   8
ENDBRANCH   6   7
ENDBRANCH   5   6
ENDBRANCH   4   5
ENDBRANCH   3   4
ENDBRANCH   2   3
ENDBRANCH   1   2
BRANCH   1  15
ATOM     15  C   UNL     1      52.911  47.795  13.285  1.00  0.00     0.000 C 
BRANCH  15  16
ATOM     16  C   UNL     1      53.146  47.402  14.752  1.00  0.00     0.000 C 
BRANCH  16  17
ATOM     17  C   UNL     1      53.582  48.607  15.613  1.00  0.00     0.000 C 
BRANCH  17  18
ATOM     18  C   UNL     1      54.000  49.835  14.787  1.00  0.00    -0.000 C 
BRANCH  18  19
ATOM     19  C   UNL     1      55.509  50.124  14.868  1.00  0.00    -0.000 C 
BRANCH  19  20
ATOM     20  C   UNL     1      56.250  49.744  13.575  1.00  0.00    -0.000 C 
BRANCH  20  21
ATOM     21  C   UNL     1      57.236  48.584  13.778  1.00  0.00    -0.000 C 
BRANCH  21  22
ATOM     22  C   UNL     1      56.597  47.245  13.379  1.00  0.00    -0.000 C 
BRANCH  22  23
ATOM     23  C   UNL     1      56.659  46.201  14.505  1.00  0.00    -0.000 C 
BRANCH  23  24
ATOM     24  C   UNL     1      56.955  46.828  15.879  1.00  0.00    -0.000 C 
BRANCH  24  25
ATOM     25  C   UNL     1      57.793  45.907  16.779  1.00  0.00    -0.003 C 
ATOM     26  C   UNL     1      57.883  44.480  16.241  1.00  0.00     0.004 C 
ENDBRANCH  24  25
ENDBRANCH  23  24
ENDBRANCH  22  23
ENDBRANCH  21  22
ENDBRANCH  20  21
ENDBRANCH  19  20
ENDBRANCH  18  19
ENDBRANCH  17  18
ENDBRANCH  16  17
ENDBRANCH  15  16
ENDBRANCH   1  15
TORSDOF 22
ENDMDL
MODEL 3
REMARK VINA RESULT:    -3.190      8.554     12.579
REMARK INTER + INTRA:         -11.133
REMARK INTER:                  -7.615
REMARK INTRA:                  -3.518
REMARK UNBOUND:                -3.839
REMARK SMILES CCCCCCCCCCCCCCCCCCCCCCCC(=O)[O-]
REMARK SMILES IDX 13 1 14 2 15 3 16 4 17 5 18 6 19 7 20 8 21 9 22 10 23 11
REMARK SMILES IDX 24 12 25 13 26 14 12 15 11 16 10 17 9 18 8 19 7 20 6 21 5 22
REMARK SMILES IDX 4 23 3 24 2 25 1 26
REMARK H PARENT
REMARK Flexibility Score: inf
ROOT
ATOM      1  C   UNL     1      61.314  45.105  17.609  1.00  0.00     0.000 C 
ENDROOT
BRANCH   1   2
ATOM      2  C   UNL     1      62.181  44.783  16.374  1.00  0.00     0.000 C 
BRANCH   2   3
ATOM      3  C   UNL     1      63.544  45.495  16.420  1.00  0.00     0.000 C 
BRANCH   3   4
ATOM      4  C   UNL     1      64.575  44.855  15.476  1.00  0.00     0.000 C 
BRANCH   4   5
ATOM      5  C   UNL     1      64.088  43.516  14.897  1.00  0.00     0.000 C 
BRANCH   5   6
ATOM      6  C   UNL     1      64.904  42.315  15.404  1.00  0.00     0.000 C 
BRANCH   6   7
ATOM      7  C   UNL     1      64.047  41.062  15.684  1.00  0.00     0.000 C 
BRANCH   7   8
ATOM      8  C   UNL     1      63.985  40.718  17.184  1.00  0.00     0.000 C 
BRANCH   8   9
ATOM      9  C   UNL     1      63.753  41.966  18.060  1.00  0.00     0.000 C 
BRANCH   9  10
ATOM     10  C   UNL     1      62.872  41.701  19.293  1.00  0.00     0.006 C 
BRANCH  10  11
ATOM     11  C   UNL     1      61.425  41.345  18.927  1.00  0.00     0.053 C 
BRANCH  11  12
ATOM     12  C   UNL     1      60.532  41.492  20.118  1.00  0.00     0.041 C 
ATOM     13  O   UNL     1      60.271  42.636  20.577  1.00  0.00    -0.550 OA
ATOM     14  O   UNL     1      60.024  40.364  20.750  1.00  0.00    -0.550 OA
ENDBRANCH  11  12
ENDBRANCH  10  11
ENDBRANCH   9  10
ENDBRANCH   8   9
ENDBRANCH   7   8
ENDBRANCH   6   7
ENDBRANCH   5   6
ENDBRANCH   4   5
ENDBRANCH   3   4
ENDBRANCH   2   3
ENDBRANCH   1   2
BRANCH   1  15
ATOM     15  C   UNL     1      59.922  44.449  17.571  1.00  0.00     0.000 C 
BRANCH  15  16
ATOM     16  C   UNL     1      58.818  45.413  17.105  1.00  0.00     0.000 C 
BRANCH  16  17
ATOM     17  C   UNL     1      57.963  44.809  15.971  1.00  0.00     0.000 C 
BRANCH  17  18
ATOM     18  C   UNL     1      56.900  45.775  15.419  1.00  0.00    -0.000 C 
BRANCH  18  19
ATOM     19  C   UNL     1      55.477  45.197  15.483  1.00  0.00    -0.000 C 
BRANCH  19  20
ATOM     20  C   UNL     1      55.468  43.661  15.568  1.00  0.00    -0.000 C 
BRANCH  20  21
ATOM     21  C   UNL     1      54.318  43.125  16.435  1.00  0.00    -0.000 C 
BRANCH  21  22
ATOM     22  C   UNL     1      54.859  42.309  17.619  1.00  0.00    -0.000 C 
BRANCH  22  23
ATOM     23  C   UNL     1      55.897  43.084  18.447  1.00  0.00    -0.000 C 
BRANCH  23  24
ATOM     24  C   UNL     1      57.142  42.241  18.775  1.00  0.00    -0.000 C 
BRANCH  24  25
ATOM     25  C   UNL     1      57.629  41.417  17.572  1.00  0.00    -0.003 C 
ATOM     26  C   UNL     1      57.736  39.925  17.884  1.00  0.00     0.004 C 
ENDBRANCH  24  25
ENDBRANCH  23  24
ENDBRANCH  22  23
ENDBRANCH  21  22
ENDBRANCH  20  21
ENDBRANCH  19  20
ENDBRANCH  18  19
ENDBRANCH  17  18
ENDBRANCH  16  17
ENDBRANCH  15  16
ENDBRANCH   1  15
TORSDOF 22
ENDMDL
MODEL 4
REMARK VINA RESULT:    -3.174      3.159      6.626
REMARK INTER + INTRA:         -11.096
REMARK INTER:                  -6.407
REMARK INTRA:                  -4.690
REMARK UNBOUND:                -3.839
REMARK SMILES CCCCCCCCCCCCCCCCCCCCCCCC(=O)[O-]
REMARK SMILES IDX 13 1 14 2 15 3 16 4 17 5 18 6 19 7 20 8 21 9 22 10 23 11
REMARK SMILES IDX 24 12 25 13 26 14 12 15 11 16 10 17 9 18 8 19 7 20 6 21 5 22
REMARK SMILES IDX 4 23 3 24 2 25 1 26
REMARK H PARENT
REMARK Flexibility Score: inf
ROOT
ATOM      1  C   UNL     1      51.798  47.644  12.703  1.00  0.00     0.000 C 
ENDROOT
BRANCH   1   2
ATOM      2  C   UNL     1      50.781  48.804  12.666  1.00  0.00     0.000 C 
BRANCH   2   3
ATOM      3  C   UNL     1      49.688  48.654  13.738  1.00  0.00     0.000 C 
BRANCH   3   4
ATOM      4  C   UNL     1      49.862  49.646  14.899  1.00  0.00     0.000 C 
BRANCH   4   5
ATOM      5  C   UNL     1      50.302  48.956  16.200  1.00  0.00     0.000 C 
BRANCH   5   6
ATOM      6  C   UNL     1      51.795  49.158  16.508  1.00  0.00     0.000 C 
BRANCH   6   7
ATOM      7  C   UNL     1      52.602  47.842  16.536  1.00  0.00     0.000 C 
BRANCH   7   8
ATOM      8  C   UNL     1      51.712  46.614  16.800  1.00  0.00     0.000 C 
BRANCH   8   9
ATOM      9  C   UNL     1      51.831  45.556  15.683  1.00  0.00     0.000 C 
BRANCH   9  10
ATOM     10  C   UNL     1      50.602  44.638  15.567  1.00  0.00     0.006 C 
BRANCH  10  11
ATOM     11  C   UNL     1      49.616  45.094  14.484  1.00  0.00     0.053 C 
BRANCH  11  12
ATOM     12  C   UNL     1      48.245  45.257  15.057  1.00  0.00     0.041 C 
ATOM     13  O   UNL     1      47.358  44.390  14.835  1.00  0.00    -0.550 OA
ATOM     14  O   UNL     1      47.932  46.389  15.801  1.00  0.00    -0.550 OA
ENDBRANCH  11  12
ENDBRANCH  10  11
ENDBRANCH   9  10
ENDBRANCH   8   9
ENDBRANCH   7   8
ENDBRANCH   6   7
ENDBRANCH   5   6
ENDBRANCH   4   5
ENDBRANCH   3   4
ENDBRANCH   2   3
ENDBRANCH   1   2
BRANCH   1  15
ATOM     15  C   UNL     1      53.236  48.095  13.014  1.00  0.00     0.000 C 
BRANCH  15  16
ATOM     16  C   UNL     1      53.351  49.610  13.250  1.00  0.00     0.000 C 
BRANCH  16  17
ATOM     17  C   UNL     1      54.614  49.978  14.057  1.00  0.00     0.000 C 
BRANCH  17  18
ATOM     18  C   UNL     1      55.922  49.490  13.412  1.00  0.00    -0.000 C 
BRANCH  18  19
ATOM     19  C   UNL     1      56.915  48.913  14.436  1.00  0.00    -0.000 C 
BRANCH  19  20
ATOM     20  C   UNL     1      56.215  48.369  15.692  1.00  0.00    -0.000 C 
BRANCH  20  21
ATOM     21  C   UNL     1      56.723  46.976  16.095  1.00  0.00    -0.000 C 
BRANCH  21  22
ATOM     22  C   UNL     1      56.350  45.928  15.035  1.00  0.00    -0.000 C 
BRANCH  22  23
ATOM     23  C   UNL     1      55.454  44.813  15.596  1.00  0.00    -0.000 C 
BRANCH  23  24
ATOM     24  C   UNL     1      55.299  44.889  17.125  1.00  0.00    -0.000 C 
BRANCH  24  25
ATOM     25  C   UNL     1      54.363  43.803  17.678  1.00  0.00    -0.003 C 
ATOM     26  C   UNL     1      54.075  42.700  16.661  1.00  0.00     0.004 C 
ENDBRANCH  24  25
ENDBRANCH  23  24
ENDBRANCH  22  23
ENDBRANCH  21  22
ENDBRANCH  20  21
ENDBRANCH  19  20
ENDBRANCH  18  19
ENDBRANCH  17  18
ENDBRANCH  16  17
ENDBRANCH  15  16
ENDBRANCH   1  15
TORSDOF 22
ENDMDL
MODEL 5
REMARK VINA RESULT:    -3.165      9.369     13.302
REMARK INTER + INTRA:         -11.074
REMARK INTER:                  -7.357
REMARK INTRA:                  -3.717
REMARK UNBOUND:                -3.839
REMARK SMILES CCCCCCCCCCCCCCCCCCCCCCCC(=O)[O-]
REMARK SMILES IDX 13 1 14 2 15 3 16 4 17 5 18 6 19 7 20 8 21 9 22 10 23 11
REMARK SMILES IDX 24 12 25 13 26 14 12 15 11 16 10 17 9 18 8 19 7 20 6 21 5 22
REMARK SMILES IDX 4 23 3 24 2 25 1 26
REMARK H PARENT
REMARK Flexibility Score: inf
ROOT
ATOM      1  C   UNL     1      61.081  45.614  17.473  1.00  0.00     0.000 C 
ENDROOT
BRANCH   1   2
ATOM      2  C   UNL     1      62.104  44.831  16.625  1.00  0.00     0.000 C 
BRANCH   2   3
ATOM      3  C   UNL     1      63.483  45.512  16.604  1.00  0.00     0.000 C 
BRANCH   3   4
ATOM      4  C   UNL     1      64.432  44.888  15.567  1.00  0.00     0.000 C 
BRANCH   4   5
ATOM      5  C   UNL     1      63.856  43.608  14.939  1.00  0.00     0.000 C 
BRANCH   5   6
ATOM      6  C   UNL     1      64.791  42.397  15.087  1.00  0.00     0.000 C 
BRANCH   6   7
ATOM      7  C   UNL     1      64.067  41.111  15.539  1.00  0.00     0.000 C 
BRANCH   7   8
ATOM      8  C   UNL     1      64.265  40.822  17.038  1.00  0.00     0.000 C 
BRANCH   8   9
ATOM      9  C   UNL     1      63.159  41.458  17.906  1.00  0.00     0.000 C 
BRANCH   9  10
ATOM     10  C   UNL     1      63.591  41.731  19.356  1.00  0.00     0.006 C 
BRANCH  10  11
ATOM     11  C   UNL     1      63.508  43.216  19.734  1.00  0.00     0.053 C 
BRANCH  11  12
ATOM     12  C   UNL     1      63.227  43.370  21.195  1.00  0.00     0.041 C 
ATOM     13  O   UNL     1      64.123  43.112  22.043  1.00  0.00    -0.550 OA
ATOM     14  O   UNL     1      61.963  43.756  21.624  1.00  0.00    -0.550 OA
ENDBRANCH  11  12
ENDBRANCH  10  11
ENDBRANCH   9  10
ENDBRANCH   8   9
ENDBRANCH   7   8
ENDBRANCH   6   7
ENDBRANCH   5   6
ENDBRANCH   4   5
ENDBRANCH   3   4
ENDBRANCH   2   3
ENDBRANCH   1   2
BRANCH   1  15
ATOM     15  C   UNL     1      60.464  44.785  18.614  1.00  0.00     0.000 C 
BRANCH  15  16
ATOM     16  C   UNL     1      59.972  43.403  18.153  1.00  0.00     0.000 C 
BRANCH  16  17
ATOM     17  C   UNL     1      59.498  42.532  19.335  1.00  0.00     0.000 C 
BRANCH  17  18
ATOM     18  C   UNL     1      59.582  41.021  19.061  1.00  0.00    -0.000 C 
BRANCH  18  19
ATOM     19  C   UNL     1      58.203  40.372  18.859  1.00  0.00    -0.000 C 
BRANCH  19  20
ATOM     20  C   UNL     1      57.500  40.868  17.583  1.00  0.00    -0.000 C 
BRANCH  20  21
ATOM     21  C   UNL     1      56.164  41.567  17.878  1.00  0.00    -0.000 C 
BRANCH  21  22
ATOM     22  C   UNL     1      56.215  43.046  17.464  1.00  0.00    -0.000 C 
BRANCH  22  23
ATOM     23  C   UNL     1      56.423  43.230  15.952  1.00  0.00    -0.000 C 
BRANCH  23  24
ATOM     24  C   UNL     1      57.626  44.132  15.625  1.00  0.00    -0.000 C 
BRANCH  24  25
ATOM     25  C   UNL     1      57.214  45.588  15.356  1.00  0.00    -0.003 C 
ATOM     26  C   UNL     1      57.601  46.530  16.495  1.00  0.00     0.004 C 
ENDBRANCH  24  25
ENDBRANCH  23  24
ENDBRANCH  22  23
ENDBRANCH  21  22
ENDBRANCH  20  21
ENDBRANCH  19  20
ENDBRANCH  18  19
ENDBRANCH  17  18
ENDBRANCH  16  17
ENDBRANCH  15  16
ENDBRANCH   1  15
TORSDOF 22
ENDMDL
MODEL 6
REMARK VINA RESULT:    -3.104      1.763      8.090
REMARK INTER + INTRA:         -10.935
REMARK INTER:                  -7.701
REMARK INTRA:                  -3.234
REMARK UNBOUND:                -3.839
REMARK SMILES CCCCCCCCCCCCCCCCCCCCCCCC(=O)[O-]
REMARK SMILES IDX 13 1 14 2 15 3 16 4 17 5 18 6 19 7 20 8 21 9 22 10 23 11
REMARK SMILES IDX 24 12 25 13 26 14 12 15 11 16 10 17 9 18 8 19 7 20 6 21 5 22
REMARK SMILES IDX 4 23 3 24 2 25 1 26
REMARK H PARENT
REMARK Flexibility Score: inf
ROOT
ATOM      1  C   UNL     1      47.615  44.581  15.093  1.00  0.00     0.000 C 
ENDROOT
BRANCH   1   2
ATOM      2  C   UNL     1      48.992  44.098  14.593  1.00  0.00     0.000 C 
BRANCH   2   3
ATOM      3  C   UNL     1      50.125  45.059  14.991  1.00  0.00     0.000 C 
BRANCH   3   4
ATOM      4  C   UNL     1      50.184  46.304  14.091  1.00  0.00     0.000 C 
BRANCH   4   5
ATOM      5  C   UNL     1      49.846  47.596  14.853  1.00  0.00     0.000 C 
BRANCH   5   6
ATOM      6  C   UNL     1      49.024  48.587  14.012  1.00  0.00     0.000 C 
BRANCH   6   7
ATOM      7  C   UNL     1      49.844  49.792  13.503  1.00  0.00     0.000 C 
BRANCH   7   8
ATOM      8  C   UNL     1      50.108  49.724  11.988  1.00  0.00     0.000 C 
BRANCH   8   9
ATOM      9  C   UNL     1      51.616  49.726  11.658  1.00  0.00     0.000 C 
BRANCH   9  10
ATOM     10  C   UNL     1      52.372  48.507  12.212  1.00  0.00     0.006 C 
BRANCH  10  11
ATOM     11  C   UNL     1      53.518  48.894  13.156  1.00  0.00     0.053 C 
BRANCH  11  12
ATOM     12  C   UNL     1      54.074  47.681  13.831  1.00  0.00     0.041 C 
ATOM     13  O   UNL     1      55.120  47.135  13.391  1.00  0.00    -0.550 OA
ATOM     14  O   UNL     1      53.412  47.126  14.920  1.00  0.00    -0.550 OA
ENDBRANCH  11  12
ENDBRANCH  10  11
ENDBRANCH   9  10
ENDBRANCH   8   9
ENDBRANCH   7   8
ENDBRANCH   6   7
ENDBRANCH   5   6
ENDBRANCH   4   5
ENDBRANCH   3   4
ENDBRANCH   2   3
ENDBRANCH   1   2
BRANCH   1  15
ATOM     15  C   UNL     1      46.447  43.687  14.641  1.00  0.00     0.000 C 
BRANCH  15  16
ATOM     16  C   UNL     1      46.856  42.218  14.448  1.00  0.00     0.000 C 
BRANCH  16  17
ATOM     17  C   UNL     1      45.751  41.243  14.907  1.00  0.00     0.000 C 
BRANCH  17  18
ATOM     18  C   UNL     1      46.276  40.069  15.752  1.00  0.00    -0.000 C 
BRANCH  18  19
ATOM     19  C   UNL     1      45.399  39.780  16.982  1.00  0.00    -0.000 C 
BRANCH  19  20
ATOM     20  C   UNL     1      45.970  40.397  18.270  1.00  0.00    -0.000 C 
BRANCH  20  21
ATOM     21  C   UNL     1      45.610  41.883  18.422  1.00  0.00    -0.000 C 
BRANCH  21  22
ATOM     22  C   UNL     1      46.857  42.767  18.272  1.00  0.00    -0.000 C 
BRANCH  22  23
ATOM     23  C   UNL     1      48.159  42.012  18.582  1.00  0.00    -0.000 C 
BRANCH  23  24
ATOM     24  C   UNL     1      49.145  42.020  17.400  1.00  0.00    -0.000 C 
BRANCH  24  25
ATOM     25  C   UNL     1      50.140  40.850  17.455  1.00  0.00    -0.003 C 
ATOM     26  C   UNL     1      49.471  39.523  17.813  1.00  0.00     0.004 C 
ENDBRANCH  24  25
ENDBRANCH  23  24
ENDBRANCH  22  23
ENDBRANCH  21  22
ENDBRANCH  20  21
ENDBRANCH  19  20
ENDBRANCH  18  19
ENDBRANCH  17  18
ENDBRANCH  16  17
ENDBRANCH  15  16
ENDBRANCH   1  15
TORSDOF 22
ENDMDL
MODEL 7
REMARK VINA RESULT:    -3.100      2.784      6.169
REMARK INTER + INTRA:         -10.926
REMARK INTER:                  -6.937
REMARK INTRA:                  -3.989
REMARK UNBOUND:                -3.839
REMARK SMILES CCCCCCCCCCCCCCCCCCCCCCCC(=O)[O-]
REMARK SMILES IDX 13 1 14 2 15 3 16 4 17 5 18 6 19 7 20 8 21 9 22 10 23 11
REMARK SMILES IDX 24 12 25 13 26 14 12 15 11 16 10 17 9 18 8 19 7 20 6 21 5 22
REMARK SMILES IDX 4 23 3 24 2 25 1 26
REMARK H PARENT
REMARK Flexibility Score: inf
ROOT
ATOM      1  C   UNL     1      49.338  48.725  14.058  1.00  0.00     0.000 C 
ENDROOT
BRANCH   1   2
ATOM      2  C   UNL     1      49.765  49.533  15.301  1.00  0.00     0.000 C 
BRANCH   2   3
ATOM      3  C   UNL     1      49.415  48.810  16.613  1.00  0.00     0.000 C 
BRANCH   3   4
ATOM      4  C   UNL     1      50.629  48.655  17.542  1.00  0.00     0.000 C 
BRANCH   4   5
ATOM      5  C   UNL     1      51.955  48.571  16.767  1.00  0.00     0.000 C 
BRANCH   5   6
ATOM      6  C   UNL     1      52.505  47.138  16.680  1.00  0.00     0.000 C 
BRANCH   6   7
ATOM      7  C   UNL     1      51.761  46.136  17.589  1.00  0.00     0.000 C 
BRANCH   7   8
ATOM      8  C   UNL     1      50.927  45.123  16.785  1.00  0.00     0.000 C 
BRANCH   8   9
ATOM      9  C   UNL     1      51.075  45.322  15.262  1.00  0.00     0.000 C 
BRANCH   9  10
ATOM     10  C   UNL     1      49.820  44.936  14.463  1.00  0.00     0.006 C 
BRANCH  10  11
ATOM     11  C   UNL     1      48.521  45.416  15.122  1.00  0.00     0.053 C 
BRANCH  11  12
ATOM     12  C   UNL     1      47.458  44.370  15.010  1.00  0.00     0.041 C 
ATOM     13  O   UNL     1      47.731  43.237  14.532  1.00  0.00    -0.550 OA
ATOM     14  O   UNL     1      46.153  44.660  15.392  1.00  0.00    -0.550 OA
ENDBRANCH  11  12
ENDBRANCH  10  11
ENDBRANCH   9  10
ENDBRANCH   8   9
ENDBRANCH   7   8
ENDBRANCH   6   7
ENDBRANCH   5   6
ENDBRANCH   4   5
ENDBRANCH   3   4
ENDBRANCH   2   3
ENDBRANCH   1   2
BRANCH   1  15
ATOM     15  C   UNL     1      50.266  48.925  12.846  1.00  0.00     0.000 C 
BRANCH  15  16
ATOM     16  C   UNL     1      51.428  47.918  12.808  1.00  0.00     0.000 C 
BRANCH  16  17
ATOM     17  C   UNL     1      52.789  48.611  12.588  1.00  0.00     0.000 C 
BRANCH  17  18
ATOM     18  C   UNL     1      53.915  48.057  13.477  1.00  0.00    -0.000 C 
BRANCH  18  19
ATOM     19  C   UNL     1      55.045  49.073  13.714  1.00  0.00    -0.000 C 
BRANCH  19  20
ATOM     20  C   UNL     1      56.411  48.397  13.921  1.00  0.00    -0.000 C 
BRANCH  20  21
ATOM     21  C   UNL     1      56.346  46.871  13.753  1.00  0.00    -0.000 C 
BRANCH  21  22
ATOM     22  C   UNL     1      56.569  46.161  15.097  1.00  0.00    -0.000 C 
BRANCH  22  23
ATOM     23  C   UNL     1      55.823  44.820  15.189  1.00  0.00    -0.000 C 
BRANCH  23  24
ATOM     24  C   UNL     1      55.161  44.603  16.561  1.00  0.00    -0.000 C 
BRANCH  24  25
ATOM     25  C   UNL     1      54.894  43.120  16.858  1.00  0.00    -0.003 C 
ATOM     26  C   UNL     1      53.567  42.632  16.277  1.00  0.00     0.004 C 
ENDBRANCH  24  25
ENDBRANCH  23  24
ENDBRANCH  22  23
ENDBRANCH  21  22
ENDBRANCH  20  21
ENDBRANCH  19  20
ENDBRANCH  18  19
ENDBRANCH  17  18
ENDBRANCH  16  17
ENDBRANCH  15  16
ENDBRANCH   1  15
TORSDOF 22
ENDMDL
MODEL 8
REMARK VINA RESULT:    -3.052      2.794      4.181
REMARK INTER + INTRA:         -10.817
REMARK INTER:                  -6.624
REMARK INTRA:                  -4.192
REMARK UNBOUND:                -3.839
REMARK SMILES CCCCCCCCCCCCCCCCCCCCCCCC(=O)[O-]
REMARK SMILES IDX 13 1 14 2 15 3 16 4 17 5 18 6 19 7 20 8 21 9 22 10 23 11
REMARK SMILES IDX 24 12 25 13 26 14 12 15 11 16 10 17 9 18 8 19 7 20 6 21 5 22
REMARK SMILES IDX 4 23 3 24 2 25 1 26
REMARK H PARENT
REMARK Flexibility Score: inf
ROOT
ATOM      1  C   UNL     1      49.848  44.868  16.523  1.00  0.00     0.000 C 
ENDROOT
BRANCH   1   2
ATOM      2  C   UNL     1      49.562  43.509  17.193  1.00  0.00     0.000 C 
BRANCH   2   3
ATOM      3  C   UNL     1      48.198  43.487  17.904  1.00  0.00     0.000 C 
BRANCH   3   4
ATOM      4  C   UNL     1      47.627  44.897  18.125  1.00  0.00     0.000 C 
BRANCH   4   5
ATOM      5  C   UNL     1      46.150  45.005  17.707  1.00  0.00     0.000 C 
BRANCH   5   6
ATOM      6  C   UNL     1      45.974  45.485  16.258  1.00  0.00     0.000 C 
BRANCH   6   7
ATOM      7  C   UNL     1      45.680  44.343  15.261  1.00  0.00     0.000 C 
BRANCH   7   8
ATOM      8  C   UNL     1      46.919  43.953  14.434  1.00  0.00     0.000 C 
BRANCH   8   9
ATOM      9  C   UNL     1      47.082  42.423  14.314  1.00  0.00     0.000 C 
BRANCH   9  10
ATOM     10  C   UNL     1      45.902  41.627  14.897  1.00  0.00     0.006 C 
BRANCH  10  11
ATOM     11  C   UNL     1      46.299  40.769  16.104  1.00  0.00     0.053 C 
BRANCH  11  12
ATOM     12  C   UNL     1      45.561  39.468  16.088  1.00  0.00     0.041 C 
ATOM     13  O   UNL     1      45.269  38.918  14.992  1.00  0.00    -0.550 OA
ATOM     14  O   UNL     1      45.155  38.883  17.282  1.00  0.00    -0.550 OA
ENDBRANCH  11  12
ENDBRANCH  10  11
ENDBRANCH   9  10
ENDBRANCH   8   9
ENDBRANCH   7   8
ENDBRANCH   6   7
ENDBRANCH   5   6
ENDBRANCH   4   5
ENDBRANCH   3   4
ENDBRANCH   2   3
ENDBRANCH   1   2
BRANCH   1  15
ATOM     15  C   UNL     1      50.462  44.744  15.117  1.00  0.00     0.000 C 
BRANCH  15  16
ATOM     16  C   UNL     1      50.136  45.944  14.213  1.00  0.00     0.000 C 
BRANCH  16  17
ATOM     17  C   UNL     1      49.178  46.943  14.896  1.00  0.00     0.000 C 
BRANCH  17  18
ATOM     18  C   UNL     1      49.046  48.281  14.150  1.00  0.00    -0.000 C 
BRANCH  18  19
ATOM     19  C   UNL     1      50.262  48.592  13.261  1.00  0.00    -0.000 C 
BRANCH  19  20
ATOM     20  C   UNL     1      50.770  50.032  13.441  1.00  0.00    -0.000 C 
BRANCH  20  21
ATOM     21  C   UNL     1      52.249  50.088  13.855  1.00  0.00    -0.000 C 
BRANCH  21  22
ATOM     22  C   UNL     1      52.719  48.729  14.396  1.00  0.00    -0.000 C 
BRANCH  22  23
ATOM     23  C   UNL     1      52.856  48.717  15.927  1.00  0.00    -0.000 C 
BRANCH  23  24
ATOM     24  C   UNL     1      52.736  47.303  16.521  1.00  0.00    -0.000 C 
BRANCH  24  25
ATOM     25  C   UNL     1      53.801  46.341  15.970  1.00  0.00    -0.003 C 
ATOM     26  C   UNL     1      53.749  44.964  16.631  1.00  0.00     0.004 C 
ENDBRANCH  24  25
ENDBRANCH  23  24
ENDBRANCH  22  23
ENDBRANCH  21  22
ENDBRANCH  20  21
ENDBRANCH  19  20
ENDBRANCH  18  19
ENDBRANCH  17  18
ENDBRANCH  16  17
ENDBRANCH  15  16
ENDBRANCH   1  15
TORSDOF 22
ENDMDL
MODEL 9
REMARK VINA RESULT:    -3.042      8.983     12.766
REMARK INTER + INTRA:         -10.793
REMARK INTER:                  -6.775
REMARK INTRA:                  -4.018
REMARK UNBOUND:                -3.839
REMARK SMILES CCCCCCCCCCCCCCCCCCCCCCCC(=O)[O-]
REMARK SMILES IDX 13 1 14 2 15 3 16 4 17 5 18 6 19 7 20 8 21 9 22 10 23 11
REMARK SMILES IDX 24 12 25 13 26 14 12 15 11 16 10 17 9 18 8 19 7 20 6 21 5 22
REMARK SMILES IDX 4 23 3 24 2 25 1 26
REMARK H PARENT
REMARK Flexibility Score: inf
ROOT
ATOM      1  C   UNL     1      62.784  44.491  15.956  1.00  0.00     0.000 C 
ENDROOT
BRANCH   1   2
ATOM      2  C   UNL     1      63.663  43.835  14.871  1.00  0.00     0.000 C 
BRANCH   2   3
ATOM      3  C   UNL     1      64.730  42.905  15.472  1.00  0.00     0.000 C 
BRANCH   3   4
ATOM      4  C   UNL     1      64.321  41.424  15.412  1.00  0.00     0.000 C 
BRANCH   4   5
ATOM      5  C   UNL     1      64.383  40.742  16.789  1.00  0.00     0.000 C 
BRANCH   5   6
ATOM      6  C   UNL     1      63.220  41.147  17.709  1.00  0.00     0.000 C 
BRANCH   6   7
ATOM      7  C   UNL     1      63.666  41.960  18.944  1.00  0.00     0.000 C 
BRANCH   7   8
ATOM      8  C   UNL     1      62.490  42.684  19.625  1.00  0.00     0.000 C 
BRANCH   8   9
ATOM      9  C   UNL     1      61.228  42.708  18.738  1.00  0.00     0.000 C 
BRANCH   9  10
ATOM     10  C   UNL     1      59.913  42.756  19.535  1.00  0.00     0.006 C 
BRANCH  10  11
ATOM     11  C   UNL     1      58.818  41.866  18.934  1.00  0.00     0.053 C 
BRANCH  11  12
ATOM     12  C   UNL     1      58.472  40.754  19.872  1.00  0.00     0.041 C 
ATOM     13  O   UNL     1      57.273  40.391  20.011  1.00  0.00    -0.550 OA
ATOM     14  O   UNL     1      59.468  40.146  20.628  1.00  0.00    -0.550 OA
ENDBRANCH  11  12
ENDBRANCH  10  11
ENDBRANCH   9  10
ENDBRANCH   8   9
ENDBRANCH   7   8
ENDBRANCH   6   7
ENDBRANCH   5   6
ENDBRANCH   4   5
ENDBRANCH   3   4
ENDBRANCH   2   3
ENDBRANCH   1   2
BRANCH   1  15
ATOM     15  C   UNL     1      63.592  45.205  17.055  1.00  0.00     0.000 C 
BRANCH  15  16
ATOM     16  C   UNL     1      63.542  46.737  16.936  1.00  0.00     0.000 C 
BRANCH  16  17
ATOM     17  C   UNL     1      62.486  47.358  17.874  1.00  0.00     0.000 C 
BRANCH  17  18
ATOM     18  C   UNL     1      62.118  46.462  19.069  1.00  0.00    -0.000 C 
BRANCH  18  19
ATOM     19  C   UNL     1      60.615  46.485  19.393  1.00  0.00    -0.000 C 
BRANCH  19  20
ATOM     20  C   UNL     1      59.760  46.915  18.190  1.00  0.00    -0.000 C 
BRANCH  20  21
ATOM     21  C   UNL     1      58.673  45.887  17.840  1.00  0.00    -0.000 C 
BRANCH  21  22
ATOM     22  C   UNL     1      59.146  44.946  16.721  1.00  0.00    -0.000 C 
BRANCH  22  23
ATOM     23  C   UNL     1      57.985  44.202  16.043  1.00  0.00    -0.000 C 
BRANCH  23  24
ATOM     24  C   UNL     1      56.614  44.821  16.369  1.00  0.00    -0.000 C 
BRANCH  24  25
ATOM     25  C   UNL     1      55.926  45.413  15.130  1.00  0.00    -0.003 C 
ATOM     26  C   UNL     1      56.778  46.471  14.431  1.00  0.00     0.004 C 
ENDBRANCH  24  25
ENDBRANCH  23  24
ENDBRANCH  22  23
ENDBRANCH  21  22
ENDBRANCH  20  21
ENDBRANCH  19  20
ENDBRANCH  18  19
ENDBRANCH  17  18
ENDBRANCH  16  17
ENDBRANCH  15  16
ENDBRANCH   1  15
TORSDOF 22
ENDMDL
