MODEL 1
REMARK VINA RESULT:    -4.954      0.000      0.000
REMARK INTER + INTRA:          -6.306
REMARK INTER:                  -6.112
REMARK INTRA:                  -0.194
REMARK UNBOUND:                -0.194
REMARK SMILES C=CC[C@H](C)C(=O)CC
REMARK SMILES IDX 4 1 5 2 6 3 7 4 8 5 9 6 3 7 2 8 1 9
REMARK H PARENT
REMARK Flexibility Score: inf
ROOT
ATOM      1  C   UNL     1      -4.907 -13.583  28.607  1.00  0.00     0.057 C 
ATOM      2  C   UNL     1      -6.079 -14.488  28.205  1.00  0.00     0.016 C 
ENDROOT
BRANCH   1   3
ATOM      3  C   UNL     1      -3.757 -13.732  27.628  1.00  0.00     0.135 C 
ATOM      4  O   UNL     1      -2.749 -14.323  27.985  1.00  0.00    -0.299 OA
BRANCH   3   5
ATOM      5  C   UNL     1      -3.806 -13.149  26.237  1.00  0.00     0.072 C 
ATOM      6  C   UNL     1      -3.309 -11.707  26.233  1.00  0.00     0.012 C 
ENDBRANCH   3   5
ENDBRANCH   1   3
BRANCH   1   7
ATOM      7  C   UNL     1      -4.470 -13.863  30.059  1.00  0.00     0.038 C 
BRANCH   7   8
ATOM      8  C   UNL     1      -5.447 -14.753  30.784  1.00  0.00    -0.034 C 
ATOM      9  C   UNL     1      -5.326 -14.981  32.094  1.00  0.00     0.004 C 
ENDBRANCH   7   8
ENDBRANCH   1   7
TORSDOF 4
ENDMDL
MODEL 2
REMARK VINA RESULT:    -4.755      1.092      4.410
REMARK INTER + INTRA:          -6.061
REMARK INTER:                  -5.925
REMARK INTRA:                  -0.136
REMARK UNBOUND:                -0.194
REMARK SMILES C=CC[C@H](C)C(=O)CC
REMARK SMILES IDX 4 1 5 2 6 3 7 4 8 5 9 6 3 7 2 8 1 9
REMARK H PARENT
REMARK Flexibility Score: inf
ROOT
ATOM      1  C   UNL     1      -4.781 -13.926  28.438  1.00  0.00     0.057 C 
ATOM      2  C   UNL     1      -6.186 -14.379  28.021  1.00  0.00     0.016 C 
ENDROOT
BRANCH   1   3
ATOM      3  C   UNL     1      -4.614 -14.018  29.943  1.00  0.00     0.135 C 
ATOM      4  O   UNL     1      -3.671 -13.447  30.471  1.00  0.00    -0.299 OA
BRANCH   3   5
ATOM      5  C   UNL     1      -5.559 -14.816  30.808  1.00  0.00     0.072 C 
ATOM      6  C   UNL     1      -5.093 -14.824  32.260  1.00  0.00     0.012 C 
ENDBRANCH   3   5
ENDBRANCH   1   3
BRANCH   1   7
ATOM      7  C   UNL     1      -4.480 -12.509  27.908  1.00  0.00     0.038 C 
BRANCH   7   8
ATOM      8  C   UNL     1      -3.632 -12.537  26.662  1.00  0.00    -0.034 C 
ATOM      9  C   UNL     1      -3.200 -11.405  26.101  1.00  0.00     0.004 C 
ENDBRANCH   7   8
ENDBRANCH   1   7
TORSDOF 4
ENDMDL
MODEL 3
REMARK VINA RESULT:    -4.739      1.439      2.071
REMARK INTER + INTRA:          -6.042
REMARK INTER:                  -5.772
REMARK INTRA:                  -0.269
REMARK UNBOUND:                -0.194
REMARK SMILES C=CC[C@H](C)C(=O)CC
REMARK SMILES IDX 4 1 5 2 6 3 7 4 8 5 9 6 3 7 2 8 1 9
REMARK H PARENT
REMARK Flexibility Score: inf
ROOT
ATOM      1  C   UNL     1      -4.112 -13.771  28.798  1.00  0.00     0.057 C 
ATOM      2  C   UNL     1      -3.882 -13.323  30.247  1.00  0.00     0.016 C 
ENDROOT
BRANCH   1   3
ATOM      3  C   UNL     1      -3.106 -13.114  27.870  1.00  0.00     0.135 C 
ATOM      4  O   UNL     1      -1.998 -12.833  28.303  1.00  0.00    -0.299 OA
BRANCH   3   5
ATOM      5  C   UNL     1      -3.439 -12.770  26.439  1.00  0.00     0.072 C 
ATOM      6  C   UNL     1      -3.073 -11.323  26.127  1.00  0.00     0.012 C 
ENDBRANCH   3   5
ENDBRANCH   1   3
BRANCH   1   7
ATOM      7  C   UNL     1      -5.566 -13.497  28.362  1.00  0.00     0.038 C 
BRANCH   7   8
ATOM      8  C   UNL     1      -6.332 -14.771  28.108  1.00  0.00    -0.034 C 
ATOM      9  C   UNL     1      -6.699 -15.563  29.117  1.00  0.00     0.004 C 
ENDBRANCH   7   8
ENDBRANCH   1   7
TORSDOF 4
ENDMDL
MODEL 4
REMARK VINA RESULT:    -4.654      1.886      2.851
REMARK INTER + INTRA:          -5.936
REMARK INTER:                  -5.677
REMARK INTRA:                  -0.259
REMARK UNBOUND:                -0.194
REMARK SMILES C=CC[C@H](C)C(=O)CC
REMARK SMILES IDX 4 1 5 2 6 3 7 4 8 5 9 6 3 7 2 8 1 9
REMARK H PARENT
REMARK Flexibility Score: inf
ROOT
ATOM      1  C   UNL     1      -3.993 -12.661  27.515  1.00  0.00     0.057 C 
ATOM      2  C   UNL     1      -3.945 -13.487  26.224  1.00  0.00     0.016 C 
ENDROOT
BRANCH   1   3
ATOM      3  C   UNL     1      -2.691 -12.795  28.283  1.00  0.00     0.135 C 
ATOM      4  O   UNL     1      -2.229 -11.810  28.842  1.00  0.00    -0.299 OA
BRANCH   3   5
ATOM      5  C   UNL     1      -1.932 -14.097  28.357  1.00  0.00     0.072 C 
ATOM      6  C   UNL     1      -0.474 -13.858  28.735  1.00  0.00     0.012 C 
ENDBRANCH   3   5
ENDBRANCH   1   3
BRANCH   1   7
ATOM      7  C   UNL     1      -5.213 -13.052  28.373  1.00  0.00     0.038 C 
BRANCH   7   8
ATOM      8  C   UNL     1      -5.752 -14.412  28.006  1.00  0.00    -0.034 C 
ATOM      9  C   UNL     1      -6.358 -15.177  28.916  1.00  0.00     0.004 C 
ENDBRANCH   7   8
ENDBRANCH   1   7
TORSDOF 4
ENDMDL
MODEL 5
REMARK VINA RESULT:    -4.625      1.647      3.349
REMARK INTER + INTRA:          -5.900
REMARK INTER:                  -5.490
REMARK INTRA:                  -0.410
REMARK UNBOUND:                -0.194
REMARK SMILES C=CC[C@H](C)C(=O)CC
REMARK SMILES IDX 4 1 5 2 6 3 7 4 8 5 9 6 3 7 2 8 1 9
REMARK H PARENT
REMARK Flexibility Score: inf
ROOT
ATOM      1  C   UNL     1      -4.511 -12.857  29.061  1.00  0.00     0.057 C 
ATOM      2  C   UNL     1      -4.557 -11.370  28.687  1.00  0.00     0.016 C 
ENDROOT
BRANCH   1   3
ATOM      3  C   UNL     1      -3.144 -13.230  29.603  1.00  0.00     0.135 C 
ATOM      4  O   UNL     1      -2.280 -13.605  28.824  1.00  0.00    -0.299 OA
BRANCH   3   5
ATOM      5  C   UNL     1      -2.824 -13.179  31.077  1.00  0.00     0.072 C 
ATOM      6  C   UNL     1      -4.063 -13.477  31.915  1.00  0.00     0.012 C 
ENDBRANCH   3   5
ENDBRANCH   1   3
BRANCH   1   7
ATOM      7  C   UNL     1      -4.917 -13.738  27.861  1.00  0.00     0.038 C 
BRANCH   7   8
ATOM      8  C   UNL     1      -6.160 -14.543  28.142  1.00  0.00    -0.034 C 
ATOM      9  C   UNL     1      -6.305 -15.200  29.295  1.00  0.00     0.004 C 
ENDBRANCH   7   8
ENDBRANCH   1   7
TORSDOF 4
ENDMDL
MODEL 6
REMARK VINA RESULT:    -4.574      1.771      4.010
REMARK INTER + INTRA:          -5.838
REMARK INTER:                  -5.624
REMARK INTRA:                  -0.213
REMARK UNBOUND:                -0.194
REMARK SMILES C=CC[C@H](C)C(=O)CC
REMARK SMILES IDX 4 1 5 2 6 3 7 4 8 5 9 6 3 7 2 8 1 9
REMARK H PARENT
REMARK Flexibility Score: inf
ROOT
ATOM      1  C   UNL     1      -4.673 -14.102  29.602  1.00  0.00     0.057 C 
ATOM      2  C   UNL     1      -5.640 -14.835  30.540  1.00  0.00     0.016 C 
ENDROOT
BRANCH   1   3
ATOM      3  C   UNL     1      -3.968 -12.976  30.337  1.00  0.00     0.135 C 
ATOM      4  O   UNL     1      -3.887 -11.880  29.802  1.00  0.00    -0.299 OA
BRANCH   3   5
ATOM      5  C   UNL     1      -3.340 -13.172  31.695  1.00  0.00     0.072 C 
ATOM      6  C   UNL     1      -1.825 -13.303  31.580  1.00  0.00     0.012 C 
ENDBRANCH   3   5
ENDBRANCH   1   3
BRANCH   1   7
ATOM      7  C   UNL     1      -5.405 -13.600  28.341  1.00  0.00     0.038 C 
BRANCH   7   8
ATOM      8  C   UNL     1      -4.817 -14.175  27.077  1.00  0.00    -0.034 C 
ATOM      9  C   UNL     1      -3.972 -13.463  26.329  1.00  0.00     0.004 C 
ENDBRANCH   7   8
ENDBRANCH   1   7
TORSDOF 4
ENDMDL
MODEL 7
REMARK VINA RESULT:    -4.554      2.097      3.402
REMARK INTER + INTRA:          -5.813
REMARK INTER:                  -5.352
REMARK INTRA:                  -0.461
REMARK UNBOUND:                -0.194
REMARK SMILES C=CC[C@H](C)C(=O)CC
REMARK SMILES IDX 4 1 5 2 6 3 7 4 8 5 9 6 3 7 2 8 1 9
REMARK H PARENT
REMARK Flexibility Score: inf
ROOT
ATOM      1  C   UNL     1      -3.712 -12.202  27.014  1.00  0.00     0.057 C 
ATOM      2  C   UNL     1      -3.087 -11.354  25.899  1.00  0.00     0.016 C 
ENDROOT
BRANCH   1   3
ATOM      3  C   UNL     1      -2.802 -12.241  28.228  1.00  0.00     0.135 C 
ATOM      4  O   UNL     1      -1.762 -12.881  28.168  1.00  0.00    -0.299 OA
BRANCH   3   5
ATOM      5  C   UNL     1      -3.152 -11.540  29.518  1.00  0.00     0.072 C 
ATOM      6  C   UNL     1      -4.454 -10.758  29.376  1.00  0.00     0.012 C 
ENDBRANCH   3   5
ENDBRANCH   1   3
BRANCH   1   7
ATOM      7  C   UNL     1      -4.054 -13.616  26.502  1.00  0.00     0.038 C 
BRANCH   7   8
ATOM      8  C   UNL     1      -4.760 -14.443  27.547  1.00  0.00    -0.034 C 
ATOM      9  C   UNL     1      -5.953 -14.078  28.019  1.00  0.00     0.004 C 
ENDBRANCH   7   8
ENDBRANCH   1   7
TORSDOF 4
ENDMDL
MODEL 8
REMARK VINA RESULT:    -4.501      1.829      4.340
REMARK INTER + INTRA:          -5.747
REMARK INTER:                  -5.524
REMARK INTRA:                  -0.224
REMARK UNBOUND:                -0.194
REMARK SMILES C=CC[C@H](C)C(=O)CC
REMARK SMILES IDX 4 1 5 2 6 3 7 4 8 5 9 6 3 7 2 8 1 9
REMARK H PARENT
REMARK Flexibility Score: inf
ROOT
ATOM      1  C   UNL     1      -3.681 -13.157  29.020  1.00  0.00     0.057 C 
ATOM      2  C   UNL     1      -2.553 -14.006  28.422  1.00  0.00     0.016 C 
ENDROOT
BRANCH   1   3
ATOM      3  C   UNL     1      -4.858 -14.031  29.411  1.00  0.00     0.135 C 
ATOM      4  O   UNL     1      -4.941 -14.433  30.563  1.00  0.00    -0.299 OA
BRANCH   3   5
ATOM      5  C   UNL     1      -5.916 -14.445  28.417  1.00  0.00     0.072 C 
ATOM      6  C   UNL     1      -6.813 -15.534  28.998  1.00  0.00     0.012 C 
ENDBRANCH   3   5
ENDBRANCH   1   3
BRANCH   1   7
ATOM      7  C   UNL     1      -4.094 -12.031  28.050  1.00  0.00     0.038 C 
BRANCH   7   8
ATOM      8  C   UNL     1      -2.987 -11.674  27.091  1.00  0.00    -0.034 C 
ATOM      9  C   UNL     1      -3.258 -11.325  25.831  1.00  0.00     0.004 C 
ENDBRANCH   7   8
ENDBRANCH   1   7
TORSDOF 4
ENDMDL
MODEL 9
REMARK VINA RESULT:    -4.453      1.941      3.015
REMARK INTER + INTRA:          -5.688
REMARK INTER:                  -5.468
REMARK INTRA:                  -0.220
REMARK UNBOUND:                -0.194
REMARK SMILES C=CC[C@H](C)C(=O)CC
REMARK SMILES IDX 4 1 5 2 6 3 7 4 8 5 9 6 3 7 2 8 1 9
REMARK H PARENT
REMARK Flexibility Score: inf
ROOT
ATOM      1  C   UNL     1      -3.714 -13.573  29.095  1.00  0.00     0.057 C 
ATOM      2  C   UNL     1      -3.764 -13.255  30.594  1.00  0.00     0.016 C 
ENDROOT
BRANCH   1   3
ATOM      3  C   UNL     1      -2.511 -12.910  28.449  1.00  0.00     0.135 C 
ATOM      4  O   UNL     1      -2.634 -12.413  27.338  1.00  0.00    -0.299 OA
BRANCH   3   5
ATOM      5  C   UNL     1      -1.160 -12.869  29.120  1.00  0.00     0.072 C 
ATOM      6  C   UNL     1      -0.319 -14.079  28.728  1.00  0.00     0.012 C 
ENDBRANCH   3   5
ENDBRANCH   1   3
BRANCH   1   7
ATOM      7  C   UNL     1      -5.034 -13.174  28.404  1.00  0.00     0.038 C 
BRANCH   7   8
ATOM      8  C   UNL     1      -5.807 -14.375  27.921  1.00  0.00    -0.034 C 
ATOM      9  C   UNL     1      -6.495 -15.136  28.775  1.00  0.00     0.004 C 
ENDBRANCH   7   8
ENDBRANCH   1   7
TORSDOF 4
ENDMDL
