MODEL 1
REMARK VINA RESULT:    -2.386      0.000      0.000
REMARK INTER + INTRA:          -2.672
REMARK INTER:                  -2.665
REMARK INTRA:                  -0.007
REMARK UNBOUND:                -0.007
REMARK SMILES CCCC(=O)[O-]
REMARK SMILES IDX 3 1 4 2 5 3 6 4 2 5 1 6
REMARK H PARENT
REMARK Flexibility Score: inf
ROOT
ATOM      1  C   UNL     1       2.585 108.538 181.863  1.00  0.00     0.052 C 
ENDROOT
BRANCH   1   2
ATOM      2  C   UNL     1       2.106 109.255 183.089  1.00  0.00     0.041 C 
ATOM      3  O   UNL     1       2.470 110.439 183.314  1.00  0.00    -0.550 OA
ATOM      4  O   UNL     1       1.284 108.602 183.999  1.00  0.00    -0.550 OA
ENDBRANCH   1   2
BRANCH   1   5
ATOM      5  C   UNL     1       3.611 107.451 182.207  1.00  0.00     0.003 C 
ATOM      6  C   UNL     1       3.698 106.371 181.129  1.00  0.00     0.004 C 
ENDBRANCH   1   5
TORSDOF 2
ENDMDL
MODEL 2
REMARK VINA RESULT:    -2.349      1.673      1.843
REMARK INTER + INTRA:          -2.631
REMARK INTER:                  -2.623
REMARK INTRA:                  -0.008
REMARK UNBOUND:                -0.007
REMARK SMILES CCCC(=O)[O-]
REMARK SMILES IDX 3 1 4 2 5 3 6 4 2 5 1 6
REMARK H PARENT
REMARK Flexibility Score: inf
ROOT
ATOM      1  C   UNL     1       3.791 108.353 183.112  1.00  0.00     0.052 C 
ENDROOT
BRANCH   1   2
ATOM      2  C   UNL     1       2.426 108.688 182.594  1.00  0.00     0.041 C 
ATOM      3  O   UNL     1       2.157 108.541 181.373  1.00  0.00    -0.550 OA
ATOM      4  O   UNL     1       1.460 109.193 183.456  1.00  0.00    -0.550 OA
ENDBRANCH   1   2
BRANCH   1   5
ATOM      5  C   UNL     1       4.357 107.093 182.447  1.00  0.00     0.003 C 
ATOM      6  C   UNL     1       5.664 106.631 183.092  1.00  0.00     0.004 C 
ENDBRANCH   1   5
TORSDOF 2
ENDMDL
MODEL 3
REMARK VINA RESULT:    -2.340      0.256      1.343
REMARK INTER + INTRA:          -2.621
REMARK INTER:                  -2.613
REMARK INTRA:                  -0.008
REMARK UNBOUND:                -0.007
REMARK SMILES CCCC(=O)[O-]
REMARK SMILES IDX 3 1 4 2 5 3 6 4 2 5 1 6
REMARK H PARENT
REMARK Flexibility Score: inf
ROOT
ATOM      1  C   UNL     1       2.708 108.484 181.743  1.00  0.00     0.052 C 
ENDROOT
BRANCH   1   2
ATOM      2  C   UNL     1       2.269 109.268 182.943  1.00  0.00     0.041 C 
ATOM      3  O   UNL     1       1.400 108.800 183.724  1.00  0.00    -0.550 OA
ATOM      4  O   UNL     1       2.799 110.531 183.179  1.00  0.00    -0.550 OA
ENDBRANCH   1   2
BRANCH   1   5
ATOM      5  C   UNL     1       3.615 107.312 182.133  1.00  0.00     0.003 C 
ATOM      6  C   UNL     1       3.686 106.243 181.042  1.00  0.00     0.004 C 
ENDBRANCH   1   5
TORSDOF 2
ENDMDL
MODEL 4
REMARK VINA RESULT:    -2.255      2.622      3.547
REMARK INTER + INTRA:          -2.526
REMARK INTER:                  -2.496
REMARK INTRA:                  -0.030
REMARK UNBOUND:                -0.007
REMARK SMILES CCCC(=O)[O-]
REMARK SMILES IDX 3 1 4 2 5 3 6 4 2 5 1 6
REMARK H PARENT
REMARK Flexibility Score: inf
ROOT
ATOM      1  C   UNL     1       3.893 108.559 182.979  1.00  0.00     0.052 C 
ENDROOT
BRANCH   1   2
ATOM      2  C   UNL     1       4.364 107.190 182.591  1.00  0.00     0.041 C 
ATOM      3  O   UNL     1       3.730 106.521 181.734  1.00  0.00    -0.550 OA
ATOM      4  O   UNL     1       5.486 106.642 183.201  1.00  0.00    -0.550 OA
ENDBRANCH   1   2
BRANCH   1   5
ATOM      5  C   UNL     1       2.512 108.871 182.391  1.00  0.00     0.003 C 
ATOM      6  C   UNL     1       1.465 109.131 183.473  1.00  0.00     0.004 C 
ENDBRANCH   1   5
TORSDOF 2
ENDMDL
MODEL 5
REMARK VINA RESULT:    -2.230      2.533      3.395
REMARK INTER + INTRA:          -2.498
REMARK INTER:                  -2.459
REMARK INTRA:                  -0.039
REMARK UNBOUND:                -0.007
REMARK SMILES CCCC(=O)[O-]
REMARK SMILES IDX 3 1 4 2 5 3 6 4 2 5 1 6
REMARK H PARENT
REMARK Flexibility Score: inf
ROOT
ATOM      1  C   UNL     1       2.714 108.199 181.365  1.00  0.00     0.052 C 
ENDROOT
BRANCH   1   2
ATOM      2  C   UNL     1       3.628 107.051 181.668  1.00  0.00     0.041 C 
ATOM      3  O   UNL     1       4.423 107.113 182.642  1.00  0.00    -0.550 OA
ATOM      4  O   UNL     1       3.624 105.925 180.853  1.00  0.00    -0.550 OA
ENDBRANCH   1   2
BRANCH   1   5
ATOM      5  C   UNL     1       2.767 109.270 182.460  1.00  0.00     0.003 C 
ATOM      6  C   UNL     1       1.579 109.182 183.418  1.00  0.00     0.004 C 
ENDBRANCH   1   5
TORSDOF 2
ENDMDL
MODEL 6
REMARK VINA RESULT:    -2.185      2.665      3.401
REMARK INTER + INTRA:          -2.448
REMARK INTER:                  -2.407
REMARK INTRA:                  -0.041
REMARK UNBOUND:                -0.007
REMARK SMILES CCCC(=O)[O-]
REMARK SMILES IDX 3 1 4 2 5 3 6 4 2 5 1 6
REMARK H PARENT
REMARK Flexibility Score: inf
ROOT
ATOM      1  C   UNL     1       2.836 108.829 181.287  1.00  0.00     0.052 C 
ENDROOT
BRANCH   1   2
ATOM      2  C   UNL     1       2.109 107.859 180.407  1.00  0.00     0.041 C 
ATOM      3  O   UNL     1       0.917 108.079 180.068  1.00  0.00    -0.550 OA
ATOM      4  O   UNL     1       2.741 106.694 179.987  1.00  0.00    -0.550 OA
ENDBRANCH   1   2
BRANCH   1   5
ATOM      5  C   UNL     1       2.745 108.431 182.765  1.00  0.00     0.003 C 
ATOM      6  C   UNL     1       1.551 109.075 183.469  1.00  0.00     0.004 C 
ENDBRANCH   1   5
TORSDOF 2
ENDMDL
MODEL 7
REMARK VINA RESULT:    -2.181      2.088      3.157
REMARK INTER + INTRA:          -2.443
REMARK INTER:                  -2.401
REMARK INTRA:                  -0.042
REMARK UNBOUND:                -0.007
REMARK SMILES CCCC(=O)[O-]
REMARK SMILES IDX 3 1 4 2 5 3 6 4 2 5 1 6
REMARK H PARENT
REMARK Flexibility Score: inf
ROOT
ATOM      1  C   UNL     1       3.712 109.440 182.866  1.00  0.00     0.052 C 
ENDROOT
BRANCH   1   2
ATOM      2  C   UNL     1       2.312 108.983 182.592  1.00  0.00     0.041 C 
ATOM      3  O   UNL     1       2.001 108.537 181.457  1.00  0.00    -0.550 OA
ATOM      4  O   UNL     1       1.342 109.081 183.583  1.00  0.00    -0.550 OA
ENDBRANCH   1   2
BRANCH   1   5
ATOM      5  C   UNL     1       3.911 110.913 182.493  1.00  0.00     0.003 C 
ATOM      6  C   UNL     1       3.618 111.854 183.661  1.00  0.00     0.004 C 
ENDBRANCH   1   5
TORSDOF 2
ENDMDL
MODEL 8
REMARK VINA RESULT:    -2.145      3.463      4.951
REMARK INTER + INTRA:          -2.403
REMARK INTER:                  -2.365
REMARK INTRA:                  -0.038
REMARK UNBOUND:                -0.007
REMARK SMILES CCCC(=O)[O-]
REMARK SMILES IDX 3 1 4 2 5 3 6 4 2 5 1 6
REMARK H PARENT
REMARK Flexibility Score: inf
ROOT
ATOM      1  C   UNL     1       4.442 112.338 183.338  1.00  0.00     0.052 C 
ENDROOT
BRANCH   1   2
ATOM      2  C   UNL     1       4.193 110.866 183.217  1.00  0.00     0.041 C 
ATOM      3  O   UNL     1       3.049 110.438 182.915  1.00  0.00    -0.550 OA
ATOM      4  O   UNL     1       5.220 109.964 183.471  1.00  0.00    -0.550 OA
ENDBRANCH   1   2
BRANCH   1   5
ATOM      5  C   UNL     1       4.122 112.854 184.746  1.00  0.00     0.003 C 
ATOM      6  C   UNL     1       2.764 113.552 184.815  1.00  0.00     0.004 C 
ENDBRANCH   1   5
TORSDOF 2
ENDMDL
MODEL 9
REMARK VINA RESULT:    -2.132      2.680      3.549
REMARK INTER + INTRA:          -2.388
REMARK INTER:                  -2.379
REMARK INTRA:                  -0.009
REMARK UNBOUND:                -0.007
REMARK SMILES CCCC(=O)[O-]
REMARK SMILES IDX 3 1 4 2 5 3 6 4 2 5 1 6
REMARK H PARENT
REMARK Flexibility Score: inf
ROOT
ATOM      1  C   UNL     1       4.113 105.869 180.283  1.00  0.00     0.052 C 
ENDROOT
BRANCH   1   2
ATOM      2  C   UNL     1       3.873 106.802 181.430  1.00  0.00     0.041 C 
ATOM      3  O   UNL     1       4.539 106.687 182.493  1.00  0.00    -0.550 OA
ATOM      4  O   UNL     1       2.890 107.780 181.337  1.00  0.00    -0.550 OA
ENDBRANCH   1   2
BRANCH   1   5
ATOM      5  C   UNL     1       2.847 105.088 179.913  1.00  0.00     0.003 C 
ATOM      6  C   UNL     1       2.870 104.594 178.467  1.00  0.00     0.004 C 
ENDBRANCH   1   5
TORSDOF 2
ENDMDL
