MODEL 1
REMARK VINA RESULT:    -3.301      0.000      0.000
REMARK INTER + INTRA:          -8.118
REMARK INTER:                  -6.003
REMARK INTRA:                  -2.115
REMARK UNBOUND:                -2.115
REMARK SMILES CCCCCCCCCCCCCC[C@H](C)C(=O)[O-]
REMARK SMILES IDX 9 1 10 2 11 3 12 4 13 5 14 6 15 7 16 8 17 9 18 10 19 11 8 12
REMARK SMILES IDX 7 13 6 14 5 15 4 16 3 17 2 18 1 19
REMARK H PARENT
REMARK Flexibility Score: inf
ROOT
ATOM      1  C   UNL     1     -13.084 -20.764  18.606  1.00  0.00     0.000 C 
ENDROOT
BRANCH   1   2
ATOM      2  C   UNL     1     -13.204 -19.365  19.236  1.00  0.00     0.000 C 
BRANCH   2   3
ATOM      3  C   UNL     1     -12.000 -18.998  20.120  1.00  0.00     0.000 C 
BRANCH   3   4
ATOM      4  C   UNL     1     -10.653 -19.314  19.436  1.00  0.00     0.000 C 
BRANCH   4   5
ATOM      5  C   UNL     1      -9.477 -19.463  20.421  1.00  0.00     0.001 C 
BRANCH   5   6
ATOM      6  C   UNL     1      -8.078 -19.396  19.778  1.00  0.00     0.009 C 
BRANCH   6   7
ATOM      7  C   UNL     1      -7.092 -18.459  20.509  1.00  0.00     0.032 C 
ATOM      8  C   UNL     1      -6.553 -17.395  19.548  1.00  0.00     0.014 C 
BRANCH   7   9
ATOM      9  C   UNL     1      -5.946 -19.229  21.107  1.00  0.00     0.044 C 
ATOM     10  O   UNL     1      -5.737 -19.190  22.348  1.00  0.00    -0.550 OA
ATOM     11  O   UNL     1      -5.113 -19.992  20.298  1.00  0.00    -0.550 OA
ENDBRANCH   7   9
ENDBRANCH   6   7
ENDBRANCH   5   6
ENDBRANCH   4   5
ENDBRANCH   3   4
ENDBRANCH   2   3
ENDBRANCH   1   2
BRANCH   1  12
ATOM     12  C   UNL     1     -13.766 -21.898  19.392  1.00  0.00     0.000 C 
BRANCH  12  13
ATOM     13  C   UNL     1     -12.970 -23.213  19.359  1.00  0.00    -0.000 C 
BRANCH  13  14
ATOM     14  C   UNL     1     -11.467 -23.010  19.619  1.00  0.00    -0.000 C 
BRANCH  14  15
ATOM     15  C   UNL     1     -11.096 -22.619  21.063  1.00  0.00    -0.000 C 
BRANCH  15  16
ATOM     16  C   UNL     1     -11.859 -23.381  22.164  1.00  0.00    -0.000 C 
BRANCH  16  17
ATOM     17  C   UNL     1     -12.277 -22.525  23.377  1.00  0.00    -0.000 C 
BRANCH  17  18
ATOM     18  C   UNL     1     -12.521 -21.039  23.066  1.00  0.00    -0.003 C 
ATOM     19  C   UNL     1     -13.999 -20.707  22.864  1.00  0.00     0.004 C 
ENDBRANCH  17  18
ENDBRANCH  16  17
ENDBRANCH  15  16
ENDBRANCH  14  15
ENDBRANCH  13  14
ENDBRANCH  12  13
ENDBRANCH   1  12
TORSDOF 14
ENDMDL
MODEL 2
REMARK VINA RESULT:    -3.235     10.282     12.135
REMARK INTER + INTRA:          -7.998
REMARK INTER:                  -6.165
REMARK INTRA:                  -1.833
REMARK UNBOUND:                -2.115
REMARK SMILES CCCCCCCCCCCCCC[C@H](C)C(=O)[O-]
REMARK SMILES IDX 9 1 10 2 11 3 12 4 13 5 14 6 15 7 16 8 17 9 18 10 19 11 8 12
REMARK SMILES IDX 7 13 6 14 5 15 4 16 3 17 2 18 1 19
REMARK H PARENT
REMARK Flexibility Score: inf
ROOT
ATOM      1  C   UNL     1     -15.529 -13.821  28.497  1.00  0.00     0.000 C 
ENDROOT
BRANCH   1   2
ATOM      2  C   UNL     1     -16.207 -15.113  28.990  1.00  0.00     0.000 C 
BRANCH   2   3
ATOM      3  C   UNL     1     -16.260 -16.213  27.917  1.00  0.00     0.000 C 
BRANCH   3   4
ATOM      4  C   UNL     1     -15.663 -15.748  26.571  1.00  0.00     0.000 C 
BRANCH   4   5
ATOM      5  C   UNL     1     -16.725 -15.408  25.508  1.00  0.00     0.001 C 
BRANCH   5   6
ATOM      6  C   UNL     1     -16.732 -13.939  25.042  1.00  0.00     0.009 C 
BRANCH   6   7
ATOM      7  C   UNL     1     -18.007 -13.160  25.431  1.00  0.00     0.032 C 
ATOM      8  C   UNL     1     -18.872 -13.990  26.383  1.00  0.00     0.014 C 
BRANCH   7   9
ATOM      9  C   UNL     1     -18.810 -12.783  24.215  1.00  0.00     0.044 C 
ATOM     10  O   UNL     1     -18.660 -11.650  23.685  1.00  0.00    -0.550 OA
ATOM     11  O   UNL     1     -19.718 -13.680  23.665  1.00  0.00    -0.550 OA
ENDBRANCH   7   9
ENDBRANCH   6   7
ENDBRANCH   5   6
ENDBRANCH   4   5
ENDBRANCH   3   4
ENDBRANCH   2   3
ENDBRANCH   1   2
BRANCH   1  12
ATOM     12  C   UNL     1     -14.741 -13.044  29.566  1.00  0.00     0.000 C 
BRANCH  12  13
ATOM     13  C   UNL     1     -13.551 -13.839  30.130  1.00  0.00    -0.000 C 
BRANCH  13  14
ATOM     14  C   UNL     1     -12.537 -14.248  29.046  1.00  0.00    -0.000 C 
BRANCH  14  15
ATOM     15  C   UNL     1     -12.558 -15.739  28.654  1.00  0.00    -0.000 C 
BRANCH  15  16
ATOM     16  C   UNL     1     -12.614 -16.726  29.836  1.00  0.00    -0.000 C 
BRANCH  16  17
ATOM     17  C   UNL     1     -11.323 -17.537  30.068  1.00  0.00    -0.000 C 
BRANCH  17  18
ATOM     18  C   UNL     1     -10.115 -16.708  30.536  1.00  0.00    -0.003 C 
ATOM     19  C   UNL     1     -10.005 -16.620  32.058  1.00  0.00     0.004 C 
ENDBRANCH  17  18
ENDBRANCH  16  17
ENDBRANCH  15  16
ENDBRANCH  14  15
ENDBRANCH  13  14
ENDBRANCH  12  13
ENDBRANCH   1  12
TORSDOF 14
ENDMDL
MODEL 3
REMARK VINA RESULT:    -3.227      4.657      7.399
REMARK INTER + INTRA:          -7.983
REMARK INTER:                  -5.141
REMARK INTRA:                  -2.842
REMARK UNBOUND:                -2.115
REMARK SMILES CCCCCCCCCCCCCC[C@H](C)C(=O)[O-]
REMARK SMILES IDX 9 1 10 2 11 3 12 4 13 5 14 6 15 7 16 8 17 9 18 10 19 11 8 12
REMARK SMILES IDX 7 13 6 14 5 15 4 16 3 17 2 18 1 19
REMARK H PARENT
REMARK Flexibility Score: inf
ROOT
ATOM      1  C   UNL     1     -11.887 -23.531  23.401  1.00  0.00     0.000 C 
ENDROOT
BRANCH   1   2
ATOM      2  C   UNL     1     -12.617 -22.360  24.085  1.00  0.00     0.000 C 
BRANCH   2   3
ATOM      3  C   UNL     1     -12.591 -21.067  23.252  1.00  0.00     0.000 C 
BRANCH   3   4
ATOM      4  C   UNL     1     -14.005 -20.620  22.822  1.00  0.00     0.000 C 
BRANCH   4   5
ATOM      5  C   UNL     1     -14.480 -21.255  21.501  1.00  0.00     0.001 C 
BRANCH   5   6
ATOM      6  C   UNL     1     -15.657 -22.240  21.640  1.00  0.00     0.009 C 
BRANCH   6   7
ATOM      7  C   UNL     1     -16.222 -22.349  23.073  1.00  0.00     0.032 C 
ATOM      8  C   UNL     1     -16.326 -23.818  23.496  1.00  0.00     0.014 C 
BRANCH   7   9
ATOM      9  C   UNL     1     -17.572 -21.693  23.182  1.00  0.00     0.044 C 
ATOM     10  O   UNL     1     -17.712 -20.645  23.865  1.00  0.00    -0.550 OA
ATOM     11  O   UNL     1     -18.671 -22.234  22.526  1.00  0.00    -0.550 OA
ENDBRANCH   7   9
ENDBRANCH   6   7
ENDBRANCH   5   6
ENDBRANCH   4   5
ENDBRANCH   3   4
ENDBRANCH   2   3
ENDBRANCH   1   2
BRANCH   1  12
ATOM     12  C   UNL     1     -12.771 -24.428  22.516  1.00  0.00     0.000 C 
BRANCH  12  13
ATOM     13  C   UNL     1     -12.479 -24.264  21.015  1.00  0.00    -0.000 C 
BRANCH  13  14
ATOM     14  C   UNL     1     -11.182 -23.482  20.740  1.00  0.00    -0.000 C 
BRANCH  14  15
ATOM     15  C   UNL     1     -11.353 -22.197  19.905  1.00  0.00    -0.000 C 
BRANCH  15  16
ATOM     16  C   UNL     1     -10.460 -21.015  20.331  1.00  0.00    -0.000 C 
BRANCH  16  17
ATOM     17  C   UNL     1     -10.758 -19.683  19.614  1.00  0.00    -0.000 C 
BRANCH  17  18
ATOM     18  C   UNL     1     -11.956 -18.900  20.176  1.00  0.00    -0.003 C 
ATOM     19  C   UNL     1     -12.940 -18.457  19.094  1.00  0.00     0.004 C 
ENDBRANCH  17  18
ENDBRANCH  16  17
ENDBRANCH  15  16
ENDBRANCH  14  15
ENDBRANCH  13  14
ENDBRANCH  12  13
ENDBRANCH   1  12
TORSDOF 14
ENDMDL
MODEL 4
REMARK VINA RESULT:    -3.218      9.364     10.776
REMARK INTER + INTRA:          -7.966
REMARK INTER:                  -6.097
REMARK INTRA:                  -1.869
REMARK UNBOUND:                -2.115
REMARK SMILES CCCCCCCCCCCCCC[C@H](C)C(=O)[O-]
REMARK SMILES IDX 9 1 10 2 11 3 12 4 13 5 14 6 15 7 16 8 17 9 18 10 19 11 8 12
REMARK SMILES IDX 7 13 6 14 5 15 4 16 3 17 2 18 1 19
REMARK H PARENT
REMARK Flexibility Score: inf
ROOT
ATOM      1  C   UNL     1     -16.550 -14.068  25.470  1.00  0.00     0.000 C 
ENDROOT
BRANCH   1   2
ATOM      2  C   UNL     1     -16.045 -14.582  26.831  1.00  0.00     0.000 C 
BRANCH   2   3
ATOM      3  C   UNL     1     -15.320 -15.935  26.732  1.00  0.00     0.000 C 
BRANCH   3   4
ATOM      4  C   UNL     1     -15.704 -16.891  27.881  1.00  0.00     0.000 C 
BRANCH   4   5
ATOM      5  C   UNL     1     -15.743 -16.213  29.264  1.00  0.00     0.001 C 
BRANCH   5   6
ATOM      6  C   UNL     1     -14.900 -16.907  30.352  1.00  0.00     0.009 C 
BRANCH   6   7
ATOM      7  C   UNL     1     -13.556 -16.205  30.653  1.00  0.00     0.032 C 
ATOM      8  C   UNL     1     -13.674 -14.698  30.410  1.00  0.00     0.014 C 
BRANCH   7   9
ATOM      9  C   UNL     1     -12.444 -16.770  29.811  1.00  0.00     0.044 C 
ATOM     10  O   UNL     1     -11.837 -17.809  30.180  1.00  0.00    -0.550 OA
ATOM     11  O   UNL     1     -12.081 -16.152  28.620  1.00  0.00    -0.550 OA
ENDBRANCH   7   9
ENDBRANCH   6   7
ENDBRANCH   5   6
ENDBRANCH   4   5
ENDBRANCH   3   4
ENDBRANCH   2   3
ENDBRANCH   1   2
BRANCH   1  12
ATOM     12  C   UNL     1     -17.733 -13.086  25.538  1.00  0.00     0.000 C 
BRANCH  12  13
ATOM     13  C   UNL     1     -18.261 -12.687  24.150  1.00  0.00    -0.000 C 
BRANCH  13  14
ATOM     14  C   UNL     1     -17.579 -13.457  23.005  1.00  0.00    -0.000 C 
BRANCH  14  15
ATOM     15  C   UNL     1     -18.525 -13.961  21.897  1.00  0.00    -0.000 C 
BRANCH  15  16
ATOM     16  C   UNL     1     -19.339 -15.220  22.254  1.00  0.00    -0.000 C 
BRANCH  16  17
ATOM     17  C   UNL     1     -18.607 -16.236  23.154  1.00  0.00    -0.000 C 
BRANCH  17  18
ATOM     18  C   UNL     1     -19.262 -16.475  24.524  1.00  0.00    -0.003 C 
ATOM     19  C   UNL     1     -18.458 -17.425  25.412  1.00  0.00     0.004 C 
ENDBRANCH  17  18
ENDBRANCH  16  17
ENDBRANCH  15  16
ENDBRANCH  14  15
ENDBRANCH  13  14
ENDBRANCH  12  13
ENDBRANCH   1  12
TORSDOF 14
ENDMDL
MODEL 5
REMARK VINA RESULT:    -3.216      9.651     11.648
REMARK INTER + INTRA:          -7.963
REMARK INTER:                  -5.316
REMARK INTRA:                  -2.648
REMARK UNBOUND:                -2.115
REMARK SMILES CCCCCCCCCCCCCC[C@H](C)C(=O)[O-]
REMARK SMILES IDX 9 1 10 2 11 3 12 4 13 5 14 6 15 7 16 8 17 9 18 10 19 11 8 12
REMARK SMILES IDX 7 13 6 14 5 15 4 16 3 17 2 18 1 19
REMARK H PARENT
REMARK Flexibility Score: inf
ROOT
ATOM      1  C   UNL     1     -16.575 -14.378  27.766  1.00  0.00     0.000 C 
ENDROOT
BRANCH   1   2
ATOM      2  C   UNL     1     -15.519 -14.855  26.751  1.00  0.00     0.000 C 
BRANCH   2   3
ATOM      3  C   UNL     1     -15.833 -16.240  26.162  1.00  0.00     0.000 C 
BRANCH   3   4
ATOM      4  C   UNL     1     -17.167 -16.813  26.689  1.00  0.00     0.000 C 
BRANCH   4   5
ATOM      5  C   UNL     1     -18.219 -17.045  25.588  1.00  0.00     0.001 C 
BRANCH   5   6
ATOM      6  C   UNL     1     -17.911 -16.364  24.240  1.00  0.00     0.009 C 
BRANCH   6   7
ATOM      7  C   UNL     1     -18.873 -15.211  23.881  1.00  0.00     0.032 C 
ATOM      8  C   UNL     1     -18.945 -15.027  22.363  1.00  0.00     0.014 C 
BRANCH   7   9
ATOM      9  C   UNL     1     -18.447 -13.921  24.529  1.00  0.00     0.044 C 
ATOM     10  O   UNL     1     -19.178 -13.379  25.400  1.00  0.00    -0.550 OA
ATOM     11  O   UNL     1     -17.245 -13.321  24.175  1.00  0.00    -0.550 OA
ENDBRANCH   7   9
ENDBRANCH   6   7
ENDBRANCH   5   6
ENDBRANCH   4   5
ENDBRANCH   3   4
ENDBRANCH   2   3
ENDBRANCH   1   2
BRANCH   1  12
ATOM     12  C   UNL     1     -16.016 -13.636  28.993  1.00  0.00     0.000 C 
BRANCH  12  13
ATOM     13  C   UNL     1     -16.072 -14.478  30.279  1.00  0.00    -0.000 C 
BRANCH  13  14
ATOM     14  C   UNL     1     -16.729 -15.853  30.067  1.00  0.00    -0.000 C 
BRANCH  14  15
ATOM     15  C   UNL     1     -15.865 -17.065  30.469  1.00  0.00    -0.000 C 
BRANCH  15  16
ATOM     16  C   UNL     1     -14.766 -17.449  29.459  1.00  0.00    -0.000 C 
BRANCH  16  17
ATOM     17  C   UNL     1     -13.350 -16.955  29.818  1.00  0.00    -0.000 C 
BRANCH  17  18
ATOM     18  C   UNL     1     -12.698 -16.044  28.764  1.00  0.00    -0.003 C 
ATOM     19  C   UNL     1     -12.413 -14.636  29.288  1.00  0.00     0.004 C 
ENDBRANCH  17  18
ENDBRANCH  16  17
ENDBRANCH  15  16
ENDBRANCH  14  15
ENDBRANCH  13  14
ENDBRANCH  12  13
ENDBRANCH   1  12
TORSDOF 14
ENDMDL
MODEL 6
REMARK VINA RESULT:    -3.210      9.484     11.492
REMARK INTER + INTRA:          -7.953
REMARK INTER:                  -5.336
REMARK INTRA:                  -2.617
REMARK UNBOUND:                -2.115
REMARK SMILES CCCCCCCCCCCCCC[C@H](C)C(=O)[O-]
REMARK SMILES IDX 9 1 10 2 11 3 12 4 13 5 14 6 15 7 16 8 17 9 18 10 19 11 8 12
REMARK SMILES IDX 7 13 6 14 5 15 4 16 3 17 2 18 1 19
REMARK H PARENT
REMARK Flexibility Score: inf
ROOT
ATOM      1  C   UNL     1     -19.006 -15.551  27.712  1.00  0.00     0.000 C 
ENDROOT
BRANCH   1   2
ATOM      2  C   UNL     1     -18.998 -16.227  26.328  1.00  0.00     0.000 C 
BRANCH   2   3
ATOM      3  C   UNL     1     -17.761 -17.111  26.098  1.00  0.00     0.000 C 
BRANCH   3   4
ATOM      4  C   UNL     1     -16.548 -16.302  25.590  1.00  0.00     0.000 C 
BRANCH   4   5
ATOM      5  C   UNL     1     -15.380 -16.242  26.593  1.00  0.00     0.001 C 
BRANCH   5   6
ATOM      6  C   UNL     1     -15.679 -16.852  27.976  1.00  0.00     0.009 C 
BRANCH   6   7
ATOM      7  C   UNL     1     -15.122 -16.032  29.161  1.00  0.00     0.032 C 
ATOM      8  C   UNL     1     -14.209 -14.912  28.654  1.00  0.00     0.014 C 
BRANCH   7   9
ATOM      9  C   UNL     1     -14.366 -16.907  30.124  1.00  0.00     0.044 C 
ATOM     10  O   UNL     1     -14.629 -16.867  31.355  1.00  0.00    -0.550 OA
ATOM     11  O   UNL     1     -13.376 -17.767  29.664  1.00  0.00    -0.550 OA
ENDBRANCH   7   9
ENDBRANCH   6   7
ENDBRANCH   5   6
ENDBRANCH   4   5
ENDBRANCH   3   4
ENDBRANCH   2   3
ENDBRANCH   1   2
BRANCH   1  12
ATOM     12  C   UNL     1     -19.012 -14.012  27.689  1.00  0.00     0.000 C 
BRANCH  12  13
ATOM     13  C   UNL     1     -17.648 -13.402  28.053  1.00  0.00    -0.000 C 
BRANCH  13  14
ATOM     14  C   UNL     1     -16.929 -12.779  26.843  1.00  0.00    -0.000 C 
BRANCH  14  15
ATOM     15  C   UNL     1     -17.844 -12.371  25.671  1.00  0.00    -0.000 C 
BRANCH  15  16
ATOM     16  C   UNL     1     -17.584 -13.116  24.348  1.00  0.00    -0.000 C 
BRANCH  16  17
ATOM     17  C   UNL     1     -18.844 -13.678  23.659  1.00  0.00    -0.000 C 
BRANCH  17  18
ATOM     18  C   UNL     1     -18.568 -14.614  22.470  1.00  0.00    -0.003 C 
ATOM     19  C   UNL     1     -18.651 -13.904  21.119  1.00  0.00     0.004 C 
ENDBRANCH  17  18
ENDBRANCH  16  17
ENDBRANCH  15  16
ENDBRANCH  14  15
ENDBRANCH  13  14
ENDBRANCH  12  13
ENDBRANCH   1  12
TORSDOF 14
ENDMDL
MODEL 7
REMARK VINA RESULT:    -3.184      3.822      5.197
REMARK INTER + INTRA:          -7.904
REMARK INTER:                  -5.375
REMARK INTRA:                  -2.529
REMARK UNBOUND:                -2.115
REMARK SMILES CCCCCCCCCCCCCC[C@H](C)C(=O)[O-]
REMARK SMILES IDX 9 1 10 2 11 3 12 4 13 5 14 6 15 7 16 8 17 9 18 10 19 11 8 12
REMARK SMILES IDX 7 13 6 14 5 15 4 16 3 17 2 18 1 19
REMARK H PARENT
REMARK Flexibility Score: inf
ROOT
ATOM      1  C   UNL     1     -11.331 -23.137  19.965  1.00  0.00     0.000 C 
ENDROOT
BRANCH   1   2
ATOM      2  C   UNL     1     -10.777 -21.899  20.695  1.00  0.00     0.000 C 
BRANCH   2   3
ATOM      3  C   UNL     1     -10.096 -20.897  19.748  1.00  0.00     0.000 C 
BRANCH   3   4
ATOM      4  C   UNL     1     -10.446 -19.433  20.094  1.00  0.00     0.000 C 
BRANCH   4   5
ATOM      5  C   UNL     1     -11.953 -19.191  20.306  1.00  0.00     0.001 C 
BRANCH   5   6
ATOM      6  C   UNL     1     -12.595 -18.190  19.326  1.00  0.00     0.009 C 
BRANCH   6   7
ATOM      7  C   UNL     1     -13.650 -18.815  18.386  1.00  0.00     0.032 C 
ATOM      8  C   UNL     1     -13.064 -20.026  17.655  1.00  0.00     0.014 C 
BRANCH   7   9
ATOM      9  C   UNL     1     -14.153 -17.812  17.384  1.00  0.00     0.044 C 
ATOM     10  O   UNL     1     -14.411 -16.633  17.745  1.00  0.00    -0.550 OA
ATOM     11  O   UNL     1     -14.332 -18.175  16.055  1.00  0.00    -0.550 OA
ENDBRANCH   7   9
ENDBRANCH   6   7
ENDBRANCH   5   6
ENDBRANCH   4   5
ENDBRANCH   3   4
ENDBRANCH   2   3
ENDBRANCH   1   2
BRANCH   1  12
ATOM     12  C   UNL     1     -12.070 -24.149  20.858  1.00  0.00     0.000 C 
BRANCH  12  13
ATOM     13  C   UNL     1     -13.600 -24.031  20.758  1.00  0.00    -0.000 C 
BRANCH  13  14
ATOM     14  C   UNL     1     -14.053 -22.874  19.850  1.00  0.00    -0.000 C 
BRANCH  14  15
ATOM     15  C   UNL     1     -14.783 -21.721  20.569  1.00  0.00    -0.000 C 
BRANCH  15  16
ATOM     16  C   UNL     1     -14.846 -21.842  22.104  1.00  0.00    -0.000 C 
BRANCH  16  17
ATOM     17  C   UNL     1     -14.039 -20.778  22.875  1.00  0.00    -0.000 C 
BRANCH  17  18
ATOM     18  C   UNL     1     -12.659 -21.245  23.368  1.00  0.00    -0.003 C 
ATOM     19  C   UNL     1     -12.724 -22.532  24.190  1.00  0.00     0.004 C 
ENDBRANCH  17  18
ENDBRANCH  16  17
ENDBRANCH  15  16
ENDBRANCH  14  15
ENDBRANCH  13  14
ENDBRANCH  12  13
ENDBRANCH   1  12
TORSDOF 14
ENDMDL
MODEL 8
REMARK VINA RESULT:    -3.164      9.290     10.967
REMARK INTER + INTRA:          -7.868
REMARK INTER:                  -5.976
REMARK INTRA:                  -1.892
REMARK UNBOUND:                -2.115
REMARK SMILES CCCCCCCCCCCCCC[C@H](C)C(=O)[O-]
REMARK SMILES IDX 9 1 10 2 11 3 12 4 13 5 14 6 15 7 16 8 17 9 18 10 19 11 8 12
REMARK SMILES IDX 7 13 6 14 5 15 4 16 3 17 2 18 1 19
REMARK H PARENT
REMARK Flexibility Score: inf
ROOT
ATOM      1  C   UNL     1     -15.957 -14.785  26.387  1.00  0.00     0.000 C 
ENDROOT
BRANCH   1   2
ATOM      2  C   UNL     1     -15.609 -16.177  26.944  1.00  0.00     0.000 C 
BRANCH   2   3
ATOM      3  C   UNL     1     -16.558 -16.631  28.067  1.00  0.00     0.000 C 
BRANCH   3   4
ATOM      4  C   UNL     1     -15.819 -17.392  29.187  1.00  0.00     0.000 C 
BRANCH   4   5
ATOM      5  C   UNL     1     -14.294 -17.470  28.981  1.00  0.00     0.001 C 
BRANCH   5   6
ATOM      6  C   UNL     1     -13.472 -16.469  29.816  1.00  0.00     0.009 C 
BRANCH   6   7
ATOM      7  C   UNL     1     -12.383 -15.723  29.014  1.00  0.00     0.032 C 
ATOM      8  C   UNL     1     -11.004 -15.963  29.634  1.00  0.00     0.014 C 
BRANCH   7   9
ATOM      9  C   UNL     1     -12.663 -14.245  28.955  1.00  0.00     0.044 C 
ATOM     10  O   UNL     1     -13.838 -13.818  29.104  1.00  0.00    -0.550 OA
ATOM     11  O   UNL     1     -11.629 -13.342  28.739  1.00  0.00    -0.550 OA
ENDBRANCH   7   9
ENDBRANCH   6   7
ENDBRANCH   5   6
ENDBRANCH   4   5
ENDBRANCH   3   4
ENDBRANCH   2   3
ENDBRANCH   1   2
BRANCH   1  12
ATOM     12  C   UNL     1     -16.723 -13.864  27.354  1.00  0.00     0.000 C 
BRANCH  12  13
ATOM     13  C   UNL     1     -17.981 -13.246  26.723  1.00  0.00    -0.000 C 
BRANCH  13  14
ATOM     14  C   UNL     1     -17.668 -12.367  25.499  1.00  0.00    -0.000 C 
BRANCH  14  15
ATOM     15  C   UNL     1     -18.460 -12.711  24.222  1.00  0.00    -0.000 C 
BRANCH  15  16
ATOM     16  C   UNL     1     -17.670 -13.485  23.150  1.00  0.00    -0.000 C 
BRANCH  16  17
ATOM     17  C   UNL     1     -18.224 -14.886  22.819  1.00  0.00    -0.000 C 
BRANCH  17  18
ATOM     18  C   UNL     1     -18.733 -15.683  24.031  1.00  0.00    -0.003 C 
ATOM     19  C   UNL     1     -18.025 -17.027  24.203  1.00  0.00     0.004 C 
ENDBRANCH  17  18
ENDBRANCH  16  17
ENDBRANCH  15  16
ENDBRANCH  14  15
ENDBRANCH  13  14
ENDBRANCH  12  13
ENDBRANCH   1  12
TORSDOF 14
ENDMDL
MODEL 9
REMARK VINA RESULT:    -3.137      3.244      5.237
REMARK INTER + INTRA:          -7.819
REMARK INTER:                  -5.074
REMARK INTRA:                  -2.745
REMARK UNBOUND:                -2.115
REMARK SMILES CCCCCCCCCCCCCC[C@H](C)C(=O)[O-]
REMARK SMILES IDX 9 1 10 2 11 3 12 4 13 5 14 6 15 7 16 8 17 9 18 10 19 11 8 12
REMARK SMILES IDX 7 13 6 14 5 15 4 16 3 17 2 18 1 19
REMARK H PARENT
REMARK Flexibility Score: inf
ROOT
ATOM      1  C   UNL     1     -14.178 -24.998  22.580  1.00  0.00     0.000 C 
ENDROOT
BRANCH   1   2
ATOM      2  C   UNL     1     -13.107 -25.410  21.552  1.00  0.00     0.000 C 
BRANCH   2   3
ATOM      3  C   UNL     1     -12.655 -24.246  20.654  1.00  0.00     0.000 C 
BRANCH   3   4
ATOM      4  C   UNL     1     -11.136 -23.988  20.750  1.00  0.00     0.000 C 
BRANCH   4   5
ATOM      5  C   UNL     1     -10.748 -22.507  20.578  1.00  0.00     0.001 C 
BRANCH   5   6
ATOM      6  C   UNL     1     -11.583 -21.733  19.540  1.00  0.00     0.009 C 
BRANCH   6   7
ATOM      7  C   UNL     1     -11.224 -20.234  19.432  1.00  0.00     0.032 C 
ATOM      8  C   UNL     1     -10.553 -19.751  20.721  1.00  0.00     0.014 C 
BRANCH   7   9
ATOM      9  C   UNL     1     -12.443 -19.398  19.149  1.00  0.00     0.044 C 
ATOM     10  O   UNL     1     -13.365 -19.851  18.421  1.00  0.00    -0.550 OA
ATOM     11  O   UNL     1     -12.563 -18.124  19.692  1.00  0.00    -0.550 OA
ENDBRANCH   7   9
ENDBRANCH   6   7
ENDBRANCH   5   6
ENDBRANCH   4   5
ENDBRANCH   3   4
ENDBRANCH   2   3
ENDBRANCH   1   2
BRANCH   1  12
ATOM     12  C   UNL     1     -13.674 -24.849  24.026  1.00  0.00     0.000 C 
BRANCH  12  13
ATOM     13  C   UNL     1     -13.674 -23.390  24.513  1.00  0.00    -0.000 C 
BRANCH  13  14
ATOM     14  C   UNL     1     -12.407 -22.621  24.100  1.00  0.00    -0.000 C 
BRANCH  14  15
ATOM     15  C   UNL     1     -12.657 -21.268  23.404  1.00  0.00    -0.000 C 
BRANCH  15  16
ATOM     16  C   UNL     1     -14.121 -20.994  23.010  1.00  0.00    -0.000 C 
BRANCH  16  17
ATOM     17  C   UNL     1     -14.446 -21.216  21.519  1.00  0.00    -0.000 C 
BRANCH  17  18
ATOM     18  C   UNL     1     -15.690 -22.079  21.250  1.00  0.00    -0.003 C 
ATOM     19  C   UNL     1     -16.138 -22.043  19.789  1.00  0.00     0.004 C 
ENDBRANCH  17  18
ENDBRANCH  16  17
ENDBRANCH  15  16
ENDBRANCH  14  15
ENDBRANCH  13  14
ENDBRANCH  12  13
ENDBRANCH   1  12
TORSDOF 14
ENDMDL
