MODEL 1
REMARK VINA RESULT:    -5.467      0.000      0.000
REMARK INTER + INTRA:          -8.943
REMARK INTER:                  -7.704
REMARK INTRA:                  -1.240
REMARK UNBOUND:                -1.240
REMARK SMILES O=C(C=Cc1ccc(O)cc1)CC(=O)C=Cc1ccc(O)cc1
REMARK SMILES IDX 12 1 2 2 1 3 3 4 4 5 5 6 6 7 7 8 8 9 11 10 10 11 9 12 13 14
REMARK SMILES IDX 14 15 15 16 16 17 17 18 18 19 23 20 19 21 22 22 20 23 21 24
REMARK H PARENT 9 13 21 25
REMARK Flexibility Score: inf
ROOT
ATOM      1  C   UNL     1     127.451 125.486 148.874  1.00  0.00     0.160 C 
ENDROOT
BRANCH   1   2
ATOM      2  C   UNL     1     127.819 126.504 147.820  1.00  0.00     0.163 C 
ATOM      3  O   UNL     1     128.787 127.288 148.014  1.00  0.00    -0.294 OA
BRANCH   2   4
ATOM      4  C   UNL     1     127.055 126.639 146.560  1.00  0.00     0.048 C 
ATOM      5  C   UNL     1     125.724 126.491 146.486  1.00  0.00     0.012 C 
BRANCH   5   6
ATOM      6  C   UNL     1     124.952 126.638 145.226  1.00  0.00    -0.025 A 
ATOM      7  C   UNL     1     123.799 125.875 144.951  1.00  0.00     0.012 A 
ATOM      8  C   UNL     1     123.099 126.060 143.754  1.00  0.00     0.047 A 
ATOM      9  C   UNL     1     123.532 127.012 142.823  1.00  0.00     0.115 A 
ATOM     10  C   UNL     1     125.367 127.602 144.292  1.00  0.00     0.012 A 
ATOM     11  C   UNL     1     124.665 127.783 143.097  1.00  0.00     0.047 A 
BRANCH   9  12
ATOM     12  O   UNL     1     122.842 127.203 141.628  1.00  0.00    -0.508 OA
ATOM     13  H   UNL     1     121.893 127.561 141.616  1.00  0.00     0.293 HD
ENDBRANCH   9  12
ENDBRANCH   5   6
ENDBRANCH   2   4
ENDBRANCH   1   2
BRANCH   1  14
ATOM     14  C   UNL     1     126.896 126.125 150.116  1.00  0.00     0.163 C 
ATOM     15  O   UNL     1     127.686 126.481 151.033  1.00  0.00    -0.294 OA
BRANCH  14  16
ATOM     16  C   UNL     1     125.436 126.289 150.272  1.00  0.00     0.048 C 
ATOM     17  C   UNL     1     124.558 125.499 149.638  1.00  0.00     0.012 C 
BRANCH  17  18
ATOM     18  C   UNL     1     123.086 125.629 149.776  1.00  0.00    -0.025 A 
ATOM     19  C   UNL     1     122.301 126.365 148.865  1.00  0.00     0.012 A 
ATOM     20  C   UNL     1     122.448 124.962 150.835  1.00  0.00     0.012 A 
ATOM     21  C   UNL     1     120.915 126.447 149.031  1.00  0.00     0.047 A 
ATOM     22  C   UNL     1     121.062 125.047 150.998  1.00  0.00     0.047 A 
ATOM     23  C   UNL     1     120.292 125.790 150.100  1.00  0.00     0.115 A 
BRANCH  23  24
ATOM     24  O   UNL     1     118.912 125.867 150.276  1.00  0.00    -0.508 OA
ATOM     25  H   UNL     1     118.398 125.134 150.750  1.00  0.00     0.293 HD
ENDBRANCH  23  24
ENDBRANCH  17  18
ENDBRANCH  14  16
ENDBRANCH   1  14
TORSDOF 8
ENDMDL
MODEL 2
REMARK VINA RESULT:    -5.466     15.516     17.794
REMARK INTER + INTRA:          -8.942
REMARK INTER:                  -7.435
REMARK INTRA:                  -1.507
REMARK UNBOUND:                -1.240
REMARK SMILES O=C(C=Cc1ccc(O)cc1)CC(=O)C=Cc1ccc(O)cc1
REMARK SMILES IDX 12 1 2 2 1 3 3 4 4 5 5 6 6 7 7 8 8 9 11 10 10 11 9 12 13 14
REMARK SMILES IDX 14 15 15 16 16 17 17 18 18 19 23 20 19 21 22 22 20 23 21 24
REMARK H PARENT 9 13 21 25
REMARK Flexibility Score: inf
ROOT
ATOM      1  C   UNL     1     115.829 119.014 135.901  1.00  0.00     0.160 C 
ENDROOT
BRANCH   1   2
ATOM      2  C   UNL     1     114.520 118.484 136.435  1.00  0.00     0.163 C 
ATOM      3  O   UNL     1     113.433 118.999 136.059  1.00  0.00    -0.294 OA
BRANCH   2   4
ATOM      4  C   UNL     1     114.464 117.383 137.421  1.00  0.00     0.048 C 
ATOM      5  C   UNL     1     115.178 117.375 138.558  1.00  0.00     0.012 C 
BRANCH   5   6
ATOM      6  C   UNL     1     115.116 116.278 139.556  1.00  0.00    -0.025 A 
ATOM      7  C   UNL     1     114.793 114.951 139.205  1.00  0.00     0.012 A 
ATOM      8  C   UNL     1     114.761 113.950 140.181  1.00  0.00     0.047 A 
ATOM      9  C   UNL     1     115.059 114.255 141.515  1.00  0.00     0.115 A 
ATOM     10  C   UNL     1     115.430 116.568 140.895  1.00  0.00     0.012 A 
ATOM     11  C   UNL     1     115.396 115.565 141.867  1.00  0.00     0.047 A 
BRANCH   9  12
ATOM     12  O   UNL     1     115.029 113.265 142.494  1.00  0.00    -0.508 OA
ATOM     13  H   UNL     1     115.445 112.354 142.339  1.00  0.00     0.293 HD
ENDBRANCH   9  12
ENDBRANCH   5   6
ENDBRANCH   2   4
ENDBRANCH   1   2
BRANCH   1  14
ATOM     14  C   UNL     1     116.579 117.986 135.101  1.00  0.00     0.163 C 
ATOM     15  O   UNL     1     116.388 117.911 133.856  1.00  0.00    -0.294 OA
BRANCH  14  16
ATOM     16  C   UNL     1     117.494 117.046 135.781  1.00  0.00     0.048 C 
ATOM     17  C   UNL     1     117.311 115.719 135.744  1.00  0.00     0.012 C 
BRANCH  17  18
ATOM     18  C   UNL     1     118.212 114.745 136.409  1.00  0.00    -0.025 A 
ATOM     19  C   UNL     1     118.153 114.477 137.792  1.00  0.00     0.012 A 
ATOM     20  C   UNL     1     119.135 114.037 135.621  1.00  0.00     0.012 A 
ATOM     21  C   UNL     1     119.016 113.541 138.369  1.00  0.00     0.047 A 
ATOM     22  C   UNL     1     119.998 113.102 136.202  1.00  0.00     0.047 A 
ATOM     23  C   UNL     1     119.943 112.853 137.575  1.00  0.00     0.115 A 
BRANCH  23  24
ATOM     24  O   UNL     1     120.809 111.919 138.141  1.00  0.00    -0.508 OA
ATOM     25  H   UNL     1     121.252 111.201 137.579  1.00  0.00     0.293 HD
ENDBRANCH  23  24
ENDBRANCH  17  18
ENDBRANCH  14  16
ENDBRANCH   1  14
TORSDOF 8
ENDMDL
MODEL 3
REMARK VINA RESULT:    -5.417      0.141      6.028
REMARK INTER + INTRA:          -8.873
REMARK INTER:                  -7.638
REMARK INTRA:                  -1.235
REMARK UNBOUND:                -1.240
REMARK SMILES O=C(C=Cc1ccc(O)cc1)CC(=O)C=Cc1ccc(O)cc1
REMARK SMILES IDX 12 1 2 2 1 3 3 4 4 5 5 6 6 7 7 8 8 9 11 10 10 11 9 12 13 14
REMARK SMILES IDX 14 15 15 16 16 17 17 18 18 19 23 20 19 21 22 22 20 23 21 24
REMARK H PARENT 9 13 21 25
REMARK Flexibility Score: inf
ROOT
ATOM      1  C   UNL     1     127.488 125.488 148.768  1.00  0.00     0.160 C 
ENDROOT
BRANCH   1   2
ATOM      2  C   UNL     1     126.866 126.057 150.022  1.00  0.00     0.163 C 
ATOM      3  O   UNL     1     127.598 126.375 150.998  1.00  0.00    -0.294 OA
BRANCH   2   4
ATOM      4  C   UNL     1     125.404 126.231 150.163  1.00  0.00     0.048 C 
ATOM      5  C   UNL     1     124.506 125.399 149.613  1.00  0.00     0.012 C 
BRANCH   5   6
ATOM      6  C   UNL     1     123.039 125.563 149.762  1.00  0.00    -0.025 A 
ATOM      7  C   UNL     1     122.271 126.349 148.879  1.00  0.00     0.012 A 
ATOM      8  C   UNL     1     120.888 126.461 149.053  1.00  0.00     0.047 A 
ATOM      9  C   UNL     1     120.252 125.785 150.102  1.00  0.00     0.115 A 
ATOM     10  C   UNL     1     122.387 124.875 150.800  1.00  0.00     0.012 A 
ATOM     11  C   UNL     1     121.005 124.991 150.971  1.00  0.00     0.047 A 
BRANCH   9  12
ATOM     12  O   UNL     1     118.875 125.891 150.285  1.00  0.00    -0.508 OA
ATOM     13  H   UNL     1     118.461 125.884 151.210  1.00  0.00     0.293 HD
ENDBRANCH   9  12
ENDBRANCH   5   6
ENDBRANCH   2   4
ENDBRANCH   1   2
BRANCH   1  14
ATOM     14  C   UNL     1     127.852 126.556 147.775  1.00  0.00     0.163 C 
ATOM     15  O   UNL     1     128.749 127.393 148.069  1.00  0.00    -0.294 OA
BRANCH  14  16
ATOM     16  C   UNL     1     127.130 126.644 146.489  1.00  0.00     0.048 C 
ATOM     17  C   UNL     1     125.794 126.734 146.426  1.00  0.00     0.012 C 
BRANCH  17  18
ATOM     18  C   UNL     1     125.035 126.831 145.155  1.00  0.00    -0.025 A 
ATOM     19  C   UNL     1     125.435 127.670 144.094  1.00  0.00     0.012 A 
ATOM     20  C   UNL     1     123.893 126.030 144.990  1.00  0.00     0.012 A 
ATOM     21  C   UNL     1     124.692 127.717 142.911  1.00  0.00     0.047 A 
ATOM     22  C   UNL     1     123.151 126.080 143.805  1.00  0.00     0.047 A 
ATOM     23  C   UNL     1     123.547 126.924 142.764  1.00  0.00     0.115 A 
BRANCH  23  24
ATOM     24  O   UNL     1     122.798 126.965 141.590  1.00  0.00    -0.508 OA
ATOM     25  H   UNL     1     122.321 126.143 141.238  1.00  0.00     0.293 HD
ENDBRANCH  23  24
ENDBRANCH  17  18
ENDBRANCH  14  16
ENDBRANCH   1  14
TORSDOF 8
ENDMDL
MODEL 4
REMARK VINA RESULT:    -5.376     16.027     17.224
REMARK INTER + INTRA:          -8.815
REMARK INTER:                  -7.408
REMARK INTRA:                  -1.407
REMARK UNBOUND:                -1.240
REMARK SMILES O=C(C=Cc1ccc(O)cc1)CC(=O)C=Cc1ccc(O)cc1
REMARK SMILES IDX 12 1 2 2 1 3 3 4 4 5 5 6 6 7 7 8 8 9 11 10 10 11 9 12 13 14
REMARK SMILES IDX 14 15 15 16 16 17 17 18 18 19 23 20 19 21 22 22 20 23 21 24
REMARK H PARENT 9 13 21 25
REMARK Flexibility Score: inf
ROOT
ATOM      1  C   UNL     1     114.779 118.246 135.218  1.00  0.00     0.160 C 
ENDROOT
BRANCH   1   2
ATOM      2  C   UNL     1     116.269 118.211 134.974  1.00  0.00     0.163 C 
ATOM      3  O   UNL     1     116.792 119.017 134.158  1.00  0.00    -0.294 OA
BRANCH   2   4
ATOM      4  C   UNL     1     117.151 117.231 135.645  1.00  0.00     0.048 C 
ATOM      5  C   UNL     1     117.203 115.933 135.307  1.00  0.00     0.012 C 
BRANCH   5   6
ATOM      6  C   UNL     1     118.094 114.949 135.970  1.00  0.00    -0.025 A 
ATOM      7  C   UNL     1     119.056 114.200 135.261  1.00  0.00     0.012 A 
ATOM      8  C   UNL     1     119.882 113.294 135.933  1.00  0.00     0.047 A 
ATOM      9  C   UNL     1     119.769 113.130 137.320  1.00  0.00     0.115 A 
ATOM     10  C   UNL     1     118.001 114.789 137.363  1.00  0.00     0.012 A 
ATOM     11  C   UNL     1     118.829 113.882 138.031  1.00  0.00     0.047 A 
BRANCH   9  12
ATOM     12  O   UNL     1     120.586 112.230 137.999  1.00  0.00    -0.508 OA
ATOM     13  H   UNL     1     120.451 112.029 138.983  1.00  0.00     0.293 HD
ENDBRANCH   9  12
ENDBRANCH   5   6
ENDBRANCH   2   4
ENDBRANCH   1   2
BRANCH   1  14
ATOM     14  C   UNL     1     114.432 118.861 136.545  1.00  0.00     0.163 C 
ATOM     15  O   UNL     1     114.040 120.060 136.587  1.00  0.00    -0.294 OA
BRANCH  14  16
ATOM     16  C   UNL     1     114.594 118.076 137.787  1.00  0.00     0.048 C 
ATOM     17  C   UNL     1     114.391 116.752 137.825  1.00  0.00     0.012 C 
BRANCH  17  18
ATOM     18  C   UNL     1     114.551 115.930 139.050  1.00  0.00    -0.025 A 
ATOM     19  C   UNL     1     114.480 116.479 140.347  1.00  0.00     0.012 A 
ATOM     20  C   UNL     1     114.744 114.546 138.911  1.00  0.00     0.012 A 
ATOM     21  C   UNL     1     114.625 115.660 141.471  1.00  0.00     0.047 A 
ATOM     22  C   UNL     1     114.890 113.729 140.037  1.00  0.00     0.047 A 
ATOM     23  C   UNL     1     114.833 114.283 141.319  1.00  0.00     0.115 A 
BRANCH  23  24
ATOM     24  O   UNL     1     114.981 113.459 142.432  1.00  0.00    -0.508 OA
ATOM     25  H   UNL     1     115.379 112.530 142.353  1.00  0.00     0.293 HD
ENDBRANCH  23  24
ENDBRANCH  17  18
ENDBRANCH  14  16
ENDBRANCH   1  14
TORSDOF 8
ENDMDL
MODEL 5
REMARK VINA RESULT:    -5.329      2.601      5.891
REMARK INTER + INTRA:          -8.750
REMARK INTER:                  -7.395
REMARK INTRA:                  -1.355
REMARK UNBOUND:                -1.240
REMARK SMILES O=C(C=Cc1ccc(O)cc1)CC(=O)C=Cc1ccc(O)cc1
REMARK SMILES IDX 12 1 2 2 1 3 3 4 4 5 5 6 6 7 7 8 8 9 11 10 10 11 9 12 13 14
REMARK SMILES IDX 14 15 15 16 16 17 17 18 18 19 23 20 19 21 22 22 20 23 21 24
REMARK H PARENT 9 13 21 25
REMARK Flexibility Score: inf
ROOT
ATOM      1  C   UNL     1     123.515 126.132 148.134  1.00  0.00     0.160 C 
ENDROOT
BRANCH   1   2
ATOM      2  C   UNL     1     124.884 125.987 147.514  1.00  0.00     0.163 C 
ATOM      3  O   UNL     1     125.737 125.225 148.046  1.00  0.00    -0.294 OA
BRANCH   2   4
ATOM      4  C   UNL     1     125.282 126.739 146.304  1.00  0.00     0.048 C 
ATOM      5  C   UNL     1     125.970 126.192 145.290  1.00  0.00     0.012 C 
BRANCH   5   6
ATOM      6  C   UNL     1     126.361 126.940 144.069  1.00  0.00    -0.025 A 
ATOM      7  C   UNL     1     126.499 128.343 144.051  1.00  0.00     0.012 A 
ATOM      8  C   UNL     1     126.884 129.000 142.878  1.00  0.00     0.047 A 
ATOM      9  C   UNL     1     127.145 128.269 141.712  1.00  0.00     0.115 A 
ATOM     10  C   UNL     1     126.643 126.215 142.898  1.00  0.00     0.012 A 
ATOM     11  C   UNL     1     127.026 126.877 141.728  1.00  0.00     0.047 A 
BRANCH   9  12
ATOM     12  O   UNL     1     127.528 128.914 140.539  1.00  0.00    -0.508 OA
ATOM     13  H   UNL     1     128.469 129.269 140.412  1.00  0.00     0.293 HD
ENDBRANCH   9  12
ENDBRANCH   5   6
ENDBRANCH   2   4
ENDBRANCH   1   2
BRANCH   1  14
ATOM     14  C   UNL     1     122.465 125.357 147.388  1.00  0.00     0.163 C 
ATOM     15  O   UNL     1     121.732 124.546 148.017  1.00  0.00    -0.294 OA
BRANCH  14  16
ATOM     16  C   UNL     1     122.331 125.516 145.925  1.00  0.00     0.048 C 
ATOM     17  C   UNL     1     122.802 124.605 145.062  1.00  0.00     0.012 C 
BRANCH  17  18
ATOM     18  C   UNL     1     122.680 124.727 143.588  1.00  0.00    -0.025 A 
ATOM     19  C   UNL     1     122.293 123.648 142.766  1.00  0.00     0.012 A 
ATOM     20  C   UNL     1     122.925 125.976 142.994  1.00  0.00     0.012 A 
ATOM     21  C   UNL     1     122.181 123.817 141.383  1.00  0.00     0.047 A 
ATOM     22  C   UNL     1     122.812 126.142 141.610  1.00  0.00     0.047 A 
ATOM     23  C   UNL     1     122.443 125.064 140.801  1.00  0.00     0.115 A 
BRANCH  23  24
ATOM     24  O   UNL     1     122.335 125.243 139.423  1.00  0.00    -0.508 OA
ATOM     25  H   UNL     1     122.453 124.469 138.779  1.00  0.00     0.293 HD
ENDBRANCH  23  24
ENDBRANCH  17  18
ENDBRANCH  14  16
ENDBRANCH   1  14
TORSDOF 8
ENDMDL
MODEL 6
REMARK VINA RESULT:    -5.300      1.149      2.039
REMARK INTER + INTRA:          -8.709
REMARK INTER:                  -7.222
REMARK INTRA:                  -1.487
REMARK UNBOUND:                -1.240
REMARK SMILES O=C(C=Cc1ccc(O)cc1)CC(=O)C=Cc1ccc(O)cc1
REMARK SMILES IDX 12 1 2 2 1 3 3 4 4 5 5 6 6 7 7 8 8 9 11 10 10 11 9 12 13 14
REMARK SMILES IDX 14 15 15 16 16 17 17 18 18 19 23 20 19 21 22 22 20 23 21 24
REMARK H PARENT 9 13 21 25
REMARK Flexibility Score: inf
ROOT
ATOM      1  C   UNL     1     128.669 127.464 149.918  1.00  0.00     0.160 C 
ENDROOT
BRANCH   1   2
ATOM      2  C   UNL     1     128.884 126.842 148.558  1.00  0.00     0.163 C 
ATOM      3  O   UNL     1     129.844 126.045 148.376  1.00  0.00    -0.294 OA
BRANCH   2   4
ATOM      4  C   UNL     1     128.016 127.161 147.403  1.00  0.00     0.048 C 
ATOM      5  C   UNL     1     127.004 126.376 147.003  1.00  0.00     0.012 C 
BRANCH   5   6
ATOM      6  C   UNL     1     126.124 126.698 145.853  1.00  0.00    -0.025 A 
ATOM      7  C   UNL     1     126.512 127.583 144.826  1.00  0.00     0.012 A 
ATOM      8  C   UNL     1     125.651 127.844 143.755  1.00  0.00     0.047 A 
ATOM      9  C   UNL     1     124.399 127.219 143.688  1.00  0.00     0.115 A 
ATOM     10  C   UNL     1     124.872 126.065 145.766  1.00  0.00     0.012 A 
ATOM     11  C   UNL     1     124.015 126.329 144.694  1.00  0.00     0.047 A 
BRANCH   9  12
ATOM     12  O   UNL     1     123.534 127.473 142.626  1.00  0.00    -0.508 OA
ATOM     13  H   UNL     1     122.673 127.992 142.756  1.00  0.00     0.293 HD
ENDBRANCH   9  12
ENDBRANCH   5   6
ENDBRANCH   2   4
ENDBRANCH   1   2
BRANCH   1  14
ATOM     14  C   UNL     1     128.008 126.517 150.880  1.00  0.00     0.163 C 
ATOM     15  O   UNL     1     128.639 126.137 151.904  1.00  0.00    -0.294 OA
BRANCH  14  16
ATOM     16  C   UNL     1     126.650 126.007 150.597  1.00  0.00     0.048 C 
ATOM     17  C   UNL     1     125.574 126.807 150.593  1.00  0.00     0.012 C 
BRANCH  17  18
ATOM     18  C   UNL     1     124.198 126.332 150.307  1.00  0.00    -0.025 A 
ATOM     19  C   UNL     1     123.529 125.402 151.129  1.00  0.00     0.012 A 
ATOM     20  C   UNL     1     123.523 126.859 149.192  1.00  0.00     0.012 A 
ATOM     21  C   UNL     1     122.227 124.996 150.823  1.00  0.00     0.047 A 
ATOM     22  C   UNL     1     122.221 126.449 148.889  1.00  0.00     0.047 A 
ATOM     23  C   UNL     1     121.570 125.516 149.700  1.00  0.00     0.115 A 
BRANCH  23  24
ATOM     24  O   UNL     1     120.273 125.116 149.386  1.00  0.00    -0.508 OA
ATOM     25  H   UNL     1     120.006 124.139 149.392  1.00  0.00     0.293 HD
ENDBRANCH  23  24
ENDBRANCH  17  18
ENDBRANCH  14  16
ENDBRANCH   1  14
TORSDOF 8
ENDMDL
MODEL 7
REMARK VINA RESULT:    -5.294      1.093      5.751
REMARK INTER + INTRA:          -8.700
REMARK INTER:                  -7.233
REMARK INTRA:                  -1.466
REMARK UNBOUND:                -1.240
REMARK SMILES O=C(C=Cc1ccc(O)cc1)CC(=O)C=Cc1ccc(O)cc1
REMARK SMILES IDX 12 1 2 2 1 3 3 4 4 5 5 6 6 7 7 8 8 9 11 10 10 11 9 12 13 14
REMARK SMILES IDX 14 15 15 16 16 17 17 18 18 19 23 20 19 21 22 22 20 23 21 24
REMARK H PARENT 9 13 21 25
REMARK Flexibility Score: inf
ROOT
ATOM      1  C   UNL     1     128.765 127.524 149.754  1.00  0.00     0.160 C 
ENDROOT
BRANCH   1   2
ATOM      2  C   UNL     1     127.901 126.778 150.743  1.00  0.00     0.163 C 
ATOM      3  O   UNL     1     128.437 126.132 151.684  1.00  0.00    -0.294 OA
BRANCH   2   4
ATOM      4  C   UNL     1     126.426 126.751 150.632  1.00  0.00     0.048 C 
ATOM      5  C   UNL     1     125.749 125.751 150.048  1.00  0.00     0.012 C 
BRANCH   5   6
ATOM      6  C   UNL     1     124.269 125.715 149.944  1.00  0.00    -0.025 A 
ATOM      7  C   UNL     1     123.471 124.910 150.783  1.00  0.00     0.012 A 
ATOM      8  C   UNL     1     122.078 124.921 150.656  1.00  0.00     0.047 A 
ATOM      9  C   UNL     1     121.463 125.740 149.699  1.00  0.00     0.115 A 
ATOM     10  C   UNL     1     123.640 126.544 149.000  1.00  0.00     0.012 A 
ATOM     11  C   UNL     1     122.248 126.551 148.876  1.00  0.00     0.047 A 
BRANCH   9  12
ATOM     12  O   UNL     1     120.077 125.756 149.564  1.00  0.00    -0.508 OA
ATOM     13  H   UNL     1     119.598 126.531 149.120  1.00  0.00     0.293 HD
ENDBRANCH   9  12
ENDBRANCH   5   6
ENDBRANCH   2   4
ENDBRANCH   1   2
BRANCH   1  14
ATOM     14  C   UNL     1     128.888 126.799 148.443  1.00  0.00     0.163 C 
ATOM     15  O   UNL     1     129.764 125.901 148.313  1.00  0.00    -0.294 OA
BRANCH  14  16
ATOM     16  C   UNL     1     128.018 127.174 147.309  1.00  0.00     0.048 C 
ATOM     17  C   UNL     1     127.051 126.364 146.854  1.00  0.00     0.012 C 
BRANCH  17  18
ATOM     18  C   UNL     1     126.153 126.709 145.724  1.00  0.00    -0.025 A 
ATOM     19  C   UNL     1     126.456 127.728 144.798  1.00  0.00     0.012 A 
ATOM     20  C   UNL     1     124.974 125.965 145.551  1.00  0.00     0.012 A 
ATOM     21  C   UNL     1     125.582 128.007 143.742  1.00  0.00     0.047 A 
ATOM     22  C   UNL     1     124.102 126.247 144.494  1.00  0.00     0.047 A 
ATOM     23  C   UNL     1     124.402 127.268 143.589  1.00  0.00     0.115 A 
BRANCH  23  24
ATOM     24  O   UNL     1     123.524 127.539 142.542  1.00  0.00    -0.508 OA
ATOM     25  H   UNL     1     123.860 127.716 141.603  1.00  0.00     0.293 HD
ENDBRANCH  23  24
ENDBRANCH  17  18
ENDBRANCH  14  16
ENDBRANCH   1  14
TORSDOF 8
ENDMDL
MODEL 8
REMARK VINA RESULT:    -5.260      2.603      6.193
REMARK INTER + INTRA:          -8.653
REMARK INTER:                  -7.151
REMARK INTRA:                  -1.501
REMARK UNBOUND:                -1.240
REMARK SMILES O=C(C=Cc1ccc(O)cc1)CC(=O)C=Cc1ccc(O)cc1
REMARK SMILES IDX 12 1 2 2 1 3 3 4 4 5 5 6 6 7 7 8 8 9 11 10 10 11 9 12 13 14
REMARK SMILES IDX 14 15 15 16 16 17 17 18 18 19 23 20 19 21 22 22 20 23 21 24
REMARK H PARENT 9 13 21 25
REMARK Flexibility Score: inf
ROOT
ATOM      1  C   UNL     1     123.794 125.653 147.999  1.00  0.00     0.160 C 
ENDROOT
BRANCH   1   2
ATOM      2  C   UNL     1     123.334 124.393 147.304  1.00  0.00     0.163 C 
ATOM      3  O   UNL     1     123.017 123.381 147.985  1.00  0.00    -0.294 OA
BRANCH   2   4
ATOM      4  C   UNL     1     123.270 124.289 145.830  1.00  0.00     0.048 C 
ATOM      5  C   UNL     1     122.731 125.236 145.047  1.00  0.00     0.012 C 
BRANCH   5   6
ATOM      6  C   UNL     1     122.674 125.141 143.567  1.00  0.00    -0.025 A 
ATOM      7  C   UNL     1     122.375 123.938 142.896  1.00  0.00     0.012 A 
ATOM      8  C   UNL     1     122.320 123.903 141.499  1.00  0.00     0.047 A 
ATOM      9  C   UNL     1     122.553 125.066 140.754  1.00  0.00     0.115 A 
ATOM     10  C   UNL     1     122.890 126.305 142.810  1.00  0.00     0.012 A 
ATOM     11  C   UNL     1     122.835 126.265 141.414  1.00  0.00     0.047 A 
BRANCH   9  12
ATOM     12  O   UNL     1     122.502 125.041 139.363  1.00  0.00    -0.508 OA
ATOM     13  H   UNL     1     123.270 125.385 138.798  1.00  0.00     0.293 HD
ENDBRANCH   9  12
ENDBRANCH   5   6
ENDBRANCH   2   4
ENDBRANCH   1   2
BRANCH   1  14
ATOM     14  C   UNL     1     125.276 125.868 147.871  1.00  0.00     0.163 C 
ATOM     15  O   UNL     1     126.000 125.812 148.903  1.00  0.00    -0.294 OA
BRANCH  14  16
ATOM     16  C   UNL     1     125.864 126.187 146.553  1.00  0.00     0.048 C 
ATOM     17  C   UNL     1     125.386 127.171 145.778  1.00  0.00     0.012 C 
BRANCH  17  18
ATOM     18  C   UNL     1     125.954 127.524 144.454  1.00  0.00    -0.025 A 
ATOM     19  C   UNL     1     126.589 126.578 143.623  1.00  0.00     0.012 A 
ATOM     20  C   UNL     1     125.821 128.846 143.996  1.00  0.00     0.012 A 
ATOM     21  C   UNL     1     127.098 126.958 142.378  1.00  0.00     0.047 A 
ATOM     22  C   UNL     1     126.332 129.223 142.749  1.00  0.00     0.047 A 
ATOM     23  C   UNL     1     126.972 128.283 141.939  1.00  0.00     0.115 A 
BRANCH  23  24
ATOM     24  O   UNL     1     127.477 128.673 140.700  1.00  0.00    -0.508 OA
ATOM     25  H   UNL     1     127.182 129.534 140.256  1.00  0.00     0.293 HD
ENDBRANCH  23  24
ENDBRANCH  17  18
ENDBRANCH  14  16
ENDBRANCH   1  14
TORSDOF 8
ENDMDL
MODEL 9
REMARK VINA RESULT:    -5.217     11.073     15.476
REMARK INTER + INTRA:          -8.592
REMARK INTER:                  -7.684
REMARK INTRA:                  -0.908
REMARK UNBOUND:                -1.240
REMARK SMILES O=C(C=Cc1ccc(O)cc1)CC(=O)C=Cc1ccc(O)cc1
REMARK SMILES IDX 12 1 2 2 1 3 3 4 4 5 5 6 6 7 7 8 8 9 11 10 10 11 9 12 13 14
REMARK SMILES IDX 14 15 15 16 16 17 17 18 18 19 23 20 19 21 22 22 20 23 21 24
REMARK H PARENT 9 13 21 25
REMARK Flexibility Score: inf
ROOT
ATOM      1  C   UNL     1     115.992 122.870 133.026  1.00  0.00     0.160 C 
ENDROOT
BRANCH   1   2
ATOM      2  C   UNL     1     115.715 123.599 134.319  1.00  0.00     0.163 C 
ATOM      3  O   UNL     1     114.556 123.583 134.815  1.00  0.00    -0.294 OA
BRANCH   2   4
ATOM      4  C   UNL     1     116.762 124.371 135.024  1.00  0.00     0.048 C 
ATOM      5  C   UNL     1     117.163 124.097 136.275  1.00  0.00     0.012 C 
BRANCH   5   6
ATOM      6  C   UNL     1     118.221 124.862 136.982  1.00  0.00    -0.025 A 
ATOM      7  C   UNL     1     118.058 125.340 138.299  1.00  0.00     0.012 A 
ATOM      8  C   UNL     1     119.091 126.044 138.927  1.00  0.00     0.047 A 
ATOM      9  C   UNL     1     120.300 126.271 138.256  1.00  0.00     0.115 A 
ATOM     10  C   UNL     1     119.444 125.082 136.326  1.00  0.00     0.012 A 
ATOM     11  C   UNL     1     120.473 125.786 136.957  1.00  0.00     0.047 A 
BRANCH   9  12
ATOM     12  O   UNL     1     121.333 126.972 138.873  1.00  0.00    -0.508 OA
ATOM     13  H   UNL     1     121.984 127.536 138.338  1.00  0.00     0.293 HD
ENDBRANCH   9  12
ENDBRANCH   5   6
ENDBRANCH   2   4
ENDBRANCH   1   2
BRANCH   1  14
ATOM     14  C   UNL     1     117.083 121.846 133.170  1.00  0.00     0.163 C 
ATOM     15  O   UNL     1     118.250 122.129 132.784  1.00  0.00    -0.294 OA
BRANCH  14  16
ATOM     16  C   UNL     1     116.773 120.509 133.717  1.00  0.00     0.048 C 
ATOM     17  C   UNL     1     117.078 120.164 134.976  1.00  0.00     0.012 C 
BRANCH  17  18
ATOM     18  C   UNL     1     116.775 118.835 135.562  1.00  0.00    -0.025 A 
ATOM     19  C   UNL     1     116.531 117.694 134.770  1.00  0.00     0.012 A 
ATOM     20  C   UNL     1     116.768 118.702 136.960  1.00  0.00     0.012 A 
ATOM     21  C   UNL     1     116.262 116.461 135.370  1.00  0.00     0.047 A 
ATOM     22  C   UNL     1     116.498 117.467 137.558  1.00  0.00     0.047 A 
ATOM     23  C   UNL     1     116.243 116.344 136.766  1.00  0.00     0.115 A 
BRANCH  23  24
ATOM     24  O   UNL     1     115.974 115.120 137.374  1.00  0.00    -0.508 OA
ATOM     25  H   UNL     1     115.561 115.068 138.298  1.00  0.00     0.293 HD
ENDBRANCH  23  24
ENDBRANCH  17  18
ENDBRANCH  14  16
ENDBRANCH   1  14
TORSDOF 8
ENDMDL
