MODEL 1
REMARK VINA RESULT:    -6.225      0.000      0.000
REMARK INTER + INTRA:          -7.539
REMARK INTER:                  -7.681
REMARK INTRA:                   0.141
REMARK UNBOUND:                 0.141
REMARK SMILES O=c1c(O)c(-c2cc(O)c(O)c(O)c2)oc2cc(O)cc(O)c12
REMARK SMILES IDX 5 1 3 2 2 3 1 4 23 5 21 6 20 7 18 8 17 9 16 10 15 11 6 12
REMARK SMILES IDX 7 13 8 14 14 15 10 16 12 17 9 18 11 20 13 22 4 24 22 26
REMARK SMILES IDX 19 28
REMARK H PARENT 9 19 11 21 13 23 4 25 22 27 19 29
REMARK Flexibility Score: inf
ROOT
ATOM      1  C   UNL     1      69.407  47.796   7.921  1.00  0.00     0.180 A 
ATOM      2  C   UNL     1      70.161  48.375   8.957  1.00  0.00     0.208 A 
ATOM      3  C   UNL     1      71.544  48.538   8.783  1.00  0.00     0.238 A 
ATOM      4  O   UNL     1      72.205  49.106   9.692  1.00  0.00    -0.285 OA
ATOM      5  C   UNL     1      72.159  48.106   7.583  1.00  0.00     0.111 A 
ATOM      6  C   UNL     1      73.559  48.186   7.316  1.00  0.00     0.134 A 
ATOM      7  C   UNL     1      74.039  47.850   6.044  1.00  0.00     0.093 A 
ATOM      8  C   UNL     1      73.179  47.375   5.052  1.00  0.00     0.123 A 
ATOM      9  C   UNL     1      71.820  47.237   5.322  1.00  0.00     0.094 A 
ATOM     10  C   UNL     1      71.305  47.599   6.569  1.00  0.00     0.146 A 
ATOM     11  O   UNL     1      70.002  47.463   6.782  1.00  0.00    -0.452 OA
ENDROOT
BRANCH   1  12
ATOM     12  C   UNL     1      67.948  47.569   8.040  1.00  0.00     0.029 A 
ATOM     13  C   UNL     1      67.395  46.373   7.565  1.00  0.00     0.062 A 
ATOM     14  C   UNL     1      66.025  46.124   7.683  1.00  0.00     0.162 A 
ATOM     15  C   UNL     1      67.113  48.503   8.674  1.00  0.00     0.062 A 
ATOM     16  C   UNL     1      65.183  47.070   8.297  1.00  0.00     0.200 A 
ATOM     17  C   UNL     1      65.740  48.269   8.804  1.00  0.00     0.162 A 
BRANCH  14  18
ATOM     18  O   UNL     1      65.516  44.926   7.180  1.00  0.00    -0.504 OA
ATOM     19  H   UNL     1      66.047  44.064   7.194  1.00  0.00     0.293 HD
ENDBRANCH  14  18
BRANCH  16  20
ATOM     20  O   UNL     1      63.818  46.786   8.386  1.00  0.00    -0.502 OA
ATOM     21  H   UNL     1      63.370  46.005   7.929  1.00  0.00     0.293 HD
ENDBRANCH  16  20
BRANCH  17  22
ATOM     22  O   UNL     1      64.974  49.245   9.446  1.00  0.00    -0.504 OA
ATOM     23  H   UNL     1      64.865  49.312  10.448  1.00  0.00     0.293 HD
ENDBRANCH  17  22
ENDBRANCH   1  12
BRANCH   2  24
ATOM     24  O   UNL     1      69.530  48.813  10.124  1.00  0.00    -0.502 OA
ATOM     25  H   UNL     1      68.914  49.618  10.139  1.00  0.00     0.293 HD
ENDBRANCH   2  24
BRANCH   6  26
ATOM     26  O   UNL     1      74.514  48.560   8.266  1.00  0.00    -0.507 OA
ATOM     27  H   UNL     1      75.078  49.394   8.217  1.00  0.00     0.293 HD
ENDBRANCH   6  26
BRANCH   8  28
ATOM     28  O   UNL     1      73.668  47.027   3.794  1.00  0.00    -0.508 OA
ATOM     29  H   UNL     1      74.380  47.579   3.332  1.00  0.00     0.293 HD
ENDBRANCH   8  28
TORSDOF 7
ENDMDL
MODEL 2
REMARK VINA RESULT:    -6.164      0.090      1.768
REMARK INTER + INTRA:          -7.463
REMARK INTER:                  -7.601
REMARK INTRA:                   0.137
REMARK UNBOUND:                 0.141
REMARK SMILES O=c1c(O)c(-c2cc(O)c(O)c(O)c2)oc2cc(O)cc(O)c12
REMARK SMILES IDX 5 1 3 2 2 3 1 4 23 5 21 6 20 7 18 8 17 9 16 10 15 11 6 12
REMARK SMILES IDX 7 13 8 14 14 15 10 16 12 17 9 18 11 20 13 22 4 24 22 26
REMARK SMILES IDX 19 28
REMARK H PARENT 9 19 11 21 13 23 4 25 22 27 19 29
REMARK Flexibility Score: inf
ROOT
ATOM      1  C   UNL     1      69.429  47.705   7.929  1.00  0.00     0.180 A 
ATOM      2  C   UNL     1      70.162  48.312   8.963  1.00  0.00     0.208 A 
ATOM      3  C   UNL     1      71.541  48.512   8.793  1.00  0.00     0.238 A 
ATOM      4  O   UNL     1      72.182  49.104   9.700  1.00  0.00    -0.285 OA
ATOM      5  C   UNL     1      72.173  48.088   7.599  1.00  0.00     0.111 A 
ATOM      6  C   UNL     1      73.571  48.204   7.336  1.00  0.00     0.134 A 
ATOM      7  C   UNL     1      74.066  47.872   6.069  1.00  0.00     0.093 A 
ATOM      8  C   UNL     1      73.223  47.366   5.077  1.00  0.00     0.123 A 
ATOM      9  C   UNL     1      71.866  47.193   5.343  1.00  0.00     0.094 A 
ATOM     10  C   UNL     1      71.337  47.550   6.586  1.00  0.00     0.146 A 
ATOM     11  O   UNL     1      70.038  47.380   6.794  1.00  0.00    -0.452 OA
ENDROOT
BRANCH   1  12
ATOM     12  C   UNL     1      67.976  47.439   8.044  1.00  0.00     0.029 A 
ATOM     13  C   UNL     1      67.137  48.416   8.596  1.00  0.00     0.062 A 
ATOM     14  C   UNL     1      65.761  48.200   8.698  1.00  0.00     0.162 A 
ATOM     15  C   UNL     1      67.411  46.250   7.558  1.00  0.00     0.062 A 
ATOM     16  C   UNL     1      65.196  46.999   8.232  1.00  0.00     0.200 A 
ATOM     17  C   UNL     1      66.034  46.018   7.649  1.00  0.00     0.162 A 
BRANCH  14  18
ATOM     18  O   UNL     1      64.967  49.196   9.270  1.00  0.00    -0.504 OA
ATOM     19  H   UNL     1      63.956  49.182   9.211  1.00  0.00     0.293 HD
ENDBRANCH  14  18
BRANCH  16  20
ATOM     20  O   UNL     1      63.816  46.819   8.362  1.00  0.00    -0.502 OA
ATOM     21  H   UNL     1      63.128  47.260   7.771  1.00  0.00     0.293 HD
ENDBRANCH  16  20
BRANCH  17  22
ATOM     22  O   UNL     1      65.545  44.811   7.143  1.00  0.00    -0.504 OA
ATOM     23  H   UNL     1      65.493  43.953   7.675  1.00  0.00     0.293 HD
ENDBRANCH  17  22
ENDBRANCH   1  12
BRANCH   2  24
ATOM     24  O   UNL     1      69.514  48.742  10.124  1.00  0.00    -0.502 OA
ATOM     25  H   UNL     1      69.442  48.162  10.952  1.00  0.00     0.293 HD
ENDBRANCH   2  24
BRANCH   6  26
ATOM     26  O   UNL     1      74.512  48.611   8.287  1.00  0.00    -0.507 OA
ATOM     27  H   UNL     1      75.511  48.561   8.165  1.00  0.00     0.293 HD
ENDBRANCH   6  26
BRANCH   8  28
ATOM     28  O   UNL     1      73.726  47.022   3.824  1.00  0.00    -0.508 OA
ATOM     29  H   UNL     1      73.291  47.351   2.970  1.00  0.00     0.293 HD
ENDBRANCH   8  28
TORSDOF 7
ENDMDL
MODEL 3
REMARK VINA RESULT:    -6.079      1.867      7.252
REMARK INTER + INTRA:          -7.360
REMARK INTER:                  -7.038
REMARK INTRA:                  -0.321
REMARK UNBOUND:                 0.141
REMARK SMILES O=c1c(O)c(-c2cc(O)c(O)c(O)c2)oc2cc(O)cc(O)c12
REMARK SMILES IDX 5 1 3 2 2 3 1 4 23 5 21 6 20 7 18 8 17 9 16 10 15 11 6 12
REMARK SMILES IDX 7 13 8 14 14 15 10 16 12 17 9 18 11 20 13 22 4 24 22 26
REMARK SMILES IDX 19 28
REMARK H PARENT 9 19 11 21 13 23 4 25 22 27 19 29
REMARK Flexibility Score: inf
ROOT
ATOM      1  C   UNL     1      67.503  47.468   8.065  1.00  0.00     0.180 A 
ATOM      2  C   UNL     1      66.883  48.443   8.866  1.00  0.00     0.208 A 
ATOM      3  C   UNL     1      65.595  48.196   9.365  1.00  0.00     0.238 A 
ATOM      4  O   UNL     1      65.067  49.049  10.125  1.00  0.00    -0.285 OA
ATOM      5  C   UNL     1      64.936  46.984   9.044  1.00  0.00     0.111 A 
ATOM      6  C   UNL     1      63.613  46.646   9.462  1.00  0.00     0.134 A 
ATOM      7  C   UNL     1      63.112  45.366   9.197  1.00  0.00     0.093 A 
ATOM      8  C   UNL     1      63.859  44.435   8.471  1.00  0.00     0.123 A 
ATOM      9  C   UNL     1      65.127  44.777   8.007  1.00  0.00     0.094 A 
ATOM     10  C   UNL     1      65.670  46.033   8.288  1.00  0.00     0.146 A 
ATOM     11  O   UNL     1      66.886  46.315   7.837  1.00  0.00    -0.452 OA
ENDROOT
BRANCH   1  12
ATOM     12  C   UNL     1      68.850  47.667   7.482  1.00  0.00     0.029 A 
ATOM     13  C   UNL     1      69.942  46.968   8.013  1.00  0.00     0.062 A 
ATOM     14  C   UNL     1      71.220  47.122   7.470  1.00  0.00     0.162 A 
ATOM     15  C   UNL     1      69.049  48.499   6.369  1.00  0.00     0.062 A 
ATOM     16  C   UNL     1      71.425  47.973   6.369  1.00  0.00     0.200 A 
ATOM     17  C   UNL     1      70.321  48.662   5.810  1.00  0.00     0.162 A 
BRANCH  14  18
ATOM     18  O   UNL     1      72.280  46.417   8.043  1.00  0.00    -0.504 OA
ATOM     19  H   UNL     1      72.135  45.616   8.645  1.00  0.00     0.293 HD
ENDBRANCH  14  18
BRANCH  16  20
ATOM     20  O   UNL     1      72.720  48.106   5.863  1.00  0.00    -0.502 OA
ATOM     21  H   UNL     1      73.080  47.581   5.079  1.00  0.00     0.293 HD
ENDBRANCH  16  20
BRANCH  17  22
ATOM     22  O   UNL     1      70.440  49.506   4.703  1.00  0.00    -0.504 OA
ATOM     23  H   UNL     1      71.209  49.479   4.049  1.00  0.00     0.293 HD
ENDBRANCH  17  22
ENDBRANCH   1  12
BRANCH   2  24
ATOM     24  O   UNL     1      67.561  49.622   9.187  1.00  0.00    -0.502 OA
ATOM     25  H   UNL     1      67.446  50.478   8.655  1.00  0.00     0.293 HD
ENDBRANCH   2  24
BRANCH   6  26
ATOM     26  O   UNL     1      62.750  47.533  10.112  1.00  0.00    -0.507 OA
ATOM     27  H   UNL     1      62.697  48.522   9.928  1.00  0.00     0.293 HD
ENDBRANCH   6  26
BRANCH   8  28
ATOM     28  O   UNL     1      63.346  43.169   8.197  1.00  0.00    -0.508 OA
ATOM     29  H   UNL     1      62.394  43.042   7.873  1.00  0.00     0.293 HD
ENDBRANCH   8  28
TORSDOF 7
ENDMDL
MODEL 4
REMARK VINA RESULT:    -6.029      3.484      5.589
REMARK INTER + INTRA:          -7.298
REMARK INTER:                  -7.000
REMARK INTRA:                  -0.298
REMARK UNBOUND:                 0.141
REMARK SMILES O=c1c(O)c(-c2cc(O)c(O)c(O)c2)oc2cc(O)cc(O)c12
REMARK SMILES IDX 5 1 3 2 2 3 1 4 23 5 21 6 20 7 18 8 17 9 16 10 15 11 6 12
REMARK SMILES IDX 7 13 8 14 14 15 10 16 12 17 9 18 11 20 13 22 4 24 22 26
REMARK SMILES IDX 19 28
REMARK H PARENT 9 19 11 21 13 23 4 25 22 27 19 29
REMARK Flexibility Score: inf
ROOT
ATOM      1  C   UNL     1      69.163  45.055   7.490  1.00  0.00     0.180 A 
ATOM      2  C   UNL     1      68.053  45.902   7.322  1.00  0.00     0.208 A 
ATOM      3  C   UNL     1      68.140  47.232   7.760  1.00  0.00     0.238 A 
ATOM      4  O   UNL     1      67.163  48.000   7.558  1.00  0.00    -0.285 OA
ATOM      5  C   UNL     1      69.328  47.696   8.375  1.00  0.00     0.111 A 
ATOM      6  C   UNL     1      69.513  49.014   8.892  1.00  0.00     0.134 A 
ATOM      7  C   UNL     1      70.774  49.402   9.360  1.00  0.00     0.093 A 
ATOM      8  C   UNL     1      71.840  48.499   9.390  1.00  0.00     0.123 A 
ATOM      9  C   UNL     1      71.654  47.193   8.943  1.00  0.00     0.094 A 
ATOM     10  C   UNL     1      70.417  46.787   8.436  1.00  0.00     0.146 A 
ATOM     11  O   UNL     1      70.286  45.538   8.009  1.00  0.00    -0.452 OA
ENDROOT
BRANCH   1  12
ATOM     12  C   UNL     1      69.139  43.633   7.076  1.00  0.00     0.029 A 
ATOM     13  C   UNL     1      69.904  43.221   5.976  1.00  0.00     0.062 A 
ATOM     14  C   UNL     1      69.915  41.883   5.576  1.00  0.00     0.162 A 
ATOM     15  C   UNL     1      68.410  42.674   7.798  1.00  0.00     0.062 A 
ATOM     16  C   UNL     1      69.167  40.925   6.285  1.00  0.00     0.200 A 
ATOM     17  C   UNL     1      68.413  41.329   7.413  1.00  0.00     0.162 A 
BRANCH  14  18
ATOM     18  O   UNL     1      70.679  41.522   4.465  1.00  0.00    -0.504 OA
ATOM     19  H   UNL     1      70.262  41.308   3.568  1.00  0.00     0.293 HD
ENDBRANCH  14  18
BRANCH  16  20
ATOM     20  O   UNL     1      69.198  39.598   5.846  1.00  0.00    -0.502 OA
ATOM     21  H   UNL     1      68.450  39.151   5.337  1.00  0.00     0.293 HD
ENDBRANCH  16  20
BRANCH  17  22
ATOM     22  O   UNL     1      67.664  40.433   8.181  1.00  0.00    -0.504 OA
ATOM     23  H   UNL     1      66.729  40.619   8.516  1.00  0.00     0.293 HD
ENDBRANCH  17  22
ENDBRANCH   1  12
BRANCH   2  24
ATOM     24  O   UNL     1      66.898  45.429   6.694  1.00  0.00    -0.502 OA
ATOM     25  H   UNL     1      66.448  44.562   6.965  1.00  0.00     0.293 HD
ENDBRANCH   2  24
BRANCH   6  26
ATOM     26  O   UNL     1      68.490  49.962   8.992  1.00  0.00    -0.507 OA
ATOM     27  H   UNL     1      68.244  50.620   8.270  1.00  0.00     0.293 HD
ENDBRANCH   6  26
BRANCH   8  28
ATOM     28  O   UNL     1      73.088  48.889   9.872  1.00  0.00    -0.508 OA
ATOM     29  H   UNL     1      73.687  49.514   9.347  1.00  0.00     0.293 HD
ENDBRANCH   8  28
TORSDOF 7
ENDMDL
MODEL 5
REMARK VINA RESULT:    -5.994      3.488      5.639
REMARK INTER + INTRA:          -7.255
REMARK INTER:                  -7.029
REMARK INTRA:                  -0.225
REMARK UNBOUND:                 0.141
REMARK SMILES O=c1c(O)c(-c2cc(O)c(O)c(O)c2)oc2cc(O)cc(O)c12
REMARK SMILES IDX 5 1 3 2 2 3 1 4 23 5 21 6 20 7 18 8 17 9 16 10 15 11 6 12
REMARK SMILES IDX 7 13 8 14 14 15 10 16 12 17 9 18 11 20 13 22 4 24 22 26
REMARK SMILES IDX 19 28
REMARK H PARENT 9 19 11 21 13 23 4 25 22 27 19 29
REMARK Flexibility Score: inf
ROOT
ATOM      1  C   UNL     1      69.207  45.063   7.412  1.00  0.00     0.180 A 
ATOM      2  C   UNL     1      68.061  45.864   7.271  1.00  0.00     0.208 A 
ATOM      3  C   UNL     1      68.114  47.207   7.676  1.00  0.00     0.238 A 
ATOM      4  O   UNL     1      67.102  47.933   7.498  1.00  0.00    -0.285 OA
ATOM      5  C   UNL     1      69.307  47.727   8.233  1.00  0.00     0.111 A 
ATOM      6  C   UNL     1      69.462  49.063   8.715  1.00  0.00     0.134 A 
ATOM      7  C   UNL     1      70.725  49.507   9.124  1.00  0.00     0.093 A 
ATOM      8  C   UNL     1      71.824  48.646   9.131  1.00  0.00     0.123 A 
ATOM      9  C   UNL     1      71.671  47.324   8.719  1.00  0.00     0.094 A 
ATOM     10  C   UNL     1      70.431  46.861   8.270  1.00  0.00     0.146 A 
ATOM     11  O   UNL     1      70.331  45.598   7.876  1.00  0.00    -0.452 OA
ENDROOT
BRANCH   1  12
ATOM     12  C   UNL     1      69.220  43.632   7.030  1.00  0.00     0.029 A 
ATOM     13  C   UNL     1      68.439  42.718   7.749  1.00  0.00     0.062 A 
ATOM     14  C   UNL     1      68.418  41.366   7.397  1.00  0.00     0.162 A 
ATOM     15  C   UNL     1      69.955  43.179   5.922  1.00  0.00     0.062 A 
ATOM     16  C   UNL     1      69.171  40.907   6.301  1.00  0.00     0.200 A 
ATOM     17  C   UNL     1      69.942  41.829   5.553  1.00  0.00     0.162 A 
BRANCH  14  18
ATOM     18  O   UNL     1      67.637  40.489   8.152  1.00  0.00    -0.504 OA
ATOM     19  H   UNL     1      66.833  40.011   7.766  1.00  0.00     0.293 HD
ENDBRANCH  14  18
BRANCH  16  20
ATOM     20  O   UNL     1      69.129  39.545   5.989  1.00  0.00    -0.502 OA
ATOM     21  H   UNL     1      68.279  39.029   5.814  1.00  0.00     0.293 HD
ENDBRANCH  16  20
BRANCH  17  22
ATOM     22  O   UNL     1      70.698  41.454   4.440  1.00  0.00    -0.504 OA
ATOM     23  H   UNL     1      70.647  41.910   3.540  1.00  0.00     0.293 HD
ENDBRANCH  17  22
ENDBRANCH   1  12
BRANCH   2  24
ATOM     24  O   UNL     1      66.901  45.335   6.699  1.00  0.00    -0.502 OA
ATOM     25  H   UNL     1      65.981  45.724   6.875  1.00  0.00     0.293 HD
ENDBRANCH   2  24
BRANCH   6  26
ATOM     26  O   UNL     1      68.409  49.974   8.836  1.00  0.00    -0.507 OA
ATOM     27  H   UNL     1      68.324  50.661   9.569  1.00  0.00     0.293 HD
ENDBRANCH   6  26
BRANCH   8  28
ATOM     28  O   UNL     1      73.074  49.092   9.555  1.00  0.00    -0.508 OA
ATOM     29  H   UNL     1      73.169  49.863  10.205  1.00  0.00     0.293 HD
ENDBRANCH   8  28
TORSDOF 7
ENDMDL
MODEL 6
REMARK VINA RESULT:    -5.986      4.073      5.874
REMARK INTER + INTRA:          -7.244
REMARK INTER:                  -6.875
REMARK INTRA:                  -0.369
REMARK UNBOUND:                 0.141
REMARK SMILES O=c1c(O)c(-c2cc(O)c(O)c(O)c2)oc2cc(O)cc(O)c12
REMARK SMILES IDX 5 1 3 2 2 3 1 4 23 5 21 6 20 7 18 8 17 9 16 10 15 11 6 12
REMARK SMILES IDX 7 13 8 14 14 15 10 16 12 17 9 18 11 20 13 22 4 24 22 26
REMARK SMILES IDX 19 28
REMARK H PARENT 9 19 11 21 13 23 4 25 22 27 19 29
REMARK Flexibility Score: inf
ROOT
ATOM      1  C   UNL     1      71.388  43.892   6.415  1.00  0.00     0.180 A 
ATOM      2  C   UNL     1      71.796  44.164   5.097  1.00  0.00     0.208 A 
ATOM      3  C   UNL     1      72.521  45.338   4.838  1.00  0.00     0.238 A 
ATOM      4  O   UNL     1      72.929  45.549   3.666  1.00  0.00    -0.285 OA
ATOM      5  C   UNL     1      72.814  46.232   5.895  1.00  0.00     0.111 A 
ATOM      6  C   UNL     1      73.508  47.471   5.740  1.00  0.00     0.134 A 
ATOM      7  C   UNL     1      73.859  48.212   6.874  1.00  0.00     0.093 A 
ATOM      8  C   UNL     1      73.483  47.794   8.153  1.00  0.00     0.123 A 
ATOM      9  C   UNL     1      72.755  46.618   8.310  1.00  0.00     0.094 A 
ATOM     10  C   UNL     1      72.422  45.836   7.200  1.00  0.00     0.146 A 
ATOM     11  O   UNL     1      71.737  44.717   7.395  1.00  0.00    -0.452 OA
ENDROOT
BRANCH   1  12
ATOM     12  C   UNL     1      70.600  42.687   6.762  1.00  0.00     0.029 A 
ATOM     13  C   UNL     1      71.261  41.535   7.209  1.00  0.00     0.062 A 
ATOM     14  C   UNL     1      70.541  40.391   7.563  1.00  0.00     0.162 A 
ATOM     15  C   UNL     1      69.197  42.692   6.710  1.00  0.00     0.062 A 
ATOM     16  C   UNL     1      69.136  40.387   7.489  1.00  0.00     0.200 A 
ATOM     17  C   UNL     1      68.460  41.556   7.064  1.00  0.00     0.162 A 
BRANCH  14  18
ATOM     18  O   UNL     1      71.243  39.262   7.987  1.00  0.00    -0.504 OA
ATOM     19  H   UNL     1      72.038  38.896   7.479  1.00  0.00     0.293 HD
ENDBRANCH  14  18
BRANCH  16  20
ATOM     20  O   UNL     1      68.455  39.219   7.842  1.00  0.00    -0.502 OA
ATOM     21  H   UNL     1      68.652  38.308   7.455  1.00  0.00     0.293 HD
ENDBRANCH  16  20
BRANCH  17  22
ATOM     22  O   UNL     1      67.067  41.637   6.985  1.00  0.00    -0.504 OA
ATOM     23  H   UNL     1      66.436  40.991   7.437  1.00  0.00     0.293 HD
ENDBRANCH  17  22
ENDBRANCH   1  12
BRANCH   2  24
ATOM     24  O   UNL     1      71.513  43.256   4.073  1.00  0.00    -0.502 OA
ATOM     25  H   UNL     1      70.565  43.027   3.796  1.00  0.00     0.293 HD
ENDBRANCH   2  24
BRANCH   6  26
ATOM     26  O   UNL     1      73.848  48.024   4.501  1.00  0.00    -0.507 OA
ATOM     27  H   UNL     1      74.731  48.461   4.290  1.00  0.00     0.293 HD
ENDBRANCH   6  26
BRANCH   8  28
ATOM     28  O   UNL     1      73.822  48.547   9.275  1.00  0.00    -0.508 OA
ATOM     29  H   UNL     1      73.465  49.485   9.411  1.00  0.00     0.293 HD
ENDBRANCH   8  28
TORSDOF 7
ENDMDL
MODEL 7
REMARK VINA RESULT:    -5.969      1.716      3.126
REMARK INTER + INTRA:          -7.224
REMARK INTER:                  -6.899
REMARK INTRA:                  -0.325
REMARK UNBOUND:                 0.141
REMARK SMILES O=c1c(O)c(-c2cc(O)c(O)c(O)c2)oc2cc(O)cc(O)c12
REMARK SMILES IDX 5 1 3 2 2 3 1 4 23 5 21 6 20 7 18 8 17 9 16 10 15 11 6 12
REMARK SMILES IDX 7 13 8 14 14 15 10 16 12 17 9 18 11 20 13 22 4 24 22 26
REMARK SMILES IDX 19 28
REMARK H PARENT 9 19 11 21 13 23 4 25 22 27 19 29
REMARK Flexibility Score: inf
ROOT
ATOM      1  C   UNL     1      68.883  47.170   7.903  1.00  0.00     0.180 A 
ATOM      2  C   UNL     1      69.391  47.996   6.885  1.00  0.00     0.208 A 
ATOM      3  C   UNL     1      70.781  48.092   6.715  1.00  0.00     0.238 A 
ATOM      4  O   UNL     1      71.227  48.791   5.769  1.00  0.00    -0.285 OA
ATOM      5  C   UNL     1      71.646  47.373   7.575  1.00  0.00     0.111 A 
ATOM      6  C   UNL     1      73.072  47.427   7.519  1.00  0.00     0.134 A 
ATOM      7  C   UNL     1      73.828  46.573   8.331  1.00  0.00     0.093 A 
ATOM      8  C   UNL     1      73.211  45.715   9.245  1.00  0.00     0.123 A 
ATOM      9  C   UNL     1      71.822  45.698   9.349  1.00  0.00     0.094 A 
ATOM     10  C   UNL     1      71.039  46.512   8.526  1.00  0.00     0.146 A 
ATOM     11  O   UNL     1      69.719  46.456   8.649  1.00  0.00    -0.452 OA
ENDROOT
BRANCH   1  12
ATOM     12  C   UNL     1      67.431  47.037   8.159  1.00  0.00     0.029 A 
ATOM     13  C   UNL     1      66.758  48.047   8.860  1.00  0.00     0.062 A 
ATOM     14  C   UNL     1      65.384  47.957   9.098  1.00  0.00     0.162 A 
ATOM     15  C   UNL     1      66.699  45.946   7.664  1.00  0.00     0.062 A 
ATOM     16  C   UNL     1      64.653  46.852   8.621  1.00  0.00     0.200 A 
ATOM     17  C   UNL     1      65.322  45.842   7.890  1.00  0.00     0.162 A 
BRANCH  14  18
ATOM     18  O   UNL     1      64.760  48.979   9.814  1.00  0.00    -0.504 OA
ATOM     19  H   UNL     1      64.418  48.848  10.758  1.00  0.00     0.293 HD
ENDBRANCH  14  18
BRANCH  16  20
ATOM     20  O   UNL     1      63.283  46.797   8.890  1.00  0.00    -0.502 OA
ATOM     21  H   UNL     1      62.826  46.024   9.351  1.00  0.00     0.293 HD
ENDBRANCH  16  20
BRANCH  17  22
ATOM     22  O   UNL     1      64.662  44.727   7.366  1.00  0.00    -0.504 OA
ATOM     23  H   UNL     1      64.614  43.829   7.825  1.00  0.00     0.293 HD
ENDBRANCH  17  22
ENDBRANCH   1  12
BRANCH   2  24
ATOM     24  O   UNL     1      68.517  48.680   6.036  1.00  0.00    -0.502 OA
ATOM     25  H   UNL     1      67.860  49.373   6.375  1.00  0.00     0.293 HD
ENDBRANCH   2  24
BRANCH   6  26
ATOM     26  O   UNL     1      73.788  48.313   6.708  1.00  0.00    -0.507 OA
ATOM     27  H   UNL     1      73.406  49.149   6.293  1.00  0.00     0.293 HD
ENDBRANCH   6  26
BRANCH   8  28
ATOM     28  O   UNL     1      73.971  44.880  10.061  1.00  0.00    -0.508 OA
ATOM     29  H   UNL     1      74.770  44.373   9.702  1.00  0.00     0.293 HD
ENDBRANCH   8  28
TORSDOF 7
ENDMDL
MODEL 8
REMARK VINA RESULT:    -5.928      2.157      3.192
REMARK INTER + INTRA:          -7.172
REMARK INTER:                  -6.803
REMARK INTRA:                  -0.369
REMARK UNBOUND:                 0.141
REMARK SMILES O=c1c(O)c(-c2cc(O)c(O)c(O)c2)oc2cc(O)cc(O)c12
REMARK SMILES IDX 5 1 3 2 2 3 1 4 23 5 21 6 20 7 18 8 17 9 16 10 15 11 6 12
REMARK SMILES IDX 7 13 8 14 14 15 10 16 12 17 9 18 11 20 13 22 4 24 22 26
REMARK SMILES IDX 19 28
REMARK H PARENT 9 19 11 21 13 23 4 25 22 27 19 29
REMARK Flexibility Score: inf
ROOT
ATOM      1  C   UNL     1      70.258  47.394   6.865  1.00  0.00     0.180 A 
ATOM      2  C   UNL     1      70.862  48.056   5.781  1.00  0.00     0.208 A 
ATOM      3  C   UNL     1      72.070  47.559   5.268  1.00  0.00     0.238 A 
ATOM      4  O   UNL     1      72.577  48.124   4.264  1.00  0.00    -0.285 OA
ATOM      5  C   UNL     1      72.668  46.418   5.853  1.00  0.00     0.111 A 
ATOM      6  C   UNL     1      73.912  45.852   5.440  1.00  0.00     0.134 A 
ATOM      7  C   UNL     1      74.343  44.645   6.004  1.00  0.00     0.093 A 
ATOM      8  C   UNL     1      73.609  44.019   7.013  1.00  0.00     0.123 A 
ATOM      9  C   UNL     1      72.424  44.594   7.465  1.00  0.00     0.094 A 
ATOM     10  C   UNL     1      71.948  45.778   6.896  1.00  0.00     0.146 A 
ATOM     11  O   UNL     1      70.809  46.286   7.349  1.00  0.00    -0.452 OA
ENDROOT
BRANCH   1  12
ATOM     12  C   UNL     1      68.996  47.871   7.476  1.00  0.00     0.029 A 
ATOM     13  C   UNL     1      67.776  47.326   7.056  1.00  0.00     0.062 A 
ATOM     14  C   UNL     1      66.572  47.744   7.630  1.00  0.00     0.162 A 
ATOM     15  C   UNL     1      69.000  48.819   8.512  1.00  0.00     0.062 A 
ATOM     16  C   UNL     1      66.573  48.710   8.652  1.00  0.00     0.200 A 
ATOM     17  C   UNL     1      67.804  49.246   9.100  1.00  0.00     0.162 A 
BRANCH  14  18
ATOM     18  O   UNL     1      65.380  47.184   7.168  1.00  0.00    -0.504 OA
ATOM     19  H   UNL     1      64.559  47.100   7.754  1.00  0.00     0.293 HD
ENDBRANCH  14  18
BRANCH  16  20
ATOM     20  O   UNL     1      65.346  49.107   9.192  1.00  0.00    -0.502 OA
ATOM     21  H   UNL     1      64.904  49.995   9.003  1.00  0.00     0.293 HD
ENDBRANCH  16  20
BRANCH  17  22
ATOM     22  O   UNL     1      67.888  50.192  10.125  1.00  0.00    -0.504 OA
ATOM     23  H   UNL     1      68.378  50.044  10.995  1.00  0.00     0.293 HD
ENDBRANCH  17  22
ENDBRANCH   1  12
BRANCH   2  24
ATOM     24  O   UNL     1      70.242  49.168   5.205  1.00  0.00    -0.502 OA
ATOM     25  H   UNL     1      69.359  49.534   5.543  1.00  0.00     0.293 HD
ENDBRANCH   2  24
BRANCH   6  26
ATOM     26  O   UNL     1      74.766  46.446   4.506  1.00  0.00    -0.507 OA
ATOM     27  H   UNL     1      74.483  47.128   3.820  1.00  0.00     0.293 HD
ENDBRANCH   6  26
BRANCH   8  28
ATOM     28  O   UNL     1      74.054  42.826   7.581  1.00  0.00    -0.508 OA
ATOM     29  H   UNL     1      73.481  42.304   8.232  1.00  0.00     0.293 HD
ENDBRANCH   8  28
TORSDOF 7
ENDMDL
MODEL 9
REMARK VINA RESULT:    -3.545      2.374      7.428
REMARK INTER + INTRA:          -4.232
REMARK INTER:                  -3.897
REMARK INTRA:                  -0.335
REMARK UNBOUND:                 0.141
REMARK SMILES O=c1c(O)c(-c2cc(O)c(O)c(O)c2)oc2cc(O)cc(O)c12
REMARK SMILES IDX 5 1 3 2 2 3 1 4 23 5 21 6 20 7 18 8 17 9 16 10 15 11 6 12
REMARK SMILES IDX 7 13 8 14 14 15 10 16 12 17 9 18 11 20 13 22 4 24 22 26
REMARK SMILES IDX 19 28
REMARK H PARENT 9 19 11 21 13 23 4 25 22 27 19 29
REMARK Flexibility Score: inf
ROOT
ATOM      1  C   UNL     1      67.006  46.798   8.185  1.00  0.00     0.180 A 
ATOM      2  C   UNL     1      65.684  47.187   7.907  1.00  0.00     0.208 A 
ATOM      3  C   UNL     1      64.649  46.255   8.083  1.00  0.00     0.238 A 
ATOM      4  O   UNL     1      63.462  46.624   7.884  1.00  0.00    -0.285 OA
ATOM      5  C   UNL     1      64.951  44.941   8.517  1.00  0.00     0.111 A 
ATOM      6  C   UNL     1      63.986  43.903   8.691  1.00  0.00     0.134 A 
ATOM      7  C   UNL     1      64.379  42.682   9.251  1.00  0.00     0.093 A 
ATOM      8  C   UNL     1      65.713  42.438   9.583  1.00  0.00     0.123 A 
ATOM      9  C   UNL     1      66.673  43.423   9.362  1.00  0.00     0.094 A 
ATOM     10  C   UNL     1      66.306  44.665   8.839  1.00  0.00     0.146 A 
ATOM     11  O   UNL     1      67.249  45.580   8.656  1.00  0.00    -0.452 OA
ENDROOT
BRANCH   1  12
ATOM     12  C   UNL     1      68.152  47.718   8.001  1.00  0.00     0.029 A 
ATOM     13  C   UNL     1      68.757  48.301   9.123  1.00  0.00     0.062 A 
ATOM     14  C   UNL     1      69.852  49.156   8.980  1.00  0.00     0.162 A 
ATOM     15  C   UNL     1      68.686  47.974   6.728  1.00  0.00     0.062 A 
ATOM     16  C   UNL     1      70.374  49.432   7.703  1.00  0.00     0.200 A 
ATOM     17  C   UNL     1      69.785  48.825   6.567  1.00  0.00     0.162 A 
BRANCH  14  18
ATOM     18  O   UNL     1      70.411  49.727  10.125  1.00  0.00    -0.504 OA
ATOM     19  H   UNL     1      70.940  50.589  10.097  1.00  0.00     0.293 HD
ENDBRANCH  14  18
BRANCH  16  20
ATOM     20  O   UNL     1      71.464  50.301   7.603  1.00  0.00    -0.502 OA
ATOM     21  H   UNL     1      71.497  51.220   8.018  1.00  0.00     0.293 HD
ENDBRANCH  16  20
BRANCH  17  22
ATOM     22  O   UNL     1      70.260  49.032   5.269  1.00  0.00    -0.504 OA
ATOM     23  H   UNL     1      71.208  48.845   4.976  1.00  0.00     0.293 HD
ENDBRANCH  17  22
ENDBRANCH   1  12
BRANCH   2  24
ATOM     24  O   UNL     1      65.407  48.495   7.500  1.00  0.00    -0.502 OA
ATOM     25  H   UNL     1      64.713  49.072   7.961  1.00  0.00     0.293 HD
ENDBRANCH   2  24
BRANCH   6  26
ATOM     26  O   UNL     1      62.646  44.012   8.306  1.00  0.00    -0.507 OA
ATOM     27  H   UNL     1      62.011  44.724   8.631  1.00  0.00     0.293 HD
ENDBRANCH   6  26
BRANCH   8  28
ATOM     28  O   UNL     1      66.099  41.213  10.125  1.00  0.00    -0.508 OA
ATOM     29  H   UNL     1      65.979  41.009  11.110  1.00  0.00     0.293 HD
ENDBRANCH   8  28
TORSDOF 7
ENDMDL
