MODEL 1
REMARK VINA RESULT:    -6.302      0.000      0.000
REMARK INTER + INTRA:          -7.817
REMARK INTER:                  -7.592
REMARK INTRA:                  -0.225
REMARK UNBOUND:                -0.225
REMARK SMILES O=c1c(O)c(-c2ccc(O)cc2O)oc2cc(O)cc(O)c12
REMARK SMILES IDX 5 1 3 2 2 3 1 4 22 5 20 6 19 7 17 8 16 9 15 10 14 11 6 12
REMARK SMILES IDX 8 13 7 14 9 15 11 16 12 17 10 18 13 20 4 22 21 24 18 26
REMARK H PARENT 10 19 13 21 4 23 21 25 18 27
REMARK Flexibility Score: inf
ROOT
ATOM      1  C   UNL     1      -2.877  39.817 101.809  1.00  0.00     0.184 A 
ATOM      2  C   UNL     1      -2.824  38.681 102.630  1.00  0.00     0.208 A 
ATOM      3  C   UNL     1      -3.041  37.417 102.058  1.00  0.00     0.238 A 
ATOM      4  O   UNL     1      -3.054  36.408 102.809  1.00  0.00    -0.285 OA
ATOM      5  C   UNL     1      -3.280  37.306 100.666  1.00  0.00     0.111 A 
ATOM      6  C   UNL     1      -3.474  36.075  99.972  1.00  0.00     0.134 A 
ATOM      7  C   UNL     1      -3.824  36.093  98.616  1.00  0.00     0.093 A 
ATOM      8  C   UNL     1      -3.924  37.294  97.914  1.00  0.00     0.123 A 
ATOM      9  C   UNL     1      -3.678  38.501  98.568  1.00  0.00     0.094 A 
ATOM     10  C   UNL     1      -3.363  38.517  99.929  1.00  0.00     0.146 A 
ATOM     11  O   UNL     1      -3.152  39.689 100.517  1.00  0.00    -0.451 OA
ENDROOT
BRANCH   1  12
ATOM     12  C   UNL     1      -2.633  41.171 102.352  1.00  0.00     0.063 A 
ATOM     13  C   UNL     1      -3.481  43.394 102.866  1.00  0.00     0.047 A 
ATOM     14  C   UNL     1      -3.665  42.126 102.312  1.00  0.00     0.020 A 
ATOM     15  C   UNL     1      -2.269  43.725 103.475  1.00  0.00     0.119 A 
ATOM     16  C   UNL     1      -1.234  42.783 103.522  1.00  0.00     0.093 A 
ATOM     17  C   UNL     1      -1.402  41.511 102.961  1.00  0.00     0.130 A 
BRANCH  15  18
ATOM     18  O   UNL     1      -2.102  44.992 104.028  1.00  0.00    -0.508 OA
ATOM     19  H   UNL     1      -2.894  45.549 104.327  1.00  0.00     0.293 HD
ENDBRANCH  15  18
BRANCH  17  20
ATOM     20  O   UNL     1      -0.325  40.623 103.004  1.00  0.00    -0.507 OA
ATOM     21  H   UNL     1       0.233  40.473 103.835  1.00  0.00     0.293 HD
ENDBRANCH  17  20
ENDBRANCH   1  12
BRANCH   2  22
ATOM     22  O   UNL     1      -2.583  38.820 103.999  1.00  0.00    -0.502 OA
ATOM     23  H   UNL     1      -3.263  39.225 104.632  1.00  0.00     0.293 HD
ENDBRANCH   2  22
BRANCH   6  24
ATOM     24  O   UNL     1      -3.311  34.815 100.556  1.00  0.00    -0.507 OA
ATOM     25  H   UNL     1      -2.434  34.321 100.624  1.00  0.00     0.293 HD
ENDBRANCH   6  24
BRANCH   8  26
ATOM     26  O   UNL     1      -4.258  37.273  96.562  1.00  0.00    -0.508 OA
ATOM     27  H   UNL     1      -5.095  37.727  96.216  1.00  0.00     0.293 HD
ENDBRANCH   8  26
TORSDOF 6
ENDMDL
MODEL 2
REMARK VINA RESULT:    -6.059      8.959     12.577
REMARK INTER + INTRA:          -7.524
REMARK INTER:                  -7.230
REMARK INTRA:                  -0.294
REMARK UNBOUND:                -0.225
REMARK SMILES O=c1c(O)c(-c2ccc(O)cc2O)oc2cc(O)cc(O)c12
REMARK SMILES IDX 5 1 3 2 2 3 1 4 22 5 20 6 19 7 17 8 16 9 15 10 14 11 6 12
REMARK SMILES IDX 8 13 7 14 9 15 11 16 12 17 10 18 13 20 4 22 21 24 18 26
REMARK H PARENT 10 19 13 21 4 23 21 25 18 27
REMARK Flexibility Score: inf
ROOT
ATOM      1  C   UNL     1     -10.208  46.610 104.241  1.00  0.00     0.184 A 
ATOM      2  C   UNL     1     -10.564  47.964 104.327  1.00  0.00     0.208 A 
ATOM      3  C   UNL     1     -11.473  48.368 105.318  1.00  0.00     0.238 A 
ATOM      4  O   UNL     1     -11.835  49.573 105.351  1.00  0.00    -0.285 OA
ATOM      5  C   UNL     1     -11.991  47.415 106.229  1.00  0.00     0.111 A 
ATOM      6  C   UNL     1     -12.887  47.718 107.297  1.00  0.00     0.134 A 
ATOM      7  C   UNL     1     -13.430  46.676 108.060  1.00  0.00     0.093 A 
ATOM      8  C   UNL     1     -13.060  45.350 107.835  1.00  0.00     0.123 A 
ATOM      9  C   UNL     1     -12.139  45.048 106.832  1.00  0.00     0.094 A 
ATOM     10  C   UNL     1     -11.609  46.061 106.030  1.00  0.00     0.146 A 
ATOM     11  O   UNL     1     -10.747  45.729 105.076  1.00  0.00    -0.451 OA
ENDROOT
BRANCH   1  12
ATOM     12  C   UNL     1      -9.239  46.131 103.234  1.00  0.00     0.063 A 
ATOM     13  C   UNL     1      -7.106  45.068 102.732  1.00  0.00     0.047 A 
ATOM     14  C   UNL     1      -8.017  45.579 103.660  1.00  0.00     0.020 A 
ATOM     15  C   UNL     1      -7.404  45.094 101.369  1.00  0.00     0.119 A 
ATOM     16  C   UNL     1      -8.618  45.639 100.932  1.00  0.00     0.093 A 
ATOM     17  C   UNL     1      -9.535  46.164 101.851  1.00  0.00     0.130 A 
BRANCH  15  18
ATOM     18  O   UNL     1      -6.488  44.576 100.456  1.00  0.00    -0.508 OA
ATOM     19  H   UNL     1      -5.929  45.181  99.866  1.00  0.00     0.293 HD
ENDBRANCH  15  18
BRANCH  17  20
ATOM     20  O   UNL     1     -10.713  46.729 101.357  1.00  0.00    -0.507 OA
ATOM     21  H   UNL     1     -11.435  46.187 100.900  1.00  0.00     0.293 HD
ENDBRANCH  17  20
ENDBRANCH   1  12
BRANCH   2  22
ATOM     22  O   UNL     1     -10.035  48.883 103.417  1.00  0.00    -0.502 OA
ATOM     23  H   UNL     1     -10.077  48.741 102.414  1.00  0.00     0.293 HD
ENDBRANCH   2  22
BRANCH   6  24
ATOM     24  O   UNL     1     -13.253  49.015 107.666  1.00  0.00    -0.507 OA
ATOM     25  H   UNL     1     -13.941  49.242 108.368  1.00  0.00     0.293 HD
ENDBRANCH   6  24
BRANCH   8  26
ATOM     26  O   UNL     1     -13.607  44.342 108.624  1.00  0.00    -0.508 OA
ATOM     27  H   UNL     1     -13.986  43.495 108.215  1.00  0.00     0.293 HD
ENDBRANCH   8  26
TORSDOF 6
ENDMDL
MODEL 3
REMARK VINA RESULT:    -5.872     11.507     14.177
REMARK INTER + INTRA:          -7.298
REMARK INTER:                  -6.951
REMARK INTRA:                  -0.348
REMARK UNBOUND:                -0.225
REMARK SMILES O=c1c(O)c(-c2ccc(O)cc2O)oc2cc(O)cc(O)c12
REMARK SMILES IDX 5 1 3 2 2 3 1 4 22 5 20 6 19 7 17 8 16 9 15 10 14 11 6 12
REMARK SMILES IDX 8 13 7 14 9 15 11 16 12 17 10 18 13 20 4 22 21 24 18 26
REMARK H PARENT 10 19 13 21 4 23 21 25 18 27
REMARK Flexibility Score: inf
ROOT
ATOM      1  C   UNL     1       2.099  45.479  91.692  1.00  0.00     0.184 A 
ATOM      2  C   UNL     1       3.400  45.773  91.260  1.00  0.00     0.208 A 
ATOM      3  C   UNL     1       4.192  46.642  92.027  1.00  0.00     0.238 A 
ATOM      4  O   UNL     1       5.336  46.950  91.603  1.00  0.00    -0.285 OA
ATOM      5  C   UNL     1       3.679  47.183  93.232  1.00  0.00     0.111 A 
ATOM      6  C   UNL     1       4.406  48.042  94.109  1.00  0.00     0.134 A 
ATOM      7  C   UNL     1       3.757  48.614  95.210  1.00  0.00     0.093 A 
ATOM      8  C   UNL     1       2.429  48.308  95.502  1.00  0.00     0.123 A 
ATOM      9  C   UNL     1       1.725  47.423  94.685  1.00  0.00     0.094 A 
ATOM     10  C   UNL     1       2.335  46.865  93.559  1.00  0.00     0.146 A 
ATOM     11  O   UNL     1       1.625  46.038  92.799  1.00  0.00    -0.451 OA
ENDROOT
BRANCH   1  12
ATOM     12  C   UNL     1       1.228  44.552  90.937  1.00  0.00     0.063 A 
ATOM     13  C   UNL     1       0.062  42.418  90.818  1.00  0.00     0.047 A 
ATOM     14  C   UNL     1       0.926  43.292  91.483  1.00  0.00     0.020 A 
ATOM     15  C   UNL     1      -0.518  42.793  89.605  1.00  0.00     0.119 A 
ATOM     16  C   UNL     1      -0.226  44.046  89.052  1.00  0.00     0.093 A 
ATOM     17  C   UNL     1       0.646  44.927  89.703  1.00  0.00     0.130 A 
BRANCH  15  18
ATOM     18  O   UNL     1      -1.382  41.914  88.956  1.00  0.00    -0.508 OA
ATOM     19  H   UNL     1      -2.148  42.249  88.384  1.00  0.00     0.293 HD
ENDBRANCH  15  18
BRANCH  17  20
ATOM     20  O   UNL     1       0.930  46.148  89.089  1.00  0.00    -0.507 OA
ATOM     21  H   UNL     1       1.339  46.932  89.582  1.00  0.00     0.293 HD
ENDBRANCH  17  20
ENDBRANCH   1  12
BRANCH   2  22
ATOM     22  O   UNL     1       3.881  45.223  90.069  1.00  0.00    -0.502 OA
ATOM     23  H   UNL     1       3.276  44.759  89.401  1.00  0.00     0.293 HD
ENDBRANCH   2  22
BRANCH   6  24
ATOM     24  O   UNL     1       5.764  48.342  93.961  1.00  0.00    -0.507 OA
ATOM     25  H   UNL     1       6.184  49.231  94.185  1.00  0.00     0.293 HD
ENDBRANCH   6  24
BRANCH   8  26
ATOM     26  O   UNL     1       1.820  48.883  96.615  1.00  0.00    -0.508 OA
ATOM     27  H   UNL     1       2.074  48.611  97.558  1.00  0.00     0.293 HD
ENDBRANCH   8  26
TORSDOF 6
ENDMDL
MODEL 4
REMARK VINA RESULT:    -5.774      1.427      6.728
REMARK INTER + INTRA:          -7.181
REMARK INTER:                  -7.016
REMARK INTRA:                  -0.165
REMARK UNBOUND:                -0.225
REMARK SMILES O=c1c(O)c(-c2ccc(O)cc2O)oc2cc(O)cc(O)c12
REMARK SMILES IDX 5 1 3 2 2 3 1 4 22 5 20 6 19 7 17 8 16 9 15 10 14 11 6 12
REMARK SMILES IDX 8 13 7 14 9 15 11 16 12 17 10 18 13 20 4 22 21 24 18 26
REMARK H PARENT 10 19 13 21 4 23 21 25 18 27
REMARK Flexibility Score: inf
ROOT
ATOM      1  C   UNL     1      -2.783  40.573 102.029  1.00  0.00     0.184 A 
ATOM      2  C   UNL     1      -1.636  40.881 102.775  1.00  0.00     0.208 A 
ATOM      3  C   UNL     1      -1.479  42.183 103.275  1.00  0.00     0.238 A 
ATOM      4  O   UNL     1      -0.420  42.470 103.891  1.00  0.00    -0.285 OA
ATOM      5  C   UNL     1      -2.487  43.152 103.044  1.00  0.00     0.111 A 
ATOM      6  C   UNL     1      -2.451  44.491 103.537  1.00  0.00     0.134 A 
ATOM      7  C   UNL     1      -3.444  45.397 103.144  1.00  0.00     0.093 A 
ATOM      8  C   UNL     1      -4.505  44.998 102.332  1.00  0.00     0.123 A 
ATOM      9  C   UNL     1      -4.581  43.676 101.892  1.00  0.00     0.094 A 
ATOM     10  C   UNL     1      -3.586  42.758 102.237  1.00  0.00     0.146 A 
ATOM     11  O   UNL     1      -3.688  41.513 101.785  1.00  0.00    -0.451 OA
ENDROOT
BRANCH   1  12
ATOM     12  C   UNL     1      -3.014  39.212 101.497  1.00  0.00     0.063 A 
ATOM     13  C   UNL     1      -3.305  37.747  99.575  1.00  0.00     0.047 A 
ATOM     14  C   UNL     1      -3.142  39.027 100.109  1.00  0.00     0.020 A 
ATOM     15  C   UNL     1      -3.334  36.634 100.417  1.00  0.00     0.119 A 
ATOM     16  C   UNL     1      -3.206  36.805 101.801  1.00  0.00     0.093 A 
ATOM     17  C   UNL     1      -3.053  38.084 102.349  1.00  0.00     0.130 A 
BRANCH  15  18
ATOM     18  O   UNL     1      -3.492  35.363  99.870  1.00  0.00    -0.508 OA
ATOM     19  H   UNL     1      -4.403  35.016  99.590  1.00  0.00     0.293 HD
ENDBRANCH  15  18
BRANCH  17  20
ATOM     20  O   UNL     1      -2.966  38.200 103.739  1.00  0.00    -0.507 OA
ATOM     21  H   UNL     1      -2.365  37.615 104.305  1.00  0.00     0.293 HD
ENDBRANCH  17  20
ENDBRANCH   1  12
BRANCH   2  22
ATOM     22  O   UNL     1      -0.660  39.904 102.989  1.00  0.00    -0.502 OA
ATOM     23  H   UNL     1      -0.714  39.241 103.754  1.00  0.00     0.293 HD
ENDBRANCH   2  22
BRANCH   6  24
ATOM     24  O   UNL     1      -1.487  44.971 104.428  1.00  0.00    -0.507 OA
ATOM     25  H   UNL     1      -1.688  45.401 105.318  1.00  0.00     0.293 HD
ENDBRANCH   6  24
BRANCH   8  26
ATOM     26  O   UNL     1      -5.483  45.922 101.975  1.00  0.00    -0.508 OA
ATOM     27  H   UNL     1      -5.280  46.697 101.354  1.00  0.00     0.293 HD
ENDBRANCH   8  26
TORSDOF 6
ENDMDL
MODEL 5
REMARK VINA RESULT:    -5.710     10.730     13.083
REMARK INTER + INTRA:          -7.103
REMARK INTER:                  -6.802
REMARK INTRA:                  -0.301
REMARK UNBOUND:                -0.225
REMARK SMILES O=c1c(O)c(-c2ccc(O)cc2O)oc2cc(O)cc(O)c12
REMARK SMILES IDX 5 1 3 2 2 3 1 4 22 5 20 6 19 7 17 8 16 9 15 10 14 11 6 12
REMARK SMILES IDX 8 13 7 14 9 15 11 16 12 17 10 18 13 20 4 22 21 24 18 26
REMARK H PARENT 10 19 13 21 4 23 21 25 18 27
REMARK Flexibility Score: inf
ROOT
ATOM      1  C   UNL     1       1.383  45.831  93.218  1.00  0.00     0.184 A 
ATOM      2  C   UNL     1       2.499  45.426  92.470  1.00  0.00     0.208 A 
ATOM      3  C   UNL     1       3.663  46.210  92.506  1.00  0.00     0.238 A 
ATOM      4  O   UNL     1       4.639  45.874  91.785  1.00  0.00    -0.285 OA
ATOM      5  C   UNL     1       3.704  47.374  93.311  1.00  0.00     0.111 A 
ATOM      6  C   UNL     1       4.843  48.222  93.453  1.00  0.00     0.134 A 
ATOM      7  C   UNL     1       4.730  49.414  94.180  1.00  0.00     0.093 A 
ATOM      8  C   UNL     1       3.541  49.756  94.823  1.00  0.00     0.123 A 
ATOM      9  C   UNL     1       2.438  48.905  94.739  1.00  0.00     0.094 A 
ATOM     10  C   UNL     1       2.508  47.728  93.991  1.00  0.00     0.146 A 
ATOM     11  O   UNL     1       1.431  46.954  93.925  1.00  0.00    -0.451 OA
ENDROOT
BRANCH   1  12
ATOM     12  C   UNL     1       0.139  45.033  93.238  1.00  0.00     0.063 A 
ATOM     13  C   UNL     1      -1.710  44.024  92.017  1.00  0.00     0.047 A 
ATOM     14  C   UNL     1      -0.562  44.819  92.037  1.00  0.00     0.020 A 
ATOM     15  C   UNL     1      -2.170  43.425  93.192  1.00  0.00     0.119 A 
ATOM     16  C   UNL     1      -1.480  43.630  94.393  1.00  0.00     0.093 A 
ATOM     17  C   UNL     1      -0.334  44.433  94.428  1.00  0.00     0.130 A 
BRANCH  15  18
ATOM     18  O   UNL     1      -3.314  42.631  93.155  1.00  0.00    -0.508 OA
ATOM     19  H   UNL     1      -4.189  42.943  93.561  1.00  0.00     0.293 HD
ENDBRANCH  15  18
BRANCH  17  20
ATOM     20  O   UNL     1       0.294  44.633  95.660  1.00  0.00    -0.507 OA
ATOM     21  H   UNL     1       0.016  45.357  96.310  1.00  0.00     0.293 HD
ENDBRANCH  17  20
ENDBRANCH   1  12
BRANCH   2  22
ATOM     22  O   UNL     1       2.432  44.270  91.687  1.00  0.00    -0.502 OA
ATOM     23  H   UNL     1       1.984  43.420  92.011  1.00  0.00     0.293 HD
ENDBRANCH   2  22
BRANCH   6  24
ATOM     24  O   UNL     1       6.105  47.930  92.928  1.00  0.00    -0.507 OA
ATOM     25  H   UNL     1       6.480  48.323  92.078  1.00  0.00     0.293 HD
ENDBRANCH   6  24
BRANCH   8  26
ATOM     26  O   UNL     1       3.470  50.941  95.551  1.00  0.00    -0.508 OA
ATOM     27  H   UNL     1       3.064  51.782  95.158  1.00  0.00     0.293 HD
ENDBRANCH   8  26
TORSDOF 6
ENDMDL
MODEL 6
REMARK VINA RESULT:    -5.638      7.749     10.580
REMARK INTER + INTRA:          -7.017
REMARK INTER:                  -6.857
REMARK INTRA:                  -0.160
REMARK UNBOUND:                -0.225
REMARK SMILES O=c1c(O)c(-c2ccc(O)cc2O)oc2cc(O)cc(O)c12
REMARK SMILES IDX 5 1 3 2 2 3 1 4 22 5 20 6 19 7 17 8 16 9 15 10 14 11 6 12
REMARK SMILES IDX 8 13 7 14 9 15 11 16 12 17 10 18 13 20 4 22 21 24 18 26
REMARK H PARENT 10 19 13 21 4 23 21 25 18 27
REMARK Flexibility Score: inf
ROOT
ATOM      1  C   UNL     1     -10.113  45.734 104.101  1.00  0.00     0.184 A 
ATOM      2  C   UNL     1     -10.352  46.389 102.884  1.00  0.00     0.208 A 
ATOM      3  C   UNL     1      -9.398  46.290 101.859  1.00  0.00     0.238 A 
ATOM      4  O   UNL     1      -9.589  46.930 100.792  1.00  0.00    -0.285 OA
ATOM      5  C   UNL     1      -8.229  45.514 102.057  1.00  0.00     0.111 A 
ATOM      6  C   UNL     1      -7.215  45.311 101.075  1.00  0.00     0.134 A 
ATOM      7  C   UNL     1      -6.044  44.624 101.422  1.00  0.00     0.093 A 
ATOM      8  C   UNL     1      -5.881  44.077 102.694  1.00  0.00     0.123 A 
ATOM      9  C   UNL     1      -6.892  44.218 103.644  1.00  0.00     0.094 A 
ATOM     10  C   UNL     1      -8.055  44.930 103.339  1.00  0.00     0.146 A 
ATOM     11  O   UNL     1      -8.986  45.053 104.278  1.00  0.00    -0.451 OA
ENDROOT
BRANCH   1  12
ATOM     12  C   UNL     1     -11.092  45.782 105.207  1.00  0.00     0.063 A 
ATOM     13  C   UNL     1     -12.500  44.594 106.799  1.00  0.00     0.047 A 
ATOM     14  C   UNL     1     -11.615  44.581 105.719  1.00  0.00     0.020 A 
ATOM     15  C   UNL     1     -12.869  45.804 107.390  1.00  0.00     0.119 A 
ATOM     16  C   UNL     1     -12.354  47.007 106.891  1.00  0.00     0.093 A 
ATOM     17  C   UNL     1     -11.475  47.008 105.801  1.00  0.00     0.130 A 
BRANCH  15  18
ATOM     18  O   UNL     1     -13.748  45.801 108.470  1.00  0.00    -0.508 OA
ATOM     19  H   UNL     1     -14.359  45.013 108.654  1.00  0.00     0.293 HD
ENDBRANCH  15  18
BRANCH  17  20
ATOM     20  O   UNL     1     -11.020  48.239 105.321  1.00  0.00    -0.507 OA
ATOM     21  H   UNL     1     -10.200  48.705 105.688  1.00  0.00     0.293 HD
ENDBRANCH  17  20
ENDBRANCH   1  12
BRANCH   2  22
ATOM     22  O   UNL     1     -11.515  47.145 102.716  1.00  0.00    -0.502 OA
ATOM     23  H   UNL     1     -11.625  47.810 101.959  1.00  0.00     0.293 HD
ENDBRANCH   2  22
BRANCH   6  24
ATOM     24  O   UNL     1      -7.316  45.737  99.747  1.00  0.00    -0.507 OA
ATOM     25  H   UNL     1      -7.932  45.333  99.058  1.00  0.00     0.293 HD
ENDBRANCH   6  24
BRANCH   8  26
ATOM     26  O   UNL     1      -4.711  43.386 102.999  1.00  0.00    -0.508 OA
ATOM     27  H   UNL     1      -4.531  42.459 102.630  1.00  0.00     0.293 HD
ENDBRANCH   8  26
TORSDOF 6
ENDMDL
MODEL 7
REMARK VINA RESULT:    -5.609      4.820      8.387
REMARK INTER + INTRA:          -6.982
REMARK INTER:                  -6.603
REMARK INTRA:                  -0.379
REMARK UNBOUND:                -0.225
REMARK SMILES O=c1c(O)c(-c2ccc(O)cc2O)oc2cc(O)cc(O)c12
REMARK SMILES IDX 5 1 3 2 2 3 1 4 22 5 20 6 19 7 17 8 16 9 15 10 14 11 6 12
REMARK SMILES IDX 8 13 7 14 9 15 11 16 12 17 10 18 13 20 4 22 21 24 18 26
REMARK H PARENT 10 19 13 21 4 23 21 25 18 27
REMARK Flexibility Score: inf
ROOT
ATOM      1  C   UNL     1      -5.494  44.632 102.346  1.00  0.00     0.184 A 
ATOM      2  C   UNL     1      -5.666  45.358 101.158  1.00  0.00     0.208 A 
ATOM      3  C   UNL     1      -6.915  45.940 100.890  1.00  0.00     0.238 A 
ATOM      4  O   UNL     1      -7.081  46.538  99.795  1.00  0.00    -0.285 OA
ATOM      5  C   UNL     1      -7.968  45.811 101.830  1.00  0.00     0.111 A 
ATOM      6  C   UNL     1      -9.262  46.392 101.682  1.00  0.00     0.134 A 
ATOM      7  C   UNL     1     -10.263  46.096 102.616  1.00  0.00     0.093 A 
ATOM      8  C   UNL     1      -9.999  45.295 103.726  1.00  0.00     0.123 A 
ATOM      9  C   UNL     1      -8.720  44.769 103.912  1.00  0.00     0.094 A 
ATOM     10  C   UNL     1      -7.711  45.016 102.978  1.00  0.00     0.146 A 
ATOM     11  O   UNL     1      -6.512  44.484 103.186  1.00  0.00    -0.451 OA
ENDROOT
BRANCH   1  12
ATOM     12  C   UNL     1      -4.195  44.018 102.691  1.00  0.00     0.063 A 
ATOM     13  C   UNL     1      -2.740  42.065 102.667  1.00  0.00     0.047 A 
ATOM     14  C   UNL     1      -3.976  42.658 102.402  1.00  0.00     0.020 A 
ATOM     15  C   UNL     1      -1.702  42.821 103.216  1.00  0.00     0.119 A 
ATOM     16  C   UNL     1      -1.907  44.176 103.507  1.00  0.00     0.093 A 
ATOM     17  C   UNL     1      -3.145  44.779 103.256  1.00  0.00     0.130 A 
BRANCH  15  18
ATOM     18  O   UNL     1      -0.473  42.217 103.470  1.00  0.00    -0.508 OA
ATOM     19  H   UNL     1      -0.269  41.787 104.365  1.00  0.00     0.293 HD
ENDBRANCH  15  18
BRANCH  17  20
ATOM     20  O   UNL     1      -3.305  46.124 103.599  1.00  0.00    -0.507 OA
ATOM     21  H   UNL     1      -3.754  46.798 102.993  1.00  0.00     0.293 HD
ENDBRANCH  17  20
ENDBRANCH   1  12
BRANCH   2  22
ATOM     22  O   UNL     1      -4.609  45.472 100.251  1.00  0.00    -0.502 OA
ATOM     23  H   UNL     1      -3.660  45.206 100.487  1.00  0.00     0.293 HD
ENDBRANCH   2  22
BRANCH   6  24
ATOM     24  O   UNL     1      -9.608  47.280 100.659  1.00  0.00    -0.507 OA
ATOM     25  H   UNL     1      -9.134  48.149 100.466  1.00  0.00     0.293 HD
ENDBRANCH   6  24
BRANCH   8  26
ATOM     26  O   UNL     1     -11.014  45.036 104.643  1.00  0.00    -0.508 OA
ATOM     27  H   UNL     1     -10.813  44.870 105.623  1.00  0.00     0.293 HD
ENDBRANCH   8  26
TORSDOF 6
ENDMDL
MODEL 8
REMARK VINA RESULT:    -5.489      8.252      9.583
REMARK INTER + INTRA:          -6.837
REMARK INTER:                  -6.490
REMARK INTRA:                  -0.346
REMARK UNBOUND:                -0.225
REMARK SMILES O=c1c(O)c(-c2ccc(O)cc2O)oc2cc(O)cc(O)c12
REMARK SMILES IDX 5 1 3 2 2 3 1 4 22 5 20 6 19 7 17 8 16 9 15 10 14 11 6 12
REMARK SMILES IDX 8 13 7 14 9 15 11 16 12 17 10 18 13 20 4 22 21 24 18 26
REMARK H PARENT 10 19 13 21 4 23 21 25 18 27
REMARK Flexibility Score: inf
ROOT
ATOM      1  C   UNL     1      -0.153  45.440  94.852  1.00  0.00     0.184 A 
ATOM      2  C   UNL     1      -0.244  44.610  93.725  1.00  0.00     0.208 A 
ATOM      3  C   UNL     1      -1.350  43.753  93.598  1.00  0.00     0.238 A 
ATOM      4  O   UNL     1      -1.395  42.967  92.616  1.00  0.00    -0.285 OA
ATOM      5  C   UNL     1      -2.363  43.760  94.588  1.00  0.00     0.111 A 
ATOM      6  C   UNL     1      -3.546  42.964  94.543  1.00  0.00     0.134 A 
ATOM      7  C   UNL     1      -4.420  42.962  95.637  1.00  0.00     0.093 A 
ATOM      8  C   UNL     1      -4.188  43.776  96.745  1.00  0.00     0.123 A 
ATOM      9  C   UNL     1      -3.066  44.603  96.775  1.00  0.00     0.094 A 
ATOM     10  C   UNL     1      -2.156  44.599  95.715  1.00  0.00     0.146 A 
ATOM     11  O   UNL     1      -1.092  45.390  95.790  1.00  0.00    -0.451 OA
ENDROOT
BRANCH   1  12
ATOM     12  C   UNL     1       0.975  46.379  95.028  1.00  0.00     0.063 A 
ATOM     13  C   UNL     1       2.180  48.355  94.272  1.00  0.00     0.047 A 
ATOM     14  C   UNL     1       1.155  47.421  94.100  1.00  0.00     0.020 A 
ATOM     15  C   UNL     1       3.033  48.268  95.374  1.00  0.00     0.119 A 
ATOM     16  C   UNL     1       2.862  47.236  96.305  1.00  0.00     0.093 A 
ATOM     17  C   UNL     1       1.846  46.287  96.139  1.00  0.00     0.130 A 
BRANCH  15  18
ATOM     18  O   UNL     1       4.046  49.209  95.534  1.00  0.00    -0.508 OA
ATOM     19  H   UNL     1       4.999  49.016  95.247  1.00  0.00     0.293 HD
ENDBRANCH  15  18
BRANCH  17  20
ATOM     20  O   UNL     1       1.744  45.258  97.078  1.00  0.00    -0.507 OA
ATOM     21  H   UNL     1       2.508  44.988  97.685  1.00  0.00     0.293 HD
ENDBRANCH  17  20
ENDBRANCH   1  12
BRANCH   2  22
ATOM     22  O   UNL     1       0.768  44.626  92.763  1.00  0.00    -0.502 OA
ATOM     23  H   UNL     1       1.751  44.647  93.009  1.00  0.00     0.293 HD
ENDBRANCH   2  22
BRANCH   6  24
ATOM     24  O   UNL     1      -3.921  42.183  93.445  1.00  0.00    -0.507 OA
ATOM     25  H   UNL     1      -4.809  42.245  92.972  1.00  0.00     0.293 HD
ENDBRANCH   6  24
BRANCH   8  26
ATOM     26  O   UNL     1      -5.088  43.761  97.808  1.00  0.00    -0.508 OA
ATOM     27  H   UNL     1      -5.432  42.892  98.200  1.00  0.00     0.293 HD
ENDBRANCH   8  26
TORSDOF 6
ENDMDL
MODEL 9
REMARK VINA RESULT:    -5.402     11.456     12.819
REMARK INTER + INTRA:          -6.733
REMARK INTER:                  -6.318
REMARK INTRA:                  -0.415
REMARK UNBOUND:                -0.225
REMARK SMILES O=c1c(O)c(-c2ccc(O)cc2O)oc2cc(O)cc(O)c12
REMARK SMILES IDX 5 1 3 2 2 3 1 4 22 5 20 6 19 7 17 8 16 9 15 10 14 11 6 12
REMARK SMILES IDX 8 13 7 14 9 15 11 16 12 17 10 18 13 20 4 22 21 24 18 26
REMARK H PARENT 10 19 13 21 4 23 21 25 18 27
REMARK Flexibility Score: inf
ROOT
ATOM      1  C   UNL     1       1.945  45.908  91.707  1.00  0.00     0.184 A 
ATOM      2  C   UNL     1       1.292  45.108  90.758  1.00  0.00     0.208 A 
ATOM      3  C   UNL     1       0.238  44.280  91.177  1.00  0.00     0.238 A 
ATOM      4  O   UNL     1      -0.304  43.519  90.333  1.00  0.00    -0.285 OA
ATOM      5  C   UNL     1      -0.165  44.285  92.535  1.00  0.00     0.111 A 
ATOM      6  C   UNL     1      -1.245  43.517  93.063  1.00  0.00     0.134 A 
ATOM      7  C   UNL     1      -1.476  43.508  94.445  1.00  0.00     0.093 A 
ATOM      8  C   UNL     1      -0.709  44.290  95.308  1.00  0.00     0.123 A 
ATOM      9  C   UNL     1       0.312  45.091  94.796  1.00  0.00     0.094 A 
ATOM     10  C   UNL     1       0.590  45.092  93.427  1.00  0.00     0.146 A 
ATOM     11  O   UNL     1       1.580  45.857  92.982  1.00  0.00    -0.451 OA
ENDROOT
BRANCH   1  12
ATOM     12  C   UNL     1       3.045  46.817  91.320  1.00  0.00     0.063 A 
ATOM     13  C   UNL     1       3.785  49.058  90.723  1.00  0.00     0.047 A 
ATOM     14  C   UNL     1       2.759  48.165  91.038  1.00  0.00     0.020 A 
ATOM     15  C   UNL     1       5.111  48.622  90.695  1.00  0.00     0.119 A 
ATOM     16  C   UNL     1       5.410  47.283  90.976  1.00  0.00     0.093 A 
ATOM     17  C   UNL     1       4.389  46.375  91.282  1.00  0.00     0.130 A 
BRANCH  15  18
ATOM     18  O   UNL     1       6.125  49.526  90.385  1.00  0.00    -0.508 OA
ATOM     19  H   UNL     1       7.085  49.361  90.664  1.00  0.00     0.293 HD
ENDBRANCH  15  18
BRANCH  17  20
ATOM     20  O   UNL     1       4.739  45.044  91.519  1.00  0.00    -0.507 OA
ATOM     21  H   UNL     1       4.057  44.315  91.682  1.00  0.00     0.293 HD
ENDBRANCH  17  20
ENDBRANCH   1  12
BRANCH   2  22
ATOM     22  O   UNL     1       1.708  45.125  89.425  1.00  0.00    -0.502 OA
ATOM     23  H   UNL     1       1.710  44.293  88.846  1.00  0.00     0.293 HD
ENDBRANCH   2  22
BRANCH   6  24
ATOM     24  O   UNL     1      -2.131  42.772  92.279  1.00  0.00    -0.507 OA
ATOM     25  H   UNL     1      -2.048  41.783  92.099  1.00  0.00     0.293 HD
ENDBRANCH   6  24
BRANCH   8  26
ATOM     26  O   UNL     1      -0.978  44.269  96.674  1.00  0.00    -0.508 OA
ATOM     27  H   UNL     1      -0.333  44.664  97.348  1.00  0.00     0.293 HD
ENDBRANCH   8  26
TORSDOF 6
ENDMDL
