MODEL 1
REMARK VINA RESULT:    -3.162      0.000      0.000
REMARK INTER + INTRA:          -8.369
REMARK INTER:                  -5.842
REMARK INTRA:                  -2.527
REMARK UNBOUND:                -2.527
REMARK SMILES CCCCCCCCCCCCCCCCO
REMARK SMILES IDX 9 1 8 2 7 3 6 4 5 5 4 6 3 7 2 8 1 9 10 10 11 11 12 12 13 13
REMARK SMILES IDX 14 14 15 15 16 16 17 17
REMARK H PARENT 17 18
REMARK Flexibility Score: inf
ROOT
ATOM      1  C   UNL     1     115.125 118.609 118.920  1.00  0.00     0.000 C 
ENDROOT
BRANCH   1   2
ATOM      2  C   UNL     1     115.344 119.107 120.355  1.00  0.00    -0.000 C 
BRANCH   2   3
ATOM      3  C   UNL     1     114.735 118.135 121.373  1.00  0.00    -0.000 C 
BRANCH   3   4
ATOM      4  C   UNL     1     115.819 117.553 122.292  1.00  0.00    -0.000 C 
BRANCH   4   5
ATOM      5  C   UNL     1     116.272 116.150 121.856  1.00  0.00    -0.000 C 
BRANCH   5   6
ATOM      6  C   UNL     1     115.095 115.256 121.428  1.00  0.00    -0.000 C 
BRANCH   6   7
ATOM      7  C   UNL     1     115.324 114.594 120.060  1.00  0.00    -0.000 C 
BRANCH   7   8
ATOM      8  C   UNL     1     114.288 115.031 119.013  1.00  0.00    -0.003 C 
ATOM      9  C   UNL     1     112.906 115.187 119.641  1.00  0.00     0.004 C 
ENDBRANCH   7   8
ENDBRANCH   6   7
ENDBRANCH   5   6
ENDBRANCH   4   5
ENDBRANCH   3   4
ENDBRANCH   2   3
ENDBRANCH   1   2
BRANCH   1  10
ATOM     10  C   UNL     1     116.460 118.452 118.182  1.00  0.00     0.000 C 
BRANCH  10  11
ATOM     11  C   UNL     1     117.644 118.682 119.131  1.00  0.00     0.000 C 
BRANCH  11  12
ATOM     12  C   UNL     1     118.462 117.404 119.376  1.00  0.00     0.000 C 
BRANCH  12  13
ATOM     13  C   UNL     1     118.044 116.248 118.451  1.00  0.00     0.000 C 
BRANCH  13  14
ATOM     14  C   UNL     1     118.701 114.914 118.839  1.00  0.00     0.002 C 
BRANCH  14  15
ATOM     15  C   UNL     1     118.215 113.742 117.972  1.00  0.00     0.028 C 
BRANCH  15  16
ATOM     16  C   UNL     1     118.498 112.391 118.636  1.00  0.00     0.156 C 
BRANCH  16  17
ATOM     17  O   UNL     1     117.990 112.359 119.943  1.00  0.00    -0.396 OA
ATOM     18  H   UNL     1     118.700 112.723 120.534  1.00  0.00     0.210 HD
ENDBRANCH  16  17
ENDBRANCH  15  16
ENDBRANCH  14  15
ENDBRANCH  13  14
ENDBRANCH  12  13
ENDBRANCH  11  12
ENDBRANCH  10  11
ENDBRANCH   1  10
TORSDOF 15
ENDMDL
MODEL 2
REMARK VINA RESULT:    -3.122      1.294      4.133
REMARK INTER + INTRA:          -8.295
REMARK INTER:                  -6.129
REMARK INTRA:                  -2.165
REMARK UNBOUND:                -2.527
REMARK SMILES CCCCCCCCCCCCCCCCO
REMARK SMILES IDX 9 1 8 2 7 3 6 4 5 5 4 6 3 7 2 8 1 9 10 10 11 11 12 12 13 13
REMARK SMILES IDX 14 14 15 15 16 16 17 17
REMARK H PARENT 17 18
REMARK Flexibility Score: inf
ROOT
ATOM      1  C   UNL     1     117.988 118.319 120.825  1.00  0.00     0.000 C 
ENDROOT
BRANCH   1   2
ATOM      2  C   UNL     1     118.924 117.427 119.999  1.00  0.00    -0.000 C 
BRANCH   2   3
ATOM      3  C   UNL     1     118.935 117.854 118.527  1.00  0.00    -0.000 C 
BRANCH   3   4
ATOM      4  C   UNL     1     117.684 118.678 118.186  1.00  0.00    -0.000 C 
BRANCH   4   5
ATOM      5  C   UNL     1     116.500 117.800 117.750  1.00  0.00    -0.000 C 
BRANCH   5   6
ATOM      6  C   UNL     1     115.159 118.554 117.790  1.00  0.00    -0.000 C 
BRANCH   6   7
ATOM      7  C   UNL     1     114.735 118.929 119.220  1.00  0.00    -0.000 C 
BRANCH   7   8
ATOM      8  C   UNL     1     114.890 120.430 119.505  1.00  0.00    -0.003 C 
ATOM      9  C   UNL     1     114.360 121.267 118.345  1.00  0.00     0.004 C 
ENDBRANCH   7   8
ENDBRANCH   6   7
ENDBRANCH   5   6
ENDBRANCH   4   5
ENDBRANCH   3   4
ENDBRANCH   2   3
ENDBRANCH   1   2
BRANCH   1  10
ATOM     10  C   UNL     1     117.629 117.655 122.160  1.00  0.00     0.000 C 
BRANCH  10  11
ATOM     11  C   UNL     1     116.124 117.362 122.242  1.00  0.00     0.000 C 
BRANCH  11  12
ATOM     12  C   UNL     1     115.797 115.877 122.023  1.00  0.00     0.000 C 
BRANCH  12  13
ATOM     13  C   UNL     1     114.973 115.634 120.747  1.00  0.00     0.000 C 
BRANCH  13  14
ATOM     14  C   UNL     1     115.729 114.791 119.708  1.00  0.00     0.002 C 
BRANCH  14  15
ATOM     15  C   UNL     1     117.093 114.305 120.221  1.00  0.00     0.028 C 
BRANCH  15  16
ATOM     16  C   UNL     1     117.721 113.276 119.274  1.00  0.00     0.156 C 
BRANCH  16  17
ATOM     17  O   UNL     1     118.097 112.119 119.972  1.00  0.00    -0.396 OA
ATOM     18  H   UNL     1     118.554 112.421 120.799  1.00  0.00     0.210 HD
ENDBRANCH  16  17
ENDBRANCH  15  16
ENDBRANCH  14  15
ENDBRANCH  13  14
ENDBRANCH  12  13
ENDBRANCH  11  12
ENDBRANCH  10  11
ENDBRANCH   1  10
TORSDOF 15
ENDMDL
MODEL 3
REMARK VINA RESULT:    -3.089      2.014      4.105
REMARK INTER + INTRA:          -8.234
REMARK INTER:                  -6.003
REMARK INTRA:                  -2.231
REMARK UNBOUND:                -2.527
REMARK SMILES CCCCCCCCCCCCCCCCO
REMARK SMILES IDX 9 1 8 2 7 3 6 4 5 5 4 6 3 7 2 8 1 9 10 10 11 11 12 12 13 13
REMARK SMILES IDX 14 14 15 15 16 16 17 17
REMARK H PARENT 17 18
REMARK Flexibility Score: inf
ROOT
ATOM      1  C   UNL     1     115.129 114.932 117.863  1.00  0.00     0.000 C 
ENDROOT
BRANCH   1   2
ATOM      2  C   UNL     1     114.645 114.938 119.319  1.00  0.00    -0.000 C 
BRANCH   2   3
ATOM      3  C   UNL     1     113.963 116.266 119.667  1.00  0.00    -0.000 C 
BRANCH   3   4
ATOM      4  C   UNL     1     114.755 117.454 119.100  1.00  0.00    -0.000 C 
BRANCH   4   5
ATOM      5  C   UNL     1     115.434 118.289 120.197  1.00  0.00    -0.000 C 
BRANCH   5   6
ATOM      6  C   UNL     1     114.564 118.427 121.459  1.00  0.00    -0.000 C 
BRANCH   6   7
ATOM      7  C   UNL     1     115.313 118.023 122.740  1.00  0.00    -0.000 C 
BRANCH   7   8
ATOM      8  C   UNL     1     116.417 116.989 122.475  1.00  0.00    -0.003 C 
ATOM      9  C   UNL     1     115.933 115.577 122.792  1.00  0.00     0.004 C 
ENDBRANCH   7   8
ENDBRANCH   6   7
ENDBRANCH   5   6
ENDBRANCH   4   5
ENDBRANCH   3   4
ENDBRANCH   2   3
ENDBRANCH   1   2
BRANCH   1  10
ATOM     10  C   UNL     1     116.338 114.005 117.687  1.00  0.00     0.000 C 
BRANCH  10  11
ATOM     11  C   UNL     1     117.026 113.737 119.033  1.00  0.00     0.000 C 
BRANCH  11  12
ATOM     12  C   UNL     1     118.453 114.302 119.091  1.00  0.00     0.000 C 
BRANCH  12  13
ATOM     13  C   UNL     1     118.553 115.571 119.955  1.00  0.00     0.000 C 
BRANCH  13  14
ATOM     14  C   UNL     1     118.422 116.860 119.128  1.00  0.00     0.002 C 
BRANCH  14  15
ATOM     15  C   UNL     1     119.679 117.158 118.296  1.00  0.00     0.028 C 
BRANCH  15  16
ATOM     16  C   UNL     1     120.434 118.380 118.827  1.00  0.00     0.156 C 
BRANCH  16  17
ATOM     17  O   UNL     1     121.166 118.055 119.979  1.00  0.00    -0.396 OA
ATOM     18  H   UNL     1     120.675 118.448 120.748  1.00  0.00     0.210 HD
ENDBRANCH  16  17
ENDBRANCH  15  16
ENDBRANCH  14  15
ENDBRANCH  13  14
ENDBRANCH  12  13
ENDBRANCH  11  12
ENDBRANCH  10  11
ENDBRANCH   1  10
TORSDOF 15
ENDMDL
MODEL 4
REMARK VINA RESULT:    -3.088      3.553      6.220
REMARK INTER + INTRA:          -8.233
REMARK INTER:                  -6.286
REMARK INTRA:                  -1.947
REMARK UNBOUND:                -2.527
REMARK SMILES CCCCCCCCCCCCCCCCO
REMARK SMILES IDX 9 1 8 2 7 3 6 4 5 5 4 6 3 7 2 8 1 9 10 10 11 11 12 12 13 13
REMARK SMILES IDX 14 14 15 15 16 16 17 17
REMARK H PARENT 17 18
REMARK Flexibility Score: inf
ROOT
ATOM      1  C   UNL     1     114.873 116.265 118.499  1.00  0.00     0.000 C 
ENDROOT
BRANCH   1   2
ATOM      2  C   UNL     1     114.299 115.748 119.824  1.00  0.00    -0.000 C 
BRANCH   2   3
ATOM      3  C   UNL     1     115.302 114.834 120.538  1.00  0.00    -0.000 C 
BRANCH   3   4
ATOM      4  C   UNL     1     116.415 114.386 119.580  1.00  0.00    -0.000 C 
BRANCH   4   5
ATOM      5  C   UNL     1     117.820 114.592 120.169  1.00  0.00    -0.000 C 
BRANCH   5   6
ATOM      6  C   UNL     1     118.503 115.865 119.639  1.00  0.00    -0.000 C 
BRANCH   6   7
ATOM      7  C   UNL     1     118.253 117.087 120.537  1.00  0.00    -0.000 C 
BRANCH   7   8
ATOM      8  C   UNL     1     118.581 118.413 119.833  1.00  0.00    -0.003 C 
ATOM      9  C   UNL     1     118.425 118.284 118.321  1.00  0.00     0.004 C 
ENDBRANCH   7   8
ENDBRANCH   6   7
ENDBRANCH   5   6
ENDBRANCH   4   5
ENDBRANCH   3   4
ENDBRANCH   2   3
ENDBRANCH   1   2
BRANCH   1  10
ATOM     10  C   UNL     1     114.720 117.787 118.389  1.00  0.00     0.000 C 
BRANCH  10  11
ATOM     11  C   UNL     1     114.901 118.459 119.757  1.00  0.00     0.000 C 
BRANCH  11  12
ATOM     12  C   UNL     1     115.081 119.981 119.650  1.00  0.00     0.000 C 
BRANCH  12  13
ATOM     13  C   UNL     1     114.850 120.504 118.221  1.00  0.00     0.000 C 
BRANCH  13  14
ATOM     14  C   UNL     1     113.970 121.764 118.189  1.00  0.00     0.002 C 
BRANCH  14  15
ATOM     15  C   UNL     1     113.931 122.421 116.801  1.00  0.00     0.028 C 
BRANCH  15  16
ATOM     16  C   UNL     1     112.499 122.535 116.268  1.00  0.00     0.156 C 
BRANCH  16  17
ATOM     17  O   UNL     1     111.736 121.420 116.642  1.00  0.00    -0.396 OA
ATOM     18  H   UNL     1     110.785 121.704 116.617  1.00  0.00     0.210 HD
ENDBRANCH  16  17
ENDBRANCH  15  16
ENDBRANCH  14  15
ENDBRANCH  13  14
ENDBRANCH  12  13
ENDBRANCH  11  12
ENDBRANCH  10  11
ENDBRANCH   1  10
TORSDOF 15
ENDMDL
MODEL 5
REMARK VINA RESULT:    -3.069      1.825      5.012
REMARK INTER + INTRA:          -8.198
REMARK INTER:                  -5.700
REMARK INTRA:                  -2.499
REMARK UNBOUND:                -2.527
REMARK SMILES CCCCCCCCCCCCCCCCO
REMARK SMILES IDX 9 1 8 2 7 3 6 4 5 5 4 6 3 7 2 8 1 9 10 10 11 11 12 12 13 13
REMARK SMILES IDX 14 14 15 15 16 16 17 17
REMARK H PARENT 17 18
REMARK Flexibility Score: inf
ROOT
ATOM      1  C   UNL     1     115.916 115.041 118.808  1.00  0.00     0.000 C 
ENDROOT
BRANCH   1   2
ATOM      2  C   UNL     1     117.073 114.493 119.653  1.00  0.00    -0.000 C 
BRANCH   2   3
ATOM      3  C   UNL     1     118.416 115.063 119.182  1.00  0.00    -0.000 C 
BRANCH   3   4
ATOM      4  C   UNL     1     118.834 116.264 120.043  1.00  0.00    -0.000 C 
BRANCH   4   5
ATOM      5  C   UNL     1     119.258 117.477 119.199  1.00  0.00    -0.000 C 
BRANCH   5   6
ATOM      6  C   UNL     1     118.111 118.481 118.990  1.00  0.00    -0.000 C 
BRANCH   6   7
ATOM      7  C   UNL     1     117.854 118.783 117.504  1.00  0.00    -0.000 C 
BRANCH   7   8
ATOM      8  C   UNL     1     117.160 117.621 116.779  1.00  0.00    -0.003 C 
ATOM      9  C   UNL     1     118.034 117.076 115.654  1.00  0.00     0.004 C 
ENDBRANCH   7   8
ENDBRANCH   6   7
ENDBRANCH   5   6
ENDBRANCH   4   5
ENDBRANCH   3   4
ENDBRANCH   2   3
ENDBRANCH   1   2
BRANCH   1  10
ATOM     10  C   UNL     1     114.563 114.744 119.467  1.00  0.00     0.000 C 
BRANCH  10  11
ATOM     11  C   UNL     1     113.783 116.040 119.729  1.00  0.00     0.000 C 
BRANCH  11  12
ATOM     12  C   UNL     1     114.659 117.295 119.596  1.00  0.00     0.000 C 
BRANCH  12  13
ATOM     13  C   UNL     1     114.756 118.091 120.909  1.00  0.00     0.000 C 
BRANCH  13  14
ATOM     14  C   UNL     1     115.931 117.637 121.789  1.00  0.00     0.002 C 
BRANCH  14  15
ATOM     15  C   UNL     1     115.469 116.941 123.078  1.00  0.00     0.028 C 
BRANCH  15  16
ATOM     16  C   UNL     1     115.790 115.443 123.060  1.00  0.00     0.156 C 
BRANCH  16  17
ATOM     17  O   UNL     1     114.615 114.681 122.976  1.00  0.00    -0.396 OA
ATOM     18  H   UNL     1     114.564 114.339 122.045  1.00  0.00     0.210 HD
ENDBRANCH  16  17
ENDBRANCH  15  16
ENDBRANCH  14  15
ENDBRANCH  13  14
ENDBRANCH  12  13
ENDBRANCH  11  12
ENDBRANCH  10  11
ENDBRANCH   1  10
TORSDOF 15
ENDMDL
MODEL 6
REMARK VINA RESULT:    -3.010      2.458      4.630
REMARK INTER + INTRA:          -8.089
REMARK INTER:                  -5.926
REMARK INTRA:                  -2.163
REMARK UNBOUND:                -2.527
REMARK SMILES CCCCCCCCCCCCCCCCO
REMARK SMILES IDX 9 1 8 2 7 3 6 4 5 5 4 6 3 7 2 8 1 9 10 10 11 11 12 12 13 13
REMARK SMILES IDX 14 14 15 15 16 16 17 17
REMARK H PARENT 17 18
REMARK Flexibility Score: inf
ROOT
ATOM      1  C   UNL     1     116.876 115.993 121.562  1.00  0.00     0.000 C 
ENDROOT
BRANCH   1   2
ATOM      2  C   UNL     1     115.430 115.674 121.965  1.00  0.00    -0.000 C 
BRANCH   2   3
ATOM      3  C   UNL     1     114.738 114.816 120.900  1.00  0.00    -0.000 C 
BRANCH   3   4
ATOM      4  C   UNL     1     114.052 115.698 119.846  1.00  0.00    -0.000 C 
BRANCH   4   5
ATOM      5  C   UNL     1     114.753 115.638 118.479  1.00  0.00    -0.000 C 
BRANCH   5   6
ATOM      6  C   UNL     1     115.649 114.396 118.328  1.00  0.00    -0.000 C 
BRANCH   6   7
ATOM      7  C   UNL     1     117.111 114.757 118.021  1.00  0.00    -0.000 C 
BRANCH   7   8
ATOM      8  C   UNL     1     118.066 113.570 118.222  1.00  0.00    -0.003 C 
ATOM      9  C   UNL     1     118.047 113.091 119.670  1.00  0.00     0.004 C 
ENDBRANCH   7   8
ENDBRANCH   6   7
ENDBRANCH   5   6
ENDBRANCH   4   5
ENDBRANCH   3   4
ENDBRANCH   2   3
ENDBRANCH   1   2
BRANCH   1  10
ATOM     10  C   UNL     1     117.434 117.158 122.388  1.00  0.00     0.000 C 
BRANCH  10  11
ATOM     11  C   UNL     1     118.258 118.110 121.510  1.00  0.00     0.000 C 
BRANCH  11  12
ATOM     12  C   UNL     1     118.393 117.612 120.063  1.00  0.00     0.000 C 
BRANCH  12  13
ATOM     13  C   UNL     1     118.093 118.711 119.028  1.00  0.00     0.000 C 
BRANCH  13  14
ATOM     14  C   UNL     1     116.892 118.368 118.133  1.00  0.00     0.002 C 
BRANCH  14  15
ATOM     15  C   UNL     1     115.754 119.393 118.253  1.00  0.00     0.028 C 
BRANCH  15  16
ATOM     16  C   UNL     1     115.270 119.535 119.700  1.00  0.00     0.156 C 
BRANCH  16  17
ATOM     17  O   UNL     1     115.333 120.872 120.119  1.00  0.00    -0.396 OA
ATOM     18  H   UNL     1     116.024 120.915 120.832  1.00  0.00     0.210 HD
ENDBRANCH  16  17
ENDBRANCH  15  16
ENDBRANCH  14  15
ENDBRANCH  13  14
ENDBRANCH  12  13
ENDBRANCH  11  12
ENDBRANCH  10  11
ENDBRANCH   1  10
TORSDOF 15
ENDMDL
MODEL 7
REMARK VINA RESULT:    -3.006      2.453      4.776
REMARK INTER + INTRA:          -8.081
REMARK INTER:                  -5.512
REMARK INTRA:                  -2.569
REMARK UNBOUND:                -2.527
REMARK SMILES CCCCCCCCCCCCCCCCO
REMARK SMILES IDX 9 1 8 2 7 3 6 4 5 5 4 6 3 7 2 8 1 9 10 10 11 11 12 12 13 13
REMARK SMILES IDX 14 14 15 15 16 16 17 17
REMARK H PARENT 17 18
REMARK Flexibility Score: inf
ROOT
ATOM      1  C   UNL     1     113.403 115.152 120.159  1.00  0.00     0.000 C 
ENDROOT
BRANCH   1   2
ATOM      2  C   UNL     1     114.755 114.750 120.762  1.00  0.00    -0.000 C 
BRANCH   2   3
ATOM      3  C   UNL     1     115.197 115.749 121.838  1.00  0.00    -0.000 C 
BRANCH   3   4
ATOM      4  C   UNL     1     115.967 116.922 121.213  1.00  0.00    -0.000 C 
BRANCH   4   5
ATOM      5  C   UNL     1     117.490 116.782 121.375  1.00  0.00    -0.000 C 
BRANCH   5   6
ATOM      6  C   UNL     1     118.244 116.952 120.044  1.00  0.00    -0.000 C 
BRANCH   6   7
ATOM      7  C   UNL     1     118.638 115.608 119.412  1.00  0.00    -0.000 C 
BRANCH   7   8
ATOM      8  C   UNL     1     118.370 114.417 120.345  1.00  0.00    -0.003 C 
ATOM      9  C   UNL     1     117.904 113.197 119.557  1.00  0.00     0.004 C 
ENDBRANCH   7   8
ENDBRANCH   6   7
ENDBRANCH   5   6
ENDBRANCH   4   5
ENDBRANCH   3   4
ENDBRANCH   2   3
ENDBRANCH   1   2
BRANCH   1  10
ATOM     10  C   UNL     1     113.517 115.367 118.645  1.00  0.00     0.000 C 
BRANCH  10  11
ATOM     11  C   UNL     1     114.850 114.824 118.111  1.00  0.00     0.000 C 
BRANCH  11  12
ATOM     12  C   UNL     1     115.650 115.880 117.333  1.00  0.00     0.000 C 
BRANCH  12  13
ATOM     13  C   UNL     1     115.224 117.318 117.678  1.00  0.00     0.000 C 
BRANCH  13  14
ATOM     14  C   UNL     1     116.222 118.368 117.169  1.00  0.00     0.002 C 
BRANCH  14  15
ATOM     15  C   UNL     1     116.387 119.547 118.140  1.00  0.00     0.028 C 
BRANCH  15  16
ATOM     16  C   UNL     1     115.132 119.759 118.993  1.00  0.00     0.156 C 
BRANCH  16  17
ATOM     17  O   UNL     1     115.351 120.741 119.970  1.00  0.00    -0.396 OA
ATOM     18  H   UNL     1     116.232 121.152 119.769  1.00  0.00     0.210 HD
ENDBRANCH  16  17
ENDBRANCH  15  16
ENDBRANCH  14  15
ENDBRANCH  13  14
ENDBRANCH  12  13
ENDBRANCH  11  12
ENDBRANCH  10  11
ENDBRANCH   1  10
TORSDOF 15
ENDMDL
MODEL 8
REMARK VINA RESULT:    -2.994      2.904      5.168
REMARK INTER + INTRA:          -8.059
REMARK INTER:                  -5.947
REMARK INTRA:                  -2.112
REMARK UNBOUND:                -2.527
REMARK SMILES CCCCCCCCCCCCCCCCO
REMARK SMILES IDX 9 1 8 2 7 3 6 4 5 5 4 6 3 7 2 8 1 9 10 10 11 11 12 12 13 13
REMARK SMILES IDX 14 14 15 15 16 16 17 17
REMARK H PARENT 17 18
REMARK Flexibility Score: inf
ROOT
ATOM      1  C   UNL     1     119.244 117.152 118.665  1.00  0.00     0.000 C 
ENDROOT
BRANCH   1   2
ATOM      2  C   UNL     1     118.090 116.159 118.476  1.00  0.00    -0.000 C 
BRANCH   2   3
ATOM      3  C   UNL     1     118.491 114.754 118.943  1.00  0.00    -0.000 C 
BRANCH   3   4
ATOM      4  C   UNL     1     117.585 114.278 120.089  1.00  0.00    -0.000 C 
BRANCH   4   5
ATOM      5  C   UNL     1     117.166 115.422 121.026  1.00  0.00    -0.000 C 
BRANCH   5   6
ATOM      6  C   UNL     1     115.654 115.432 121.308  1.00  0.00    -0.000 C 
BRANCH   6   7
ATOM      7  C   UNL     1     114.817 115.141 120.052  1.00  0.00    -0.000 C 
BRANCH   7   8
ATOM      8  C   UNL     1     113.988 116.353 119.602  1.00  0.00    -0.003 C 
ATOM      9  C   UNL     1     113.898 116.421 118.081  1.00  0.00     0.004 C 
ENDBRANCH   7   8
ENDBRANCH   6   7
ENDBRANCH   5   6
ENDBRANCH   4   5
ENDBRANCH   3   4
ENDBRANCH   2   3
ENDBRANCH   1   2
BRANCH   1  10
ATOM     10  C   UNL     1     118.739 118.483 119.235  1.00  0.00     0.000 C 
BRANCH  10  11
ATOM     11  C   UNL     1     117.275 118.730 118.841  1.00  0.00     0.000 C 
BRANCH  11  12
ATOM     12  C   UNL     1     116.387 119.070 120.048  1.00  0.00     0.000 C 
BRANCH  12  13
ATOM     13  C   UNL     1     115.164 119.919 119.662  1.00  0.00     0.000 C 
BRANCH  13  14
ATOM     14  C   UNL     1     114.956 120.000 118.141  1.00  0.00     0.002 C 
BRANCH  14  15
ATOM     15  C   UNL     1     114.388 121.355 117.694  1.00  0.00     0.028 C 
BRANCH  15  16
ATOM     16  C   UNL     1     115.100 121.884 116.445  1.00  0.00     0.156 C 
BRANCH  16  17
ATOM     17  O   UNL     1     116.448 121.494 116.435  1.00  0.00    -0.396 OA
ATOM     18  H   UNL     1     116.946 122.204 115.951  1.00  0.00     0.210 HD
ENDBRANCH  16  17
ENDBRANCH  15  16
ENDBRANCH  14  15
ENDBRANCH  13  14
ENDBRANCH  12  13
ENDBRANCH  11  12
ENDBRANCH  10  11
ENDBRANCH   1  10
TORSDOF 15
ENDMDL
MODEL 9
REMARK VINA RESULT:    -2.988      1.594      4.433
REMARK INTER + INTRA:          -8.047
REMARK INTER:                  -5.639
REMARK INTRA:                  -2.409
REMARK UNBOUND:                -2.527
REMARK SMILES CCCCCCCCCCCCCCCCO
REMARK SMILES IDX 9 1 8 2 7 3 6 4 5 5 4 6 3 7 2 8 1 9 10 10 11 11 12 12 13 13
REMARK SMILES IDX 14 14 15 15 16 16 17 17
REMARK H PARENT 17 18
REMARK Flexibility Score: inf
ROOT
ATOM      1  C   UNL     1     114.418 117.035 117.725  1.00  0.00     0.000 C 
ENDROOT
BRANCH   1   2
ATOM      2  C   UNL     1     113.832 116.042 118.737  1.00  0.00    -0.000 C 
BRANCH   2   3
ATOM      3  C   UNL     1     114.617 114.725 118.734  1.00  0.00    -0.000 C 
BRANCH   3   4
ATOM      4  C   UNL     1     116.074 114.957 118.307  1.00  0.00    -0.000 C 
BRANCH   4   5
ATOM      5  C   UNL     1     117.080 114.551 119.396  1.00  0.00    -0.000 C 
BRANCH   5   6
ATOM      6  C   UNL     1     118.266 115.527 119.498  1.00  0.00    -0.000 C 
BRANCH   6   7
ATOM      7  C   UNL     1     118.841 115.902 118.123  1.00  0.00    -0.000 C 
BRANCH   7   8
ATOM      8  C   UNL     1     119.553 117.264 118.134  1.00  0.00    -0.003 C 
ATOM      9  C   UNL     1     119.858 117.712 119.560  1.00  0.00     0.004 C 
ENDBRANCH   7   8
ENDBRANCH   6   7
ENDBRANCH   5   6
ENDBRANCH   4   5
ENDBRANCH   3   4
ENDBRANCH   2   3
ENDBRANCH   1   2
BRANCH   1  10
ATOM     10  C   UNL     1     114.666 118.402 118.374  1.00  0.00     0.000 C 
BRANCH  10  11
ATOM     11  C   UNL     1     116.144 118.571 118.754  1.00  0.00     0.000 C 
BRANCH  11  12
ATOM     12  C   UNL     1     116.347 118.773 120.263  1.00  0.00     0.000 C 
BRANCH  12  13
ATOM     13  C   UNL     1     115.113 118.365 121.086  1.00  0.00     0.000 C 
BRANCH  13  14
ATOM     14  C   UNL     1     115.486 117.750 122.444  1.00  0.00     0.002 C 
BRANCH  14  15
ATOM     15  C   UNL     1     116.016 116.313 122.316  1.00  0.00     0.028 C 
BRANCH  15  16
ATOM     16  C   UNL     1     117.302 116.110 123.125  1.00  0.00     0.156 C 
BRANCH  16  17
ATOM     17  O   UNL     1     117.809 114.815 122.939  1.00  0.00    -0.396 OA
ATOM     18  H   UNL     1     118.496 114.878 122.226  1.00  0.00     0.210 HD
ENDBRANCH  16  17
ENDBRANCH  15  16
ENDBRANCH  14  15
ENDBRANCH  13  14
ENDBRANCH  12  13
ENDBRANCH  11  12
ENDBRANCH  10  11
ENDBRANCH   1  10
TORSDOF 15
ENDMDL
