MODEL 1
REMARK VINA RESULT:    -4.617      0.000      0.000
REMARK INTER + INTRA:          -5.286
REMARK INTER:                  -5.157
REMARK INTRA:                  -0.129
REMARK UNBOUND:                -0.129
REMARK SMILES O=C([O-])C=Cc1ccccc1
REMARK SMILES IDX 4 1 5 2 2 3 1 4 3 5 6 6 7 7 11 8 8 9 10 10 9 11
REMARK H PARENT
REMARK Flexibility Score: inf
ROOT
ATOM      1  C   UNL     1     -34.485 -52.609  25.516  1.00  0.00     0.025 C 
ATOM      2  C   UNL     1     -34.490 -52.418  26.844  1.00  0.00     0.010 C 
ENDROOT
BRANCH   1   3
ATOM      3  C   UNL     1     -34.294 -51.500  24.565  1.00  0.00     0.064 C 
ATOM      4  O   UNL     1     -35.270 -50.814  24.158  1.00  0.00    -0.545 OA
ATOM      5  O   UNL     1     -33.016 -51.205  24.110  1.00  0.00    -0.545 OA
ENDBRANCH   1   3
BRANCH   2   6
ATOM      6  C   UNL     1     -34.678 -53.493  27.856  1.00  0.00    -0.026 A 
ATOM      7  C   UNL     1     -33.633 -53.987  28.667  1.00  0.00     0.008 A 
ATOM      8  C   UNL     1     -35.965 -54.041  28.011  1.00  0.00     0.008 A 
ATOM      9  C   UNL     1     -33.878 -55.000  29.600  1.00  0.00     0.001 A 
ATOM     10  C   UNL     1     -36.204 -55.053  28.946  1.00  0.00     0.001 A 
ATOM     11  C   UNL     1     -35.160 -55.532  29.740  1.00  0.00     0.000 A 
ENDBRANCH   2   6
TORSDOF 2
ENDMDL
MODEL 2
REMARK VINA RESULT:    -4.608      4.752      6.077
REMARK INTER + INTRA:          -5.277
REMARK INTER:                  -5.146
REMARK INTRA:                  -0.131
REMARK UNBOUND:                -0.129
REMARK SMILES O=C([O-])C=Cc1ccccc1
REMARK SMILES IDX 4 1 5 2 2 3 1 4 3 5 6 6 7 7 11 8 8 9 10 10 9 11
REMARK H PARENT
REMARK Flexibility Score: inf
ROOT
ATOM      1  C   UNL     1     -33.410 -53.525  32.539  1.00  0.00     0.025 C 
ATOM      2  C   UNL     1     -33.202 -53.498  31.214  1.00  0.00     0.010 C 
ENDROOT
BRANCH   1   3
ATOM      3  C   UNL     1     -32.354 -53.178  33.506  1.00  0.00     0.064 C 
ATOM      4  O   UNL     1     -31.517 -54.036  33.894  1.00  0.00    -0.545 OA
ATOM      5  O   UNL     1     -32.280 -51.881  33.997  1.00  0.00    -0.545 OA
ENDBRANCH   1   3
BRANCH   2   6
ATOM      6  C   UNL     1     -34.224 -53.836  30.186  1.00  0.00    -0.026 A 
ATOM      7  C   UNL     1     -34.751 -52.894  29.275  1.00  0.00     0.008 A 
ATOM      8  C   UNL     1     -34.686 -55.164  30.122  1.00  0.00     0.008 A 
ATOM      9  C   UNL     1     -35.711 -53.280  28.333  1.00  0.00     0.001 A 
ATOM     10  C   UNL     1     -35.645 -55.543  29.177  1.00  0.00     0.001 A 
ATOM     11  C   UNL     1     -36.157 -54.601  28.284  1.00  0.00     0.000 A 
ENDBRANCH   2   6
TORSDOF 2
ENDMDL
MODEL 3
REMARK VINA RESULT:    -4.314      3.176      5.177
REMARK INTER + INTRA:          -4.947
REMARK INTER:                  -4.809
REMARK INTRA:                  -0.138
REMARK UNBOUND:                -0.129
REMARK SMILES O=C([O-])C=Cc1ccccc1
REMARK SMILES IDX 4 1 5 2 2 3 1 4 3 5 6 6 7 7 11 8 8 9 10 10 9 11
REMARK H PARENT
REMARK Flexibility Score: inf
ROOT
ATOM      1  C   UNL     1     -35.642 -53.914  27.810  1.00  0.00     0.025 C 
ATOM      2  C   UNL     1     -34.440 -53.320  27.756  1.00  0.00     0.010 C 
ENDROOT
BRANCH   1   3
ATOM      3  C   UNL     1     -35.949 -54.974  28.786  1.00  0.00     0.064 C 
ATOM      4  O   UNL     1     -36.871 -54.834  29.633  1.00  0.00    -0.545 OA
ATOM      5  O   UNL     1     -35.210 -56.150  28.771  1.00  0.00    -0.545 OA
ENDBRANCH   1   3
BRANCH   2   6
ATOM      6  C   UNL     1     -34.066 -52.245  26.796  1.00  0.00    -0.026 A 
ATOM      7  C   UNL     1     -33.314 -51.107  27.160  1.00  0.00     0.008 A 
ATOM      8  C   UNL     1     -34.486 -52.374  25.460  1.00  0.00     0.008 A 
ATOM      9  C   UNL     1     -32.997 -50.133  26.207  1.00  0.00     0.001 A 
ATOM     10  C   UNL     1     -34.165 -51.397  24.512  1.00  0.00     0.001 A 
ATOM     11  C   UNL     1     -33.421 -50.278  24.886  1.00  0.00     0.000 A 
ENDBRANCH   2   6
TORSDOF 2
ENDMDL
MODEL 4
REMARK VINA RESULT:    -4.288      2.672      5.882
REMARK INTER + INTRA:          -4.919
REMARK INTER:                  -4.792
REMARK INTRA:                  -0.126
REMARK UNBOUND:                -0.129
REMARK SMILES O=C([O-])C=Cc1ccccc1
REMARK SMILES IDX 4 1 5 2 2 3 1 4 3 5 6 6 7 7 11 8 8 9 10 10 9 11
REMARK H PARENT
REMARK Flexibility Score: inf
ROOT
ATOM      1  C   UNL     1     -34.501 -52.471  26.892  1.00  0.00     0.025 C 
ATOM      2  C   UNL     1     -34.397 -52.579  25.559  1.00  0.00     0.010 C 
ENDROOT
BRANCH   1   3
ATOM      3  C   UNL     1     -34.846 -53.620  27.748  1.00  0.00     0.064 C 
ATOM      4  O   UNL     1     -36.038 -54.010  27.867  1.00  0.00    -0.545 OA
ATOM      5  O   UNL     1     -33.839 -54.286  28.434  1.00  0.00    -0.545 OA
ENDBRANCH   1   3
BRANCH   2   6
ATOM      6  C   UNL     1     -34.053 -51.460  24.640  1.00  0.00    -0.026 A 
ATOM      7  C   UNL     1     -34.999 -50.523  24.169  1.00  0.00     0.008 A 
ATOM      8  C   UNL     1     -32.716 -51.332  24.223  1.00  0.00     0.008 A 
ATOM      9  C   UNL     1     -34.608 -49.495  23.305  1.00  0.00     0.001 A 
ATOM     10  C   UNL     1     -32.330 -50.301  23.361  1.00  0.00     0.001 A 
ATOM     11  C   UNL     1     -33.276 -49.383  22.902  1.00  0.00     0.000 A 
ENDBRANCH   2   6
TORSDOF 2
ENDMDL
MODEL 5
REMARK VINA RESULT:    -4.259      4.212      5.511
REMARK INTER + INTRA:          -4.887
REMARK INTER:                  -4.744
REMARK INTRA:                  -0.142
REMARK UNBOUND:                -0.129
REMARK SMILES O=C([O-])C=Cc1ccccc1
REMARK SMILES IDX 4 1 5 2 2 3 1 4 3 5 6 6 7 7 11 8 8 9 10 10 9 11
REMARK H PARENT
REMARK Flexibility Score: inf
ROOT
ATOM      1  C   UNL     1     -34.635 -54.770  30.307  1.00  0.00     0.025 C 
ATOM      2  C   UNL     1     -33.988 -53.597  30.239  1.00  0.00     0.010 C 
ENDROOT
BRANCH   1   3
ATOM      3  C   UNL     1     -35.548 -55.224  29.243  1.00  0.00     0.064 C 
ATOM      4  O   UNL     1     -35.224 -56.156  28.459  1.00  0.00    -0.545 OA
ATOM      5  O   UNL     1     -36.789 -54.616  29.104  1.00  0.00    -0.545 OA
ENDBRANCH   1   3
BRANCH   2   6
ATOM      6  C   UNL     1     -33.054 -53.080  31.277  1.00  0.00    -0.026 A 
ATOM      7  C   UNL     1     -32.050 -52.123  31.011  1.00  0.00     0.008 A 
ATOM      8  C   UNL     1     -33.182 -53.573  32.588  1.00  0.00     0.008 A 
ATOM      9  C   UNL     1     -31.205 -51.681  32.034  1.00  0.00     0.001 A 
ATOM     10  C   UNL     1     -32.334 -53.126  33.607  1.00  0.00     0.001 A 
ATOM     11  C   UNL     1     -31.346 -52.180  33.329  1.00  0.00     0.000 A 
ENDBRANCH   2   6
TORSDOF 2
ENDMDL
MODEL 6
REMARK VINA RESULT:    -4.229      5.386      6.699
REMARK INTER + INTRA:          -4.853
REMARK INTER:                  -4.727
REMARK INTRA:                  -0.127
REMARK UNBOUND:                -0.129
REMARK SMILES O=C([O-])C=Cc1ccccc1
REMARK SMILES IDX 4 1 5 2 2 3 1 4 3 5 6 6 7 7 11 8 8 9 10 10 9 11
REMARK H PARENT
REMARK Flexibility Score: inf
ROOT
ATOM      1  C   UNL     1     -33.364 -53.440  31.041  1.00  0.00     0.025 C 
ATOM      2  C   UNL     1     -33.423 -53.518  32.379  1.00  0.00     0.010 C 
ENDROOT
BRANCH   1   3
ATOM      3  C   UNL     1     -34.423 -53.988  30.175  1.00  0.00     0.064 C 
ATOM      4  O   UNL     1     -35.143 -53.234  29.468  1.00  0.00    -0.545 OA
ATOM      5  O   UNL     1     -34.630 -55.361  30.138  1.00  0.00    -0.545 OA
ENDBRANCH   1   3
BRANCH   2   6
ATOM      6  C   UNL     1     -32.390 -52.986  33.308  1.00  0.00    -0.026 A 
ATOM      7  C   UNL     1     -32.375 -51.651  33.771  1.00  0.00     0.008 A 
ATOM      8  C   UNL     1     -31.378 -53.859  33.745  1.00  0.00     0.008 A 
ATOM      9  C   UNL     1     -31.373 -51.215  34.644  1.00  0.00     0.001 A 
ATOM     10  C   UNL     1     -30.379 -53.418  34.619  1.00  0.00     0.001 A 
ATOM     11  C   UNL     1     -30.377 -52.096  35.068  1.00  0.00     0.000 A 
ENDBRANCH   2   6
TORSDOF 2
ENDMDL
MODEL 7
REMARK VINA RESULT:    -4.182      6.992      7.713
REMARK INTER + INTRA:          -4.801
REMARK INTER:                  -4.674
REMARK INTRA:                  -0.127
REMARK UNBOUND:                -0.129
REMARK SMILES O=C([O-])C=Cc1ccccc1
REMARK SMILES IDX 4 1 5 2 2 3 1 4 3 5 6 6 7 7 11 8 8 9 10 10 9 11
REMARK H PARENT
REMARK Flexibility Score: inf
ROOT
ATOM      1  C   UNL     1     -27.398 -53.983  25.145  1.00  0.00     0.025 C 
ATOM      2  C   UNL     1     -27.814 -54.572  26.277  1.00  0.00     0.010 C 
ENDROOT
BRANCH   1   3
ATOM      3  C   UNL     1     -27.939 -54.351  23.825  1.00  0.00     0.064 C 
ATOM      4  O   UNL     1     -28.617 -53.534  23.147  1.00  0.00    -0.545 OA
ATOM      5  O   UNL     1     -27.698 -55.622  23.319  1.00  0.00    -0.545 OA
ENDBRANCH   1   3
BRANCH   2   6
ATOM      6  C   UNL     1     -27.308 -54.247  27.638  1.00  0.00    -0.026 A 
ATOM      7  C   UNL     1     -26.231 -54.926  28.249  1.00  0.00     0.008 A 
ATOM      8  C   UNL     1     -27.938 -53.209  28.350  1.00  0.00     0.008 A 
ATOM      9  C   UNL     1     -25.806 -54.570  29.534  1.00  0.00     0.001 A 
ATOM     10  C   UNL     1     -27.508 -52.857  29.633  1.00  0.00     0.001 A 
ATOM     11  C   UNL     1     -26.442 -53.538  30.224  1.00  0.00     0.000 A 
ENDBRANCH   2   6
TORSDOF 2
ENDMDL
MODEL 8
REMARK VINA RESULT:    -4.031      9.107      9.534
REMARK INTER + INTRA:          -4.632
REMARK INTER:                  -4.501
REMARK INTRA:                  -0.131
REMARK UNBOUND:                -0.129
REMARK SMILES O=C([O-])C=Cc1ccccc1
REMARK SMILES IDX 4 1 5 2 2 3 1 4 3 5 6 6 7 7 11 8 8 9 10 10 9 11
REMARK H PARENT
REMARK Flexibility Score: inf
ROOT
ATOM      1  C   UNL     1     -34.708 -44.688  29.759  1.00  0.00     0.025 C 
ATOM      2  C   UNL     1     -34.882 -44.197  30.995  1.00  0.00     0.010 C 
ENDROOT
BRANCH   1   3
ATOM      3  C   UNL     1     -35.114 -43.942  28.555  1.00  0.00     0.064 C 
ATOM      4  O   UNL     1     -35.759 -44.502  27.627  1.00  0.00    -0.545 OA
ATOM      5  O   UNL     1     -34.783 -42.599  28.440  1.00  0.00    -0.545 OA
ENDBRANCH   1   3
BRANCH   2   6
ATOM      6  C   UNL     1     -34.494 -44.897  32.250  1.00  0.00    -0.026 A 
ATOM      7  C   UNL     1     -33.424 -44.481  33.073  1.00  0.00     0.008 A 
ATOM      8  C   UNL     1     -35.234 -46.031  32.632  1.00  0.00     0.008 A 
ATOM      9  C   UNL     1     -33.113 -45.186  34.240  1.00  0.00     0.001 A 
ATOM     10  C   UNL     1     -34.918 -46.731  33.801  1.00  0.00     0.001 A 
ATOM     11  C   UNL     1     -33.858 -46.309  34.604  1.00  0.00     0.000 A 
ENDBRANCH   2   6
TORSDOF 2
ENDMDL
MODEL 9
REMARK VINA RESULT:    -3.990      9.258     10.071
REMARK INTER + INTRA:          -4.586
REMARK INTER:                  -4.457
REMARK INTRA:                  -0.129
REMARK UNBOUND:                -0.129
REMARK SMILES O=C([O-])C=Cc1ccccc1
REMARK SMILES IDX 4 1 5 2 2 3 1 4 3 5 6 6 7 7 11 8 8 9 10 10 9 11
REMARK H PARENT
REMARK Flexibility Score: inf
ROOT
ATOM      1  C   UNL     1     -30.298 -45.271  23.243  1.00  0.00     0.025 C 
ATOM      2  C   UNL     1     -29.929 -46.509  23.607  1.00  0.00     0.010 C 
ENDROOT
BRANCH   1   3
ATOM      3  C   UNL     1     -31.709 -44.851  23.213  1.00  0.00     0.064 C 
ATOM      4  O   UNL     1     -32.027 -43.643  23.044  1.00  0.00    -0.545 OA
ATOM      5  O   UNL     1     -32.708 -45.803  23.371  1.00  0.00    -0.545 OA
ENDBRANCH   1   3
BRANCH   2   6
ATOM      6  C   UNL     1     -28.523 -46.996  23.659  1.00  0.00    -0.026 A 
ATOM      7  C   UNL     1     -27.510 -46.362  24.411  1.00  0.00     0.008 A 
ATOM      8  C   UNL     1     -28.192 -48.147  22.921  1.00  0.00     0.008 A 
ATOM      9  C   UNL     1     -26.207 -46.873  24.416  1.00  0.00     0.001 A 
ATOM     10  C   UNL     1     -26.889 -48.653  22.931  1.00  0.00     0.001 A 
ATOM     11  C   UNL     1     -25.897 -48.016  23.678  1.00  0.00     0.000 A 
ENDBRANCH   2   6
TORSDOF 2
ENDMDL
