MODEL 1
REMARK VINA RESULT:    -5.132      0.000      0.000
REMARK INTER + INTRA:          -5.132
REMARK INTER:                  -5.132
REMARK INTRA:                   0.000
REMARK UNBOUND:                 0.000
REMARK SMILES c1ccc2ccccc2c1
REMARK SMILES IDX 2 1 1 2 10 3 9 4 8 5 7 6 6 7 5 8 4 9 3 10
REMARK H PARENT
REMARK Flexibility Score: inf
ROOT
ATOM      1  C   UNL     1       3.913   6.393 -21.799  1.00  0.00     0.001 A 
ATOM      2  C   UNL     1       3.386   7.614 -22.230  1.00  0.00     0.001 A 
ATOM      3  C   UNL     1       2.071   7.966 -21.909  1.00  0.00     0.009 A 
ATOM      4  C   UNL     1       1.274   7.094 -21.151  1.00  0.00    -0.018 A 
ATOM      5  C   UNL     1      -0.047   7.434 -20.822  1.00  0.00     0.009 A 
ATOM      6  C   UNL     1      -0.830   6.557 -20.066  1.00  0.00     0.001 A 
ATOM      7  C   UNL     1      -0.303   5.336 -19.636  1.00  0.00     0.001 A 
ATOM      8  C   UNL     1       1.012   4.985 -19.956  1.00  0.00     0.009 A 
ATOM      9  C   UNL     1       1.809   5.856 -20.714  1.00  0.00    -0.018 A 
ATOM     10  C   UNL     1       3.131   5.516 -21.044  1.00  0.00     0.009 A 
ENDROOT
TORSDOF 0
ENDMDL
MODEL 2
REMARK VINA RESULT:    -5.131      0.043      3.436
REMARK INTER + INTRA:          -5.131
REMARK INTER:                  -5.131
REMARK INTRA:                   0.000
REMARK UNBOUND:                 0.000
REMARK SMILES c1ccc2ccccc2c1
REMARK SMILES IDX 2 1 1 2 10 3 9 4 8 5 7 6 6 7 5 8 4 9 3 10
REMARK H PARENT
REMARK Flexibility Score: inf
ROOT
ATOM      1  C   UNL     1      -0.307   5.356 -19.641  1.00  0.00     0.001 A 
ATOM      2  C   UNL     1      -0.816   6.594 -20.047  1.00  0.00     0.001 A 
ATOM      3  C   UNL     1      -0.018   7.476 -20.782  1.00  0.00     0.009 A 
ATOM      4  C   UNL     1       1.297   7.121 -21.119  1.00  0.00    -0.018 A 
ATOM      5  C   UNL     1       2.109   7.997 -21.856  1.00  0.00     0.009 A 
ATOM      6  C   UNL     1       3.417   7.632 -22.185  1.00  0.00     0.001 A 
ATOM      7  C   UNL     1       3.926   6.394 -21.779  1.00  0.00     0.001 A 
ATOM      8  C   UNL     1       3.128   5.512 -21.044  1.00  0.00     0.009 A 
ATOM      9  C   UNL     1       1.813   5.867 -20.707  1.00  0.00    -0.018 A 
ATOM     10  C   UNL     1       1.001   4.991 -19.970  1.00  0.00     0.009 A 
ENDROOT
TORSDOF 0
ENDMDL
MODEL 3
REMARK VINA RESULT:    -5.124      0.098      2.083
REMARK INTER + INTRA:          -5.124
REMARK INTER:                  -5.124
REMARK INTRA:                   0.000
REMARK UNBOUND:                 0.000
REMARK SMILES c1ccc2ccccc2c1
REMARK SMILES IDX 2 1 1 2 10 3 9 4 8 5 7 6 6 7 5 8 4 9 3 10
REMARK H PARENT
REMARK Flexibility Score: inf
ROOT
ATOM      1  C   UNL     1       3.489   7.628 -22.198  1.00  0.00     0.001 A 
ATOM      2  C   UNL     1       4.006   6.392 -21.797  1.00  0.00     0.001 A 
ATOM      3  C   UNL     1       3.215   5.504 -21.062  1.00  0.00     0.009 A 
ATOM      4  C   UNL     1       1.897   5.848 -20.724  1.00  0.00    -0.018 A 
ATOM      5  C   UNL     1       1.092   4.966 -19.986  1.00  0.00     0.009 A 
ATOM      6  C   UNL     1      -0.218   5.322 -19.657  1.00  0.00     0.001 A 
ATOM      7  C   UNL     1      -0.734   6.558 -20.057  1.00  0.00     0.001 A 
ATOM      8  C   UNL     1       0.057   7.446 -20.792  1.00  0.00     0.009 A 
ATOM      9  C   UNL     1       1.374   7.102 -21.130  1.00  0.00    -0.018 A 
ATOM     10  C   UNL     1       2.179   7.984 -21.868  1.00  0.00     0.009 A 
ENDROOT
TORSDOF 0
ENDMDL
MODEL 4
REMARK VINA RESULT:    -5.121      0.065      4.017
REMARK INTER + INTRA:          -5.121
REMARK INTER:                  -5.121
REMARK INTRA:                   0.000
REMARK UNBOUND:                 0.000
REMARK SMILES c1ccc2ccccc2c1
REMARK SMILES IDX 2 1 1 2 10 3 9 4 8 5 7 6 6 7 5 8 4 9 3 10
REMARK H PARENT
REMARK Flexibility Score: inf
ROOT
ATOM      1  C   UNL     1      -0.809   6.605 -20.057  1.00  0.00     0.001 A 
ATOM      2  C   UNL     1      -0.314   5.360 -19.660  1.00  0.00     0.001 A 
ATOM      3  C   UNL     1       0.995   4.987 -19.982  1.00  0.00     0.009 A 
ATOM      4  C   UNL     1       1.818   5.863 -20.705  1.00  0.00    -0.018 A 
ATOM      5  C   UNL     1       3.134   5.502 -21.036  1.00  0.00     0.009 A 
ATOM      6  C   UNL     1       3.943   6.385 -21.756  1.00  0.00     0.001 A 
ATOM      7  C   UNL     1       3.448   7.630 -22.154  1.00  0.00     0.001 A 
ATOM      8  C   UNL     1       2.139   8.002 -21.832  1.00  0.00     0.009 A 
ATOM      9  C   UNL     1       1.316   7.126 -21.108  1.00  0.00    -0.018 A 
ATOM     10  C   UNL     1      -0.000   7.487 -20.778  1.00  0.00     0.009 A 
ENDROOT
TORSDOF 0
ENDMDL
MODEL 5
REMARK VINA RESULT:    -4.837      1.381      4.020
REMARK INTER + INTRA:          -4.837
REMARK INTER:                  -4.837
REMARK INTRA:                   0.000
REMARK UNBOUND:                 0.000
REMARK SMILES c1ccc2ccccc2c1
REMARK SMILES IDX 2 1 1 2 10 3 9 4 8 5 7 6 6 7 5 8 4 9 3 10
REMARK H PARENT
REMARK Flexibility Score: inf
ROOT
ATOM      1  C   UNL     1      -2.865   7.527 -19.198  1.00  0.00     0.001 A 
ATOM      2  C   UNL     1      -2.326   8.639 -19.852  1.00  0.00     0.001 A 
ATOM      3  C   UNL     1      -1.046   8.575 -20.411  1.00  0.00     0.009 A 
ATOM      4  C   UNL     1      -0.296   7.392 -20.319  1.00  0.00    -0.018 A 
ATOM      5  C   UNL     1       0.990   7.313 -20.876  1.00  0.00     0.009 A 
ATOM      6  C   UNL     1       1.725   6.129 -20.778  1.00  0.00     0.001 A 
ATOM      7  C   UNL     1       1.186   5.018 -20.124  1.00  0.00     0.001 A 
ATOM      8  C   UNL     1      -0.094   5.082 -19.565  1.00  0.00     0.009 A 
ATOM      9  C   UNL     1      -0.843   6.265 -19.656  1.00  0.00    -0.018 A 
ATOM     10  C   UNL     1      -2.130   6.343 -19.100  1.00  0.00     0.009 A 
ENDROOT
TORSDOF 0
ENDMDL
MODEL 6
REMARK VINA RESULT:    -4.774      1.164      2.832
REMARK INTER + INTRA:          -4.774
REMARK INTER:                  -4.774
REMARK INTRA:                   0.000
REMARK UNBOUND:                 0.000
REMARK SMILES c1ccc2ccccc2c1
REMARK SMILES IDX 2 1 1 2 10 3 9 4 8 5 7 6 6 7 5 8 4 9 3 10
REMARK H PARENT
REMARK Flexibility Score: inf
ROOT
ATOM      1  C   UNL     1       2.347   6.709 -21.076  1.00  0.00     0.001 A 
ATOM      2  C   UNL     1       2.057   5.444 -20.556  1.00  0.00     0.001 A 
ATOM      3  C   UNL     1       0.812   5.190 -19.974  1.00  0.00     0.009 A 
ATOM      4  C   UNL     1      -0.155   6.205 -19.910  1.00  0.00    -0.018 A 
ATOM      5  C   UNL     1      -1.410   5.965 -19.328  1.00  0.00     0.009 A 
ATOM      6  C   UNL     1      -2.363   6.985 -19.271  1.00  0.00     0.001 A 
ATOM      7  C   UNL     1      -2.074   8.249 -19.791  1.00  0.00     0.001 A 
ATOM      8  C   UNL     1      -0.828   8.503 -20.373  1.00  0.00     0.009 A 
ATOM      9  C   UNL     1       0.139   7.488 -20.437  1.00  0.00    -0.018 A 
ATOM     10  C   UNL     1       1.394   7.728 -21.019  1.00  0.00     0.009 A 
ENDROOT
TORSDOF 0
ENDMDL
MODEL 7
REMARK VINA RESULT:    -4.674     19.875     21.447
REMARK INTER + INTRA:          -4.674
REMARK INTER:                  -4.674
REMARK INTRA:                   0.000
REMARK UNBOUND:                 0.000
REMARK SMILES c1ccc2ccccc2c1
REMARK SMILES IDX 2 1 1 2 10 3 9 4 8 5 7 6 6 7 5 8 4 9 3 10
REMARK H PARENT
REMARK Flexibility Score: inf
ROOT
ATOM      1  C   UNL     1     -10.506  22.496 -32.569  1.00  0.00     0.001 A 
ATOM      2  C   UNL     1     -11.173  21.280 -32.396  1.00  0.00     0.001 A 
ATOM      3  C   UNL     1     -10.461  20.076 -32.419  1.00  0.00     0.009 A 
ATOM      4  C   UNL     1      -9.072  20.084 -32.615  1.00  0.00    -0.018 A 
ATOM      5  C   UNL     1      -8.345  18.884 -32.641  1.00  0.00     0.009 A 
ATOM      6  C   UNL     1      -6.961  18.906 -32.836  1.00  0.00     0.001 A 
ATOM      7  C   UNL     1      -6.294  20.123 -33.009  1.00  0.00     0.001 A 
ATOM      8  C   UNL     1      -7.006  21.326 -32.986  1.00  0.00     0.009 A 
ATOM      9  C   UNL     1      -8.396  21.318 -32.791  1.00  0.00    -0.018 A 
ATOM     10  C   UNL     1      -9.123  22.518 -32.765  1.00  0.00     0.009 A 
ENDROOT
TORSDOF 0
ENDMDL
MODEL 8
REMARK VINA RESULT:    -4.673     19.857     21.238
REMARK INTER + INTRA:          -4.673
REMARK INTER:                  -4.673
REMARK INTRA:                   0.000
REMARK UNBOUND:                 0.000
REMARK SMILES c1ccc2ccccc2c1
REMARK SMILES IDX 2 1 1 2 10 3 9 4 8 5 7 6 6 7 5 8 4 9 3 10
REMARK H PARENT
REMARK Flexibility Score: inf
ROOT
ATOM      1  C   UNL     1      -6.231  20.111 -32.954  1.00  0.00     0.001 A 
ATOM      2  C   UNL     1      -6.910  18.899 -32.807  1.00  0.00     0.001 A 
ATOM      3  C   UNL     1      -8.299  18.884 -32.651  1.00  0.00     0.009 A 
ATOM      4  C   UNL     1      -9.019  20.089 -32.642  1.00  0.00    -0.018 A 
ATOM      5  C   UNL     1     -10.414  20.089 -32.485  1.00  0.00     0.009 A 
ATOM      6  C   UNL     1     -11.118  21.296 -32.478  1.00  0.00     0.001 A 
ATOM      7  C   UNL     1     -10.439  22.509 -32.624  1.00  0.00     0.001 A 
ATOM      8  C   UNL     1      -9.050  22.523 -32.781  1.00  0.00     0.009 A 
ATOM      9  C   UNL     1      -8.330  21.319 -32.790  1.00  0.00    -0.018 A 
ATOM     10  C   UNL     1      -6.935  21.318 -32.946  1.00  0.00     0.009 A 
ENDROOT
TORSDOF 0
ENDMDL
MODEL 9
REMARK VINA RESULT:    -4.663     19.873     21.383
REMARK INTER + INTRA:          -4.663
REMARK INTER:                  -4.663
REMARK INTRA:                   0.000
REMARK UNBOUND:                 0.000
REMARK SMILES c1ccc2ccccc2c1
REMARK SMILES IDX 2 1 1 2 10 3 9 4 8 5 7 6 6 7 5 8 4 9 3 10
REMARK H PARENT
REMARK Flexibility Score: inf
ROOT
ATOM      1  C   UNL     1     -11.186  21.283 -32.378  1.00  0.00     0.001 A 
ATOM      2  C   UNL     1     -10.524  22.499 -32.570  1.00  0.00     0.001 A 
ATOM      3  C   UNL     1      -9.140  22.523 -32.769  1.00  0.00     0.009 A 
ATOM      4  C   UNL     1      -8.409  21.325 -32.779  1.00  0.00    -0.018 A 
ATOM      5  C   UNL     1      -7.020  21.334 -32.977  1.00  0.00     0.009 A 
ATOM      6  C   UNL     1      -6.304  20.134 -32.984  1.00  0.00     0.001 A 
ATOM      7  C   UNL     1      -6.967  18.919 -32.792  1.00  0.00     0.001 A 
ATOM      8  C   UNL     1      -8.351  18.895 -32.593  1.00  0.00     0.009 A 
ATOM      9  C   UNL     1      -9.081  20.092 -32.584  1.00  0.00    -0.018 A 
ATOM     10  C   UNL     1     -10.471  20.083 -32.386  1.00  0.00     0.009 A 
ENDROOT
TORSDOF 0
ENDMDL
