MODEL 1
REMARK VINA RESULT:    18.851      0.000      0.000
REMARK INTER + INTRA:          20.923
REMARK INTER:                  20.504
REMARK INTRA:                   0.419
REMARK UNBOUND:                 0.419
REMARK SMILES CC1(C)CC[C@]2(C(=O)[O-])CC[C@]3(C)C(=CC[C@@H]4[C@]5(C)CC[C@@H](O)C(C)(C)[C@H]5CC[C@]43C)[C@H]2C1
REMARK SMILES IDX 6 1 5 2 10 3 32 4 4 5 11 6 14 7 33 8 2 9 12 10 15 11 1 12
REMARK SMILES IDX 3 13 13 14 30 15 16 16 17 17 29 18 31 19 18 20 28 21 27 22
REMARK SMILES IDX 20 23 19 24 24 25 21 26 22 27 25 28 26 29 7 30 8 31 9 32
REMARK SMILES IDX 23 33
REMARK H PARENT 23 34
REMARK Flexibility Score: inf
ROOT
ATOM      1  C   UNL     1      44.973  27.727  -4.548  1.00  0.00     0.017 C 
ATOM      2  C   UNL     1      44.802  27.619  -6.102  1.00  0.00     0.014 C 
ATOM      3  C   UNL     1      45.382  26.353  -3.952  1.00  0.00     0.014 C 
ATOM      4  C   UNL     1      43.629  28.116  -3.855  1.00  0.00     0.028 C 
ATOM      5  C   UNL     1      43.339  27.550  -6.560  1.00  0.00     0.007 C 
ATOM      6  C   UNL     1      45.612  26.420  -2.423  1.00  0.00     0.013 C 
ATOM      7  C   UNL     1      43.839  28.289  -2.347  1.00  0.00    -0.064 C 
ATOM      8  C   UNL     1      42.890  29.232  -4.631  1.00  0.00     0.015 C 
ATOM      9  C   UNL     1      42.505  28.782  -6.084  1.00  0.00    -0.035 C 
ATOM     10  C   UNL     1      44.442  27.078  -1.585  1.00  0.00    -0.006 C 
ATOM     11  C   UNL     1      43.413  29.411  -1.702  1.00  0.00    -0.027 C 
ATOM     12  C   UNL     1      41.012  28.392  -6.127  1.00  0.00     0.011 C 
ATOM     13  C   UNL     1      42.719  29.962  -7.058  1.00  0.00     0.011 C 
ATOM     14  C   UNL     1      43.321  25.991  -1.487  1.00  0.00     0.017 C 
ATOM     15  C   UNL     1      44.978  27.566  -0.143  1.00  0.00    -0.020 C 
ATOM     16  C   UNL     1      43.531  29.654  -0.214  1.00  0.00     0.032 C 
ATOM     17  C   UNL     1      43.826  28.360   0.578  1.00  0.00     0.006 C 
ATOM     18  C   UNL     1      45.366  26.366   0.766  1.00  0.00     0.008 C 
ATOM     19  C   UNL     1      46.240  28.486  -0.354  1.00  0.00     0.012 C 
ATOM     20  C   UNL     1      43.897  28.460   2.190  1.00  0.00    -0.025 C 
ATOM     21  C   UNL     1      45.912  26.768   2.149  1.00  0.00     0.005 C 
ATOM     22  C   UNL     1      45.335  28.093   2.726  1.00  0.00     0.003 C 
ATOM     23  C   UNL     1      43.553  29.902   2.686  1.00  0.00     0.010 C 
ATOM     24  C   UNL     1      42.820  27.483   2.761  1.00  0.00     0.012 C 
ATOM     25  C   UNL     1      45.596  28.304   4.277  1.00  0.00    -0.006 C 
ATOM     26  C   UNL     1      43.743  30.118   4.197  1.00  0.00     0.033 C 
ATOM     27  C   UNL     1      45.173  29.765   4.649  1.00  0.00     0.120 C 
ATOM     28  C   UNL     1      47.122  28.182   4.545  1.00  0.00     0.014 C 
ATOM     29  C   UNL     1      44.885  27.265   5.198  1.00  0.00     0.014 C 
ENDROOT
BRANCH   1  30
ATOM     30  C   UNL     1      46.088  28.739  -4.284  1.00  0.00     0.048 C 
ATOM     31  O   UNL     1      47.097  28.399  -3.607  1.00  0.00    -0.550 OA
ATOM     32  O   UNL     1      46.052  30.018  -4.826  1.00  0.00    -0.550 OA
ENDBRANCH   1  30
BRANCH  27  33
ATOM     33  O   UNL     1      45.352  30.032   6.021  1.00  0.00    -0.393 OA
ATOM     34  H   UNL     1      44.581  30.569   6.339  1.00  0.00     0.210 HD
ENDBRANCH  27  33
TORSDOF 2
ENDMDL
