MODEL 1
REMARK VINA RESULT:    -3.325      0.000      0.000
REMARK INTER + INTRA:          -4.039
REMARK INTER:                  -4.005
REMARK INTRA:                  -0.034
REMARK UNBOUND:                -0.034
REMARK SMILES CCCCCO
REMARK SMILES IDX 4 1 3 2 2 3 1 4 5 5 6 6
REMARK H PARENT 6 7
REMARK Flexibility Score: inf
ROOT
ATOM      1  C   UNL     1       2.838  25.841  18.499  1.00  0.00     0.028 C 
ENDROOT
BRANCH   1   2
ATOM      2  C   UNL     1       2.812  25.036  19.805  1.00  0.00     0.002 C 
BRANCH   2   3
ATOM      3  C   UNL     1       1.394  24.971  20.382  1.00  0.00    -0.003 C 
ATOM      4  C   UNL     1       0.517  26.085  19.819  1.00  0.00     0.004 C 
ENDBRANCH   2   3
ENDBRANCH   1   2
BRANCH   1   5
ATOM      5  C   UNL     1       4.222  25.828  17.843  1.00  0.00     0.156 C 
BRANCH   5   6
ATOM      6  O   UNL     1       5.140  25.124  18.637  1.00  0.00    -0.396 OA
ATOM      7  H   UNL     1       6.038  25.274  18.240  1.00  0.00     0.210 HD
ENDBRANCH   5   6
ENDBRANCH   1   5
TORSDOF 4
ENDMDL
MODEL 2
REMARK VINA RESULT:    -3.218      7.263      8.427
REMARK INTER + INTRA:          -3.910
REMARK INTER:                  -3.883
REMARK INTRA:                  -0.027
REMARK UNBOUND:                -0.034
REMARK SMILES CCCCCO
REMARK SMILES IDX 4 1 3 2 2 3 1 4 5 5 6 6
REMARK H PARENT 6 7
REMARK Flexibility Score: inf
ROOT
ATOM      1  C   UNL     1      -0.304  22.648  26.012  1.00  0.00     0.028 C 
ENDROOT
BRANCH   1   2
ATOM      2  C   UNL     1      -1.038  21.306  26.127  1.00  0.00     0.002 C 
BRANCH   2   3
ATOM      3  C   UNL     1      -1.855  21.236  27.423  1.00  0.00    -0.003 C 
ATOM      4  C   UNL     1      -3.047  22.187  27.375  1.00  0.00     0.004 C 
ENDBRANCH   2   3
ENDBRANCH   1   2
BRANCH   1   5
ATOM      5  C   UNL     1      -0.088  23.060  24.553  1.00  0.00     0.156 C 
BRANCH   5   6
ATOM      6  O   UNL     1       1.278  23.063  24.235  1.00  0.00    -0.396 OA
ATOM      7  H   UNL     1       1.606  22.134  24.360  1.00  0.00     0.210 HD
ENDBRANCH   5   6
ENDBRANCH   1   5
TORSDOF 4
ENDMDL
MODEL 3
REMARK VINA RESULT:    -2.849      7.445      8.558
REMARK INTER + INTRA:          -3.466
REMARK INTER:                  -3.360
REMARK INTRA:                  -0.106
REMARK UNBOUND:                -0.034
REMARK SMILES CCCCCO
REMARK SMILES IDX 4 1 3 2 2 3 1 4 5 5 6 6
REMARK H PARENT 6 7
REMARK Flexibility Score: inf
ROOT
ATOM      1  C   UNL     1      -0.806  22.436  24.378  1.00  0.00     0.028 C 
ENDROOT
BRANCH   1   2
ATOM      2  C   UNL     1      -0.504  22.237  25.869  1.00  0.00     0.002 C 
BRANCH   2   3
ATOM      3  C   UNL     1      -1.791  22.280  26.701  1.00  0.00    -0.003 C 
ATOM      4  C   UNL     1      -2.039  20.950  27.404  1.00  0.00     0.004 C 
ENDBRANCH   2   3
ENDBRANCH   1   2
BRANCH   1   5
ATOM      5  C   UNL     1      -1.300  21.147  23.715  1.00  0.00     0.156 C 
BRANCH   5   6
ATOM      6  O   UNL     1      -0.596  20.036  24.204  1.00  0.00    -0.396 OA
ATOM      7  H   UNL     1       0.114  19.829  23.542  1.00  0.00     0.210 HD
ENDBRANCH   5   6
ENDBRANCH   1   5
TORSDOF 4
ENDMDL
MODEL 4
REMARK VINA RESULT:    -2.800      1.787      2.160
REMARK INTER + INTRA:          -3.407
REMARK INTER:                  -3.308
REMARK INTRA:                  -0.099
REMARK UNBOUND:                -0.034
REMARK SMILES CCCCCO
REMARK SMILES IDX 4 1 3 2 2 3 1 4 5 5 6 6
REMARK H PARENT 6 7
REMARK Flexibility Score: inf
ROOT
ATOM      1  C   UNL     1       2.238  26.197  18.688  1.00  0.00     0.028 C 
ENDROOT
BRANCH   1   2
ATOM      2  C   UNL     1       1.211  26.832  19.636  1.00  0.00     0.002 C 
BRANCH   2   3
ATOM      3  C   UNL     1      -0.190  26.263  19.387  1.00  0.00    -0.003 C 
ATOM      4  C   UNL     1      -0.657  25.413  20.565  1.00  0.00     0.004 C 
ENDBRANCH   2   3
ENDBRANCH   1   2
BRANCH   1   5
ATOM      5  C   UNL     1       2.974  25.024  19.342  1.00  0.00     0.156 C 
BRANCH   5   6
ATOM      6  O   UNL     1       2.853  25.078  20.739  1.00  0.00    -0.396 OA
ATOM      7  H   UNL     1       1.892  24.946  20.950  1.00  0.00     0.210 HD
ENDBRANCH   5   6
ENDBRANCH   1   5
TORSDOF 4
ENDMDL
MODEL 5
REMARK VINA RESULT:    -2.713      2.170      3.171
REMARK INTER + INTRA:          -3.303
REMARK INTER:                  -3.231
REMARK INTRA:                  -0.072
REMARK UNBOUND:                -0.034
REMARK SMILES CCCCCO
REMARK SMILES IDX 4 1 3 2 2 3 1 4 5 5 6 6
REMARK H PARENT 6 7
REMARK Flexibility Score: inf
ROOT
ATOM      1  C   UNL     1       0.584  25.815  20.062  1.00  0.00     0.028 C 
ENDROOT
BRANCH   1   2
ATOM      2  C   UNL     1      -0.477  25.107  20.915  1.00  0.00     0.002 C 
BRANCH   2   3
ATOM      3  C   UNL     1       0.169  24.365  22.090  1.00  0.00    -0.003 C 
ATOM      4  C   UNL     1      -0.559  23.057  22.384  1.00  0.00     0.004 C 
ENDBRANCH   2   3
ENDBRANCH   1   2
BRANCH   1   5
ATOM      5  C   UNL     1       1.899  25.032  20.014  1.00  0.00     0.156 C 
BRANCH   5   6
ATOM      6  O   UNL     1       2.976  25.845  20.397  1.00  0.00    -0.396 OA
ATOM      7  H   UNL     1       2.751  26.772  20.119  1.00  0.00     0.210 HD
ENDBRANCH   5   6
ENDBRANCH   1   5
TORSDOF 4
ENDMDL
MODEL 6
REMARK VINA RESULT:    -2.707      8.449      9.836
REMARK INTER + INTRA:          -3.295
REMARK INTER:                  -3.286
REMARK INTRA:                  -0.009
REMARK UNBOUND:                -0.034
REMARK SMILES CCCCCO
REMARK SMILES IDX 4 1 3 2 2 3 1 4 5 5 6 6
REMARK H PARENT 6 7
REMARK Flexibility Score: inf
ROOT
ATOM      1  C   UNL     1      -1.915  21.025  27.035  1.00  0.00     0.028 C 
ENDROOT
BRANCH   1   2
ATOM      2  C   UNL     1      -0.796  21.291  26.019  1.00  0.00     0.002 C 
BRANCH   2   3
ATOM      3  C   UNL     1      -0.472  22.787  25.939  1.00  0.00    -0.003 C 
ATOM      4  C   UNL     1       0.317  23.114  24.674  1.00  0.00     0.004 C 
ENDBRANCH   2   3
ENDBRANCH   1   2
BRANCH   1   5
ATOM      5  C   UNL     1      -2.873  19.929  26.560  1.00  0.00     0.156 C 
BRANCH   5   6
ATOM      6  O   UNL     1      -2.315  18.658  26.768  1.00  0.00    -0.396 OA
ATOM      7  H   UNL     1      -2.579  18.373  27.682  1.00  0.00     0.210 HD
ENDBRANCH   5   6
ENDBRANCH   1   5
TORSDOF 4
ENDMDL
MODEL 7
REMARK VINA RESULT:    -2.675      2.190      2.870
REMARK INTER + INTRA:          -3.257
REMARK INTER:                  -3.206
REMARK INTRA:                  -0.051
REMARK UNBOUND:                -0.034
REMARK SMILES CCCCCO
REMARK SMILES IDX 4 1 3 2 2 3 1 4 5 5 6 6
REMARK H PARENT 6 7
REMARK Flexibility Score: inf
ROOT
ATOM      1  C   UNL     1       3.238  25.685  18.486  1.00  0.00     0.028 C 
ENDROOT
BRANCH   1   2
ATOM      2  C   UNL     1       2.634  26.428  17.288  1.00  0.00     0.002 C 
BRANCH   2   3
ATOM      3  C   UNL     1       1.446  27.295  17.722  1.00  0.00    -0.003 C 
ATOM      4  C   UNL     1       0.362  27.321  16.649  1.00  0.00     0.004 C 
ENDBRANCH   2   3
ENDBRANCH   1   2
BRANCH   1   5
ATOM      5  C   UNL     1       2.330  25.747  19.718  1.00  0.00     0.156 C 
BRANCH   5   6
ATOM      6  O   UNL     1       2.864  24.984  20.767  1.00  0.00    -0.396 OA
ATOM      7  H   UNL     1       2.155  24.907  21.458  1.00  0.00     0.210 HD
ENDBRANCH   5   6
ENDBRANCH   1   5
TORSDOF 4
ENDMDL
MODEL 8
REMARK VINA RESULT:    -2.673      8.372      9.814
REMARK INTER + INTRA:          -3.255
REMARK INTER:                  -3.224
REMARK INTRA:                  -0.031
REMARK UNBOUND:                -0.034
REMARK SMILES CCCCCO
REMARK SMILES IDX 4 1 3 2 2 3 1 4 5 5 6 6
REMARK H PARENT 6 7
REMARK Flexibility Score: inf
ROOT
ATOM      1  C   UNL     1      -1.987  21.568  27.508  1.00  0.00     0.028 C 
ENDROOT
BRANCH   1   2
ATOM      2  C   UNL     1      -1.108  21.505  26.251  1.00  0.00     0.002 C 
BRANCH   2   3
ATOM      3  C   UNL     1      -0.251  22.769  26.117  1.00  0.00    -0.003 C 
ATOM      4  C   UNL     1       0.314  22.904  24.707  1.00  0.00     0.004 C 
ENDBRANCH   2   3
ENDBRANCH   1   2
BRANCH   1   5
ATOM      5  C   UNL     1      -3.392  22.092  27.200  1.00  0.00     0.156 C 
BRANCH   5   6
ATOM      6  O   UNL     1      -3.440  23.489  27.325  1.00  0.00    -0.396 OA
ATOM      7  H   UNL     1      -3.498  23.690  28.296  1.00  0.00     0.210 HD
ENDBRANCH   5   6
ENDBRANCH   1   5
TORSDOF 4
ENDMDL
MODEL 9
REMARK VINA RESULT:    -2.656     16.341     17.298
REMARK INTER + INTRA:          -3.233
REMARK INTER:                  -3.222
REMARK INTRA:                  -0.012
REMARK UNBOUND:                -0.034
REMARK SMILES CCCCCO
REMARK SMILES IDX 4 1 3 2 2 3 1 4 5 5 6 6
REMARK H PARENT 6 7
REMARK Flexibility Score: inf
ROOT
ATOM      1  C   UNL     1      -3.256  11.197  28.061  1.00  0.00     0.028 C 
ENDROOT
BRANCH   1   2
ATOM      2  C   UNL     1      -2.899  11.488  26.598  1.00  0.00     0.002 C 
BRANCH   2   3
ATOM      3  C   UNL     1      -1.905  10.453  26.059  1.00  0.00    -0.003 C 
ATOM      4  C   UNL     1      -0.848  11.111  25.177  1.00  0.00     0.004 C 
ENDBRANCH   2   3
ENDBRANCH   1   2
BRANCH   1   5
ATOM      5  C   UNL     1      -3.681  12.462  28.812  1.00  0.00     0.156 C 
BRANCH   5   6
ATOM      6  O   UNL     1      -2.569  13.093  29.390  1.00  0.00    -0.396 OA
ATOM      7  H   UNL     1      -2.392  12.633  30.251  1.00  0.00     0.210 HD
ENDBRANCH   5   6
ENDBRANCH   1   5
TORSDOF 4
ENDMDL
