MODEL 1
REMARK VINA RESULT:    -4.653      0.000      0.000
REMARK INTER + INTRA:          -6.434
REMARK INTER:                  -6.013
REMARK INTRA:                  -0.421
REMARK UNBOUND:                -0.421
REMARK SMILES CO[C@@]1(CO)O[C@@H](CO)[C@@H](O)[C@@H]1O
REMARK SMILES IDX 3 1 12 2 10 3 7 4 6 5 2 6 1 7 4 8 5 9 13 11 11 13 8 15 9 16
REMARK H PARENT 5 10 13 12 11 14 9 17
REMARK Flexibility Score: inf
ROOT
ATOM      1  C   UNL     1      21.607   3.538  41.342  1.00  0.00     0.221 C 
ATOM      2  C   UNL     1      21.273   3.374  42.841  1.00  0.00     0.207 C 
ATOM      3  C   UNL     1      21.848   4.634  43.436  1.00  0.00     0.180 C 
ATOM      4  C   UNL     1      23.050   4.876  42.527  1.00  0.00     0.179 C 
ATOM      5  O   UNL     1      22.751   4.380  41.240  1.00  0.00    -0.337 OA
ENDROOT
BRANCH   1   6
ATOM      6  O   UNL     1      20.453   4.100  40.713  1.00  0.00    -0.349 OA
ATOM      7  C   UNL     1      20.650   4.443  39.356  1.00  0.00     0.198 C 
ENDBRANCH   1   6
BRANCH   1   8
ATOM      8  C   UNL     1      21.918   2.177  40.678  1.00  0.00     0.224 C 
BRANCH   8   9
ATOM      9  O   UNL     1      20.890   1.252  40.915  1.00  0.00    -0.391 OA
ATOM     10  H   UNL     1      20.071   1.619  40.491  1.00  0.00     0.210 HD
ENDBRANCH   8   9
ENDBRANCH   1   8
BRANCH   2  11
ATOM     11  O   UNL     1      21.915   2.253  43.401  1.00  0.00    -0.385 OA
ATOM     12  H   UNL     1      22.176   1.666  42.644  1.00  0.00     0.211 HD
ENDBRANCH   2  11
BRANCH   3  13
ATOM     13  O   UNL     1      20.916   5.682  43.338  1.00  0.00    -0.387 OA
ATOM     14  H   UNL     1      20.416   5.698  44.195  1.00  0.00     0.211 HD
ENDBRANCH   3  13
BRANCH   4  15
ATOM     15  C   UNL     1      23.481   6.349  42.440  1.00  0.00     0.191 C 
BRANCH  15  16
ATOM     16  O   UNL     1      23.689   6.728  41.106  1.00  0.00    -0.394 OA
ATOM     17  H   UNL     1      24.417   7.402  41.112  1.00  0.00     0.210 HD
ENDBRANCH  15  16
ENDBRANCH   4  15
TORSDOF 7
ENDMDL
MODEL 2
REMARK VINA RESULT:    -4.373      1.722      3.878
REMARK INTER + INTRA:          -6.072
REMARK INTER:                  -5.422
REMARK INTRA:                  -0.650
REMARK UNBOUND:                -0.421
REMARK SMILES CO[C@@]1(CO)O[C@@H](CO)[C@@H](O)[C@@H]1O
REMARK SMILES IDX 3 1 12 2 10 3 7 4 6 5 2 6 1 7 4 8 5 9 13 11 11 13 8 15 9 16
REMARK H PARENT 5 10 13 12 11 14 9 17
REMARK Flexibility Score: inf
ROOT
ATOM      1  C   UNL     1      21.712   3.451  40.791  1.00  0.00     0.221 C 
ATOM      2  C   UNL     1      21.549   3.988  42.229  1.00  0.00     0.207 C 
ATOM      3  C   UNL     1      21.047   2.774  42.969  1.00  0.00     0.180 C 
ATOM      4  C   UNL     1      20.231   2.075  41.884  1.00  0.00     0.179 C 
ATOM      5  O   UNL     1      20.812   2.358  40.629  1.00  0.00    -0.337 OA
ENDROOT
BRANCH   1   6
ATOM      6  O   UNL     1      23.080   3.064  40.638  1.00  0.00    -0.349 OA
ATOM      7  C   UNL     1      23.280   2.030  39.695  1.00  0.00     0.198 C 
ENDBRANCH   1   6
BRANCH   1   8
ATOM      8  C   UNL     1      21.386   4.537  39.739  1.00  0.00     0.224 C 
BRANCH   8   9
ATOM      9  O   UNL     1      20.005   4.774  39.670  1.00  0.00    -0.391 OA
ATOM     10  H   UNL     1      19.555   3.906  39.840  1.00  0.00     0.210 HD
ENDBRANCH   8   9
ENDBRANCH   1   8
BRANCH   2  11
ATOM     11  O   UNL     1      20.587   5.013  42.300  1.00  0.00    -0.385 OA
ATOM     12  H   UNL     1      21.087   5.867  42.389  1.00  0.00     0.211 HD
ENDBRANCH   2  11
BRANCH   3  13
ATOM     13  O   UNL     1      22.130   1.978  43.382  1.00  0.00    -0.387 OA
ATOM     14  H   UNL     1      22.251   1.281  42.686  1.00  0.00     0.211 HD
ENDBRANCH   3  13
BRANCH   4  15
ATOM     15  C   UNL     1      20.105   0.556  42.077  1.00  0.00     0.191 C 
BRANCH  15  16
ATOM     16  O   UNL     1      21.327  -0.082  41.820  1.00  0.00    -0.394 OA
ATOM     17  H   UNL     1      21.257  -0.475  40.911  1.00  0.00     0.210 HD
ENDBRANCH  15  16
ENDBRANCH   4  15
TORSDOF 7
ENDMDL
MODEL 3
REMARK VINA RESULT:    -4.348     14.809     16.168
REMARK INTER + INTRA:          -6.040
REMARK INTER:                  -5.441
REMARK INTRA:                  -0.599
REMARK UNBOUND:                -0.421
REMARK SMILES CO[C@@]1(CO)O[C@@H](CO)[C@@H](O)[C@@H]1O
REMARK SMILES IDX 3 1 12 2 10 3 7 4 6 5 2 6 1 7 4 8 5 9 13 11 11 13 8 15 9 16
REMARK H PARENT 5 10 13 12 11 14 9 17
REMARK Flexibility Score: inf
ROOT
ATOM      1  C   UNL     1      37.522   5.695  43.511  1.00  0.00     0.221 C 
ATOM      2  C   UNL     1      38.507   6.793  43.054  1.00  0.00     0.207 C 
ATOM      3  C   UNL     1      38.113   7.958  43.926  1.00  0.00     0.180 C 
ATOM      4  C   UNL     1      36.612   7.726  44.081  1.00  0.00     0.179 C 
ATOM      5  O   UNL     1      36.362   6.338  44.030  1.00  0.00    -0.337 OA
ENDROOT
BRANCH   1   6
ATOM      6  O   UNL     1      38.199   4.905  44.493  1.00  0.00    -0.349 OA
ATOM      7  C   UNL     1      39.496   4.499  44.106  1.00  0.00     0.198 C 
ENDBRANCH   1   6
BRANCH   1   8
ATOM      8  C   UNL     1      37.112   4.776  42.337  1.00  0.00     0.224 C 
BRANCH   8   9
ATOM      9  O   UNL     1      36.016   5.307  41.640  1.00  0.00    -0.391 OA
ATOM     10  H   UNL     1      36.384   5.878  40.917  1.00  0.00     0.210 HD
ENDBRANCH   8   9
ENDBRANCH   1   8
BRANCH   2  11
ATOM     11  O   UNL     1      38.321   7.133  41.701  1.00  0.00    -0.385 OA
ATOM     12  H   UNL     1      37.975   6.320  41.248  1.00  0.00     0.211 HD
ENDBRANCH   2  11
BRANCH   3  13
ATOM     13  O   UNL     1      38.771   7.877  45.166  1.00  0.00    -0.387 OA
ATOM     14  H   UNL     1      38.580   8.725  45.644  1.00  0.00     0.211 HD
ENDBRANCH   3  13
BRANCH   4  15
ATOM     15  C   UNL     1      36.016   8.324  45.364  1.00  0.00     0.191 C 
BRANCH  15  16
ATOM     16  O   UNL     1      35.776   7.322  46.315  1.00  0.00    -0.394 OA
ATOM     17  H   UNL     1      35.844   7.753  47.206  1.00  0.00     0.210 HD
ENDBRANCH  15  16
ENDBRANCH   4  15
TORSDOF 7
ENDMDL
MODEL 4
REMARK VINA RESULT:    -4.332      1.407      3.495
REMARK INTER + INTRA:          -6.020
REMARK INTER:                  -5.525
REMARK INTRA:                  -0.495
REMARK UNBOUND:                -0.421
REMARK SMILES CO[C@@]1(CO)O[C@@H](CO)[C@@H](O)[C@@H]1O
REMARK SMILES IDX 3 1 12 2 10 3 7 4 6 5 2 6 1 7 4 8 5 9 13 11 11 13 8 15 9 16
REMARK H PARENT 5 10 13 12 11 14 9 17
REMARK Flexibility Score: inf
ROOT
ATOM      1  C   UNL     1      22.104   4.680  42.947  1.00  0.00     0.221 C 
ATOM      2  C   UNL     1      22.191   3.139  43.001  1.00  0.00     0.207 C 
ATOM      3  C   UNL     1      22.070   2.761  41.546  1.00  0.00     0.180 C 
ATOM      4  C   UNL     1      21.151   3.862  41.023  1.00  0.00     0.179 C 
ATOM      5  O   UNL     1      21.377   5.035  41.775  1.00  0.00    -0.337 OA
ENDROOT
BRANCH   1   6
ATOM      6  O   UNL     1      23.445   5.176  42.934  1.00  0.00    -0.349 OA
ATOM      7  C   UNL     1      23.587   6.423  42.282  1.00  0.00     0.198 C 
ENDBRANCH   1   6
BRANCH   1   8
ATOM      8  C   UNL     1      21.378   5.251  44.187  1.00  0.00     0.224 C 
BRANCH   8   9
ATOM      9  O   UNL     1      20.352   6.131  43.811  1.00  0.00    -0.391 OA
ATOM     10  H   UNL     1      19.895   5.722  43.030  1.00  0.00     0.210 HD
ENDBRANCH   8   9
ENDBRANCH   1   8
BRANCH   2  11
ATOM     11  O   UNL     1      21.120   2.579  43.723  1.00  0.00    -0.385 OA
ATOM     12  H   UNL     1      20.878   3.235  44.428  1.00  0.00     0.211 HD
ENDBRANCH   2  11
BRANCH   3  13
ATOM     13  O   UNL     1      23.332   2.816  40.927  1.00  0.00    -0.387 OA
ATOM     14  H   UNL     1      23.429   1.976  40.408  1.00  0.00     0.211 HD
ENDBRANCH   3  13
BRANCH   4  15
ATOM     15  C   UNL     1      21.315   4.154  39.524  1.00  0.00     0.191 C 
BRANCH  15  16
ATOM     16  O   UNL     1      22.136   5.272  39.322  1.00  0.00    -0.394 OA
ATOM     17  H   UNL     1      21.576   6.072  39.497  1.00  0.00     0.210 HD
ENDBRANCH  15  16
ENDBRANCH   4  15
TORSDOF 7
ENDMDL
MODEL 5
REMARK VINA RESULT:    -4.311      3.961      5.914
REMARK INTER + INTRA:          -5.992
REMARK INTER:                  -5.380
REMARK INTRA:                  -0.611
REMARK UNBOUND:                -0.421
REMARK SMILES CO[C@@]1(CO)O[C@@H](CO)[C@@H](O)[C@@H]1O
REMARK SMILES IDX 3 1 12 2 10 3 7 4 6 5 2 6 1 7 4 8 5 9 13 11 11 13 8 15 9 16
REMARK H PARENT 5 10 13 12 11 14 9 17
REMARK Flexibility Score: inf
ROOT
ATOM      1  C   UNL     1      21.517   4.108  37.676  1.00  0.00     0.221 C 
ATOM      2  C   UNL     1      21.817   5.622  37.648  1.00  0.00     0.207 C 
ATOM      3  C   UNL     1      21.378   6.010  36.259  1.00  0.00     0.180 C 
ATOM      4  C   UNL     1      21.702   4.741  35.475  1.00  0.00     0.179 C 
ATOM      5  O   UNL     1      21.562   3.630  36.335  1.00  0.00    -0.337 OA
ENDROOT
BRANCH   1   6
ATOM      6  O   UNL     1      20.229   3.945  38.276  1.00  0.00    -0.349 OA
ATOM      7  C   UNL     1      20.221   4.137  39.676  1.00  0.00     0.198 C 
ENDBRANCH   1   6
BRANCH   1   8
ATOM      8  C   UNL     1      22.557   3.339  38.524  1.00  0.00     0.224 C 
BRANCH   8   9
ATOM      9  O   UNL     1      23.716   3.072  37.780  1.00  0.00    -0.391 OA
ATOM     10  H   UNL     1      24.363   2.644  38.400  1.00  0.00     0.210 HD
ENDBRANCH   8   9
ENDBRANCH   1   8
BRANCH   2  11
ATOM     11  O   UNL     1      23.191   5.887  37.799  1.00  0.00    -0.385 OA
ATOM     12  H   UNL     1      23.325   6.841  37.559  1.00  0.00     0.211 HD
ENDBRANCH   2  11
BRANCH   3  13
ATOM     13  O   UNL     1      19.997   6.277  36.247  1.00  0.00    -0.387 OA
ATOM     14  H   UNL     1      19.666   6.093  37.164  1.00  0.00     0.211 HD
ENDBRANCH   3  13
BRANCH   4  15
ATOM     15  C   UNL     1      20.841   4.547  34.217  1.00  0.00     0.191 C 
BRANCH  15  16
ATOM     16  O   UNL     1      20.799   5.724  33.457  1.00  0.00    -0.394 OA
ATOM     17  H   UNL     1      20.982   5.464  32.517  1.00  0.00     0.210 HD
ENDBRANCH  15  16
ENDBRANCH   4  15
TORSDOF 7
ENDMDL
MODEL 6
REMARK VINA RESULT:    -4.305      1.685      3.573
REMARK INTER + INTRA:          -5.985
REMARK INTER:                  -5.465
REMARK INTRA:                  -0.520
REMARK UNBOUND:                -0.421
REMARK SMILES CO[C@@]1(CO)O[C@@H](CO)[C@@H](O)[C@@H]1O
REMARK SMILES IDX 3 1 12 2 10 3 7 4 6 5 2 6 1 7 4 8 5 9 13 11 11 13 8 15 9 16
REMARK H PARENT 5 10 13 12 11 14 9 17
REMARK Flexibility Score: inf
ROOT
ATOM      1  C   UNL     1      21.963   3.838  39.889  1.00  0.00     0.221 C 
ATOM      2  C   UNL     1      23.010   4.503  40.811  1.00  0.00     0.207 C 
ATOM      3  C   UNL     1      22.626   3.969  42.167  1.00  0.00     0.180 C 
ATOM      4  C   UNL     1      21.112   3.839  42.023  1.00  0.00     0.179 C 
ATOM      5  O   UNL     1      20.808   3.557  40.674  1.00  0.00    -0.337 OA
ENDROOT
BRANCH   1   6
ATOM      6  O   UNL     1      22.564   2.658  39.352  1.00  0.00    -0.349 OA
ATOM      7  C   UNL     1      23.860   2.865  38.825  1.00  0.00     0.198 C 
ENDBRANCH   1   6
BRANCH   1   8
ATOM      8  C   UNL     1      21.566   4.768  38.719  1.00  0.00     0.224 C 
BRANCH   8   9
ATOM      9  O   UNL     1      20.265   5.264  38.887  1.00  0.00    -0.391 OA
ATOM     10  H   UNL     1      19.664   4.682  38.353  1.00  0.00     0.210 HD
ENDBRANCH   8   9
ENDBRANCH   1   8
BRANCH   2  11
ATOM     11  O   UNL     1      22.896   5.905  40.807  1.00  0.00    -0.385 OA
ATOM     12  H   UNL     1      21.925   6.112  40.851  1.00  0.00     0.211 HD
ENDBRANCH   2  11
BRANCH   3  13
ATOM     13  O   UNL     1      23.226   2.715  42.380  1.00  0.00    -0.387 OA
ATOM     14  H   UNL     1      22.789   2.325  43.181  1.00  0.00     0.211 HD
ENDBRANCH   3  13
BRANCH   4  15
ATOM     15  C   UNL     1      20.486   2.776  42.940  1.00  0.00     0.191 C 
BRANCH  15  16
ATOM     16  O   UNL     1      21.016   2.862  44.235  1.00  0.00    -0.394 OA
ATOM     17  H   UNL     1      20.996   3.821  44.489  1.00  0.00     0.210 HD
ENDBRANCH  15  16
ENDBRANCH   4  15
TORSDOF 7
ENDMDL
MODEL 7
REMARK VINA RESULT:    -4.305      4.467      6.372
REMARK INTER + INTRA:          -5.985
REMARK INTER:                  -5.412
REMARK INTRA:                  -0.573
REMARK UNBOUND:                -0.421
REMARK SMILES CO[C@@]1(CO)O[C@@H](CO)[C@@H](O)[C@@H]1O
REMARK SMILES IDX 3 1 12 2 10 3 7 4 6 5 2 6 1 7 4 8 5 9 13 11 11 13 8 15 9 16
REMARK H PARENT 5 10 13 12 11 14 9 17
REMARK Flexibility Score: inf
ROOT
ATOM      1  C   UNL     1      21.566   4.647  35.423  1.00  0.00     0.221 C 
ATOM      2  C   UNL     1      21.655   6.116  35.887  1.00  0.00     0.207 C 
ATOM      3  C   UNL     1      21.794   5.971  37.382  1.00  0.00     0.180 C 
ATOM      4  C   UNL     1      20.971   4.713  37.641  1.00  0.00     0.179 C 
ATOM      5  O   UNL     1      21.052   3.877  36.505  1.00  0.00    -0.337 OA
ENDROOT
BRANCH   1   6
ATOM      6  O   UNL     1      22.884   4.246  35.040  1.00  0.00    -0.349 OA
ATOM      7  C   UNL     1      23.097   2.849  35.097  1.00  0.00     0.198 C 
ENDBRANCH   1   6
BRANCH   1   8
ATOM      8  C   UNL     1      20.630   4.493  34.202  1.00  0.00     0.224 C 
BRANCH   8   9
ATOM      9  O   UNL     1      20.849   5.515  33.266  1.00  0.00    -0.391 OA
ATOM     10  H   UNL     1      19.991   6.005  33.169  1.00  0.00     0.210 HD
ENDBRANCH   8   9
ENDBRANCH   1   8
BRANCH   2  11
ATOM     11  O   UNL     1      20.480   6.832  35.591  1.00  0.00    -0.385 OA
ATOM     12  H   UNL     1      20.541   7.097  34.636  1.00  0.00     0.211 HD
ENDBRANCH   2  11
BRANCH   3  13
ATOM     13  O   UNL     1      23.144   5.775  37.724  1.00  0.00    -0.387 OA
ATOM     14  H   UNL     1      23.496   5.086  37.102  1.00  0.00     0.211 HD
ENDBRANCH   3  13
BRANCH   4  15
ATOM     15  C   UNL     1      21.392   3.938  38.899  1.00  0.00     0.191 C 
BRANCH  15  16
ATOM     16  O   UNL     1      21.521   4.802  39.995  1.00  0.00    -0.394 OA
ATOM     17  H   UNL     1      21.509   5.726  39.633  1.00  0.00     0.210 HD
ENDBRANCH  15  16
ENDBRANCH   4  15
TORSDOF 7
ENDMDL
MODEL 8
REMARK VINA RESULT:    -4.302     15.037     16.241
REMARK INTER + INTRA:          -5.980
REMARK INTER:                  -5.342
REMARK INTRA:                  -0.638
REMARK UNBOUND:                -0.421
REMARK SMILES CO[C@@]1(CO)O[C@@H](CO)[C@@H](O)[C@@H]1O
REMARK SMILES IDX 3 1 12 2 10 3 7 4 6 5 2 6 1 7 4 8 5 9 13 11 11 13 8 15 9 16
REMARK H PARENT 5 10 13 12 11 14 9 17
REMARK Flexibility Score: inf
ROOT
ATOM      1  C   UNL     1      36.706   1.800  44.006  1.00  0.00     0.221 C 
ATOM      2  C   UNL     1      37.559   2.170  45.239  1.00  0.00     0.207 C 
ATOM      3  C   UNL     1      38.244   0.865  45.558  1.00  0.00     0.180 C 
ATOM      4  C   UNL     1      37.181  -0.145  45.134  1.00  0.00     0.179 C 
ATOM      5  O   UNL     1      36.437   0.402  44.067  1.00  0.00    -0.337 OA
ENDROOT
BRANCH   1   6
ATOM      6  O   UNL     1      37.460   2.165  42.848  1.00  0.00    -0.349 OA
ATOM      7  C   UNL     1      37.910   3.505  42.858  1.00  0.00     0.198 C 
ENDBRANCH   1   6
BRANCH   1   8
ATOM      8  C   UNL     1      35.368   2.574  43.990  1.00  0.00     0.224 C 
BRANCH   8   9
ATOM      9  O   UNL     1      34.382   1.894  44.721  1.00  0.00    -0.391 OA
ATOM     10  H   UNL     1      34.612   0.930  44.686  1.00  0.00     0.210 HD
ENDBRANCH   8   9
ENDBRANCH   1   8
BRANCH   2  11
ATOM     11  O   UNL     1      36.761   2.561  46.331  1.00  0.00    -0.385 OA
ATOM     12  H   UNL     1      36.467   3.492  46.149  1.00  0.00     0.211 HD
ENDBRANCH   2  11
BRANCH   3  13
ATOM     13  O   UNL     1      39.410   0.731  44.784  1.00  0.00    -0.387 OA
ATOM     14  H   UNL     1      39.983   1.512  44.998  1.00  0.00     0.211 HD
ENDBRANCH   3  13
BRANCH   4  15
ATOM     15  C   UNL     1      37.746  -1.518  44.736  1.00  0.00     0.191 C 
BRANCH  15  16
ATOM     16  O   UNL     1      38.775  -1.903  45.606  1.00  0.00    -0.394 OA
ATOM     17  H   UNL     1      39.606  -1.475  45.272  1.00  0.00     0.210 HD
ENDBRANCH  15  16
ENDBRANCH   4  15
TORSDOF 7
ENDMDL
MODEL 9
REMARK VINA RESULT:    -4.250     13.999     15.503
REMARK INTER + INTRA:          -5.913
REMARK INTER:                  -5.298
REMARK INTRA:                  -0.615
REMARK UNBOUND:                -0.421
REMARK SMILES CO[C@@]1(CO)O[C@@H](CO)[C@@H](O)[C@@H]1O
REMARK SMILES IDX 3 1 12 2 10 3 7 4 6 5 2 6 1 7 4 8 5 9 13 11 11 13 8 15 9 16
REMARK H PARENT 5 10 13 12 11 14 9 17
REMARK Flexibility Score: inf
ROOT
ATOM      1  C   UNL     1      36.399   3.753  44.111  1.00  0.00     0.221 C 
ATOM      2  C   UNL     1      36.071   5.257  44.227  1.00  0.00     0.207 C 
ATOM      3  C   UNL     1      37.334   5.900  43.713  1.00  0.00     0.180 C 
ATOM      4  C   UNL     1      38.391   4.897  44.169  1.00  0.00     0.179 C 
ATOM      5  O   UNL     1      37.814   3.608  44.182  1.00  0.00    -0.337 OA
ENDROOT
BRANCH   1   6
ATOM      6  O   UNL     1      35.863   3.300  42.865  1.00  0.00    -0.349 OA
ATOM      7  C   UNL     1      34.494   3.605  42.687  1.00  0.00     0.198 C 
ENDBRANCH   1   6
BRANCH   1   8
ATOM      8  C   UNL     1      35.748   2.940  45.254  1.00  0.00     0.224 C 
BRANCH   8   9
ATOM      9  O   UNL     1      36.659   2.717  46.297  1.00  0.00    -0.391 OA
ATOM     10  H   UNL     1      37.440   2.250  45.903  1.00  0.00     0.210 HD
ENDBRANCH   8   9
ENDBRANCH   1   8
BRANCH   2  11
ATOM     11  O   UNL     1      35.855   5.645  45.562  1.00  0.00    -0.385 OA
ATOM     12  H   UNL     1      35.093   5.102  45.896  1.00  0.00     0.211 HD
ENDBRANCH   2  11
BRANCH   3  13
ATOM     13  O   UNL     1      37.293   5.993  42.311  1.00  0.00    -0.387 OA
ATOM     14  H   UNL     1      37.098   6.943  42.096  1.00  0.00     0.211 HD
ENDBRANCH   3  13
BRANCH   4  15
ATOM     15  C   UNL     1      39.665   4.898  43.310  1.00  0.00     0.191 C 
BRANCH  15  16
ATOM     16  O   UNL     1      40.124   6.206  43.103  1.00  0.00    -0.394 OA
ATOM     17  H   UNL     1      39.434   6.813  43.478  1.00  0.00     0.210 HD
ENDBRANCH  15  16
ENDBRANCH   4  15
TORSDOF 7
ENDMDL
