MODEL 1
REMARK VINA RESULT:     3.062      0.000      0.000
REMARK INTER + INTRA:           3.217
REMARK INTER:                   3.241
REMARK INTRA:                  -0.024
REMARK UNBOUND:                -0.024
REMARK SMILES O=C([O-])c1cccnc1
REMARK SMILES IDX 4 1 5 2 9 3 6 4 8 5 7 6 2 7 1 8 3 9
REMARK H PARENT
REMARK Flexibility Score: inf
ROOT
ATOM      1  C   UNL     1      -1.871  -7.260  16.914  1.00  0.00     0.016 A 
ATOM      2  C   UNL     1      -2.740  -6.185  16.665  1.00  0.00     0.013 A 
ATOM      3  C   UNL     1      -0.726  -7.393  16.110  1.00  0.00     0.120 A 
ATOM      4  C   UNL     1      -2.460  -5.280  15.639  1.00  0.00     0.021 A 
ATOM      5  N   UNL     1      -0.476  -6.498  15.117  1.00  0.00    -0.264 NA
ATOM      6  C   UNL     1      -1.311  -5.456  14.867  1.00  0.00     0.111 A 
ENDROOT
BRANCH   1   7
ATOM      7  C   UNL     1      -2.158  -8.224  17.998  1.00  0.00     0.073 C 
ATOM      8  O   UNL     1      -1.398  -9.210  18.195  1.00  0.00    -0.545 OA
ATOM      9  O   UNL     1      -3.270  -8.057  18.814  1.00  0.00    -0.545 OA
ENDBRANCH   1   7
TORSDOF 1
ENDMDL
MODEL 2
REMARK VINA RESULT:     4.266      2.715      3.702
REMARK INTER + INTRA:           4.492
REMARK INTER:                   4.515
REMARK INTRA:                  -0.023
REMARK UNBOUND:                -0.024
REMARK SMILES O=C([O-])c1cccnc1
REMARK SMILES IDX 4 1 5 2 9 3 6 4 8 5 7 6 2 7 1 8 3 9
REMARK H PARENT
REMARK Flexibility Score: inf
ROOT
ATOM      1  C   UNL     1      -1.861  -6.546  16.358  1.00  0.00     0.016 A 
ATOM      2  C   UNL     1      -2.936  -6.644  17.257  1.00  0.00     0.013 A 
ATOM      3  C   UNL     1      -0.843  -7.513  16.426  1.00  0.00     0.120 A 
ATOM      4  C   UNL     1      -2.977  -7.682  18.191  1.00  0.00     0.021 A 
ATOM      5  N   UNL     1      -0.907  -8.514  17.345  1.00  0.00    -0.264 NA
ATOM      6  C   UNL     1      -1.941  -8.617  18.219  1.00  0.00     0.111 A 
ENDROOT
BRANCH   1   7
ATOM      7  C   UNL     1      -1.807  -5.451  15.365  1.00  0.00     0.073 C 
ATOM      8  O   UNL     1      -2.491  -4.406  15.528  1.00  0.00    -0.545 OA
ATOM      9  O   UNL     1      -1.002  -5.562  14.238  1.00  0.00    -0.545 OA
ENDBRANCH   1   7
TORSDOF 1
ENDMDL
MODEL 3
REMARK VINA RESULT:     4.326      2.794      3.894
REMARK INTER + INTRA:           4.555
REMARK INTER:                   4.579
REMARK INTRA:                  -0.023
REMARK UNBOUND:                -0.024
REMARK SMILES O=C([O-])c1cccnc1
REMARK SMILES IDX 4 1 5 2 9 3 6 4 8 5 7 6 2 7 1 8 3 9
REMARK H PARENT
REMARK Flexibility Score: inf
ROOT
ATOM      1  C   UNL     1      -1.847  -7.046  16.646  1.00  0.00     0.016 A 
ATOM      2  C   UNL     1      -1.061  -8.137  17.051  1.00  0.00     0.013 A 
ATOM      3  C   UNL     1      -3.010  -6.752  17.379  1.00  0.00     0.120 A 
ATOM      4  C   UNL     1      -1.438  -8.901  18.157  1.00  0.00     0.021 A 
ATOM      5  N   UNL     1      -3.355  -7.512  18.453  1.00  0.00    -0.264 NA
ATOM      6  C   UNL     1      -2.602  -8.570  18.852  1.00  0.00     0.111 A 
ENDROOT
BRANCH   1   7
ATOM      7  C   UNL     1      -1.457  -6.230  15.476  1.00  0.00     0.073 C 
ATOM      8  O   UNL     1      -0.623  -6.668  14.640  1.00  0.00    -0.545 OA
ATOM      9  O   UNL     1      -2.007  -4.968  15.283  1.00  0.00    -0.545 OA
ENDBRANCH   1   7
TORSDOF 1
ENDMDL
