MODEL 1
REMARK VINA RESULT:    -4.123      0.000      0.000
REMARK INTER + INTRA:          -8.456
REMARK INTER:                  -7.136
REMARK INTRA:                  -1.321
REMARK UNBOUND:                -1.321
REMARK SMILES CCCCCCCCCCCCCCO
REMARK SMILES IDX 8 1 7 2 6 3 5 4 4 5 3 6 2 7 1 8 9 9 10 10 11 11 12 12 13 13
REMARK SMILES IDX 14 14 15 15
REMARK H PARENT 15 16
REMARK Flexibility Score: inf
ROOT
ATOM      1  C   UNL     1     173.227 172.781 149.881  1.00  0.00     0.000 C 
ENDROOT
BRANCH   1   2
ATOM      2  C   UNL     1     173.671 171.333 150.154  1.00  0.00    -0.000 C 
BRANCH   2   3
ATOM      3  C   UNL     1     175.197 171.110 150.155  1.00  0.00    -0.000 C 
BRANCH   3   4
ATOM      4  C   UNL     1     175.646 169.636 150.099  1.00  0.00    -0.000 C 
BRANCH   4   5
ATOM      5  C   UNL     1     174.525 168.603 150.318  1.00  0.00    -0.000 C 
BRANCH   5   6
ATOM      6  C   UNL     1     174.550 167.466 149.283  1.00  0.00    -0.000 C 
BRANCH   6   7
ATOM      7  C   UNL     1     173.323 167.483 148.360  1.00  0.00    -0.003 C 
ATOM      8  C   UNL     1     172.206 168.392 148.874  1.00  0.00     0.004 C 
ENDBRANCH   6   7
ENDBRANCH   5   6
ENDBRANCH   4   5
ENDBRANCH   3   4
ENDBRANCH   2   3
ENDBRANCH   1   2
BRANCH   1   9
ATOM      9  C   UNL     1     174.296 173.815 150.268  1.00  0.00     0.000 C 
BRANCH   9  10
ATOM     10  C   UNL     1     174.106 174.286 151.714  1.00  0.00     0.000 C 
BRANCH  10  11
ATOM     11  C   UNL     1     175.368 174.023 152.549  1.00  0.00     0.000 C 
BRANCH  11  12
ATOM     12  C   UNL     1     175.146 172.966 153.642  1.00  0.00     0.002 C 
BRANCH  12  13
ATOM     13  C   UNL     1     173.672 172.554 153.775  1.00  0.00     0.028 C 
BRANCH  13  14
ATOM     14  C   UNL     1     173.078 173.053 155.092  1.00  0.00     0.156 C 
BRANCH  14  15
ATOM     15  O   UNL     1     172.733 174.404 154.966  1.00  0.00    -0.396 OA
ATOM     16  H   UNL     1     173.572 174.883 154.740  1.00  0.00     0.210 HD
ENDBRANCH  14  15
ENDBRANCH  13  14
ENDBRANCH  12  13
ENDBRANCH  11  12
ENDBRANCH  10  11
ENDBRANCH   9  10
ENDBRANCH   1   9
TORSDOF 13
ENDMDL
MODEL 2
REMARK VINA RESULT:    -4.046      2.579      5.929
REMARK INTER + INTRA:          -8.323
REMARK INTER:                  -6.853
REMARK INTRA:                  -1.469
REMARK UNBOUND:                -1.321
REMARK SMILES CCCCCCCCCCCCCCO
REMARK SMILES IDX 8 1 7 2 6 3 5 4 4 5 3 6 2 7 1 8 9 9 10 10 11 11 12 12 13 13
REMARK SMILES IDX 14 14 15 15
REMARK H PARENT 15 16
REMARK Flexibility Score: inf
ROOT
ATOM      1  C   UNL     1     173.406 171.074 150.245  1.00  0.00     0.000 C 
ENDROOT
BRANCH   1   2
ATOM      2  C   UNL     1     172.768 172.463 150.058  1.00  0.00    -0.000 C 
BRANCH   2   3
ATOM      3  C   UNL     1     173.736 173.651 150.227  1.00  0.00    -0.000 C 
BRANCH   3   4
ATOM      4  C   UNL     1     173.854 174.203 151.662  1.00  0.00    -0.000 C 
BRANCH   4   5
ATOM      5  C   UNL     1     175.285 174.247 152.229  1.00  0.00    -0.000 C 
BRANCH   5   6
ATOM      6  C   UNL     1     175.473 173.332 153.450  1.00  0.00    -0.000 C 
BRANCH   6   7
ATOM      7  C   UNL     1     174.248 172.442 153.711  1.00  0.00    -0.003 C 
ATOM      8  C   UNL     1     174.594 170.954 153.753  1.00  0.00     0.004 C 
ENDBRANCH   6   7
ENDBRANCH   5   6
ENDBRANCH   4   5
ENDBRANCH   3   4
ENDBRANCH   2   3
ENDBRANCH   1   2
BRANCH   1   9
ATOM      9  C   UNL     1     174.937 171.102 150.127  1.00  0.00     0.000 C 
BRANCH   9  10
ATOM     10  C   UNL     1     175.525 169.693 150.272  1.00  0.00     0.000 C 
BRANCH  10  11
ATOM     11  C   UNL     1     174.414 168.653 150.479  1.00  0.00     0.000 C 
BRANCH  11  12
ATOM     12  C   UNL     1     174.602 167.403 149.604  1.00  0.00     0.002 C 
BRANCH  12  13
ATOM     13  C   UNL     1     174.453 166.097 150.400  1.00  0.00     0.028 C 
BRANCH  13  14
ATOM     14  C   UNL     1     174.245 166.380 151.887  1.00  0.00     0.156 C 
BRANCH  14  15
ATOM     15  O   UNL     1     175.376 165.971 152.603  1.00  0.00    -0.396 OA
ATOM     16  H   UNL     1     175.430 164.986 152.493  1.00  0.00     0.210 HD
ENDBRANCH  14  15
ENDBRANCH  13  14
ENDBRANCH  12  13
ENDBRANCH  11  12
ENDBRANCH  10  11
ENDBRANCH   9  10
ENDBRANCH   1   9
TORSDOF 13
ENDMDL
MODEL 3
REMARK VINA RESULT:    -3.990      1.528      2.234
REMARK INTER + INTRA:          -8.226
REMARK INTER:                  -6.839
REMARK INTRA:                  -1.387
REMARK UNBOUND:                -1.321
REMARK SMILES CCCCCCCCCCCCCCO
REMARK SMILES IDX 8 1 7 2 6 3 5 4 4 5 3 6 2 7 1 8 9 9 10 10 11 11 12 12 13 13
REMARK SMILES IDX 14 14 15 15
REMARK H PARENT 15 16
REMARK Flexibility Score: inf
ROOT
ATOM      1  C   UNL     1     173.517 170.924 150.658  1.00  0.00     0.000 C 
ENDROOT
BRANCH   1   2
ATOM      2  C   UNL     1     174.987 170.860 150.206  1.00  0.00    -0.000 C 
BRANCH   2   3
ATOM      3  C   UNL     1     175.707 169.533 150.524  1.00  0.00    -0.000 C 
BRANCH   3   4
ATOM      4  C   UNL     1     174.868 168.502 151.306  1.00  0.00    -0.000 C 
BRANCH   4   5
ATOM      5  C   UNL     1     174.548 167.205 150.541  1.00  0.00    -0.000 C 
BRANCH   5   6
ATOM      6  C   UNL     1     174.459 167.416 149.020  1.00  0.00    -0.000 C 
BRANCH   6   7
ATOM      7  C   UNL     1     173.034 167.751 148.555  1.00  0.00    -0.003 C 
ATOM      8  C   UNL     1     171.958 167.071 149.402  1.00  0.00     0.004 C 
ENDBRANCH   6   7
ENDBRANCH   5   6
ENDBRANCH   4   5
ENDBRANCH   3   4
ENDBRANCH   2   3
ENDBRANCH   1   2
BRANCH   1   9
ATOM      9  C   UNL     1     172.689 171.935 149.849  1.00  0.00     0.000 C 
BRANCH   9  10
ATOM     10  C   UNL     1     173.389 173.298 149.792  1.00  0.00     0.000 C 
BRANCH  10  11
ATOM     11  C   UNL     1     172.786 174.270 150.816  1.00  0.00     0.000 C 
BRANCH  11  12
ATOM     12  C   UNL     1     173.445 174.156 152.200  1.00  0.00     0.002 C 
BRANCH  12  13
ATOM     13  C   UNL     1     174.979 174.149 152.126  1.00  0.00     0.028 C 
BRANCH  13  14
ATOM     14  C   UNL     1     175.589 173.557 153.396  1.00  0.00     0.156 C 
BRANCH  14  15
ATOM     15  O   UNL     1     175.353 172.177 153.428  1.00  0.00    -0.396 OA
ATOM     16  H   UNL     1     174.513 172.054 153.942  1.00  0.00     0.210 HD
ENDBRANCH  14  15
ENDBRANCH  13  14
ENDBRANCH  12  13
ENDBRANCH  11  12
ENDBRANCH  10  11
ENDBRANCH   9  10
ENDBRANCH   1   9
TORSDOF 13
ENDMDL
MODEL 4
REMARK VINA RESULT:    -3.986      2.810      6.464
REMARK INTER + INTRA:          -8.220
REMARK INTER:                  -6.891
REMARK INTRA:                  -1.329
REMARK UNBOUND:                -1.321
REMARK SMILES CCCCCCCCCCCCCCO
REMARK SMILES IDX 8 1 7 2 6 3 5 4 4 5 3 6 2 7 1 8 9 9 10 10 11 11 12 12 13 13
REMARK SMILES IDX 14 14 15 15
REMARK H PARENT 15 16
REMARK Flexibility Score: inf
ROOT
ATOM      1  C   UNL     1     175.102 170.784 150.241  1.00  0.00     0.000 C 
ENDROOT
BRANCH   1   2
ATOM      2  C   UNL     1     173.595 171.092 150.195  1.00  0.00    -0.000 C 
BRANCH   2   3
ATOM      3  C   UNL     1     173.238 172.592 150.193  1.00  0.00    -0.000 C 
BRANCH   3   4
ATOM      4  C   UNL     1     174.374 173.537 149.751  1.00  0.00    -0.000 C 
BRANCH   4   5
ATOM      5  C   UNL     1     175.064 174.307 150.891  1.00  0.00    -0.000 C 
BRANCH   5   6
ATOM      6  C   UNL     1     174.371 174.109 152.250  1.00  0.00    -0.000 C 
BRANCH   6   7
ATOM      7  C   UNL     1     175.300 173.481 153.299  1.00  0.00    -0.003 C 
ATOM      8  C   UNL     1     174.818 172.110 153.774  1.00  0.00     0.004 C 
ENDBRANCH   6   7
ENDBRANCH   5   6
ENDBRANCH   4   5
ENDBRANCH   3   4
ENDBRANCH   2   3
ENDBRANCH   1   2
BRANCH   1   9
ATOM      9  C   UNL     1     175.413 169.296 150.016  1.00  0.00     0.000 C 
BRANCH   9  10
ATOM     10  C   UNL     1     174.545 168.411 150.919  1.00  0.00     0.000 C 
BRANCH  10  11
ATOM     11  C   UNL     1     173.997 167.204 150.145  1.00  0.00     0.000 C 
BRANCH  11  12
ATOM     12  C   UNL     1     173.819 167.492 148.646  1.00  0.00     0.002 C 
BRANCH  12  13
ATOM     13  C   UNL     1     172.404 167.982 148.303  1.00  0.00     0.028 C 
BRANCH  13  14
ATOM     14  C   UNL     1     171.345 167.172 149.050  1.00  0.00     0.156 C 
BRANCH  14  15
ATOM     15  O   UNL     1     170.226 166.995 148.228  1.00  0.00    -0.396 OA
ATOM     16  H   UNL     1     170.553 166.529 147.415  1.00  0.00     0.210 HD
ENDBRANCH  14  15
ENDBRANCH  13  14
ENDBRANCH  12  13
ENDBRANCH  11  12
ENDBRANCH  10  11
ENDBRANCH   9  10
ENDBRANCH   1   9
TORSDOF 13
ENDMDL
MODEL 5
REMARK VINA RESULT:    -3.938      1.878      2.539
REMARK INTER + INTRA:          -8.136
REMARK INTER:                  -6.644
REMARK INTRA:                  -1.492
REMARK UNBOUND:                -1.321
REMARK SMILES CCCCCCCCCCCCCCO
REMARK SMILES IDX 8 1 7 2 6 3 5 4 4 5 3 6 2 7 1 8 9 9 10 10 11 11 12 12 13 13
REMARK SMILES IDX 14 14 15 15
REMARK H PARENT 15 16
REMARK Flexibility Score: inf
ROOT
ATOM      1  C   UNL     1     172.554 174.118 150.631  1.00  0.00     0.000 C 
ENDROOT
BRANCH   1   2
ATOM      2  C   UNL     1     173.136 172.968 149.790  1.00  0.00    -0.000 C 
BRANCH   2   3
ATOM      3  C   UNL     1     172.513 171.584 150.062  1.00  0.00    -0.000 C 
BRANCH   3   4
ATOM      4  C   UNL     1     173.472 170.540 150.670  1.00  0.00    -0.000 C 
BRANCH   4   5
ATOM      5  C   UNL     1     174.957 170.734 150.315  1.00  0.00    -0.000 C 
BRANCH   5   6
ATOM      6  C   UNL     1     175.664 169.414 149.965  1.00  0.00    -0.000 C 
BRANCH   6   7
ATOM      7  C   UNL     1     174.730 168.200 150.071  1.00  0.00    -0.003 C 
ATOM      8  C   UNL     1     174.570 167.455 148.746  1.00  0.00     0.004 C 
ENDBRANCH   6   7
ENDBRANCH   5   6
ENDBRANCH   4   5
ENDBRANCH   3   4
ENDBRANCH   2   3
ENDBRANCH   1   2
BRANCH   1   9
ATOM      9  C   UNL     1     173.289 174.311 151.967  1.00  0.00     0.000 C 
BRANCH   9  10
ATOM     10  C   UNL     1     174.789 174.031 151.813  1.00  0.00     0.000 C 
BRANCH  10  11
ATOM     11  C   UNL     1     175.390 173.513 153.128  1.00  0.00     0.000 C 
BRANCH  11  12
ATOM     12  C   UNL     1     174.486 172.486 153.828  1.00  0.00     0.002 C 
BRANCH  12  13
ATOM     13  C   UNL     1     175.247 171.635 154.857  1.00  0.00     0.028 C 
BRANCH  13  14
ATOM     14  C   UNL     1     174.930 170.149 154.684  1.00  0.00     0.156 C 
BRANCH  14  15
ATOM     15  O   UNL     1     175.622 169.651 153.574  1.00  0.00    -0.396 OA
ATOM     16  H   UNL     1     176.240 170.373 153.288  1.00  0.00     0.210 HD
ENDBRANCH  14  15
ENDBRANCH  13  14
ENDBRANCH  12  13
ENDBRANCH  11  12
ENDBRANCH  10  11
ENDBRANCH   9  10
ENDBRANCH   1   9
TORSDOF 13
ENDMDL
MODEL 6
REMARK VINA RESULT:    -3.926      1.456      2.433
REMARK INTER + INTRA:          -8.116
REMARK INTER:                  -6.559
REMARK INTRA:                  -1.557
REMARK UNBOUND:                -1.321
REMARK SMILES CCCCCCCCCCCCCCO
REMARK SMILES IDX 8 1 7 2 6 3 5 4 4 5 3 6 2 7 1 8 9 9 10 10 11 11 12 12 13 13
REMARK SMILES IDX 14 14 15 15
REMARK H PARENT 15 16
REMARK Flexibility Score: inf
ROOT
ATOM      1  C   UNL     1     174.801 174.132 150.439  1.00  0.00     0.000 C 
ENDROOT
BRANCH   1   2
ATOM      2  C   UNL     1     174.302 172.806 149.836  1.00  0.00    -0.000 C 
BRANCH   2   3
ATOM      3  C   UNL     1     172.774 172.605 149.884  1.00  0.00    -0.000 C 
BRANCH   3   4
ATOM      4  C   UNL     1     172.305 171.284 150.528  1.00  0.00    -0.000 C 
BRANCH   4   5
ATOM      5  C   UNL     1     173.150 170.047 150.169  1.00  0.00    -0.000 C 
BRANCH   5   6
ATOM      6  C   UNL     1     173.730 169.341 151.405  1.00  0.00    -0.000 C 
BRANCH   6   7
ATOM      7  C   UNL     1     175.266 169.329 151.409  1.00  0.00    -0.003 C 
ATOM      8  C   UNL     1     175.866 169.785 150.079  1.00  0.00     0.004 C 
ENDBRANCH   6   7
ENDBRANCH   5   6
ENDBRANCH   4   5
ENDBRANCH   3   4
ENDBRANCH   2   3
ENDBRANCH   1   2
BRANCH   1   9
ATOM      9  C   UNL     1     174.443 174.281 151.926  1.00  0.00     0.000 C 
BRANCH   9  10
ATOM     10  C   UNL     1     175.695 174.180 152.805  1.00  0.00     0.000 C 
BRANCH  10  11
ATOM     11  C   UNL     1     175.551 173.054 153.839  1.00  0.00     0.000 C 
BRANCH  11  12
ATOM     12  C   UNL     1     174.245 172.262 153.676  1.00  0.00     0.002 C 
BRANCH  12  13
ATOM     13  C   UNL     1     173.357 172.321 154.929  1.00  0.00     0.028 C 
BRANCH  13  14
ATOM     14  C   UNL     1     173.632 173.589 155.737  1.00  0.00     0.156 C 
BRANCH  14  15
ATOM     15  O   UNL     1     172.807 174.623 155.278  1.00  0.00    -0.396 OA
ATOM     16  H   UNL     1     173.413 175.313 154.903  1.00  0.00     0.210 HD
ENDBRANCH  14  15
ENDBRANCH  13  14
ENDBRANCH  12  13
ENDBRANCH  11  12
ENDBRANCH  10  11
ENDBRANCH   9  10
ENDBRANCH   1   9
TORSDOF 13
ENDMDL
MODEL 7
REMARK VINA RESULT:    -3.907      2.082      3.696
REMARK INTER + INTRA:          -8.082
REMARK INTER:                  -6.166
REMARK INTRA:                  -1.916
REMARK UNBOUND:                -1.321
REMARK SMILES CCCCCCCCCCCCCCO
REMARK SMILES IDX 8 1 7 2 6 3 5 4 4 5 3 6 2 7 1 8 9 9 10 10 11 11 12 12 13 13
REMARK SMILES IDX 14 14 15 15
REMARK H PARENT 15 16
REMARK Flexibility Score: inf
ROOT
ATOM      1  C   UNL     1     175.275 174.311 151.144  1.00  0.00     0.000 C 
ENDROOT
BRANCH   1   2
ATOM      2  C   UNL     1     174.580 174.053 152.492  1.00  0.00    -0.000 C 
BRANCH   2   3
ATOM      3  C   UNL     1     175.151 172.871 153.302  1.00  0.00    -0.000 C 
BRANCH   3   4
ATOM      4  C   UNL     1     174.146 171.743 153.615  1.00  0.00    -0.000 C 
BRANCH   4   5
ATOM      5  C   UNL     1     174.675 170.316 153.386  1.00  0.00    -0.000 C 
BRANCH   5   6
ATOM      6  C   UNL     1     174.080 169.653 152.133  1.00  0.00    -0.000 C 
BRANCH   6   7
ATOM      7  C   UNL     1     175.161 169.094 151.195  1.00  0.00    -0.003 C 
ATOM      8  C   UNL     1     175.686 170.135 150.208  1.00  0.00     0.004 C 
ENDBRANCH   6   7
ENDBRANCH   5   6
ENDBRANCH   4   5
ENDBRANCH   3   4
ENDBRANCH   2   3
ENDBRANCH   1   2
BRANCH   1   9
ATOM      9  C   UNL     1     174.591 173.588 149.973  1.00  0.00     0.000 C 
BRANCH   9  10
ATOM     10  C   UNL     1     173.071 173.537 150.172  1.00  0.00     0.000 C 
BRANCH  10  11
ATOM     11  C   UNL     1     172.547 172.100 150.038  1.00  0.00     0.000 C 
BRANCH  11  12
ATOM     12  C   UNL     1     171.287 171.848 150.881  1.00  0.00     0.002 C 
BRANCH  12  13
ATOM     13  C   UNL     1     171.084 172.910 151.972  1.00  0.00     0.028 C 
BRANCH  13  14
ATOM     14  C   UNL     1     169.746 173.628 151.798  1.00  0.00     0.156 C 
BRANCH  14  15
ATOM     15  O   UNL     1     169.884 174.970 152.171  1.00  0.00    -0.396 OA
ATOM     16  H   UNL     1     169.187 175.468 151.670  1.00  0.00     0.210 HD
ENDBRANCH  14  15
ENDBRANCH  13  14
ENDBRANCH  12  13
ENDBRANCH  11  12
ENDBRANCH  10  11
ENDBRANCH   9  10
ENDBRANCH   1   9
TORSDOF 13
ENDMDL
MODEL 8
REMARK VINA RESULT:    -3.898      2.015      4.741
REMARK INTER + INTRA:          -8.066
REMARK INTER:                  -6.093
REMARK INTRA:                  -1.974
REMARK UNBOUND:                -1.321
REMARK SMILES CCCCCCCCCCCCCCO
REMARK SMILES IDX 8 1 7 2 6 3 5 4 4 5 3 6 2 7 1 8 9 9 10 10 11 11 12 12 13 13
REMARK SMILES IDX 14 14 15 15
REMARK H PARENT 15 16
REMARK Flexibility Score: inf
ROOT
ATOM      1  C   UNL     1     174.764 171.543 150.518  1.00  0.00     0.000 C 
ENDROOT
BRANCH   1   2
ATOM      2  C   UNL     1     174.614 172.902 149.809  1.00  0.00    -0.000 C 
BRANCH   2   3
ATOM      3  C   UNL     1     175.080 174.120 150.632  1.00  0.00    -0.000 C 
BRANCH   3   4
ATOM      4  C   UNL     1     174.490 174.216 152.054  1.00  0.00    -0.000 C 
BRANCH   4   5
ATOM      5  C   UNL     1     175.500 174.003 153.196  1.00  0.00    -0.000 C 
BRANCH   5   6
ATOM      6  C   UNL     1     175.148 172.801 154.088  1.00  0.00    -0.000 C 
BRANCH   6   7
ATOM      7  C   UNL     1     173.642 172.496 154.097  1.00  0.00    -0.003 C 
ATOM      8  C   UNL     1     173.340 171.000 154.164  1.00  0.00     0.004 C 
ENDBRANCH   6   7
ENDBRANCH   5   6
ENDBRANCH   4   5
ENDBRANCH   3   4
ENDBRANCH   2   3
ENDBRANCH   1   2
BRANCH   1   9
ATOM      9  C   UNL     1     173.487 170.693 150.451  1.00  0.00     0.000 C 
BRANCH   9  10
ATOM     10  C   UNL     1     172.298 171.525 149.958  1.00  0.00     0.000 C 
BRANCH  10  11
ATOM     11  C   UNL     1     171.445 172.019 151.136  1.00  0.00     0.000 C 
BRANCH  11  12
ATOM     12  C   UNL     1     171.059 173.501 151.009  1.00  0.00     0.002 C 
BRANCH  12  13
ATOM     13  C   UNL     1     169.985 173.921 152.025  1.00  0.00     0.028 C 
BRANCH  13  14
ATOM     14  C   UNL     1     169.891 172.916 153.173  1.00  0.00     0.156 C 
BRANCH  14  15
ATOM     15  O   UNL     1     170.229 173.547 154.375  1.00  0.00    -0.396 OA
ATOM     16  H   UNL     1     170.992 174.146 154.166  1.00  0.00     0.210 HD
ENDBRANCH  14  15
ENDBRANCH  13  14
ENDBRANCH  12  13
ENDBRANCH  11  12
ENDBRANCH  10  11
ENDBRANCH   9  10
ENDBRANCH   1   9
TORSDOF 13
ENDMDL
MODEL 9
REMARK VINA RESULT:    -3.861      2.632      5.763
REMARK INTER + INTRA:          -8.004
REMARK INTER:                  -6.782
REMARK INTRA:                  -1.221
REMARK UNBOUND:                -1.321
REMARK SMILES CCCCCCCCCCCCCCO
REMARK SMILES IDX 8 1 7 2 6 3 5 4 4 5 3 6 2 7 1 8 9 9 10 10 11 11 12 12 13 13
REMARK SMILES IDX 14 14 15 15
REMARK H PARENT 15 16
REMARK Flexibility Score: inf
ROOT
ATOM      1  C   UNL     1     174.484 173.321 149.779  1.00  0.00     0.000 C 
ENDROOT
BRANCH   1   2
ATOM      2  C   UNL     1     174.892 174.259 150.930  1.00  0.00    -0.000 C 
BRANCH   2   3
ATOM      3  C   UNL     1     173.932 174.263 152.137  1.00  0.00    -0.000 C 
BRANCH   3   4
ATOM      4  C   UNL     1     174.572 173.876 153.486  1.00  0.00    -0.000 C 
BRANCH   4   5
ATOM      5  C   UNL     1     175.015 172.406 153.602  1.00  0.00    -0.000 C 
BRANCH   5   6
ATOM      6  C   UNL     1     174.924 171.867 155.039  1.00  0.00    -0.000 C 
BRANCH   6   7
ATOM      7  C   UNL     1     173.930 172.658 155.902  1.00  0.00    -0.003 C 
ATOM      8  C   UNL     1     174.240 172.569 157.396  1.00  0.00     0.004 C 
ENDBRANCH   6   7
ENDBRANCH   5   6
ENDBRANCH   4   5
ENDBRANCH   3   4
ENDBRANCH   2   3
ENDBRANCH   1   2
BRANCH   1   9
ATOM      9  C   UNL     1     173.214 172.515 150.090  1.00  0.00     0.000 C 
BRANCH   9  10
ATOM     10  C   UNL     1     173.531 171.020 150.220  1.00  0.00     0.000 C 
BRANCH  10  11
ATOM     11  C   UNL     1     175.045 170.772 150.165  1.00  0.00     0.000 C 
BRANCH  11  12
ATOM     12  C   UNL     1     175.421 169.321 150.502  1.00  0.00     0.002 C 
BRANCH  12  13
ATOM     13  C   UNL     1     175.177 168.975 151.980  1.00  0.00     0.028 C 
BRANCH  13  14
ATOM     14  C   UNL     1     174.693 167.534 152.134  1.00  0.00     0.156 C 
BRANCH  14  15
ATOM     15  O   UNL     1     175.457 166.888 153.114  1.00  0.00    -0.396 OA
ATOM     16  H   UNL     1     174.872 166.807 153.911  1.00  0.00     0.210 HD
ENDBRANCH  14  15
ENDBRANCH  13  14
ENDBRANCH  12  13
ENDBRANCH  11  12
ENDBRANCH  10  11
ENDBRANCH   9  10
ENDBRANCH   1   9
TORSDOF 13
ENDMDL
