MODEL 1
REMARK VINA RESULT:    -4.298      0.000      0.000
REMARK INTER + INTRA:          -5.029
REMARK INTER:                  -4.926
REMARK INTRA:                  -0.102
REMARK UNBOUND:                -0.102
REMARK SMILES COc1cc(C(=O)[O-])ccc1O
REMARK SMILES IDX 5 1 9 2 4 3 10 4 3 5 11 6 6 7 7 8 8 9 2 10 1 11 12 12
REMARK H PARENT 12 13
REMARK Flexibility Score: inf
ROOT
ATOM      1  C   UNL     1     -21.918  66.276  87.534  1.00  0.00     0.001 A 
ATOM      2  C   UNL     1     -21.906  64.882  87.701  1.00  0.00     0.014 A 
ATOM      3  C   UNL     1     -21.407  66.827  86.345  1.00  0.00     0.060 A 
ATOM      4  C   UNL     1     -21.395  64.055  86.700  1.00  0.00     0.051 A 
ATOM      5  C   UNL     1     -20.888  65.996  85.331  1.00  0.00     0.161 A 
ATOM      6  C   UNL     1     -20.886  64.602  85.519  1.00  0.00     0.157 A 
ENDROOT
BRANCH   1   7
ATOM      7  C   UNL     1     -22.462  67.149  88.599  1.00  0.00     0.072 C 
ATOM      8  O   UNL     1     -22.333  68.401  88.531  1.00  0.00    -0.545 OA
ATOM      9  O   UNL     1     -23.125  66.599  89.691  1.00  0.00    -0.545 OA
ENDBRANCH   1   7
BRANCH   5  10
ATOM     10  O   UNL     1     -20.371  66.518  84.134  1.00  0.00    -0.493 OA
ATOM     11  C   UNL     1     -19.108  67.164  84.012  1.00  0.00     0.278 C 
ENDBRANCH   5  10
BRANCH   6  12
ATOM     12  O   UNL     1     -20.383  63.743  84.542  1.00  0.00    -0.504 OA
ATOM     13  H   UNL     1     -20.507  63.921  83.551  1.00  0.00     0.293 HD
ENDBRANCH   6  12
TORSDOF 3
ENDMDL
MODEL 2
REMARK VINA RESULT:    -4.297     13.288     14.568
REMARK INTER + INTRA:          -5.028
REMARK INTER:                  -4.957
REMARK INTRA:                  -0.071
REMARK UNBOUND:                -0.102
REMARK SMILES COc1cc(C(=O)[O-])ccc1O
REMARK SMILES IDX 5 1 9 2 4 3 10 4 3 5 11 6 6 7 7 8 8 9 2 10 1 11 12 12
REMARK H PARENT 12 13
REMARK Flexibility Score: inf
ROOT
ATOM      1  C   UNL     1     -19.316  79.982  84.873  1.00  0.00     0.001 A 
ATOM      2  C   UNL     1     -20.243  79.311  84.059  1.00  0.00     0.014 A 
ATOM      3  C   UNL     1     -19.673  80.306  86.194  1.00  0.00     0.060 A 
ATOM      4  C   UNL     1     -21.501  78.970  84.555  1.00  0.00     0.051 A 
ATOM      5  C   UNL     1     -20.944  79.965  86.701  1.00  0.00     0.161 A 
ATOM      6  C   UNL     1     -21.857  79.293  85.868  1.00  0.00     0.157 A 
ENDROOT
BRANCH   1   7
ATOM      7  C   UNL     1     -17.981  80.341  84.341  1.00  0.00     0.072 C 
ATOM      8  O   UNL     1     -16.933  79.961  84.930  1.00  0.00    -0.545 OA
ATOM      9  O   UNL     1     -17.865  81.102  83.184  1.00  0.00    -0.545 OA
ENDBRANCH   1   7
BRANCH   5  10
ATOM     10  O   UNL     1     -21.329  80.275  88.014  1.00  0.00    -0.493 OA
ATOM     11  C   UNL     1     -21.191  79.397  89.127  1.00  0.00     0.278 C 
ENDBRANCH   5  10
BRANCH   6  12
ATOM     12  O   UNL     1     -23.125  78.935  86.327  1.00  0.00    -0.504 OA
ATOM     13  H   UNL     1     -23.965  79.109  85.786  1.00  0.00     0.293 HD
ENDBRANCH   6  12
TORSDOF 3
ENDMDL
MODEL 3
REMARK VINA RESULT:    -4.227      1.492      4.898
REMARK INTER + INTRA:          -4.948
REMARK INTER:                  -4.863
REMARK INTRA:                  -0.085
REMARK UNBOUND:                -0.102
REMARK SMILES COc1cc(C(=O)[O-])ccc1O
REMARK SMILES IDX 5 1 9 2 4 3 10 4 3 5 11 6 6 7 7 8 8 9 2 10 1 11 12 12
REMARK H PARENT 12 13
REMARK Flexibility Score: inf
ROOT
ATOM      1  C   UNL     1     -21.366  65.668  86.477  1.00  0.00     0.001 A 
ATOM      2  C   UNL     1     -22.258  66.740  86.316  1.00  0.00     0.014 A 
ATOM      3  C   UNL     1     -21.061  65.222  87.776  1.00  0.00     0.060 A 
ATOM      4  C   UNL     1     -22.834  67.354  87.428  1.00  0.00     0.051 A 
ATOM      5  C   UNL     1     -21.639  65.839  88.904  1.00  0.00     0.161 A 
ATOM      6  C   UNL     1     -22.530  66.912  88.719  1.00  0.00     0.157 A 
ENDROOT
BRANCH   1   7
ATOM      7  C   UNL     1     -20.760  65.019  85.293  1.00  0.00     0.072 C 
ATOM      8  O   UNL     1     -20.879  63.778  85.111  1.00  0.00    -0.545 OA
ATOM      9  O   UNL     1     -20.049  65.771  84.364  1.00  0.00    -0.545 OA
ENDBRANCH   1   7
BRANCH   5  10
ATOM     10  O   UNL     1     -21.353  65.417  90.212  1.00  0.00    -0.493 OA
ATOM     11  C   UNL     1     -20.042  65.220  90.731  1.00  0.00     0.278 C 
ENDBRANCH   5  10
BRANCH   6  12
ATOM     12  O   UNL     1     -23.125  67.552  89.806  1.00  0.00    -0.504 OA
ATOM     13  H   UNL     1     -24.129  67.678  89.876  1.00  0.00     0.293 HD
ENDBRANCH   6  12
TORSDOF 3
ENDMDL
MODEL 4
REMARK VINA RESULT:    -4.197     15.011     16.296
REMARK INTER + INTRA:          -4.913
REMARK INTER:                  -4.814
REMARK INTRA:                  -0.099
REMARK UNBOUND:                -0.102
REMARK SMILES COc1cc(C(=O)[O-])ccc1O
REMARK SMILES IDX 5 1 9 2 4 3 10 4 3 5 11 6 6 7 7 8 8 9 2 10 1 11 12 12
REMARK H PARENT 12 13
REMARK Flexibility Score: inf
ROOT
ATOM      1  C   UNL     1     -14.877  75.054  75.225  1.00  0.00     0.001 A 
ATOM      2  C   UNL     1     -14.920  75.770  74.019  1.00  0.00     0.014 A 
ATOM      3  C   UNL     1     -14.481  73.704  75.206  1.00  0.00     0.060 A 
ATOM      4  C   UNL     1     -14.575  75.151  72.817  1.00  0.00     0.051 A 
ATOM      5  C   UNL     1     -14.132  73.073  73.995  1.00  0.00     0.161 A 
ATOM      6  C   UNL     1     -14.183  73.810  72.797  1.00  0.00     0.157 A 
ENDROOT
BRANCH   1   7
ATOM      7  C   UNL     1     -15.244  75.716  76.498  1.00  0.00     0.072 C 
ATOM      8  O   UNL     1     -15.954  75.118  77.350  1.00  0.00    -0.545 OA
ATOM      9  O   UNL     1     -14.810  77.009  76.770  1.00  0.00    -0.545 OA
ENDBRANCH   1   7
BRANCH   5  10
ATOM     10  O   UNL     1     -13.734  71.728  73.944  1.00  0.00    -0.493 OA
ATOM     11  C   UNL     1     -12.466  71.243  74.373  1.00  0.00     0.278 C 
ENDBRANCH   5  10
BRANCH   6  12
ATOM     12  O   UNL     1     -13.845  73.226  71.576  1.00  0.00    -0.504 OA
ATOM     13  H   UNL     1     -14.042  72.253  71.370  1.00  0.00     0.293 HD
ENDBRANCH   6  12
TORSDOF 3
ENDMDL
MODEL 5
REMARK VINA RESULT:    -4.175     13.142     14.024
REMARK INTER + INTRA:          -4.887
REMARK INTER:                  -4.786
REMARK INTRA:                  -0.101
REMARK UNBOUND:                -0.102
REMARK SMILES COc1cc(C(=O)[O-])ccc1O
REMARK SMILES IDX 5 1 9 2 4 3 10 4 3 5 11 6 6 7 7 8 8 9 2 10 1 11 12 12
REMARK H PARENT 12 13
REMARK Flexibility Score: inf
ROOT
ATOM      1  C   UNL     1     -21.252  79.819  86.536  1.00  0.00     0.001 A 
ATOM      2  C   UNL     1     -21.947  78.912  85.720  1.00  0.00     0.014 A 
ATOM      3  C   UNL     1     -20.183  80.551  85.988  1.00  0.00     0.060 A 
ATOM      4  C   UNL     1     -21.582  78.740  84.385  1.00  0.00     0.051 A 
ATOM      5  C   UNL     1     -19.810  80.381  84.639  1.00  0.00     0.161 A 
ATOM      6  C   UNL     1     -20.520  79.467  83.840  1.00  0.00     0.157 A 
ENDROOT
BRANCH   1   7
ATOM      7  C   UNL     1     -21.644  79.997  87.952  1.00  0.00     0.072 C 
ATOM      8  O   UNL     1     -21.052  80.840  88.680  1.00  0.00    -0.545 OA
ATOM      9  O   UNL     1     -22.671  79.237  88.501  1.00  0.00    -0.545 OA
ENDBRANCH   1   7
BRANCH   5  10
ATOM     10  O   UNL     1     -18.748  81.098  84.065  1.00  0.00    -0.493 OA
ATOM     11  C   UNL     1     -17.379  80.711  84.135  1.00  0.00     0.278 C 
ENDBRANCH   5  10
BRANCH   6  12
ATOM     12  O   UNL     1     -20.185  79.268  82.501  1.00  0.00    -0.504 OA
ATOM     13  H   UNL     1     -20.877  79.298  81.761  1.00  0.00     0.293 HD
ENDBRANCH   6  12
TORSDOF 3
ENDMDL
MODEL 6
REMARK VINA RESULT:    -4.163     10.481     11.896
REMARK INTER + INTRA:          -4.874
REMARK INTER:                  -4.773
REMARK INTRA:                  -0.101
REMARK UNBOUND:                -0.102
REMARK SMILES COc1cc(C(=O)[O-])ccc1O
REMARK SMILES IDX 5 1 9 2 4 3 10 4 3 5 11 6 6 7 7 8 8 9 2 10 1 11 12 12
REMARK H PARENT 12 13
REMARK Flexibility Score: inf
ROOT
ATOM      1  C   UNL     1     -16.188  64.893  76.646  1.00  0.00     0.001 A 
ATOM      2  C   UNL     1     -17.123  64.538  77.630  1.00  0.00     0.014 A 
ATOM      3  C   UNL     1     -15.624  63.886  75.842  1.00  0.00     0.060 A 
ATOM      4  C   UNL     1     -17.488  63.204  77.809  1.00  0.00     0.051 A 
ATOM      5  C   UNL     1     -15.988  62.535  76.019  1.00  0.00     0.161 A 
ATOM      6  C   UNL     1     -16.927  62.202  77.012  1.00  0.00     0.157 A 
ENDROOT
BRANCH   1   7
ATOM      7  C   UNL     1     -15.805  66.312  76.460  1.00  0.00     0.072 C 
ATOM      8  O   UNL     1     -14.638  66.618  76.094  1.00  0.00    -0.545 OA
ATOM      9  O   UNL     1     -16.728  67.326  76.686  1.00  0.00    -0.545 OA
ENDBRANCH   1   7
BRANCH   5  10
ATOM     10  O   UNL     1     -15.442  61.508  75.234  1.00  0.00    -0.493 OA
ATOM     11  C   UNL     1     -14.161  60.922  75.444  1.00  0.00     0.278 C 
ENDBRANCH   5  10
BRANCH   6  12
ATOM     12  O   UNL     1     -17.317  60.879  77.221  1.00  0.00    -0.504 OA
ATOM     13  H   UNL     1     -17.190  60.161  76.517  1.00  0.00     0.293 HD
ENDBRANCH   6  12
TORSDOF 3
ENDMDL
MODEL 7
REMARK VINA RESULT:    -4.143     11.092     12.654
REMARK INTER + INTRA:          -4.851
REMARK INTER:                  -4.767
REMARK INTRA:                  -0.084
REMARK UNBOUND:                -0.102
REMARK SMILES COc1cc(C(=O)[O-])ccc1O
REMARK SMILES IDX 5 1 9 2 4 3 10 4 3 5 11 6 6 7 7 8 8 9 2 10 1 11 12 12
REMARK H PARENT 12 13
REMARK Flexibility Score: inf
ROOT
ATOM      1  C   UNL     1     -15.186  63.242  76.675  1.00  0.00     0.001 A 
ATOM      2  C   UNL     1     -16.162  63.334  77.679  1.00  0.00     0.014 A 
ATOM      3  C   UNL     1     -15.444  62.454  75.539  1.00  0.00     0.060 A 
ATOM      4  C   UNL     1     -17.373  62.653  77.551  1.00  0.00     0.051 A 
ATOM      5  C   UNL     1     -16.666  61.762  75.405  1.00  0.00     0.161 A 
ATOM      6  C   UNL     1     -17.630  61.869  76.424  1.00  0.00     0.157 A 
ENDROOT
BRANCH   1   7
ATOM      7  C   UNL     1     -13.903  63.968  76.816  1.00  0.00     0.072 C 
ATOM      8  O   UNL     1     -12.938  63.449  77.440  1.00  0.00    -0.545 OA
ATOM      9  O   UNL     1     -13.745  65.233  76.263  1.00  0.00    -0.545 OA
ENDBRANCH   1   7
BRANCH   5  10
ATOM     10  O   UNL     1     -16.952  60.968  74.284  1.00  0.00    -0.493 OA
ATOM     11  C   UNL     1     -16.855  61.410  72.933  1.00  0.00     0.278 C 
ENDBRANCH   5  10
BRANCH   6  12
ATOM     12  O   UNL     1     -18.852  61.203  76.332  1.00  0.00    -0.504 OA
ATOM     13  H   UNL     1     -19.682  61.646  75.953  1.00  0.00     0.293 HD
ENDBRANCH   6  12
TORSDOF 3
ENDMDL
MODEL 8
REMARK VINA RESULT:    -4.127     10.607     12.471
REMARK INTER + INTRA:          -4.833
REMARK INTER:                  -4.731
REMARK INTRA:                  -0.102
REMARK UNBOUND:                -0.102
REMARK SMILES COc1cc(C(=O)[O-])ccc1O
REMARK SMILES IDX 5 1 9 2 4 3 10 4 3 5 11 6 6 7 7 8 8 9 2 10 1 11 12 12
REMARK H PARENT 12 13
REMARK Flexibility Score: inf
ROOT
ATOM      1  C   UNL     1     -16.039  62.303  76.818  1.00  0.00     0.001 A 
ATOM      2  C   UNL     1     -15.489  61.218  76.117  1.00  0.00     0.014 A 
ATOM      3  C   UNL     1     -15.228  63.417  77.100  1.00  0.00     0.060 A 
ATOM      4  C   UNL     1     -14.156  61.245  75.707  1.00  0.00     0.051 A 
ATOM      5  C   UNL     1     -13.879  63.449  76.689  1.00  0.00     0.161 A 
ATOM      6  C   UNL     1     -13.349  62.350  75.989  1.00  0.00     0.157 A 
ENDROOT
BRANCH   1   7
ATOM      7  C   UNL     1     -17.455  62.269  77.250  1.00  0.00     0.072 C 
ATOM      8  O   UNL     1     -18.302  61.585  76.615  1.00  0.00    -0.545 OA
ATOM      9  O   UNL     1     -17.870  62.993  78.362  1.00  0.00    -0.545 OA
ENDBRANCH   1   7
BRANCH   5  10
ATOM     10  O   UNL     1     -13.046  64.546  76.957  1.00  0.00    -0.493 OA
ATOM     11  C   UNL     1     -13.028  65.753  76.201  1.00  0.00     0.278 C 
ENDBRANCH   5  10
BRANCH   6  12
ATOM     12  O   UNL     1     -12.021  62.340  75.562  1.00  0.00    -0.504 OA
ATOM     13  H   UNL     1     -11.299  62.876  76.031  1.00  0.00     0.293 HD
ENDBRANCH   6  12
TORSDOF 3
ENDMDL
MODEL 9
REMARK VINA RESULT:    -4.030     10.473     12.475
REMARK INTER + INTRA:          -4.722
REMARK INTER:                  -4.632
REMARK INTRA:                  -0.090
REMARK UNBOUND:                -0.102
REMARK SMILES COc1cc(C(=O)[O-])ccc1O
REMARK SMILES IDX 5 1 9 2 4 3 10 4 3 5 11 6 6 7 7 8 8 9 2 10 1 11 12 12
REMARK H PARENT 12 13
REMARK Flexibility Score: inf
ROOT
ATOM      1  C   UNL     1     -14.837  62.261  76.312  1.00  0.00     0.001 A 
ATOM      2  C   UNL     1     -15.845  61.286  76.366  1.00  0.00     0.014 A 
ATOM      3  C   UNL     1     -15.121  63.564  76.759  1.00  0.00     0.060 A 
ATOM      4  C   UNL     1     -17.111  61.605  76.857  1.00  0.00     0.051 A 
ATOM      5  C   UNL     1     -16.399  63.893  77.255  1.00  0.00     0.161 A 
ATOM      6  C   UNL     1     -17.395  62.900  77.300  1.00  0.00     0.157 A 
ENDROOT
BRANCH   1   7
ATOM      7  C   UNL     1     -13.494  61.916  75.791  1.00  0.00     0.072 C 
ATOM      8  O   UNL     1     -13.061  62.449  74.734  1.00  0.00    -0.545 OA
ATOM      9  O   UNL     1     -12.693  60.999  76.461  1.00  0.00    -0.545 OA
ENDBRANCH   1   7
BRANCH   5  10
ATOM     10  O   UNL     1     -16.713  65.185  77.707  1.00  0.00    -0.493 OA
ATOM     11  C   UNL     1     -16.689  66.354  76.896  1.00  0.00     0.278 C 
ENDBRANCH   5  10
BRANCH   6  12
ATOM     12  O   UNL     1     -18.673  63.181  77.783  1.00  0.00    -0.504 OA
ATOM     13  H   UNL     1     -18.955  62.951  78.729  1.00  0.00     0.293 HD
ENDBRANCH   6  12
TORSDOF 3
ENDMDL
