MODEL 1
REMARK VINA RESULT:    -3.091      0.000      0.000
REMARK INTER + INTRA:          -3.961
REMARK INTER:                  -3.814
REMARK INTRA:                  -0.147
REMARK UNBOUND:                -0.147
REMARK SMILES CCCCCC(=O)[O-]
REMARK SMILES IDX 4 1 5 2 6 3 7 4 8 5 3 6 2 7 1 8
REMARK H PARENT
REMARK Flexibility Score: inf
ROOT
ATOM      1  C   UNL     1      40.101  12.222  12.751  1.00  0.00     0.006 C 
ENDROOT
BRANCH   1   2
ATOM      2  C   UNL     1      41.430  12.010  13.496  1.00  0.00     0.053 C 
BRANCH   2   3
ATOM      3  C   UNL     1      41.266  12.014  14.985  1.00  0.00     0.041 C 
ATOM      4  O   UNL     1      40.131  11.835  15.501  1.00  0.00    -0.550 OA
ATOM      5  O   UNL     1      42.363  12.248  15.805  1.00  0.00    -0.550 OA
ENDBRANCH   2   3
ENDBRANCH   1   2
BRANCH   1   6
ATOM      6  C   UNL     1      39.809  11.160  11.676  1.00  0.00     0.000 C 
BRANCH   6   7
ATOM      7  C   UNL     1      40.890  10.073  11.594  1.00  0.00    -0.003 C 
ATOM      8  C   UNL     1      40.272   8.678  11.635  1.00  0.00     0.004 C 
ENDBRANCH   6   7
ENDBRANCH   1   6
TORSDOF 4
ENDMDL
MODEL 2
REMARK VINA RESULT:    -3.001      0.892      1.757
REMARK INTER + INTRA:          -3.849
REMARK INTER:                  -3.598
REMARK INTRA:                  -0.251
REMARK UNBOUND:                -0.147
REMARK SMILES CCCCCC(=O)[O-]
REMARK SMILES IDX 4 1 5 2 6 3 7 4 8 5 3 6 2 7 1 8
REMARK H PARENT
REMARK Flexibility Score: inf
ROOT
ATOM      1  C   UNL     1      39.797  11.177  11.813  1.00  0.00     0.006 C 
ENDROOT
BRANCH   1   2
ATOM      2  C   UNL     1      40.130  12.302  12.809  1.00  0.00     0.053 C 
BRANCH   2   3
ATOM      3  C   UNL     1      40.555  11.781  14.149  1.00  0.00     0.041 C 
ATOM      4  O   UNL     1      41.733  11.960  14.558  1.00  0.00    -0.550 OA
ATOM      5  O   UNL     1      39.657  11.069  14.934  1.00  0.00    -0.550 OA
ENDBRANCH   2   3
ENDBRANCH   1   2
BRANCH   1   6
ATOM      6  C   UNL     1      40.941  10.169  11.602  1.00  0.00     0.000 C 
BRANCH   6   7
ATOM      7  C   UNL     1      40.470   8.708  11.629  1.00  0.00    -0.003 C 
ATOM      8  C   UNL     1      39.259   8.539  12.543  1.00  0.00     0.004 C 
ENDBRANCH   6   7
ENDBRANCH   1   6
TORSDOF 4
ENDMDL
MODEL 3
REMARK VINA RESULT:    -2.933      1.241      1.241
REMARK INTER + INTRA:          -3.766
REMARK INTER:                  -3.665
REMARK INTRA:                  -0.101
REMARK UNBOUND:                -0.147
REMARK SMILES CCCCCC(=O)[O-]
REMARK SMILES IDX 4 1 5 2 6 3 7 4 8 5 3 6 2 7 1 8
REMARK H PARENT
REMARK Flexibility Score: inf
ROOT
ATOM      1  C   UNL     1      40.129  12.569  12.889  1.00  0.00     0.006 C 
ENDROOT
BRANCH   1   2
ATOM      2  C   UNL     1      40.994  12.170  14.097  1.00  0.00     0.053 C 
BRANCH   2   3
ATOM      3  C   UNL     1      41.099  13.262  15.119  1.00  0.00     0.041 C 
ATOM      4  O   UNL     1      40.866  14.458  14.799  1.00  0.00    -0.550 OA
ATOM      5  O   UNL     1      41.485  12.962  16.419  1.00  0.00    -0.550 OA
ENDBRANCH   2   3
ENDBRANCH   1   2
BRANCH   1   6
ATOM      6  C   UNL     1      39.818  11.405  11.930  1.00  0.00     0.000 C 
BRANCH   6   7
ATOM      7  C   UNL     1      40.986  10.419  11.782  1.00  0.00    -0.003 C 
ATOM      8  C   UNL     1      40.479   8.991  11.601  1.00  0.00     0.004 C 
ENDBRANCH   6   7
ENDBRANCH   1   6
TORSDOF 4
ENDMDL
MODEL 4
REMARK VINA RESULT:    -2.921      2.735      4.074
REMARK INTER + INTRA:          -3.751
REMARK INTER:                  -3.594
REMARK INTRA:                  -0.157
REMARK UNBOUND:                -0.147
REMARK SMILES CCCCCC(=O)[O-]
REMARK SMILES IDX 4 1 5 2 6 3 7 4 8 5 3 6 2 7 1 8
REMARK H PARENT
REMARK Flexibility Score: inf
ROOT
ATOM      1  C   UNL     1      39.778  12.168  12.416  1.00  0.00     0.006 C 
ENDROOT
BRANCH   1   2
ATOM      2  C   UNL     1      39.662  10.652  12.653  1.00  0.00     0.053 C 
BRANCH   2   3
ATOM      3  C   UNL     1      40.484   9.852  11.688  1.00  0.00     0.041 C 
ATOM      4  O   UNL     1      41.182  10.430  10.813  1.00  0.00    -0.550 OA
ATOM      5  O   UNL     1      40.455   8.464  11.736  1.00  0.00    -0.550 OA
ENDBRANCH   2   3
ENDBRANCH   1   2
BRANCH   1   6
ATOM      6  C   UNL     1      40.573  12.913  13.503  1.00  0.00     0.000 C 
BRANCH   6   7
ATOM      7  C   UNL     1      40.569  12.187  14.856  1.00  0.00    -0.003 C 
ATOM      8  C   UNL     1      41.980  12.087  15.430  1.00  0.00     0.004 C 
ENDBRANCH   6   7
ENDBRANCH   1   6
TORSDOF 4
ENDMDL
MODEL 5
REMARK VINA RESULT:    -2.694      2.702      4.320
REMARK INTER + INTRA:          -3.470
REMARK INTER:                  -3.386
REMARK INTRA:                  -0.085
REMARK UNBOUND:                -0.147
REMARK SMILES CCCCCC(=O)[O-]
REMARK SMILES IDX 4 1 5 2 6 3 7 4 8 5 3 6 2 7 1 8
REMARK H PARENT
REMARK Flexibility Score: inf
ROOT
ATOM      1  C   UNL     1      40.059  11.278  13.913  1.00  0.00     0.006 C 
ENDROOT
BRANCH   1   2
ATOM      2  C   UNL     1      41.125  11.317  12.804  1.00  0.00     0.053 C 
BRANCH   2   3
ATOM      3  C   UNL     1      40.779  10.441  11.638  1.00  0.00     0.041 C 
ATOM      4  O   UNL     1      40.840   9.188  11.743  1.00  0.00    -0.550 OA
ATOM      5  O   UNL     1      40.418  11.012  10.424  1.00  0.00    -0.550 OA
ENDBRANCH   2   3
ENDBRANCH   1   2
BRANCH   1   6
ATOM      6  C   UNL     1      40.443  12.066  15.179  1.00  0.00     0.000 C 
BRANCH   6   7
ATOM      7  C   UNL     1      41.953  12.059  15.457  1.00  0.00    -0.003 C 
ATOM      8  C   UNL     1      42.236  11.933  16.951  1.00  0.00     0.004 C 
ENDBRANCH   6   7
ENDBRANCH   1   6
TORSDOF 4
ENDMDL
MODEL 6
REMARK VINA RESULT:    -2.586      1.676      2.339
REMARK INTER + INTRA:          -3.337
REMARK INTER:                  -3.248
REMARK INTRA:                  -0.089
REMARK UNBOUND:                -0.147
REMARK SMILES CCCCCC(=O)[O-]
REMARK SMILES IDX 4 1 5 2 6 3 7 4 8 5 3 6 2 7 1 8
REMARK H PARENT
REMARK Flexibility Score: inf
ROOT
ATOM      1  C   UNL     1      40.817  12.866  15.076  1.00  0.00     0.006 C 
ENDROOT
BRANCH   1   2
ATOM      2  C   UNL     1      42.032  12.026  15.508  1.00  0.00     0.053 C 
BRANCH   2   3
ATOM      3  C   UNL     1      42.049  11.748  16.981  1.00  0.00     0.041 C 
ATOM      4  O   UNL     1      41.451  10.742  17.446  1.00  0.00    -0.550 OA
ATOM      5  O   UNL     1      42.701  12.619  17.845  1.00  0.00    -0.550 OA
ENDBRANCH   2   3
ENDBRANCH   1   2
BRANCH   1   6
ATOM      6  C   UNL     1      40.581  12.888  13.555  1.00  0.00     0.000 C 
BRANCH   6   7
ATOM      7  C   UNL     1      40.970  11.572  12.866  1.00  0.00    -0.003 C 
ATOM      8  C   UNL     1      39.903  11.140  11.864  1.00  0.00     0.004 C 
ENDBRANCH   6   7
ENDBRANCH   1   6
TORSDOF 4
ENDMDL
MODEL 7
REMARK VINA RESULT:    -2.518     12.435     13.374
REMARK INTER + INTRA:          -3.253
REMARK INTER:                  -3.031
REMARK INTRA:                  -0.222
REMARK UNBOUND:                -0.147
REMARK SMILES CCCCCC(=O)[O-]
REMARK SMILES IDX 4 1 5 2 6 3 7 4 8 5 3 6 2 7 1 8
REMARK H PARENT
REMARK Flexibility Score: inf
ROOT
ATOM      1  C   UNL     1      43.448   9.850   0.019  1.00  0.00     0.006 C 
ENDROOT
BRANCH   1   2
ATOM      2  C   UNL     1      42.579   8.581  -0.036  1.00  0.00     0.053 C 
BRANCH   2   3
ATOM      3  C   UNL     1      41.865   8.312   1.253  1.00  0.00     0.041 C 
ATOM      4  O   UNL     1      40.607   8.353   1.306  1.00  0.00    -0.550 OA
ATOM      5  O   UNL     1      42.591   8.045   2.407  1.00  0.00    -0.550 OA
ENDBRANCH   2   3
ENDBRANCH   1   2
BRANCH   1   6
ATOM      6  C   UNL     1      44.923   9.614  -0.353  1.00  0.00     0.000 C 
BRANCH   6   7
ATOM      7  C   UNL     1      45.651   8.684   0.628  1.00  0.00    -0.003 C 
ATOM      8  C   UNL     1      45.808   9.343   1.996  1.00  0.00     0.004 C 
ENDBRANCH   6   7
ENDBRANCH   1   6
TORSDOF 4
ENDMDL
MODEL 8
REMARK VINA RESULT:    -2.505      2.692      4.496
REMARK INTER + INTRA:          -3.237
REMARK INTER:                  -3.079
REMARK INTRA:                  -0.158
REMARK UNBOUND:                -0.147
REMARK SMILES CCCCCC(=O)[O-]
REMARK SMILES IDX 4 1 5 2 6 3 7 4 8 5 3 6 2 7 1 8
REMARK H PARENT
REMARK Flexibility Score: inf
ROOT
ATOM      1  C   UNL     1      39.635  12.297  14.716  1.00  0.00     0.006 C 
ENDROOT
BRANCH   1   2
ATOM      2  C   UNL     1      39.855  12.275  13.193  1.00  0.00     0.053 C 
BRANCH   2   3
ATOM      3  C   UNL     1      41.068  11.490  12.795  1.00  0.00     0.041 C 
ATOM      4  O   UNL     1      42.161  11.657  13.399  1.00  0.00    -0.550 OA
ATOM      5  O   UNL     1      41.000  10.596  11.734  1.00  0.00    -0.550 OA
ENDBRANCH   2   3
ENDBRANCH   1   2
BRANCH   1   6
ATOM      6  C   UNL     1      39.479  13.710  15.306  1.00  0.00     0.000 C 
BRANCH   6   7
ATOM      7  C   UNL     1      40.619  14.658  14.908  1.00  0.00    -0.003 C 
ATOM      8  C   UNL     1      40.281  16.103  15.261  1.00  0.00     0.004 C 
ENDBRANCH   6   7
ENDBRANCH   1   6
TORSDOF 4
ENDMDL
MODEL 9
REMARK VINA RESULT:    -2.504     12.275     13.308
REMARK INTER + INTRA:          -3.236
REMARK INTER:                  -3.033
REMARK INTRA:                  -0.203
REMARK UNBOUND:                -0.147
REMARK SMILES CCCCCC(=O)[O-]
REMARK SMILES IDX 4 1 5 2 6 3 7 4 8 5 3 6 2 7 1 8
REMARK H PARENT
REMARK Flexibility Score: inf
ROOT
ATOM      1  C   UNL     1      44.682   9.172   1.855  1.00  0.00     0.006 C 
ENDROOT
BRANCH   1   2
ATOM      2  C   UNL     1      43.868   7.875   1.704  1.00  0.00     0.053 C 
BRANCH   2   3
ATOM      3  C   UNL     1      42.392   8.098   1.843  1.00  0.00     0.041 C 
ATOM      4  O   UNL     1      41.716   8.514   0.865  1.00  0.00    -0.550 OA
ATOM      5  O   UNL     1      41.768   7.876   3.064  1.00  0.00    -0.550 OA
ENDBRANCH   2   3
ENDBRANCH   1   2
BRANCH   1   6
ATOM      6  C   UNL     1      45.768   9.358   0.781  1.00  0.00     0.000 C 
BRANCH   6   7
ATOM      7  C   UNL     1      45.241   9.167  -0.648  1.00  0.00    -0.003 C 
ATOM      8  C   UNL     1      44.307  10.306  -1.047  1.00  0.00     0.004 C 
ENDBRANCH   6   7
ENDBRANCH   1   6
TORSDOF 4
ENDMDL
