MODEL 1
REMARK VINA RESULT:    -3.996      0.000      0.000
REMARK INTER + INTRA:          -8.631
REMARK INTER:                  -7.734
REMARK INTRA:                  -0.897
REMARK UNBOUND:                -0.897
REMARK SMILES CCCCCCCCCCCCCCCCCC(=O)[O-]
REMARK SMILES IDX 10 1 11 2 12 3 13 4 14 5 15 6 16 7 17 8 18 9 19 10 20 11
REMARK SMILES IDX 9 12 8 13 7 14 6 15 5 16 4 17 3 18 2 19 1 20
REMARK H PARENT
REMARK Flexibility Score: inf
ROOT
ATOM      1  C   UNL     1       7.155  -6.246  -9.479  1.00  0.00     0.000 C 
ENDROOT
BRANCH   1   2
ATOM      2  C   UNL     1       8.550  -5.615  -9.320  1.00  0.00     0.000 C 
BRANCH   2   3
ATOM      3  C   UNL     1       8.558  -4.081  -9.176  1.00  0.00     0.000 C 
BRANCH   3   4
ATOM      4  C   UNL     1       9.230  -3.545  -7.895  1.00  0.00     0.000 C 
BRANCH   4   5
ATOM      5  C   UNL     1       8.661  -2.216  -7.364  1.00  0.00     0.000 C 
BRANCH   5   6
ATOM      6  C   UNL     1       9.182  -1.863  -5.961  1.00  0.00     0.000 C 
BRANCH   6   7
ATOM      7  C   UNL     1       8.251  -0.894  -5.208  1.00  0.00     0.006 C 
BRANCH   7   8
ATOM      8  C   UNL     1       6.941  -1.527  -4.715  1.00  0.00     0.053 C 
BRANCH   8   9
ATOM      9  C   UNL     1       7.074  -2.093  -3.334  1.00  0.00     0.041 C 
ATOM     10  O   UNL     1       6.133  -2.756  -2.828  1.00  0.00    -0.550 OA
ATOM     11  O   UNL     1       8.227  -1.858  -2.596  1.00  0.00    -0.550 OA
ENDBRANCH   8   9
ENDBRANCH   7   8
ENDBRANCH   6   7
ENDBRANCH   5   6
ENDBRANCH   4   5
ENDBRANCH   3   4
ENDBRANCH   2   3
ENDBRANCH   1   2
BRANCH   1  12
ATOM     12  C   UNL     1       7.175  -7.776  -9.351  1.00  0.00     0.000 C 
BRANCH  12  13
ATOM     13  C   UNL     1       6.053  -8.264  -8.426  1.00  0.00    -0.000 C 
BRANCH  13  14
ATOM     14  C   UNL     1       5.166  -9.297  -9.133  1.00  0.00    -0.000 C 
BRANCH  14  15
ATOM     15  C   UNL     1       3.686  -9.066  -8.808  1.00  0.00    -0.000 C 
BRANCH  15  16
ATOM     16  C   UNL     1       2.940  -8.489 -10.022  1.00  0.00    -0.000 C 
BRANCH  16  17
ATOM     17  C   UNL     1       2.107  -7.246  -9.672  1.00  0.00    -0.000 C 
BRANCH  17  18
ATOM     18  C   UNL     1       2.701  -6.448  -8.498  1.00  0.00    -0.000 C 
BRANCH  18  19
ATOM     19  C   UNL     1       2.185  -5.001  -8.450  1.00  0.00    -0.003 C 
ATOM     20  C   UNL     1       1.962  -4.497  -7.024  1.00  0.00     0.004 C 
ENDBRANCH  18  19
ENDBRANCH  17  18
ENDBRANCH  16  17
ENDBRANCH  15  16
ENDBRANCH  14  15
ENDBRANCH  13  14
ENDBRANCH  12  13
ENDBRANCH   1  12
TORSDOF 16
ENDMDL
MODEL 2
REMARK VINA RESULT:    -3.926     17.065     19.510
REMARK INTER + INTRA:          -8.494
REMARK INTER:                  -6.264
REMARK INTRA:                  -2.231
REMARK UNBOUND:                -0.897
REMARK SMILES CCCCCCCCCCCCCCCCCC(=O)[O-]
REMARK SMILES IDX 10 1 11 2 12 3 13 4 14 5 15 6 16 7 17 8 18 9 19 10 20 11
REMARK SMILES IDX 9 12 8 13 7 14 6 15 5 16 4 17 3 18 2 19 1 20
REMARK H PARENT
REMARK Flexibility Score: inf
ROOT
ATOM      1  C   UNL     1      -4.876  -7.814   7.348  1.00  0.00     0.000 C 
ENDROOT
BRANCH   1   2
ATOM      2  C   UNL     1      -3.484  -8.447   7.520  1.00  0.00     0.000 C 
BRANCH   2   3
ATOM      3  C   UNL     1      -3.469  -9.792   8.274  1.00  0.00     0.000 C 
BRANCH   3   4
ATOM      4  C   UNL     1      -2.620  -9.814   9.561  1.00  0.00     0.000 C 
BRANCH   4   5
ATOM      5  C   UNL     1      -2.191  -8.431  10.086  1.00  0.00     0.000 C 
BRANCH   5   6
ATOM      6  C   UNL     1      -0.670  -8.215  10.021  1.00  0.00     0.000 C 
BRANCH   6   7
ATOM      7  C   UNL     1      -0.003  -9.017   8.887  1.00  0.00     0.006 C 
BRANCH   7   8
ATOM      8  C   UNL     1       1.344  -9.652   9.266  1.00  0.00     0.053 C 
BRANCH   8   9
ATOM      9  C   UNL     1       2.220  -9.867   8.070  1.00  0.00     0.041 C 
ATOM     10  O   UNL     1       1.877  -9.420   6.945  1.00  0.00    -0.550 OA
ATOM     11  O   UNL     1       3.399 -10.590   8.194  1.00  0.00    -0.550 OA
ENDBRANCH   8   9
ENDBRANCH   7   8
ENDBRANCH   6   7
ENDBRANCH   5   6
ENDBRANCH   4   5
ENDBRANCH   3   4
ENDBRANCH   2   3
ENDBRANCH   1   2
BRANCH   1  12
ATOM     12  C   UNL     1      -5.168  -6.724   8.389  1.00  0.00     0.000 C 
BRANCH  12  13
ATOM     13  C   UNL     1      -5.713  -7.335   9.685  1.00  0.00    -0.000 C 
BRANCH  13  14
ATOM     14  C   UNL     1      -6.897  -8.268   9.399  1.00  0.00    -0.000 C 
BRANCH  14  15
ATOM     15  C   UNL     1      -6.647  -9.667   9.976  1.00  0.00    -0.000 C 
BRANCH  15  16
ATOM     16  C   UNL     1      -7.187 -10.754   9.034  1.00  0.00    -0.000 C 
BRANCH  16  17
ATOM     17  C   UNL     1      -8.100 -10.187   7.935  1.00  0.00    -0.000 C 
BRANCH  17  18
ATOM     18  C   UNL     1      -7.936 -10.922   6.593  1.00  0.00    -0.000 C 
BRANCH  18  19
ATOM     19  C   UNL     1      -6.547 -10.707   5.972  1.00  0.00    -0.003 C 
ATOM     20  C   UNL     1      -6.337 -11.518   4.692  1.00  0.00     0.004 C 
ENDBRANCH  18  19
ENDBRANCH  17  18
ENDBRANCH  16  17
ENDBRANCH  15  16
ENDBRANCH  14  15
ENDBRANCH  13  14
ENDBRANCH  12  13
ENDBRANCH   1  12
TORSDOF 16
ENDMDL
MODEL 3
REMARK VINA RESULT:    -3.911     14.335     16.745
REMARK INTER + INTRA:          -8.467
REMARK INTER:                  -6.128
REMARK INTRA:                  -2.339
REMARK UNBOUND:                -0.897
REMARK SMILES CCCCCCCCCCCCCCCCCC(=O)[O-]
REMARK SMILES IDX 10 1 11 2 12 3 13 4 14 5 15 6 16 7 17 8 18 9 19 10 20 11
REMARK SMILES IDX 9 12 8 13 7 14 6 15 5 16 4 17 3 18 2 19 1 20
REMARK H PARENT
REMARK Flexibility Score: inf
ROOT
ATOM      1  C   UNL     1       6.309   4.830   4.507  1.00  0.00     0.000 C 
ENDROOT
BRANCH   1   2
ATOM      2  C   UNL     1       7.634   4.859   5.290  1.00  0.00     0.000 C 
BRANCH   2   3
ATOM      3  C   UNL     1       7.496   5.189   6.789  1.00  0.00     0.000 C 
BRANCH   3   4
ATOM      4  C   UNL     1       8.021   4.104   7.751  1.00  0.00     0.000 C 
BRANCH   4   5
ATOM      5  C   UNL     1       6.959   3.115   8.265  1.00  0.00     0.000 C 
BRANCH   5   6
ATOM      6  C   UNL     1       5.528   3.666   8.152  1.00  0.00     0.000 C 
BRANCH   6   7
ATOM      7  C   UNL     1       4.487   2.766   8.844  1.00  0.00     0.006 C 
BRANCH   7   8
ATOM      8  C   UNL     1       3.903   1.664   7.946  1.00  0.00     0.053 C 
BRANCH   8   9
ATOM      9  C   UNL     1       2.431   1.488   8.158  1.00  0.00     0.041 C 
ATOM     10  O   UNL     1       1.927   1.683   9.295  1.00  0.00    -0.550 OA
ATOM     11  O   UNL     1       1.622   1.077   7.107  1.00  0.00    -0.550 OA
ENDBRANCH   8   9
ENDBRANCH   7   8
ENDBRANCH   6   7
ENDBRANCH   5   6
ENDBRANCH   4   5
ENDBRANCH   3   4
ENDBRANCH   2   3
ENDBRANCH   1   2
BRANCH   1  12
ATOM     12  C   UNL     1       6.077   3.498   3.779  1.00  0.00     0.000 C 
BRANCH  12  13
ATOM     13  C   UNL     1       6.253   2.312   4.735  1.00  0.00    -0.000 C 
BRANCH  13  14
ATOM     14  C   UNL     1       7.437   1.434   4.311  1.00  0.00    -0.000 C 
BRANCH  14  15
ATOM     15  C   UNL     1       8.214   0.929   5.533  1.00  0.00    -0.000 C 
BRANCH  15  16
ATOM     16  C   UNL     1       8.179  -0.605   5.611  1.00  0.00    -0.000 C 
BRANCH  16  17
ATOM     17  C   UNL     1       8.244  -1.128   7.055  1.00  0.00    -0.000 C 
BRANCH  17  18
ATOM     18  C   UNL     1       7.249  -0.416   7.987  1.00  0.00    -0.000 C 
BRANCH  18  19
ATOM     19  C   UNL     1       7.040  -1.169   9.310  1.00  0.00    -0.003 C 
ATOM     20  C   UNL     1       5.656  -0.933   9.916  1.00  0.00     0.004 C 
ENDBRANCH  18  19
ENDBRANCH  17  18
ENDBRANCH  16  17
ENDBRANCH  15  16
ENDBRANCH  14  15
ENDBRANCH  13  14
ENDBRANCH  12  13
ENDBRANCH   1  12
TORSDOF 16
ENDMDL
MODEL 4
REMARK VINA RESULT:    -3.897     14.418     17.183
REMARK INTER + INTRA:          -8.440
REMARK INTER:                  -5.973
REMARK INTRA:                  -2.467
REMARK UNBOUND:                -0.897
REMARK SMILES CCCCCCCCCCCCCCCCCC(=O)[O-]
REMARK SMILES IDX 10 1 11 2 12 3 13 4 14 5 15 6 16 7 17 8 18 9 19 10 20 11
REMARK SMILES IDX 9 12 8 13 7 14 6 15 5 16 4 17 3 18 2 19 1 20
REMARK H PARENT
REMARK Flexibility Score: inf
ROOT
ATOM      1  C   UNL     1       6.397   4.928   4.773  1.00  0.00     0.000 C 
ENDROOT
BRANCH   1   2
ATOM      2  C   UNL     1       6.332   3.578   4.036  1.00  0.00     0.000 C 
BRANCH   2   3
ATOM      3  C   UNL     1       7.002   2.401   4.773  1.00  0.00     0.000 C 
BRANCH   3   4
ATOM      4  C   UNL     1       6.451   2.112   6.185  1.00  0.00     0.000 C 
BRANCH   4   5
ATOM      5  C   UNL     1       7.518   1.957   7.284  1.00  0.00     0.000 C 
BRANCH   5   6
ATOM      6  C   UNL     1       7.120   0.935   8.362  1.00  0.00     0.000 C 
BRANCH   6   7
ATOM      7  C   UNL     1       7.402  -0.518   7.936  1.00  0.00     0.006 C 
BRANCH   7   8
ATOM      8  C   UNL     1       8.690  -0.701   7.118  1.00  0.00     0.053 C 
BRANCH   8   9
ATOM      9  C   UNL     1       8.484  -1.606   5.942  1.00  0.00     0.041 C 
ATOM     10  O   UNL     1       8.264  -1.122   4.801  1.00  0.00    -0.550 OA
ATOM     11  O   UNL     1       8.505  -2.984   6.114  1.00  0.00    -0.550 OA
ENDBRANCH   8   9
ENDBRANCH   7   8
ENDBRANCH   6   7
ENDBRANCH   5   6
ENDBRANCH   4   5
ENDBRANCH   3   4
ENDBRANCH   2   3
ENDBRANCH   1   2
BRANCH   1  12
ATOM     12  C   UNL     1       7.793   5.234   5.334  1.00  0.00     0.000 C 
BRANCH  12  13
ATOM     13  C   UNL     1       7.709   5.691   6.795  1.00  0.00    -0.000 C 
BRANCH  13  14
ATOM     14  C   UNL     1       6.252   5.751   7.270  1.00  0.00    -0.000 C 
BRANCH  14  15
ATOM     15  C   UNL     1       6.172   5.735   8.802  1.00  0.00    -0.000 C 
BRANCH  15  16
ATOM     16  C   UNL     1       5.659   4.379   9.311  1.00  0.00    -0.000 C 
BRANCH  16  17
ATOM     17  C   UNL     1       4.424   3.883   8.542  1.00  0.00    -0.000 C 
BRANCH  17  18
ATOM     18  C   UNL     1       3.739   2.690   9.230  1.00  0.00    -0.000 C 
BRANCH  18  19
ATOM     19  C   UNL     1       3.516   1.508   8.274  1.00  0.00    -0.003 C 
ATOM     20  C   UNL     1       2.050   1.332   7.878  1.00  0.00     0.004 C 
ENDBRANCH  18  19
ENDBRANCH  17  18
ENDBRANCH  16  17
ENDBRANCH  15  16
ENDBRANCH  14  15
ENDBRANCH  13  14
ENDBRANCH  12  13
ENDBRANCH   1  12
TORSDOF 16
ENDMDL
MODEL 5
REMARK VINA RESULT:    -3.857     18.517     20.691
REMARK INTER + INTRA:          -8.361
REMARK INTER:                  -6.524
REMARK INTRA:                  -1.837
REMARK UNBOUND:                -0.897
REMARK SMILES CCCCCCCCCCCCCCCCCC(=O)[O-]
REMARK SMILES IDX 10 1 11 2 12 3 13 4 14 5 15 6 16 7 17 8 18 9 19 10 20 11
REMARK SMILES IDX 9 12 8 13 7 14 6 15 5 16 4 17 3 18 2 19 1 20
REMARK H PARENT
REMARK Flexibility Score: inf
ROOT
ATOM      1  C   UNL     1      -4.832  -7.183   7.328  1.00  0.00     0.000 C 
ENDROOT
BRANCH   1   2
ATOM      2  C   UNL     1      -5.088  -7.021   8.837  1.00  0.00     0.000 C 
BRANCH   2   3
ATOM      3  C   UNL     1      -5.892  -5.765   9.229  1.00  0.00     0.000 C 
BRANCH   3   4
ATOM      4  C   UNL     1      -7.312  -6.035   9.766  1.00  0.00     0.000 C 
BRANCH   4   5
ATOM      5  C   UNL     1      -8.274  -4.834   9.703  1.00  0.00     0.000 C 
BRANCH   5   6
ATOM      6  C   UNL     1      -7.749  -3.695   8.814  1.00  0.00     0.000 C 
BRANCH   6   7
ATOM      7  C   UNL     1      -7.420  -2.420   9.613  1.00  0.00     0.006 C 
BRANCH   7   8
ATOM      8  C   UNL     1      -8.496  -1.326   9.534  1.00  0.00     0.053 C 
BRANCH   8   9
ATOM      9  C   UNL     1      -8.110  -0.226   8.593  1.00  0.00     0.041 C 
ATOM     10  O   UNL     1      -8.966   0.272   7.816  1.00  0.00    -0.550 OA
ATOM     11  O   UNL     1      -6.798   0.226   8.553  1.00  0.00    -0.550 OA
ENDBRANCH   8   9
ENDBRANCH   7   8
ENDBRANCH   6   7
ENDBRANCH   5   6
ENDBRANCH   4   5
ENDBRANCH   3   4
ENDBRANCH   2   3
ENDBRANCH   1   2
BRANCH   1  12
ATOM     12  C   UNL     1      -3.814  -8.289   7.012  1.00  0.00     0.000 C 
BRANCH  12  13
ATOM     13  C   UNL     1      -2.989  -8.646   8.254  1.00  0.00    -0.000 C 
BRANCH  13  14
ATOM     14  C   UNL     1      -3.131 -10.134   8.600  1.00  0.00    -0.000 C 
BRANCH  14  15
ATOM     15  C   UNL     1      -3.866 -10.322   9.933  1.00  0.00    -0.000 C 
BRANCH  15  16
ATOM     16  C   UNL     1      -5.166 -11.116   9.735  1.00  0.00    -0.000 C 
BRANCH  16  17
ATOM     17  C   UNL     1      -5.619 -11.159   8.267  1.00  0.00    -0.000 C 
BRANCH  17  18
ATOM     18  C   UNL     1      -6.870 -10.300   8.010  1.00  0.00    -0.000 C 
BRANCH  18  19
ATOM     19  C   UNL     1      -7.377 -10.419   6.564  1.00  0.00    -0.003 C 
ATOM     20  C   UNL     1      -6.253 -10.680   5.560  1.00  0.00     0.004 C 
ENDBRANCH  18  19
ENDBRANCH  17  18
ENDBRANCH  16  17
ENDBRANCH  15  16
ENDBRANCH  14  15
ENDBRANCH  13  14
ENDBRANCH  12  13
ENDBRANCH   1  12
TORSDOF 16
ENDMDL
MODEL 6
REMARK VINA RESULT:    -3.851     17.071     19.282
REMARK INTER + INTRA:          -8.350
REMARK INTER:                  -6.445
REMARK INTRA:                  -1.905
REMARK UNBOUND:                -0.897
REMARK SMILES CCCCCCCCCCCCCCCCCC(=O)[O-]
REMARK SMILES IDX 10 1 11 2 12 3 13 4 14 5 15 6 16 7 17 8 18 9 19 10 20 11
REMARK SMILES IDX 9 12 8 13 7 14 6 15 5 16 4 17 3 18 2 19 1 20
REMARK H PARENT
REMARK Flexibility Score: inf
ROOT
ATOM      1  C   UNL     1      -4.500  -7.853   7.161  1.00  0.00     0.000 C 
ENDROOT
BRANCH   1   2
ATOM      2  C   UNL     1      -5.185  -7.057   8.286  1.00  0.00     0.000 C 
BRANCH   2   3
ATOM      3  C   UNL     1      -4.417  -7.027   9.622  1.00  0.00     0.000 C 
BRANCH   3   4
ATOM      4  C   UNL     1      -3.778  -8.366  10.044  1.00  0.00     0.000 C 
BRANCH   4   5
ATOM      5  C   UNL     1      -2.239  -8.375  10.079  1.00  0.00     0.000 C 
BRANCH   5   6
ATOM      6  C   UNL     1      -1.618  -9.028   8.832  1.00  0.00     0.000 C 
BRANCH   6   7
ATOM      7  C   UNL     1      -0.078  -9.023   8.863  1.00  0.00     0.006 C 
BRANCH   7   8
ATOM      8  C   UNL     1       0.563 -10.417   8.783  1.00  0.00     0.053 C 
BRANCH   8   9
ATOM      9  C   UNL     1       1.605 -10.496   7.709  1.00  0.00     0.041 C 
ATOM     10  O   UNL     1       2.113 -11.605   7.398  1.00  0.00    -0.550 OA
ATOM     11  O   UNL     1       2.036  -9.338   7.074  1.00  0.00    -0.550 OA
ENDBRANCH   8   9
ENDBRANCH   7   8
ENDBRANCH   6   7
ENDBRANCH   5   6
ENDBRANCH   4   5
ENDBRANCH   3   4
ENDBRANCH   2   3
ENDBRANCH   1   2
BRANCH   1  12
ATOM     12  C   UNL     1      -5.329  -9.058   6.694  1.00  0.00     0.000 C 
BRANCH  12  13
ATOM     13  C   UNL     1      -5.003 -10.304   7.527  1.00  0.00    -0.000 C 
BRANCH  13  14
ATOM     14  C   UNL     1      -6.285 -11.002   8.000  1.00  0.00    -0.000 C 
BRANCH  14  15
ATOM     15  C   UNL     1      -7.375  -9.978   8.341  1.00  0.00    -0.000 C 
BRANCH  15  16
ATOM     16  C   UNL     1      -8.697 -10.330   7.642  1.00  0.00    -0.000 C 
BRANCH  16  17
ATOM     17  C   UNL     1      -8.540 -11.454   6.605  1.00  0.00    -0.000 C 
BRANCH  17  18
ATOM     18  C   UNL     1      -8.629 -10.939   5.158  1.00  0.00    -0.000 C 
BRANCH  18  19
ATOM     19  C   UNL     1      -7.883 -11.845   4.166  1.00  0.00    -0.003 C 
ATOM     20  C   UNL     1      -6.367 -11.817   4.359  1.00  0.00     0.004 C 
ENDBRANCH  18  19
ENDBRANCH  17  18
ENDBRANCH  16  17
ENDBRANCH  15  16
ENDBRANCH  14  15
ENDBRANCH  13  14
ENDBRANCH  12  13
ENDBRANCH   1  12
TORSDOF 16
ENDMDL
MODEL 7
REMARK VINA RESULT:    -3.843     13.450     16.689
REMARK INTER + INTRA:          -8.335
REMARK INTER:                  -5.920
REMARK INTRA:                  -2.414
REMARK UNBOUND:                -0.897
REMARK SMILES CCCCCCCCCCCCCCCCCC(=O)[O-]
REMARK SMILES IDX 10 1 11 2 12 3 13 4 14 5 15 6 16 7 17 8 18 9 19 10 20 11
REMARK SMILES IDX 9 12 8 13 7 14 6 15 5 16 4 17 3 18 2 19 1 20
REMARK H PARENT
REMARK Flexibility Score: inf
ROOT
ATOM      1  C   UNL     1       4.145   2.088   8.238  1.00  0.00     0.000 C 
ENDROOT
BRANCH   1   2
ATOM      2  C   UNL     1       4.227   3.266   9.225  1.00  0.00     0.000 C 
BRANCH   2   3
ATOM      3  C   UNL     1       5.138   4.427   8.778  1.00  0.00     0.000 C 
BRANCH   3   4
ATOM      4  C   UNL     1       5.982   4.151   7.517  1.00  0.00     0.000 C 
BRANCH   4   5
ATOM      5  C   UNL     1       7.457   3.797   7.781  1.00  0.00     0.000 C 
BRANCH   5   6
ATOM      6  C   UNL     1       7.954   2.628   6.915  1.00  0.00     0.000 C 
BRANCH   6   7
ATOM      7  C   UNL     1       6.869   2.089   5.964  1.00  0.00     0.006 C 
BRANCH   7   8
ATOM      8  C   UNL     1       7.154   2.332   4.473  1.00  0.00     0.053 C 
BRANCH   8   9
ATOM      9  C   UNL     1       5.942   2.822   3.742  1.00  0.00     0.041 C 
ATOM     10  O   UNL     1       5.033   2.017   3.410  1.00  0.00    -0.550 OA
ATOM     11  O   UNL     1       5.833   4.164   3.401  1.00  0.00    -0.550 OA
ENDBRANCH   8   9
ENDBRANCH   7   8
ENDBRANCH   6   7
ENDBRANCH   5   6
ENDBRANCH   4   5
ENDBRANCH   3   4
ENDBRANCH   2   3
ENDBRANCH   1   2
BRANCH   1  12
ATOM     12  C   UNL     1       4.216   0.721   8.935  1.00  0.00     0.000 C 
BRANCH  12  13
ATOM     13  C   UNL     1       5.312   0.709  10.008  1.00  0.00    -0.000 C 
BRANCH  13  14
ATOM     14  C   UNL     1       6.690   0.455   9.384  1.00  0.00    -0.000 C 
BRANCH  14  15
ATOM     15  C   UNL     1       6.790  -0.972   8.832  1.00  0.00    -0.000 C 
BRANCH  15  16
ATOM     16  C   UNL     1       8.123  -1.185   8.098  1.00  0.00    -0.000 C 
BRANCH  16  17
ATOM     17  C   UNL     1       7.962  -1.213   6.570  1.00  0.00    -0.000 C 
BRANCH  17  18
ATOM     18  C   UNL     1       9.073  -2.020   5.874  1.00  0.00    -0.000 C 
BRANCH  18  19
ATOM     19  C   UNL     1       9.365  -1.513   4.453  1.00  0.00    -0.003 C 
ATOM     20  C   UNL     1       9.918  -0.088   4.433  1.00  0.00     0.004 C 
ENDBRANCH  18  19
ENDBRANCH  17  18
ENDBRANCH  16  17
ENDBRANCH  15  16
ENDBRANCH  14  15
ENDBRANCH  13  14
ENDBRANCH  12  13
ENDBRANCH   1  12
TORSDOF 16
ENDMDL
MODEL 8
REMARK VINA RESULT:    -3.758     13.733     17.188
REMARK INTER + INTRA:          -8.169
REMARK INTER:                  -5.521
REMARK INTRA:                  -2.648
REMARK UNBOUND:                -0.897
REMARK SMILES CCCCCCCCCCCCCCCCCC(=O)[O-]
REMARK SMILES IDX 10 1 11 2 12 3 13 4 14 5 15 6 16 7 17 8 18 9 19 10 20 11
REMARK SMILES IDX 9 12 8 13 7 14 6 15 5 16 4 17 3 18 2 19 1 20
REMARK H PARENT
REMARK Flexibility Score: inf
ROOT
ATOM      1  C   UNL     1       3.740   2.902   9.065  1.00  0.00     0.000 C 
ENDROOT
BRANCH   1   2
ATOM      2  C   UNL     1       4.284   1.710   8.258  1.00  0.00     0.000 C 
BRANCH   2   3
ATOM      3  C   UNL     1       4.712   0.494   9.102  1.00  0.00     0.000 C 
BRANCH   3   4
ATOM      4  C   UNL     1       6.199   0.101   8.981  1.00  0.00     0.000 C 
BRANCH   4   5
ATOM      5  C   UNL     1       6.996   0.875   7.915  1.00  0.00     0.000 C 
BRANCH   5   6
ATOM      6  C   UNL     1       8.498   0.957   8.236  1.00  0.00     0.000 C 
BRANCH   6   7
ATOM      7  C   UNL     1       9.289  -0.247   7.690  1.00  0.00     0.006 C 
BRANCH   7   8
ATOM      8  C   UNL     1       9.512  -0.222   6.170  1.00  0.00     0.053 C 
BRANCH   8   9
ATOM      9  C   UNL     1       8.623  -1.193   5.455  1.00  0.00     0.041 C 
ATOM     10  O   UNL     1       8.252  -0.963   4.275  1.00  0.00    -0.550 OA
ATOM     11  O   UNL     1       8.180  -2.337   6.106  1.00  0.00    -0.550 OA
ENDBRANCH   8   9
ENDBRANCH   7   8
ENDBRANCH   6   7
ENDBRANCH   5   6
ENDBRANCH   4   5
ENDBRANCH   3   4
ENDBRANCH   2   3
ENDBRANCH   1   2
BRANCH   1  12
ATOM     12  C   UNL     1       4.523   4.200   8.813  1.00  0.00     0.000 C 
BRANCH  12  13
ATOM     13  C   UNL     1       5.983   4.055   9.262  1.00  0.00    -0.000 C 
BRANCH  13  14
ATOM     14  C   UNL     1       6.942   4.622   8.207  1.00  0.00    -0.000 C 
BRANCH  14  15
ATOM     15  C   UNL     1       6.169   5.211   7.020  1.00  0.00    -0.000 C 
BRANCH  15  16
ATOM     16  C   UNL     1       6.914   4.956   5.700  1.00  0.00    -0.000 C 
BRANCH  16  17
ATOM     17  C   UNL     1       7.987   3.862   5.824  1.00  0.00    -0.000 C 
BRANCH  17  18
ATOM     18  C   UNL     1       7.813   2.744   4.783  1.00  0.00    -0.000 C 
BRANCH  18  19
ATOM     19  C   UNL     1       6.378   2.197   4.741  1.00  0.00    -0.003 C 
ATOM     20  C   UNL     1       5.673   2.476   3.413  1.00  0.00     0.004 C 
ENDBRANCH  18  19
ENDBRANCH  17  18
ENDBRANCH  16  17
ENDBRANCH  15  16
ENDBRANCH  14  15
ENDBRANCH  13  14
ENDBRANCH  12  13
ENDBRANCH   1  12
TORSDOF 16
ENDMDL
MODEL 9
REMARK VINA RESULT:    -3.722     14.352     17.013
REMARK INTER + INTRA:          -8.101
REMARK INTER:                  -5.184
REMARK INTRA:                  -2.917
REMARK UNBOUND:                -0.897
REMARK SMILES CCCCCCCCCCCCCCCCCC(=O)[O-]
REMARK SMILES IDX 10 1 11 2 12 3 13 4 14 5 15 6 16 7 17 8 18 9 19 10 20 11
REMARK SMILES IDX 9 12 8 13 7 14 6 15 5 16 4 17 3 18 2 19 1 20
REMARK H PARENT
REMARK Flexibility Score: inf
ROOT
ATOM      1  C   UNL     1       4.482   1.500   8.286  1.00  0.00     0.000 C 
ENDROOT
BRANCH   1   2
ATOM      2  C   UNL     1       3.756   2.653   9.002  1.00  0.00     0.000 C 
BRANCH   2   3
ATOM      3  C   UNL     1       4.458   4.023   8.907  1.00  0.00     0.000 C 
BRANCH   3   4
ATOM      4  C   UNL     1       5.880   4.075   9.501  1.00  0.00     0.000 C 
BRANCH   4   5
ATOM      5  C   UNL     1       7.006   4.327   8.481  1.00  0.00     0.000 C 
BRANCH   5   6
ATOM      6  C   UNL     1       6.476   4.602   7.064  1.00  0.00     0.000 C 
BRANCH   6   7
ATOM      7  C   UNL     1       7.246   3.824   5.980  1.00  0.00     0.006 C 
BRANCH   7   8
ATOM      8  C   UNL     1       6.420   2.739   5.271  1.00  0.00     0.053 C 
BRANCH   8   9
ATOM      9  C   UNL     1       6.017   3.153   3.889  1.00  0.00     0.041 C 
ATOM     10  O   UNL     1       5.716   2.285   3.030  1.00  0.00    -0.550 OA
ATOM     11  O   UNL     1       6.006   4.498   3.542  1.00  0.00    -0.550 OA
ENDBRANCH   8   9
ENDBRANCH   7   8
ENDBRANCH   6   7
ENDBRANCH   5   6
ENDBRANCH   4   5
ENDBRANCH   3   4
ENDBRANCH   2   3
ENDBRANCH   1   2
BRANCH   1  12
ATOM     12  C   UNL     1       4.887   0.367   9.241  1.00  0.00     0.000 C 
BRANCH  12  13
ATOM     13  C   UNL     1       6.411   0.208   9.287  1.00  0.00    -0.000 C 
BRANCH  13  14
ATOM     14  C   UNL     1       7.046   0.584   7.942  1.00  0.00    -0.000 C 
BRANCH  14  15
ATOM     15  C   UNL     1       8.527   0.944   8.113  1.00  0.00    -0.000 C 
BRANCH  15  16
ATOM     16  C   UNL     1       9.307   0.692   6.814  1.00  0.00    -0.000 C 
BRANCH  16  17
ATOM     17  C   UNL     1       8.655  -0.382   5.928  1.00  0.00    -0.000 C 
BRANCH  17  18
ATOM     18  C   UNL     1       9.319  -1.760   6.085  1.00  0.00    -0.000 C 
BRANCH  18  19
ATOM     19  C   UNL     1       8.450  -2.744   6.884  1.00  0.00    -0.003 C 
ATOM     20  C   UNL     1       8.784  -2.755   8.376  1.00  0.00     0.004 C 
ENDBRANCH  18  19
ENDBRANCH  17  18
ENDBRANCH  16  17
ENDBRANCH  15  16
ENDBRANCH  14  15
ENDBRANCH  13  14
ENDBRANCH  12  13
ENDBRANCH   1  12
TORSDOF 16
ENDMDL
