MODEL 1
REMARK VINA RESULT:    -6.978      0.000      0.000
REMARK INTER + INTRA:         -11.802
REMARK INTER:                  -9.629
REMARK INTRA:                  -2.173
REMARK UNBOUND:                -2.173
REMARK SMILES CC[C@H](CC[C@@H](C)[C@@H]1CC[C@H]2[C@@H]3CC=C4C[C@@H](O)CC[C@@]4(C)[C@H]3CC[C@@]21C)C(C)C
REMARK SMILES IDX 5 1 4 2 3 3 2 4 1 5 28 6 29 7 30 8 6 9 7 10 8 11 9 12 26 13
REMARK SMILES IDX 10 14 11 15 25 16 27 17 12 18 24 19 23 20 13 21 21 22 14 23
REMARK SMILES IDX 15 24 20 25 22 26 16 27 19 28 17 29 18 30
REMARK H PARENT 18 31
REMARK Flexibility Score: inf
ROOT
ATOM      1  C   UNL     1     112.229 119.449 128.113  1.00  0.00     0.004 C 
ENDROOT
BRANCH   1   2
ATOM      2  C   UNL     1     111.476 118.407 128.973  1.00  0.00     0.004 C 
BRANCH   2   3
ATOM      3  C   UNL     1     111.914 116.932 128.697  1.00  0.00    -0.009 C 
BRANCH   3   4
ATOM      4  C   UNL     1     113.393 116.735 129.150  1.00  0.00     0.000 C 
ATOM      5  C   UNL     1     114.232 115.937 128.152  1.00  0.00     0.004 C 
ENDBRANCH   3   4
BRANCH   3   6
ATOM      6  C   UNL     1     110.988 115.822 129.344  1.00  0.00    -0.014 C 
ATOM      7  C   UNL     1     109.518 116.032 128.939  1.00  0.00     0.007 C 
ATOM      8  C   UNL     1     111.058 115.686 130.876  1.00  0.00     0.007 C 
ENDBRANCH   3   6
ENDBRANCH   2   3
ENDBRANCH   1   2
BRANCH   1   9
ATOM      9  C   UNL     1     111.282 120.456 127.396  1.00  0.00    -0.011 C 
ATOM     10  C   UNL     1     111.878 121.879 127.343  1.00  0.00     0.008 C 
BRANCH   9  11
ATOM     11  C   UNL     1     110.715 119.990 126.005  1.00  0.00    -0.002 C 
ATOM     12  C   UNL     1     109.292 119.378 126.134  1.00  0.00     0.005 C 
ATOM     13  C   UNL     1     111.492 118.954 125.125  1.00  0.00    -0.026 C 
ATOM     14  C   UNL     1     109.379 117.905 125.701  1.00  0.00     0.005 C 
ATOM     15  C   UNL     1     110.871 117.623 125.565  1.00  0.00    -0.001 C 
ATOM     16  C   UNL     1     113.029 118.834 125.292  1.00  0.00     0.007 C 
ATOM     17  C   UNL     1     111.172 119.306 123.633  1.00  0.00     0.012 C 
ATOM     18  C   UNL     1     111.316 116.428 124.691  1.00  0.00     0.000 C 
ATOM     19  C   UNL     1     113.597 117.645 124.479  1.00  0.00     0.005 C 
ATOM     20  C   UNL     1     112.864 116.294 124.767  1.00  0.00     0.003 C 
ATOM     21  C   UNL     1     110.711 115.118 125.211  1.00  0.00     0.031 C 
ATOM     22  C   UNL     1     113.425 115.032 123.965  1.00  0.00    -0.008 C 
ATOM     23  C   UNL     1     111.138 113.989 124.332  1.00  0.00    -0.027 C 
ATOM     24  C   UNL     1     112.342 113.957 123.721  1.00  0.00    -0.065 C 
ATOM     25  C   UNL     1     113.968 115.436 122.564  1.00  0.00     0.014 C 
ATOM     26  C   UNL     1     114.567 114.424 124.820  1.00  0.00     0.016 C 
ATOM     27  C   UNL     1     112.491 112.936 122.609  1.00  0.00     0.063 C 
ATOM     28  C   UNL     1     114.483 114.275 121.682  1.00  0.00     0.033 C 
ATOM     29  C   UNL     1     113.886 112.881 121.973  1.00  0.00     0.118 C 
BRANCH  29  30
ATOM     30  O   UNL     1     113.823 112.153 120.773  1.00  0.00    -0.393 OA
ATOM     31  H   UNL     1     114.754 112.057 120.439  1.00  0.00     0.210 HD
ENDBRANCH  29  30
ENDBRANCH   9  11
ENDBRANCH   1   9
TORSDOF 7
ENDMDL
MODEL 2
REMARK VINA RESULT:    -6.951      3.467      7.058
REMARK INTER + INTRA:         -11.765
REMARK INTER:                  -9.149
REMARK INTRA:                  -2.617
REMARK UNBOUND:                -2.173
REMARK SMILES CC[C@H](CC[C@@H](C)[C@@H]1CC[C@H]2[C@@H]3CC=C4C[C@@H](O)CC[C@@]4(C)[C@H]3CC[C@@]21C)C(C)C
REMARK SMILES IDX 5 1 4 2 3 3 2 4 1 5 28 6 29 7 30 8 6 9 7 10 8 11 9 12 26 13
REMARK SMILES IDX 10 14 11 15 25 16 27 17 12 18 24 19 23 20 13 21 21 22 14 23
REMARK SMILES IDX 15 24 20 25 22 26 16 27 19 28 17 29 18 30
REMARK H PARENT 18 31
REMARK Flexibility Score: inf
ROOT
ATOM      1  C   UNL     1     111.458 115.870 123.923  1.00  0.00     0.004 C 
ENDROOT
BRANCH   1   2
ATOM      2  C   UNL     1     112.567 115.586 124.963  1.00  0.00     0.004 C 
BRANCH   2   3
ATOM      3  C   UNL     1     113.427 116.841 125.322  1.00  0.00    -0.009 C 
BRANCH   3   4
ATOM      4  C   UNL     1     114.376 116.498 126.510  1.00  0.00     0.000 C 
ATOM      5  C   UNL     1     113.958 117.146 127.829  1.00  0.00     0.004 C 
ENDBRANCH   3   4
BRANCH   3   6
ATOM      6  C   UNL     1     114.251 117.460 124.120  1.00  0.00    -0.014 C 
ATOM      7  C   UNL     1     115.060 116.371 123.393  1.00  0.00     0.007 C 
ATOM      8  C   UNL     1     115.200 118.620 124.473  1.00  0.00     0.007 C 
ENDBRANCH   3   6
ENDBRANCH   2   3
ENDBRANCH   1   2
BRANCH   1   9
ATOM      9  C   UNL     1     110.060 116.113 124.565  1.00  0.00    -0.011 C 
ATOM     10  C   UNL     1     109.998 115.621 126.026  1.00  0.00     0.008 C 
BRANCH   9  11
ATOM     11  C   UNL     1     109.471 117.560 124.392  1.00  0.00    -0.002 C 
ATOM     12  C   UNL     1     109.509 118.030 122.911  1.00  0.00     0.005 C 
ATOM     13  C   UNL     1     110.065 118.772 125.187  1.00  0.00    -0.026 C 
ATOM     14  C   UNL     1     110.436 119.254 122.835  1.00  0.00     0.005 C 
ATOM     15  C   UNL     1     111.104 119.326 124.204  1.00  0.00    -0.001 C 
ATOM     16  C   UNL     1     110.788 118.502 126.532  1.00  0.00     0.007 C 
ATOM     17  C   UNL     1     108.882 119.765 125.439  1.00  0.00     0.012 C 
ATOM     18  C   UNL     1     111.707 120.676 124.657  1.00  0.00     0.000 C 
ATOM     19  C   UNL     1     111.463 119.783 127.080  1.00  0.00     0.005 C 
ATOM     20  C   UNL     1     112.396 120.484 126.039  1.00  0.00     0.003 C 
ATOM     21  C   UNL     1     112.778 121.153 123.667  1.00  0.00     0.031 C 
ATOM     22  C   UNL     1     113.130 121.802 126.562  1.00  0.00    -0.008 C 
ATOM     23  C   UNL     1     113.322 122.468 124.118  1.00  0.00    -0.027 C 
ATOM     24  C   UNL     1     113.442 122.799 125.423  1.00  0.00    -0.065 C 
ATOM     25  C   UNL     1     112.259 122.574 127.595  1.00  0.00     0.014 C 
ATOM     26  C   UNL     1     114.456 121.348 127.224  1.00  0.00     0.016 C 
ATOM     27  C   UNL     1     113.680 124.268 125.713  1.00  0.00     0.063 C 
ATOM     28  C   UNL     1     112.856 123.899 128.122  1.00  0.00     0.033 C 
ATOM     29  C   UNL     1     113.871 124.605 127.197  1.00  0.00     0.118 C 
BRANCH  29  30
ATOM     30  O   UNL     1     113.763 125.994 127.378  1.00  0.00    -0.393 OA
ATOM     31  H   UNL     1     114.305 126.229 128.176  1.00  0.00     0.210 HD
ENDBRANCH  29  30
ENDBRANCH   9  11
ENDBRANCH   1   9
TORSDOF 7
ENDMDL
MODEL 3
REMARK VINA RESULT:    -6.852      3.290      5.661
REMARK INTER + INTRA:         -11.628
REMARK INTER:                  -9.235
REMARK INTRA:                  -2.393
REMARK UNBOUND:                -2.173
REMARK SMILES CC[C@H](CC[C@@H](C)[C@@H]1CC[C@H]2[C@@H]3CC=C4C[C@@H](O)CC[C@@]4(C)[C@H]3CC[C@@]21C)C(C)C
REMARK SMILES IDX 5 1 4 2 3 3 2 4 1 5 28 6 29 7 30 8 6 9 7 10 8 11 9 12 26 13
REMARK SMILES IDX 10 14 11 15 25 16 27 17 12 18 24 19 23 20 13 21 21 22 14 23
REMARK SMILES IDX 15 24 20 25 22 26 16 27 19 28 17 29 18 30
REMARK H PARENT 18 31
REMARK Flexibility Score: inf
ROOT
ATOM      1  C   UNL     1     111.730 115.614 129.284  1.00  0.00     0.004 C 
ENDROOT
BRANCH   1   2
ATOM      2  C   UNL     1     112.596 116.157 130.445  1.00  0.00     0.004 C 
BRANCH   2   3
ATOM      3  C   UNL     1     114.110 116.301 130.084  1.00  0.00    -0.009 C 
BRANCH   3   4
ATOM      4  C   UNL     1     114.666 114.921 129.619  1.00  0.00     0.000 C 
ATOM      5  C   UNL     1     114.774 113.897 130.749  1.00  0.00     0.004 C 
ENDBRANCH   3   4
BRANCH   3   6
ATOM      6  C   UNL     1     114.446 117.418 129.015  1.00  0.00    -0.014 C 
ATOM      7  C   UNL     1     115.119 116.803 127.775  1.00  0.00     0.007 C 
ATOM      8  C   UNL     1     115.311 118.593 129.507  1.00  0.00     0.007 C 
ENDBRANCH   3   6
ENDBRANCH   2   3
ENDBRANCH   1   2
BRANCH   1   9
ATOM      9  C   UNL     1     110.286 116.196 129.267  1.00  0.00    -0.011 C 
ATOM     10  C   UNL     1     110.002 117.079 130.500  1.00  0.00     0.008 C 
BRANCH   9  11
ATOM     11  C   UNL     1     109.840 116.880 127.923  1.00  0.00    -0.002 C 
ATOM     12  C   UNL     1     109.946 115.909 126.714  1.00  0.00     0.005 C 
ATOM     13  C   UNL     1     110.535 118.189 127.416  1.00  0.00    -0.026 C 
ATOM     14  C   UNL     1     110.986 116.488 125.742  1.00  0.00     0.005 C 
ATOM     15  C   UNL     1     111.636 117.639 126.502  1.00  0.00    -0.001 C 
ATOM     16  C   UNL     1     111.207 119.128 128.450  1.00  0.00     0.007 C 
ATOM     17  C   UNL     1     109.447 118.997 126.632  1.00  0.00     0.012 C 
ATOM     18  C   UNL     1     112.358 118.740 125.692  1.00  0.00     0.000 C 
ATOM     19  C   UNL     1     111.992 120.268 127.756  1.00  0.00     0.005 C 
ATOM     20  C   UNL     1     113.004 119.754 126.679  1.00  0.00     0.003 C 
ATOM     21  C   UNL     1     113.484 118.139 124.841  1.00  0.00     0.031 C 
ATOM     22  C   UNL     1     113.851 120.891 125.945  1.00  0.00    -0.008 C 
ATOM     23  C   UNL     1     114.144 119.223 124.053  1.00  0.00    -0.027 C 
ATOM     24  C   UNL     1     114.274 120.485 124.516  1.00  0.00    -0.065 C 
ATOM     25  C   UNL     1     113.041 122.213 125.806  1.00  0.00     0.014 C 
ATOM     26  C   UNL     1     115.118 121.136 126.805  1.00  0.00     0.016 C 
ATOM     27  C   UNL     1     114.647 121.532 123.483  1.00  0.00     0.063 C 
ATOM     28  C   UNL     1     113.754 123.362 125.056  1.00  0.00     0.033 C 
ATOM     29  C   UNL     1     114.846 122.945 124.047  1.00  0.00     0.118 C 
BRANCH  29  30
ATOM     30  O   UNL     1     114.867 123.870 122.990  1.00  0.00    -0.393 OA
ATOM     31  H   UNL     1     114.928 124.775 123.394  1.00  0.00     0.210 HD
ENDBRANCH  29  30
ENDBRANCH   9  11
ENDBRANCH   1   9
TORSDOF 7
ENDMDL
MODEL 4
REMARK VINA RESULT:    -6.744      3.727      7.679
REMARK INTER + INTRA:         -11.480
REMARK INTER:                  -9.187
REMARK INTRA:                  -2.293
REMARK UNBOUND:                -2.173
REMARK SMILES CC[C@H](CC[C@@H](C)[C@@H]1CC[C@H]2[C@@H]3CC=C4C[C@@H](O)CC[C@@]4(C)[C@H]3CC[C@@]21C)C(C)C
REMARK SMILES IDX 5 1 4 2 3 3 2 4 1 5 28 6 29 7 30 8 6 9 7 10 8 11 9 12 26 13
REMARK SMILES IDX 10 14 11 15 25 16 27 17 12 18 24 19 23 20 13 21 21 22 14 23
REMARK SMILES IDX 15 24 20 25 22 26 16 27 19 28 17 29 18 30
REMARK H PARENT 18 31
REMARK Flexibility Score: inf
ROOT
ATOM      1  C   UNL     1     112.219 117.065 124.849  1.00  0.00     0.004 C 
ENDROOT
BRANCH   1   2
ATOM      2  C   UNL     1     110.699 116.779 124.821  1.00  0.00     0.004 C 
BRANCH   2   3
ATOM      3  C   UNL     1     109.821 118.063 124.662  1.00  0.00    -0.009 C 
BRANCH   3   4
ATOM      4  C   UNL     1     109.456 118.619 126.072  1.00  0.00     0.000 C 
ATOM      5  C   UNL     1     109.162 117.526 127.099  1.00  0.00     0.004 C 
ENDBRANCH   3   4
BRANCH   3   6
ATOM      6  C   UNL     1     110.453 119.205 123.767  1.00  0.00    -0.014 C 
ATOM      7  C   UNL     1     110.526 120.531 124.544  1.00  0.00     0.007 C 
ATOM      8  C   UNL     1     109.764 119.469 122.415  1.00  0.00     0.007 C 
ENDBRANCH   3   6
ENDBRANCH   2   3
ENDBRANCH   1   2
BRANCH   1   9
ATOM      9  C   UNL     1     112.980 116.246 125.934  1.00  0.00    -0.011 C 
ATOM     10  C   UNL     1     113.999 115.267 125.314  1.00  0.00     0.008 C 
BRANCH   9  11
ATOM     11  C   UNL     1     113.592 117.081 127.117  1.00  0.00    -0.002 C 
ATOM     12  C   UNL     1     112.598 117.221 128.304  1.00  0.00     0.005 C 
ATOM     13  C   UNL     1     114.112 118.540 126.888  1.00  0.00    -0.026 C 
ATOM     14  C   UNL     1     112.273 118.715 128.465  1.00  0.00     0.005 C 
ATOM     15  C   UNL     1     112.879 119.383 127.236  1.00  0.00    -0.001 C 
ATOM     16  C   UNL     1     114.580 118.954 125.469  1.00  0.00     0.007 C 
ATOM     17  C   UNL     1     115.294 118.756 127.892  1.00  0.00     0.012 C 
ATOM     18  C   UNL     1     113.178 120.899 127.296  1.00  0.00     0.000 C 
ATOM     19  C   UNL     1     114.886 120.470 125.391  1.00  0.00     0.005 C 
ATOM     20  C   UNL     1     113.714 121.365 125.912  1.00  0.00     0.003 C 
ATOM     21  C   UNL     1     111.900 121.694 127.591  1.00  0.00     0.031 C 
ATOM     22  C   UNL     1     113.974 122.938 125.837  1.00  0.00    -0.008 C 
ATOM     23  C   UNL     1     112.226 123.150 127.667  1.00  0.00    -0.027 C 
ATOM     24  C   UNL     1     113.195 123.720 126.918  1.00  0.00    -0.065 C 
ATOM     25  C   UNL     1     115.478 123.283 126.044  1.00  0.00     0.014 C 
ATOM     26  C   UNL     1     113.513 123.407 124.433  1.00  0.00     0.016 C 
ATOM     27  C   UNL     1     113.633 125.106 127.350  1.00  0.00     0.063 C 
ATOM     28  C   UNL     1     115.829 124.789 126.046  1.00  0.00     0.033 C 
ATOM     29  C   UNL     1     114.691 125.753 126.447  1.00  0.00     0.118 C 
BRANCH  29  30
ATOM     30  O   UNL     1     115.247 126.865 127.102  1.00  0.00    -0.393 OA
ATOM     31  H   UNL     1     115.896 126.518 127.769  1.00  0.00     0.210 HD
ENDBRANCH  29  30
ENDBRANCH   9  11
ENDBRANCH   1   9
TORSDOF 7
ENDMDL
MODEL 5
REMARK VINA RESULT:    -6.655      2.942      5.628
REMARK INTER + INTRA:         -11.358
REMARK INTER:                  -8.985
REMARK INTRA:                  -2.372
REMARK UNBOUND:                -2.173
REMARK SMILES CC[C@H](CC[C@@H](C)[C@@H]1CC[C@H]2[C@@H]3CC=C4C[C@@H](O)CC[C@@]4(C)[C@H]3CC[C@@]21C)C(C)C
REMARK SMILES IDX 5 1 4 2 3 3 2 4 1 5 28 6 29 7 30 8 6 9 7 10 8 11 9 12 26 13
REMARK SMILES IDX 10 14 11 15 25 16 27 17 12 18 24 19 23 20 13 21 21 22 14 23
REMARK SMILES IDX 15 24 20 25 22 26 16 27 19 28 17 29 18 30
REMARK H PARENT 18 31
REMARK Flexibility Score: inf
ROOT
ATOM      1  C   UNL     1     110.222 115.928 126.302  1.00  0.00     0.004 C 
ENDROOT
BRANCH   1   2
ATOM      2  C   UNL     1     109.614 116.253 124.917  1.00  0.00     0.004 C 
BRANCH   2   3
ATOM      3  C   UNL     1     110.540 115.864 123.719  1.00  0.00    -0.009 C 
BRANCH   3   4
ATOM      4  C   UNL     1     110.984 117.155 122.966  1.00  0.00     0.000 C 
ATOM      5  C   UNL     1     109.883 118.212 122.872  1.00  0.00     0.004 C 
ENDBRANCH   3   4
BRANCH   3   6
ATOM      6  C   UNL     1     111.802 114.987 124.098  1.00  0.00    -0.014 C 
ATOM      7  C   UNL     1     113.021 115.387 123.248  1.00  0.00     0.007 C 
ATOM      8  C   UNL     1     111.623 113.461 124.007  1.00  0.00     0.007 C 
ENDBRANCH   3   6
ENDBRANCH   2   3
ENDBRANCH   1   2
BRANCH   1   9
ATOM      9  C   UNL     1     109.613 116.778 127.457  1.00  0.00    -0.011 C 
ATOM     10  C   UNL     1     109.260 115.917 128.688  1.00  0.00     0.008 C 
BRANCH   9  11
ATOM     11  C   UNL     1     110.408 118.079 127.841  1.00  0.00    -0.002 C 
ATOM     12  C   UNL     1     109.664 119.368 127.392  1.00  0.00     0.005 C 
ATOM     13  C   UNL     1     111.877 118.301 127.346  1.00  0.00    -0.026 C 
ATOM     14  C   UNL     1     110.551 120.082 126.361  1.00  0.00     0.005 C 
ATOM     15  C   UNL     1     111.666 119.090 126.048  1.00  0.00    -0.001 C 
ATOM     16  C   UNL     1     112.748 117.064 127.008  1.00  0.00     0.007 C 
ATOM     17  C   UNL     1     112.599 119.141 128.452  1.00  0.00     0.012 C 
ATOM     18  C   UNL     1     112.984 119.631 125.447  1.00  0.00     0.000 C 
ATOM     19  C   UNL     1     114.096 117.476 126.368  1.00  0.00     0.005 C 
ATOM     20  C   UNL     1     113.931 118.434 125.143  1.00  0.00     0.003 C 
ATOM     21  C   UNL     1     112.719 120.360 124.123  1.00  0.00     0.031 C 
ATOM     22  C   UNL     1     115.293 118.876 124.436  1.00  0.00    -0.008 C 
ATOM     23  C   UNL     1     114.005 120.892 123.582  1.00  0.00    -0.027 C 
ATOM     24  C   UNL     1     115.186 120.259 123.757  1.00  0.00    -0.065 C 
ATOM     25  C   UNL     1     116.464 118.975 125.456  1.00  0.00     0.014 C 
ATOM     26  C   UNL     1     115.615 117.802 123.365  1.00  0.00     0.016 C 
ATOM     27  C   UNL     1     116.426 121.080 123.456  1.00  0.00     0.063 C 
ATOM     28  C   UNL     1     117.818 119.452 124.881  1.00  0.00     0.033 C 
ATOM     29  C   UNL     1     117.749 120.319 123.605  1.00  0.00     0.118 C 
BRANCH  29  30
ATOM     30  O   UNL     1     118.815 121.235 123.619  1.00  0.00    -0.393 OA
ATOM     31  H   UNL     1     118.770 121.750 122.771  1.00  0.00     0.210 HD
ENDBRANCH  29  30
ENDBRANCH   9  11
ENDBRANCH   1   9
TORSDOF 7
ENDMDL
MODEL 6
REMARK VINA RESULT:    -6.614      3.302      6.533
REMARK INTER + INTRA:         -11.300
REMARK INTER:                  -9.397
REMARK INTRA:                  -1.903
REMARK UNBOUND:                -2.173
REMARK SMILES CC[C@H](CC[C@@H](C)[C@@H]1CC[C@H]2[C@@H]3CC=C4C[C@@H](O)CC[C@@]4(C)[C@H]3CC[C@@]21C)C(C)C
REMARK SMILES IDX 5 1 4 2 3 3 2 4 1 5 28 6 29 7 30 8 6 9 7 10 8 11 9 12 26 13
REMARK SMILES IDX 10 14 11 15 25 16 27 17 12 18 24 19 23 20 13 21 21 22 14 23
REMARK SMILES IDX 15 24 20 25 22 26 16 27 19 28 17 29 18 30
REMARK H PARENT 18 31
REMARK Flexibility Score: inf
ROOT
ATOM      1  C   UNL     1     110.232 116.580 125.663  1.00  0.00     0.004 C 
ENDROOT
BRANCH   1   2
ATOM      2  C   UNL     1     109.661 116.737 127.093  1.00  0.00     0.004 C 
BRANCH   2   3
ATOM      3  C   UNL     1     110.754 117.004 128.179  1.00  0.00    -0.009 C 
BRANCH   3   4
ATOM      4  C   UNL     1     110.796 118.527 128.509  1.00  0.00     0.000 C 
ATOM      5  C   UNL     1     109.912 119.373 127.593  1.00  0.00     0.004 C 
ENDBRANCH   3   4
BRANCH   3   6
ATOM      6  C   UNL     1     110.605 116.157 129.507  1.00  0.00    -0.014 C 
ATOM      7  C   UNL     1     110.033 117.021 130.646  1.00  0.00     0.007 C 
ATOM      8  C   UNL     1     111.880 115.460 130.017  1.00  0.00     0.007 C 
ENDBRANCH   3   6
ENDBRANCH   2   3
ENDBRANCH   1   2
BRANCH   1   9
ATOM      9  C   UNL     1     111.314 115.465 125.552  1.00  0.00    -0.011 C 
ATOM     10  C   UNL     1     110.873 114.320 124.615  1.00  0.00     0.008 C 
BRANCH   9  11
ATOM     11  C   UNL     1     112.776 115.958 125.250  1.00  0.00    -0.002 C 
ATOM     12  C   UNL     1     113.754 115.618 126.410  1.00  0.00     0.005 C 
ATOM     13  C   UNL     1     113.070 117.464 124.939  1.00  0.00    -0.026 C 
ATOM     14  C   UNL     1     114.272 116.946 126.985  1.00  0.00     0.005 C 
ATOM     15  C   UNL     1     113.414 118.021 126.326  1.00  0.00    -0.001 C 
ATOM     16  C   UNL     1     111.936 118.341 124.349  1.00  0.00     0.007 C 
ATOM     17  C   UNL     1     114.290 117.488 123.959  1.00  0.00     0.012 C 
ATOM     18  C   UNL     1     113.957 119.468 126.281  1.00  0.00     0.000 C 
ATOM     19  C   UNL     1     112.350 119.832 124.277  1.00  0.00     0.005 C 
ATOM     20  C   UNL     1     112.883 120.391 125.637  1.00  0.00     0.003 C 
ATOM     21  C   UNL     1     114.230 119.991 127.696  1.00  0.00     0.031 C 
ATOM     22  C   UNL     1     113.308 121.930 125.619  1.00  0.00    -0.008 C 
ATOM     23  C   UNL     1     114.775 121.379 127.618  1.00  0.00    -0.027 C 
ATOM     24  C   UNL     1     114.407 122.253 126.655  1.00  0.00    -0.065 C 
ATOM     25  C   UNL     1     113.872 122.355 124.232  1.00  0.00     0.014 C 
ATOM     26  C   UNL     1     112.036 122.754 125.947  1.00  0.00     0.016 C 
ATOM     27  C   UNL     1     115.288 123.479 126.505  1.00  0.00     0.063 C 
ATOM     28  C   UNL     1     114.367 123.816 124.126  1.00  0.00     0.033 C 
ATOM     29  C   UNL     1     114.813 124.482 125.446  1.00  0.00     0.118 C 
BRANCH  29  30
ATOM     30  O   UNL     1     115.847 125.393 125.170  1.00  0.00    -0.393 OA
ATOM     31  H   UNL     1     115.432 126.292 125.093  1.00  0.00     0.210 HD
ENDBRANCH  29  30
ENDBRANCH   9  11
ENDBRANCH   1   9
TORSDOF 7
ENDMDL
MODEL 7
REMARK VINA RESULT:    -6.556      3.915      6.682
REMARK INTER + INTRA:         -11.221
REMARK INTER:                  -9.627
REMARK INTRA:                  -1.594
REMARK UNBOUND:                -2.173
REMARK SMILES CC[C@H](CC[C@@H](C)[C@@H]1CC[C@H]2[C@@H]3CC=C4C[C@@H](O)CC[C@@]4(C)[C@H]3CC[C@@]21C)C(C)C
REMARK SMILES IDX 5 1 4 2 3 3 2 4 1 5 28 6 29 7 30 8 6 9 7 10 8 11 9 12 26 13
REMARK SMILES IDX 10 14 11 15 25 16 27 17 12 18 24 19 23 20 13 21 21 22 14 23
REMARK SMILES IDX 15 24 20 25 22 26 16 27 19 28 17 29 18 30
REMARK H PARENT 18 31
REMARK Flexibility Score: inf
ROOT
ATOM      1  C   UNL     1     109.053 117.737 127.025  1.00  0.00     0.004 C 
ENDROOT
BRANCH   1   2
ATOM      2  C   UNL     1     109.923 117.937 128.289  1.00  0.00     0.004 C 
BRANCH   2   3
ATOM      3  C   UNL     1     110.988 116.813 128.501  1.00  0.00    -0.009 C 
BRANCH   3   4
ATOM      4  C   UNL     1     112.416 117.439 128.477  1.00  0.00     0.000 C 
ATOM      5  C   UNL     1     113.104 117.332 127.116  1.00  0.00     0.004 C 
ENDBRANCH   3   4
BRANCH   3   6
ATOM      6  C   UNL     1     110.794 115.936 129.805  1.00  0.00    -0.014 C 
ATOM      7  C   UNL     1     110.046 116.731 130.891  1.00  0.00     0.007 C 
ATOM      8  C   UNL     1     112.074 115.348 130.426  1.00  0.00     0.007 C 
ENDBRANCH   3   6
ENDBRANCH   2   3
ENDBRANCH   1   2
BRANCH   1   9
ATOM      9  C   UNL     1     109.881 117.709 125.706  1.00  0.00    -0.011 C 
ATOM     10  C   UNL     1     109.620 116.430 124.883  1.00  0.00     0.008 C 
BRANCH   9  11
ATOM     11  C   UNL     1     109.814 119.012 124.829  1.00  0.00    -0.002 C 
ATOM     12  C   UNL     1     110.144 118.725 123.337  1.00  0.00     0.005 C 
ATOM     13  C   UNL     1     110.691 120.262 125.174  1.00  0.00    -0.026 C 
ATOM     14  C   UNL     1     111.421 119.505 122.985  1.00  0.00     0.005 C 
ATOM     15  C   UNL     1     111.942 120.028 124.320  1.00  0.00    -0.001 C 
ATOM     16  C   UNL     1     111.154 120.469 126.639  1.00  0.00     0.007 C 
ATOM     17  C   UNL     1     109.876 121.519 124.720  1.00  0.00     0.012 C 
ATOM     18  C   UNL     1     112.905 121.238 124.309  1.00  0.00     0.000 C 
ATOM     19  C   UNL     1     112.153 121.647 126.759  1.00  0.00     0.005 C 
ATOM     20  C   UNL     1     113.358 121.537 125.767  1.00  0.00     0.003 C 
ATOM     21  C   UNL     1     114.162 120.926 123.488  1.00  0.00     0.031 C 
ATOM     22  C   UNL     1     114.426 122.720 125.862  1.00  0.00    -0.008 C 
ATOM     23  C   UNL     1     115.058 122.121 123.476  1.00  0.00    -0.027 C 
ATOM     24  C   UNL     1     115.152 122.971 124.522  1.00  0.00    -0.065 C 
ATOM     25  C   UNL     1     113.758 124.068 126.261  1.00  0.00     0.014 C 
ATOM     26  C   UNL     1     115.464 122.306 126.938  1.00  0.00     0.016 C 
ATOM     27  C   UNL     1     115.826 124.299 124.235  1.00  0.00     0.063 C 
ATOM     28  C   UNL     1     114.700 125.292 126.324  1.00  0.00     0.033 C 
ATOM     29  C   UNL     1     115.973 125.219 125.454  1.00  0.00     0.118 C 
BRANCH  29  30
ATOM     30  O   UNL     1     116.305 126.515 125.022  1.00  0.00    -0.393 OA
ATOM     31  H   UNL     1     115.471 127.054 125.045  1.00  0.00     0.210 HD
ENDBRANCH  29  30
ENDBRANCH   9  11
ENDBRANCH   1   9
TORSDOF 7
ENDMDL
MODEL 8
REMARK VINA RESULT:    -6.473      3.843      5.947
REMARK INTER + INTRA:         -11.105
REMARK INTER:                  -8.948
REMARK INTRA:                  -2.157
REMARK UNBOUND:                -2.173
REMARK SMILES CC[C@H](CC[C@@H](C)[C@@H]1CC[C@H]2[C@@H]3CC=C4C[C@@H](O)CC[C@@]4(C)[C@H]3CC[C@@]21C)C(C)C
REMARK SMILES IDX 5 1 4 2 3 3 2 4 1 5 28 6 29 7 30 8 6 9 7 10 8 11 9 12 26 13
REMARK SMILES IDX 10 14 11 15 25 16 27 17 12 18 24 19 23 20 13 21 21 22 14 23
REMARK SMILES IDX 15 24 20 25 22 26 16 27 19 28 17 29 18 30
REMARK H PARENT 18 31
REMARK Flexibility Score: inf
ROOT
ATOM      1  C   UNL     1     109.103 117.853 124.526  1.00  0.00     0.004 C 
ENDROOT
BRANCH   1   2
ATOM      2  C   UNL     1     109.368 116.352 124.261  1.00  0.00     0.004 C 
BRANCH   2   3
ATOM      3  C   UNL     1     110.049 115.614 125.459  1.00  0.00    -0.009 C 
BRANCH   3   4
ATOM      4  C   UNL     1     111.381 114.962 124.978  1.00  0.00     0.000 C 
ATOM      5  C   UNL     1     111.587 115.045 123.466  1.00  0.00     0.004 C 
ENDBRANCH   3   4
BRANCH   3   6
ATOM      6  C   UNL     1     110.304 116.504 126.743  1.00  0.00    -0.014 C 
ATOM      7  C   UNL     1     111.754 116.350 127.236  1.00  0.00     0.007 C 
ATOM      8  C   UNL     1     109.356 116.269 127.933  1.00  0.00     0.007 C 
ENDBRANCH   3   6
ENDBRANCH   2   3
ENDBRANCH   1   2
BRANCH   1   9
ATOM      9  C   UNL     1     110.191 118.786 123.917  1.00  0.00    -0.011 C 
ATOM     10  C   UNL     1     109.634 119.658 122.772  1.00  0.00     0.008 C 
BRANCH   9  11
ATOM     11  C   UNL     1     111.034 119.620 124.950  1.00  0.00    -0.002 C 
ATOM     12  C   UNL     1     110.808 121.149 124.784  1.00  0.00     0.005 C 
ATOM     13  C   UNL     1     112.591 119.475 125.024  1.00  0.00    -0.026 C 
ATOM     14  C   UNL     1     112.153 121.775 124.381  1.00  0.00     0.005 C 
ATOM     15  C   UNL     1     113.066 120.590 124.085  1.00  0.00    -0.001 C 
ATOM     16  C   UNL     1     113.242 118.151 124.547  1.00  0.00     0.007 C 
ATOM     17  C   UNL     1     112.994 119.727 126.515  1.00  0.00     0.012 C 
ATOM     18  C   UNL     1     114.595 120.812 124.131  1.00  0.00     0.000 C 
ATOM     19  C   UNL     1     114.787 118.254 124.522  1.00  0.00     0.005 C 
ATOM     20  C   UNL     1     115.310 119.492 123.722  1.00  0.00     0.003 C 
ATOM     21  C   UNL     1     115.018 121.897 123.134  1.00  0.00     0.031 C 
ATOM     22  C   UNL     1     116.899 119.635 123.652  1.00  0.00    -0.008 C 
ATOM     23  C   UNL     1     116.495 122.105 123.220  1.00  0.00    -0.027 C 
ATOM     24  C   UNL     1     117.356 121.103 123.503  1.00  0.00    -0.065 C 
ATOM     25  C   UNL     1     117.582 119.090 124.940  1.00  0.00     0.014 C 
ATOM     26  C   UNL     1     117.372 118.823 122.419  1.00  0.00     0.016 C 
ATOM     27  C   UNL     1     118.759 121.529 123.891  1.00  0.00     0.063 C 
ATOM     28  C   UNL     1     119.121 119.234 124.998  1.00  0.00     0.033 C 
ATOM     29  C   UNL     1     119.731 120.370 124.148  1.00  0.00     0.118 C 
BRANCH  29  30
ATOM     30  O   UNL     1     120.878 120.859 124.798  1.00  0.00    -0.393 OA
ATOM     31  H   UNL     1     121.486 120.087 124.938  1.00  0.00     0.210 HD
ENDBRANCH  29  30
ENDBRANCH   9  11
ENDBRANCH   1   9
TORSDOF 7
ENDMDL
MODEL 9
REMARK VINA RESULT:    -6.418      3.591      7.108
REMARK INTER + INTRA:         -11.030
REMARK INTER:                  -8.963
REMARK INTRA:                  -2.067
REMARK UNBOUND:                -2.173
REMARK SMILES CC[C@H](CC[C@@H](C)[C@@H]1CC[C@H]2[C@@H]3CC=C4C[C@@H](O)CC[C@@]4(C)[C@H]3CC[C@@]21C)C(C)C
REMARK SMILES IDX 5 1 4 2 3 3 2 4 1 5 28 6 29 7 30 8 6 9 7 10 8 11 9 12 26 13
REMARK SMILES IDX 10 14 11 15 25 16 27 17 12 18 24 19 23 20 13 21 21 22 14 23
REMARK SMILES IDX 15 24 20 25 22 26 16 27 19 28 17 29 18 30
REMARK H PARENT 18 31
REMARK Flexibility Score: inf
ROOT
ATOM      1  C   UNL     1     111.011 115.276 123.421  1.00  0.00     0.004 C 
ENDROOT
BRANCH   1   2
ATOM      2  C   UNL     1     111.867 114.883 124.648  1.00  0.00     0.004 C 
BRANCH   2   3
ATOM      3  C   UNL     1     113.258 114.275 124.275  1.00  0.00    -0.009 C 
BRANCH   3   4
ATOM      4  C   UNL     1     113.539 114.515 122.760  1.00  0.00     0.000 C 
ATOM      5  C   UNL     1     114.564 115.618 122.499  1.00  0.00     0.004 C 
ENDBRANCH   3   4
BRANCH   3   6
ATOM      6  C   UNL     1     114.474 114.789 125.148  1.00  0.00    -0.014 C 
ATOM      7  C   UNL     1     115.437 113.633 125.476  1.00  0.00     0.007 C 
ATOM      8  C   UNL     1     114.114 115.511 126.459  1.00  0.00     0.007 C 
ENDBRANCH   3   6
ENDBRANCH   2   3
ENDBRANCH   1   2
BRANCH   1   9
ATOM      9  C   UNL     1     110.539 116.760 123.449  1.00  0.00    -0.011 C 
ATOM     10  C   UNL     1     109.183 116.952 122.737  1.00  0.00     0.008 C 
BRANCH   9  11
ATOM     11  C   UNL     1     110.585 117.465 124.854  1.00  0.00    -0.002 C 
ATOM     12  C   UNL     1     109.258 118.209 125.174  1.00  0.00     0.005 C 
ATOM     13  C   UNL     1     111.696 118.516 125.192  1.00  0.00    -0.026 C 
ATOM     14  C   UNL     1     109.582 119.707 125.293  1.00  0.00     0.005 C 
ATOM     15  C   UNL     1     111.021 119.838 124.807  1.00  0.00    -0.001 C 
ATOM     16  C   UNL     1     113.049 118.442 124.439  1.00  0.00     0.007 C 
ATOM     17  C   UNL     1     111.966 118.401 126.730  1.00  0.00     0.012 C 
ATOM     18  C   UNL     1     111.832 121.081 125.239  1.00  0.00     0.000 C 
ATOM     19  C   UNL     1     113.950 119.657 124.769  1.00  0.00     0.005 C 
ATOM     20  C   UNL     1     113.232 121.032 124.562  1.00  0.00     0.003 C 
ATOM     21  C   UNL     1     111.139 122.369 124.778  1.00  0.00     0.031 C 
ATOM     22  C   UNL     1     114.125 122.319 124.873  1.00  0.00    -0.008 C 
ATOM     23  C   UNL     1     111.933 123.551 125.231  1.00  0.00    -0.027 C 
ATOM     24  C   UNL     1     113.280 123.529 125.328  1.00  0.00    -0.065 C 
ATOM     25  C   UNL     1     115.151 122.045 126.011  1.00  0.00     0.014 C 
ATOM     26  C   UNL     1     114.872 122.678 123.563  1.00  0.00     0.016 C 
ATOM     27  C   UNL     1     113.903 124.665 126.117  1.00  0.00     0.063 C 
ATOM     28  C   UNL     1     116.028 123.248 126.429  1.00  0.00     0.033 C 
ATOM     29  C   UNL     1     115.437 124.649 126.160  1.00  0.00     0.118 C 
BRANCH  29  30
ATOM     30  O   UNL     1     115.885 125.531 127.158  1.00  0.00    -0.393 OA
ATOM     31  H   UNL     1     115.591 126.443 126.895  1.00  0.00     0.210 HD
ENDBRANCH  29  30
ENDBRANCH   9  11
ENDBRANCH   1   9
TORSDOF 7
ENDMDL
