MODEL 1
REMARK VINA RESULT:    -3.356      0.000      0.000
REMARK INTER + INTRA:          -3.651
REMARK INTER:                  -3.651
REMARK INTRA:                   0.000
REMARK UNBOUND:                 0.000
REMARK SMILES [NH3+]CC(=O)[O-]
REMARK SMILES IDX 2 1 1 2 3 6 4 7 5 8
REMARK H PARENT 1 3 1 4 1 5
REMARK Flexibility Score: inf
ROOT
ATOM      1  C   UNL     1      32.038  24.479  32.743  1.00  0.00     0.312 C 
ENDROOT
BRANCH   1   2
ATOM      2  N   UNL     1      31.465  24.772  31.430  1.00  0.00    -0.353 N 
ATOM      3  H   UNL     1      31.241  23.874  30.947  1.00  0.00     0.344 HD
ATOM      4  H   UNL     1      30.585  25.329  31.538  1.00  0.00     0.344 HD
ATOM      5  H   UNL     1      32.152  25.308  30.850  1.00  0.00     0.344 HD
ENDBRANCH   1   2
BRANCH   1   6
ATOM      6  C   UNL     1      33.469  24.919  32.804  1.00  0.00     0.096 C 
ATOM      7  O   UNL     1      33.792  26.075  32.424  1.00  0.00    -0.544 OA
ATOM      8  O   UNL     1      34.435  24.071  33.330  1.00  0.00    -0.544 OA
ENDBRANCH   1   6
TORSDOF 2
ENDMDL
MODEL 2
REMARK VINA RESULT:    -3.279      5.227      5.614
REMARK INTER + INTRA:          -3.567
REMARK INTER:                  -3.567
REMARK INTRA:                   0.000
REMARK UNBOUND:                 0.000
REMARK SMILES [NH3+]CC(=O)[O-]
REMARK SMILES IDX 2 1 1 2 3 6 4 7 5 8
REMARK H PARENT 1 3 1 4 1 5
REMARK Flexibility Score: inf
ROOT
ATOM      1  C   UNL     1      37.762  26.429  34.063  1.00  0.00     0.312 C 
ENDROOT
BRANCH   1   2
ATOM      2  N   UNL     1      37.187  27.534  33.298  1.00  0.00    -0.353 N 
ATOM      3  H   UNL     1      36.942  28.311  33.951  1.00  0.00     0.344 HD
ATOM      4  H   UNL     1      37.880  27.884  32.597  1.00  0.00     0.344 HD
ATOM      5  H   UNL     1      36.319  27.216  32.808  1.00  0.00     0.344 HD
ENDBRANCH   1   2
BRANCH   1   6
ATOM      6  C   UNL     1      37.327  26.495  35.495  1.00  0.00     0.096 C 
ATOM      7  O   UNL     1      36.287  25.892  35.869  1.00  0.00    -0.544 OA
ATOM      8  O   UNL     1      38.098  27.180  36.425  1.00  0.00    -0.544 OA
ENDBRANCH   1   6
TORSDOF 2
ENDMDL
MODEL 3
REMARK VINA RESULT:    -3.279      5.229      5.571
REMARK INTER + INTRA:          -3.566
REMARK INTER:                  -3.566
REMARK INTRA:                   0.000
REMARK UNBOUND:                 0.000
REMARK SMILES [NH3+]CC(=O)[O-]
REMARK SMILES IDX 2 1 1 2 3 6 4 7 5 8
REMARK H PARENT 1 3 1 4 1 5
REMARK Flexibility Score: inf
ROOT
ATOM      1  C   UNL     1      37.847  26.424  34.032  1.00  0.00     0.312 C 
ENDROOT
BRANCH   1   2
ATOM      2  N   UNL     1      37.181  27.505  33.307  1.00  0.00    -0.353 N 
ATOM      3  H   UNL     1      37.903  28.105  32.848  1.00  0.00     0.344 HD
ATOM      4  H   UNL     1      36.551  27.109  32.571  1.00  0.00     0.344 HD
ATOM      5  H   UNL     1      36.624  28.092  33.970  1.00  0.00     0.344 HD
ENDBRANCH   1   2
BRANCH   1   6
ATOM      6  C   UNL     1      37.433  26.421  35.472  1.00  0.00     0.096 C 
ATOM      7  O   UNL     1      38.085  27.085  36.320  1.00  0.00    -0.544 OA
ATOM      8  O   UNL     1      36.297  25.725  35.867  1.00  0.00    -0.544 OA
ENDBRANCH   1   6
TORSDOF 2
ENDMDL
MODEL 4
REMARK VINA RESULT:    -3.215      4.072      4.492
REMARK INTER + INTRA:          -3.496
REMARK INTER:                  -3.496
REMARK INTRA:                   0.000
REMARK UNBOUND:                 0.000
REMARK SMILES [NH3+]CC(=O)[O-]
REMARK SMILES IDX 2 1 1 2 3 6 4 7 5 8
REMARK H PARENT 1 3 1 4 1 5
REMARK Flexibility Score: inf
ROOT
ATOM      1  C   UNL     1      37.350  26.182  33.321  1.00  0.00     0.312 C 
ENDROOT
BRANCH   1   2
ATOM      2  N   UNL     1      37.185  27.635  33.296  1.00  0.00    -0.353 N 
ATOM      3  H   UNL     1      36.674  27.906  32.426  1.00  0.00     0.344 HD
ATOM      4  H   UNL     1      36.632  27.948  34.127  1.00  0.00     0.344 HD
ATOM      5  H   UNL     1      38.122  28.102  33.299  1.00  0.00     0.344 HD
ENDBRANCH   1   2
BRANCH   1   6
ATOM      6  C   UNL     1      36.244  25.539  34.101  1.00  0.00     0.096 C 
ATOM      7  O   UNL     1      35.345  24.888  33.506  1.00  0.00    -0.544 OA
ATOM      8  O   UNL     1      36.235  25.617  35.488  1.00  0.00    -0.544 OA
ENDBRANCH   1   6
TORSDOF 2
ENDMDL
MODEL 5
REMARK VINA RESULT:    -3.179      4.315      4.707
REMARK INTER + INTRA:          -3.458
REMARK INTER:                  -3.458
REMARK INTRA:                   0.000
REMARK UNBOUND:                 0.000
REMARK SMILES [NH3+]CC(=O)[O-]
REMARK SMILES IDX 2 1 1 2 3 6 4 7 5 8
REMARK H PARENT 1 3 1 4 1 5
REMARK Flexibility Score: inf
ROOT
ATOM      1  C   UNL     1      37.139  26.430  34.086  1.00  0.00     0.312 C 
ENDROOT
BRANCH   1   2
ATOM      2  N   UNL     1      37.205  27.662  33.301  1.00  0.00    -0.353 N 
ATOM      3  H   UNL     1      37.199  27.421  32.285  1.00  0.00     0.344 HD
ATOM      4  H   UNL     1      36.377  28.267  33.511  1.00  0.00     0.344 HD
ATOM      5  H   UNL     1      38.086  28.181  33.522  1.00  0.00     0.344 HD
ENDBRANCH   1   2
BRANCH   1   6
ATOM      6  C   UNL     1      37.031  25.237  33.187  1.00  0.00     0.096 C 
ATOM      7  O   UNL     1      38.010  24.890  32.475  1.00  0.00    -0.544 OA
ATOM      8  O   UNL     1      35.866  24.479  33.174  1.00  0.00    -0.544 OA
ENDBRANCH   1   6
TORSDOF 2
ENDMDL
MODEL 6
REMARK VINA RESULT:    -3.178     16.535     16.986
REMARK INTER + INTRA:          -3.456
REMARK INTER:                  -3.456
REMARK INTRA:                   0.000
REMARK UNBOUND:                 0.000
REMARK SMILES [NH3+]CC(=O)[O-]
REMARK SMILES IDX 2 1 1 2 3 6 4 7 5 8
REMARK H PARENT 1 3 1 4 1 5
REMARK Flexibility Score: inf
ROOT
ATOM      1  C   UNL     1      21.326  12.593  37.090  1.00  0.00     0.312 C 
ENDROOT
BRANCH   1   2
ATOM      2  N   UNL     1      22.756  12.299  37.008  1.00  0.00    -0.353 N 
ATOM      3  H   UNL     1      23.276  12.956  37.631  1.00  0.00     0.344 HD
ATOM      4  H   UNL     1      22.939  11.317  37.320  1.00  0.00     0.344 HD
ATOM      5  H   UNL     1      23.092  12.425  36.025  1.00  0.00     0.344 HD
ENDBRANCH   1   2
BRANCH   1   6
ATOM      6  C   UNL     1      20.960  13.701  36.152  1.00  0.00     0.096 C 
ATOM      7  O   UNL     1      20.070  13.524  35.279  1.00  0.00    -0.544 OA
ATOM      8  O   UNL     1      21.565  14.945  36.275  1.00  0.00    -0.544 OA
ENDBRANCH   1   6
TORSDOF 2
ENDMDL
MODEL 7
REMARK VINA RESULT:    -3.122     14.390     14.725
REMARK INTER + INTRA:          -3.396
REMARK INTER:                  -3.396
REMARK INTRA:                   0.000
REMARK UNBOUND:                 0.000
REMARK SMILES [NH3+]CC(=O)[O-]
REMARK SMILES IDX 2 1 1 2 3 6 4 7 5 8
REMARK H PARENT 1 3 1 4 1 5
REMARK Flexibility Score: inf
ROOT
ATOM      1  C   UNL     1      19.663  28.139  39.890  1.00  0.00     0.312 C 
ENDROOT
BRANCH   1   2
ATOM      2  N   UNL     1      19.402  27.392  41.119  1.00  0.00    -0.353 N 
ATOM      3  H   UNL     1      20.310  27.074  41.525  1.00  0.00     0.344 HD
ATOM      4  H   UNL     1      18.915  28.004  41.815  1.00  0.00     0.344 HD
ATOM      5  H   UNL     1      18.811  26.554  40.912  1.00  0.00     0.344 HD
ENDBRANCH   1   2
BRANCH   1   6
ATOM      6  C   UNL     1      21.084  27.957  39.453  1.00  0.00     0.096 C 
ATOM      7  O   UNL     1      21.440  26.891  38.885  1.00  0.00    -0.544 OA
ATOM      8  O   UNL     1      22.002  28.985  39.628  1.00  0.00    -0.544 OA
ENDBRANCH   1   6
TORSDOF 2
ENDMDL
MODEL 8
REMARK VINA RESULT:    -3.061      5.469      5.842
REMARK INTER + INTRA:          -3.330
REMARK INTER:                  -3.330
REMARK INTRA:                   0.000
REMARK UNBOUND:                 0.000
REMARK SMILES [NH3+]CC(=O)[O-]
REMARK SMILES IDX 2 1 1 2 3 6 4 7 5 8
REMARK H PARENT 1 3 1 4 1 5
REMARK Flexibility Score: inf
ROOT
ATOM      1  C   UNL     1      37.177  27.449  36.673  1.00  0.00     0.312 C 
ENDROOT
BRANCH   1   2
ATOM      2  N   UNL     1      35.819  27.858  37.027  1.00  0.00    -0.353 N 
ATOM      3  H   UNL     1      35.866  28.696  37.651  1.00  0.00     0.344 HD
ATOM      4  H   UNL     1      35.282  28.107  36.164  1.00  0.00     0.344 HD
ATOM      5  H   UNL     1      35.331  27.084  37.535  1.00  0.00     0.344 HD
ENDBRANCH   1   2
BRANCH   1   6
ATOM      6  C   UNL     1      37.151  26.427  35.578  1.00  0.00     0.096 C 
ATOM      7  O   UNL     1      36.224  25.576  35.528  1.00  0.00    -0.544 OA
ATOM      8  O   UNL     1      38.123  26.447  34.586  1.00  0.00    -0.544 OA
ENDBRANCH   1   6
TORSDOF 2
ENDMDL
MODEL 9
REMARK VINA RESULT:    -2.932      4.394      4.842
REMARK INTER + INTRA:          -3.189
REMARK INTER:                  -3.189
REMARK INTRA:                   0.000
REMARK UNBOUND:                 0.000
REMARK SMILES [NH3+]CC(=O)[O-]
REMARK SMILES IDX 2 1 1 2 3 6 4 7 5 8
REMARK H PARENT 1 3 1 4 1 5
REMARK Flexibility Score: inf
ROOT
ATOM      1  C   UNL     1      38.125  25.362  32.537  1.00  0.00     0.312 C 
ENDROOT
BRANCH   1   2
ATOM      2  N   UNL     1      38.015  23.966  32.114  1.00  0.00    -0.353 N 
ATOM      3  H   UNL     1      38.556  23.365  32.775  1.00  0.00     0.344 HD
ATOM      4  H   UNL     1      37.012  23.666  32.124  1.00  0.00     0.344 HD
ATOM      5  H   UNL     1      38.408  23.851  31.151  1.00  0.00     0.344 HD
ENDBRANCH   1   2
BRANCH   1   6
ATOM      6  C   UNL     1      36.997  25.727  33.452  1.00  0.00     0.096 C 
ATOM      7  O   UNL     1      37.217  25.944  34.673  1.00  0.00    -0.544 OA
ATOM      8  O   UNL     1      35.712  25.877  32.946  1.00  0.00    -0.544 OA
ENDBRANCH   1   6
TORSDOF 2
ENDMDL
