MODEL 1
REMARK VINA RESULT:    -4.545      0.000      0.000
REMARK INTER + INTRA:          -6.677
REMARK INTER:                  -6.139
REMARK INTRA:                  -0.538
REMARK UNBOUND:                -0.538
REMARK SMILES C[C@H](O)[C@@H](O)[C@H](O)[C@H](O)C=O
REMARK SMILES IDX 4 1 2 2 1 3 3 4 6 6 8 7 10 8 11 9 9 10 7 12 5 14
REMARK H PARENT 3 5 9 11 7 13 5 15
REMARK Flexibility Score: inf
ROOT
ATOM      1  C   UNL     1     -20.635 -26.648   0.785  1.00  0.00     0.174 C 
ENDROOT
BRANCH   1   2
ATOM      2  C   UNL     1     -21.343 -25.281   0.637  1.00  0.00     0.142 C 
ATOM      3  C   UNL     1     -22.783 -25.454   0.137  1.00  0.00     0.041 C 
BRANCH   2   4
ATOM      4  O   UNL     1     -20.629 -24.465  -0.255  1.00  0.00    -0.391 OA
ATOM      5  H   UNL     1     -21.163 -23.639  -0.381  1.00  0.00     0.211 HD
ENDBRANCH   2   4
ENDBRANCH   1   2
BRANCH   1   6
ATOM      6  C   UNL     1     -19.164 -26.649   0.273  1.00  0.00     0.181 C 
BRANCH   6   7
ATOM      7  C   UNL     1     -18.264 -27.725   0.953  1.00  0.00     0.209 C 
BRANCH   7   8
ATOM      8  C   UNL     1     -17.838 -27.306   2.338  1.00  0.00     0.258 C 
ATOM      9  O   UNL     1     -16.802 -26.683   2.510  1.00  0.00    -0.300 OA
ENDBRANCH   7   8
BRANCH   7  10
ATOM     10  O   UNL     1     -18.904 -28.976   1.021  1.00  0.00    -0.383 OA
ATOM     11  H   UNL     1     -18.980 -29.330   0.096  1.00  0.00     0.211 HD
ENDBRANCH   7  10
ENDBRANCH   6   7
BRANCH   6  12
ATOM     12  O   UNL     1     -19.160 -26.829  -1.124  1.00  0.00    -0.387 OA
ATOM     13  H   UNL     1     -18.955 -25.950  -1.538  1.00  0.00     0.211 HD
ENDBRANCH   6  12
ENDBRANCH   1   6
BRANCH   1  14
ATOM     14  O   UNL     1     -21.365 -27.617   0.072  1.00  0.00    -0.388 OA
ATOM     15  H   UNL     1     -20.738 -28.354  -0.150  1.00  0.00     0.211 HD
ENDBRANCH   1  14
TORSDOF 8
ENDMDL
MODEL 2
REMARK VINA RESULT:    -4.524      1.355      1.995
REMARK INTER + INTRA:          -6.649
REMARK INTER:                  -6.526
REMARK INTRA:                  -0.122
REMARK UNBOUND:                -0.538
REMARK SMILES C[C@H](O)[C@@H](O)[C@H](O)[C@H](O)C=O
REMARK SMILES IDX 4 1 2 2 1 3 3 4 6 6 8 7 10 8 11 9 9 10 7 12 5 14
REMARK H PARENT 3 5 9 11 7 13 5 15
REMARK Flexibility Score: inf
ROOT
ATOM      1  C   UNL     1     -19.879 -27.123   1.119  1.00  0.00     0.174 C 
ENDROOT
BRANCH   1   2
ATOM      2  C   UNL     1     -20.510 -26.200   0.051  1.00  0.00     0.142 C 
ATOM      3  C   UNL     1     -21.336 -25.083   0.701  1.00  0.00     0.041 C 
BRANCH   2   4
ATOM      4  O   UNL     1     -21.328 -26.950  -0.810  1.00  0.00    -0.391 OA
ATOM      5  H   UNL     1     -22.211 -27.035  -0.367  1.00  0.00     0.211 HD
ENDBRANCH   2   4
ENDBRANCH   1   2
BRANCH   1   6
ATOM      6  C   UNL     1     -18.357 -27.375   0.906  1.00  0.00     0.181 C 
BRANCH   6   7
ATOM      7  C   UNL     1     -17.469 -26.888   2.092  1.00  0.00     0.209 C 
BRANCH   7   8
ATOM      8  C   UNL     1     -17.953 -27.428   3.413  1.00  0.00     0.258 C 
ATOM      9  O   UNL     1     -17.224 -27.426   4.393  1.00  0.00    -0.300 OA
ENDBRANCH   7   8
BRANCH   7  10
ATOM     10  O   UNL     1     -16.118 -27.238   1.912  1.00  0.00    -0.383 OA
ATOM     11  H   UNL     1     -15.993 -28.159   2.262  1.00  0.00     0.211 HD
ENDBRANCH   7  10
ENDBRANCH   6   7
BRANCH   6  12
ATOM     12  O   UNL     1     -18.142 -28.747   0.674  1.00  0.00    -0.387 OA
ATOM     13  H   UNL     1     -18.511 -28.959  -0.223  1.00  0.00     0.211 HD
ENDBRANCH   6  12
ENDBRANCH   1   6
BRANCH   1  14
ATOM     14  O   UNL     1     -20.550 -28.359   1.104  1.00  0.00    -0.388 OA
ATOM     15  H   UNL     1     -20.268 -28.857   1.916  1.00  0.00     0.211 HD
ENDBRANCH   1  14
TORSDOF 8
ENDMDL
MODEL 3
REMARK VINA RESULT:    -4.505     15.430     16.728
REMARK INTER + INTRA:          -6.623
REMARK INTER:                  -6.501
REMARK INTRA:                  -0.122
REMARK UNBOUND:                -0.538
REMARK SMILES C[C@H](O)[C@@H](O)[C@H](O)[C@H](O)C=O
REMARK SMILES IDX 4 1 2 2 1 3 3 4 6 6 8 7 10 8 11 9 9 10 7 12 5 14
REMARK H PARENT 3 5 9 11 7 13 5 15
REMARK Flexibility Score: inf
ROOT
ATOM      1  C   UNL     1     -21.956 -28.068  17.097  1.00  0.00     0.174 C 
ENDROOT
BRANCH   1   2
ATOM      2  C   UNL     1     -22.922 -27.371  18.083  1.00  0.00     0.142 C 
ATOM      3  C   UNL     1     -24.055 -26.654  17.338  1.00  0.00     0.041 C 
BRANCH   2   4
ATOM      4  O   UNL     1     -22.218 -26.447  18.873  1.00  0.00    -0.391 OA
ATOM      5  H   UNL     1     -22.691 -25.579  18.791  1.00  0.00     0.211 HD
ENDBRANCH   2   4
ENDBRANCH   1   2
BRANCH   1   6
ATOM      6  C   UNL     1     -21.762 -29.587  17.380  1.00  0.00     0.181 C 
BRANCH   6   7
ATOM      7  C   UNL     1     -22.189 -30.505  16.195  1.00  0.00     0.209 C 
BRANCH   7   8
ATOM      8  C   UNL     1     -21.549 -30.080  14.897  1.00  0.00     0.258 C 
ATOM      9  O   UNL     1     -21.514 -30.839  13.941  1.00  0.00    -0.300 OA
ENDBRANCH   7   8
BRANCH   7  10
ATOM     10  O   UNL     1     -21.884 -31.856  16.444  1.00  0.00    -0.383 OA
ATOM     11  H   UNL     1     -21.831 -32.323  15.569  1.00  0.00     0.211 HD
ENDBRANCH   7  10
ENDBRANCH   6   7
BRANCH   6  12
ATOM     12  O   UNL     1     -20.415 -29.827  17.716  1.00  0.00    -0.387 OA
ATOM     13  H   UNL     1     -19.857 -29.216  17.166  1.00  0.00     0.211 HD
ENDBRANCH   6  12
ENDBRANCH   1   6
BRANCH   1  14
ATOM     14  O   UNL     1     -20.703 -27.430  17.162  1.00  0.00    -0.388 OA
ATOM     15  H   UNL     1     -20.394 -27.484  18.103  1.00  0.00     0.211 HD
ENDBRANCH   1  14
TORSDOF 8
ENDMDL
MODEL 4
REMARK VINA RESULT:    -4.443     16.543     17.623
REMARK INTER + INTRA:          -6.540
REMARK INTER:                  -6.236
REMARK INTRA:                  -0.304
REMARK UNBOUND:                -0.538
REMARK SMILES C[C@H](O)[C@@H](O)[C@H](O)[C@H](O)C=O
REMARK SMILES IDX 4 1 2 2 1 3 3 4 6 6 8 7 10 8 11 9 9 10 7 12 5 14
REMARK H PARENT 3 5 9 11 7 13 5 15
REMARK Flexibility Score: inf
ROOT
ATOM      1  C   UNL     1     -22.270 -28.778  17.554  1.00  0.00     0.174 C 
ENDROOT
BRANCH   1   2
ATOM      2  C   UNL     1     -21.335 -29.849  16.946  1.00  0.00     0.142 C 
ATOM      3  C   UNL     1     -22.127 -30.875  16.125  1.00  0.00     0.041 C 
BRANCH   2   4
ATOM      4  O   UNL     1     -20.630 -30.507  17.968  1.00  0.00    -0.391 OA
ATOM      5  H   UNL     1     -19.701 -30.161  17.945  1.00  0.00     0.211 HD
ENDBRANCH   2   4
ENDBRANCH   1   2
BRANCH   1   6
ATOM      6  C   UNL     1     -21.970 -27.333  17.057  1.00  0.00     0.181 C 
BRANCH   6   7
ATOM      7  C   UNL     1     -22.834 -26.238  17.756  1.00  0.00     0.209 C 
BRANCH   7   8
ATOM      8  C   UNL     1     -24.310 -26.497  17.589  1.00  0.00     0.258 C 
ATOM      9  O   UNL     1     -24.956 -25.897  16.743  1.00  0.00    -0.300 OA
ENDBRANCH   7   8
BRANCH   7  10
ATOM     10  O   UNL     1     -22.532 -26.129  19.125  1.00  0.00    -0.383 OA
ATOM     11  H   UNL     1     -23.389 -26.067  19.622  1.00  0.00     0.211 HD
ENDBRANCH   7  10
ENDBRANCH   6   7
BRANCH   6  12
ATOM     12  O   UNL     1     -20.602 -27.055  17.237  1.00  0.00    -0.387 OA
ATOM     13  H   UNL     1     -20.349 -27.377  18.142  1.00  0.00     0.211 HD
ENDBRANCH   6  12
ENDBRANCH   1   6
BRANCH   1  14
ATOM     14  O   UNL     1     -22.147 -28.811  18.956  1.00  0.00    -0.388 OA
ATOM     15  H   UNL     1     -22.698 -28.068  19.317  1.00  0.00     0.211 HD
ENDBRANCH   1  14
TORSDOF 8
ENDMDL
MODEL 5
REMARK VINA RESULT:    -4.428      1.241      4.223
REMARK INTER + INTRA:          -6.518
REMARK INTER:                  -5.985
REMARK INTRA:                  -0.533
REMARK UNBOUND:                -0.538
REMARK SMILES C[C@H](O)[C@@H](O)[C@H](O)[C@H](O)C=O
REMARK SMILES IDX 4 1 2 2 1 3 3 4 6 6 8 7 10 8 11 9 9 10 7 12 5 14
REMARK H PARENT 3 5 9 11 7 13 5 15
REMARK Flexibility Score: inf
ROOT
ATOM      1  C   UNL     1     -19.665 -26.773   0.874  1.00  0.00     0.174 C 
ENDROOT
BRANCH   1   2
ATOM      2  C   UNL     1     -18.691 -27.759   1.560  1.00  0.00     0.142 C 
ATOM      3  C   UNL     1     -17.456 -27.030   2.104  1.00  0.00     0.041 C 
BRANCH   2   4
ATOM      4  O   UNL     1     -18.289 -28.750   0.649  1.00  0.00    -0.391 OA
ATOM      5  H   UNL     1     -17.507 -28.389   0.158  1.00  0.00     0.211 HD
ENDBRANCH   2   4
ENDBRANCH   1   2
BRANCH   1   6
ATOM      6  C   UNL     1     -21.167 -27.112   1.113  1.00  0.00     0.181 C 
BRANCH   6   7
ATOM      7  C   UNL     1     -22.150 -26.067   0.501  1.00  0.00     0.209 C 
BRANCH   7   8
ATOM      8  C   UNL     1     -21.838 -24.666   0.963  1.00  0.00     0.258 C 
ATOM      9  O   UNL     1     -21.516 -23.802   0.161  1.00  0.00    -0.300 OA
ENDBRANCH   7   8
BRANCH   7  10
ATOM     10  O   UNL     1     -22.145 -26.106  -0.905  1.00  0.00    -0.383 OA
ATOM     11  H   UNL     1     -21.234 -26.371  -1.200  1.00  0.00     0.211 HD
ENDBRANCH   7  10
ENDBRANCH   6   7
BRANCH   6  12
ATOM     12  O   UNL     1     -21.441 -28.393   0.596  1.00  0.00    -0.387 OA
ATOM     13  H   UNL     1     -20.570 -28.835   0.418  1.00  0.00     0.211 HD
ENDBRANCH   6  12
ENDBRANCH   1   6
BRANCH   1  14
ATOM     14  O   UNL     1     -19.414 -26.777  -0.510  1.00  0.00    -0.388 OA
ATOM     15  H   UNL     1     -18.430 -26.839  -0.631  1.00  0.00     0.211 HD
ENDBRANCH   1  14
TORSDOF 8
ENDMDL
MODEL 6
REMARK VINA RESULT:    -4.420     16.091     17.529
REMARK INTER + INTRA:          -6.508
REMARK INTER:                  -6.161
REMARK INTRA:                  -0.347
REMARK UNBOUND:                -0.538
REMARK SMILES C[C@H](O)[C@@H](O)[C@H](O)[C@H](O)C=O
REMARK SMILES IDX 4 1 2 2 1 3 3 4 6 6 8 7 10 8 11 9 9 10 7 12 5 14
REMARK H PARENT 3 5 9 11 7 13 5 15
REMARK Flexibility Score: inf
ROOT
ATOM      1  C   UNL     1     -22.564 -28.548  17.720  1.00  0.00     0.174 C 
ENDROOT
BRANCH   1   2
ATOM      2  C   UNL     1     -21.446 -29.411  17.089  1.00  0.00     0.142 C 
ATOM      3  C   UNL     1     -22.033 -30.565  16.266  1.00  0.00     0.041 C 
BRANCH   2   4
ATOM      4  O   UNL     1     -20.613 -29.927  18.095  1.00  0.00    -0.391 OA
ATOM      5  H   UNL     1     -21.109 -30.669  18.528  1.00  0.00     0.211 HD
ENDBRANCH   2   4
ENDBRANCH   1   2
BRANCH   1   6
ATOM      6  C   UNL     1     -22.517 -27.053  17.287  1.00  0.00     0.181 C 
BRANCH   6   7
ATOM      7  C   UNL     1     -23.812 -26.258  17.638  1.00  0.00     0.209 C 
BRANCH   7   8
ATOM      8  C   UNL     1     -24.493 -25.724  16.403  1.00  0.00     0.258 C 
ATOM      9  O   UNL     1     -23.842 -25.401  15.422  1.00  0.00    -0.300 OA
ENDBRANCH   7   8
BRANCH   7  10
ATOM     10  O   UNL     1     -24.723 -27.040  18.371  1.00  0.00    -0.383 OA
ATOM     11  H   UNL     1     -24.836 -27.904  17.895  1.00  0.00     0.211 HD
ENDBRANCH   7  10
ENDBRANCH   6   7
BRANCH   6  12
ATOM     12  O   UNL     1     -21.397 -26.435  17.877  1.00  0.00    -0.387 OA
ATOM     13  H   UNL     1     -21.644 -25.492  18.069  1.00  0.00     0.211 HD
ENDBRANCH   6  12
ENDBRANCH   1   6
BRANCH   1  14
ATOM     14  O   UNL     1     -22.456 -28.619  19.121  1.00  0.00    -0.388 OA
ATOM     15  H   UNL     1     -22.563 -29.573  19.376  1.00  0.00     0.211 HD
ENDBRANCH   1  14
TORSDOF 8
ENDMDL
MODEL 7
REMARK VINA RESULT:    -4.313     10.623     12.049
REMARK INTER + INTRA:          -6.364
REMARK INTER:                  -5.845
REMARK INTRA:                  -0.519
REMARK UNBOUND:                -0.538
REMARK SMILES C[C@H](O)[C@@H](O)[C@H](O)[C@H](O)C=O
REMARK SMILES IDX 4 1 2 2 1 3 3 4 6 6 8 7 10 8 11 9 9 10 7 12 5 14
REMARK H PARENT 3 5 9 11 7 13 5 15
REMARK Flexibility Score: inf
ROOT
ATOM      1  C   UNL     1     -21.517 -31.908  11.257  1.00  0.00     0.174 C 
ENDROOT
BRANCH   1   2
ATOM      2  C   UNL     1     -22.459 -31.230  12.279  1.00  0.00     0.142 C 
ATOM      3  C   UNL     1     -21.804 -31.143  13.664  1.00  0.00     0.041 C 
BRANCH   2   4
ATOM      4  O   UNL     1     -23.663 -31.946  12.372  1.00  0.00    -0.391 OA
ATOM      5  H   UNL     1     -24.259 -31.431  12.975  1.00  0.00     0.211 HD
ENDBRANCH   2   4
ENDBRANCH   1   2
BRANCH   1   6
ATOM      6  C   UNL     1     -22.269 -32.697  10.144  1.00  0.00     0.181 C 
BRANCH   6   7
ATOM      7  C   UNL     1     -21.464 -32.826   8.814  1.00  0.00     0.209 C 
BRANCH   7   8
ATOM      8  C   UNL     1     -21.972 -31.879   7.757  1.00  0.00     0.258 C 
ATOM      9  O   UNL     1     -22.966 -32.151   7.101  1.00  0.00    -0.300 OA
ENDBRANCH   7   8
BRANCH   7  10
ATOM     10  O   UNL     1     -20.089 -32.607   9.013  1.00  0.00    -0.383 OA
ATOM     11  H   UNL     1     -19.905 -32.686   9.986  1.00  0.00     0.211 HD
ENDBRANCH   7  10
ENDBRANCH   6   7
BRANCH   6  12
ATOM     12  O   UNL     1     -22.607 -33.975  10.629  1.00  0.00    -0.387 OA
ATOM     13  H   UNL     1     -21.804 -34.551  10.536  1.00  0.00     0.211 HD
ENDBRANCH   6  12
ENDBRANCH   1   6
BRANCH   1  14
ATOM     14  O   UNL     1     -20.665 -32.793  11.943  1.00  0.00    -0.388 OA
ATOM     15  H   UNL     1     -19.941 -32.248  12.350  1.00  0.00     0.211 HD
ENDBRANCH   1  14
TORSDOF 8
ENDMDL
MODEL 8
REMARK VINA RESULT:    -4.297     15.717     17.190
REMARK INTER + INTRA:          -6.342
REMARK INTER:                  -5.746
REMARK INTRA:                  -0.596
REMARK UNBOUND:                -0.538
REMARK SMILES C[C@H](O)[C@@H](O)[C@H](O)[C@H](O)C=O
REMARK SMILES IDX 4 1 2 2 1 3 3 4 6 6 8 7 10 8 11 9 9 10 7 12 5 14
REMARK H PARENT 3 5 9 11 7 13 5 15
REMARK Flexibility Score: inf
ROOT
ATOM      1  C   UNL     1     -21.526 -29.527  17.395  1.00  0.00     0.174 C 
ENDROOT
BRANCH   1   2
ATOM      2  C   UNL     1     -21.935 -29.747  15.920  1.00  0.00     0.142 C 
ATOM      3  C   UNL     1     -22.335 -31.206  15.668  1.00  0.00     0.041 C 
BRANCH   2   4
ATOM      4  O   UNL     1     -20.873 -29.396  15.071  1.00  0.00    -0.391 OA
ATOM      5  H   UNL     1     -21.222 -29.433  14.143  1.00  0.00     0.211 HD
ENDBRANCH   2   4
ENDBRANCH   1   2
BRANCH   1   6
ATOM      6  C   UNL     1     -22.262 -28.334  18.075  1.00  0.00     0.181 C 
BRANCH   6   7
ATOM      7  C   UNL     1     -22.075 -26.976  17.333  1.00  0.00     0.209 C 
BRANCH   7   8
ATOM      8  C   UNL     1     -23.135 -25.975  17.719  1.00  0.00     0.258 C 
ATOM      9  O   UNL     1     -23.343 -25.708  18.892  1.00  0.00    -0.300 OA
ENDBRANCH   7   8
BRANCH   7  10
ATOM     10  O   UNL     1     -20.803 -26.422  17.569  1.00  0.00    -0.383 OA
ATOM     11  H   UNL     1     -20.601 -25.794  16.826  1.00  0.00     0.211 HD
ENDBRANCH   7  10
ENDBRANCH   6   7
BRANCH   6  12
ATOM     12  O   UNL     1     -23.633 -28.638  18.186  1.00  0.00    -0.387 OA
ATOM     13  H   UNL     1     -23.708 -29.513  18.650  1.00  0.00     0.211 HD
ENDBRANCH   6  12
ENDBRANCH   1   6
BRANCH   1  14
ATOM     14  O   UNL     1     -20.139 -29.296  17.453  1.00  0.00    -0.388 OA
ATOM     15  H   UNL     1     -19.691 -30.117  17.120  1.00  0.00     0.211 HD
ENDBRANCH   1  14
TORSDOF 8
ENDMDL
