MODEL 1
REMARK VINA RESULT:    -4.285      0.000      0.000
REMARK INTER + INTRA:          -4.672
REMARK INTER:                  -4.661
REMARK INTRA:                  -0.011
REMARK UNBOUND:                -0.011
REMARK SMILES OCc1ccccc1
REMARK SMILES IDX 2 1 3 2 6 3 5 4 7 5 4 6 8 7 1 8
REMARK H PARENT 1 9
REMARK Flexibility Score: inf
ROOT
ATOM      1  C   UNL     1      12.711   2.133 -23.005  1.00  0.00     0.191 C 
ENDROOT
BRANCH   1   2
ATOM      2  C   UNL     1      12.270   2.455 -21.603  1.00  0.00    -0.023 A 
ATOM      3  C   UNL     1      11.375   3.083 -19.019  1.00  0.00     0.000 A 
ATOM      4  C   UNL     1      11.106   1.825 -19.566  1.00  0.00     0.000 A 
ATOM      5  C   UNL     1      12.080   4.032 -19.764  1.00  0.00     0.000 A 
ATOM      6  C   UNL     1      11.547   1.512 -20.855  1.00  0.00     0.006 A 
ATOM      7  C   UNL     1      12.522   3.724 -21.054  1.00  0.00     0.006 A 
ENDBRANCH   1   2
BRANCH   1   8
ATOM      8  O   UNL     1      11.613   2.155 -23.873  1.00  0.00    -0.392 OA
ATOM      9  H   UNL     1      11.559   3.076 -24.240  1.00  0.00     0.211 HD
ENDBRANCH   1   8
TORSDOF 2
ENDMDL
MODEL 2
REMARK VINA RESULT:    -4.253      2.316      3.767
REMARK INTER + INTRA:          -4.637
REMARK INTER:                  -4.627
REMARK INTRA:                  -0.010
REMARK UNBOUND:                -0.011
REMARK SMILES OCc1ccccc1
REMARK SMILES IDX 2 1 3 2 6 3 5 4 7 5 4 6 8 7 1 8
REMARK H PARENT 1 9
REMARK Flexibility Score: inf
ROOT
ATOM      1  C   UNL     1      11.256   4.369 -18.298  1.00  0.00     0.191 C 
ENDROOT
BRANCH   1   2
ATOM      2  C   UNL     1      11.619   3.465 -19.444  1.00  0.00    -0.023 A 
ATOM      3  C   UNL     1      12.230   1.803 -21.621  1.00  0.00     0.000 A 
ATOM      4  C   UNL     1      12.682   3.126 -21.603  1.00  0.00     0.000 A 
ATOM      5  C   UNL     1      11.465   1.312 -20.560  1.00  0.00     0.000 A 
ATOM      6  C   UNL     1      12.374   3.957 -20.521  1.00  0.00     0.006 A 
ATOM      7  C   UNL     1      11.154   2.139 -19.477  1.00  0.00     0.006 A 
ENDBRANCH   1   2
BRANCH   1   8
ATOM      8  O   UNL     1      10.123   5.125 -18.621  1.00  0.00    -0.392 OA
ATOM      9  H   UNL     1       9.414   4.866 -17.976  1.00  0.00     0.211 HD
ENDBRANCH   1   8
TORSDOF 2
ENDMDL
MODEL 3
REMARK VINA RESULT:    -4.250      1.615      2.437
REMARK INTER + INTRA:          -4.633
REMARK INTER:                  -4.624
REMARK INTRA:                  -0.010
REMARK UNBOUND:                -0.011
REMARK SMILES OCc1ccccc1
REMARK SMILES IDX 2 1 3 2 6 3 5 4 7 5 4 6 8 7 1 8
REMARK H PARENT 1 9
REMARK Flexibility Score: inf
ROOT
ATOM      1  C   UNL     1      11.575   0.743 -20.912  1.00  0.00     0.191 C 
ENDROOT
BRANCH   1   2
ATOM      2  C   UNL     1      11.410   1.997 -20.097  1.00  0.00    -0.023 A 
ATOM      3  C   UNL     1      11.163   4.310 -18.528  1.00  0.00     0.000 A 
ATOM      4  C   UNL     1      12.066   4.282 -19.594  1.00  0.00     0.000 A 
ATOM      5  C   UNL     1      10.390   3.183 -18.238  1.00  0.00     0.000 A 
ATOM      6  C   UNL     1      12.195   3.129 -20.374  1.00  0.00     0.006 A 
ATOM      7  C   UNL     1      10.516   2.027 -19.014  1.00  0.00     0.006 A 
ENDBRANCH   1   2
BRANCH   1   8
ATOM      8  O   UNL     1      10.524   0.625 -21.831  1.00  0.00    -0.392 OA
ATOM      9  H   UNL     1      10.903   0.195 -22.641  1.00  0.00     0.211 HD
ENDBRANCH   1   8
TORSDOF 2
ENDMDL
MODEL 4
REMARK VINA RESULT:    -4.235     20.820     21.213
REMARK INTER + INTRA:          -4.617
REMARK INTER:                  -4.607
REMARK INTRA:                  -0.010
REMARK UNBOUND:                -0.011
REMARK SMILES OCc1ccccc1
REMARK SMILES IDX 2 1 3 2 6 3 5 4 7 5 4 6 8 7 1 8
REMARK H PARENT 1 9
REMARK Flexibility Score: inf
ROOT
ATOM      1  C   UNL     1      25.780 -10.961 -16.314  1.00  0.00     0.191 C 
ENDROOT
BRANCH   1   2
ATOM      2  C   UNL     1      25.616 -11.701 -15.015  1.00  0.00    -0.023 A 
ATOM      3  C   UNL     1      25.244 -13.039 -12.576  1.00  0.00     0.000 A 
ATOM      4  C   UNL     1      24.646 -13.529 -13.741  1.00  0.00     0.000 A 
ATOM      5  C   UNL     1      26.018 -11.877 -12.624  1.00  0.00     0.000 A 
ATOM      6  C   UNL     1      24.827 -12.861 -14.956  1.00  0.00     0.006 A 
ATOM      7  C   UNL     1      26.200 -11.205 -13.837  1.00  0.00     0.006 A 
ENDBRANCH   1   2
BRANCH   1   8
ATOM      8  O   UNL     1      27.046 -11.214 -16.856  1.00  0.00    -0.392 OA
ATOM      9  H   UNL     1      27.484 -10.332 -16.978  1.00  0.00     0.211 HD
ENDBRANCH   1   8
TORSDOF 2
ENDMDL
MODEL 5
REMARK VINA RESULT:    -4.224     18.663     19.062
REMARK INTER + INTRA:          -4.605
REMARK INTER:                  -4.585
REMARK INTRA:                  -0.020
REMARK UNBOUND:                -0.011
REMARK SMILES OCc1ccccc1
REMARK SMILES IDX 2 1 3 2 6 3 5 4 7 5 4 6 8 7 1 8
REMARK H PARENT 1 9
REMARK Flexibility Score: inf
ROOT
ATOM      1  C   UNL     1      25.417  -8.438 -12.246  1.00  0.00     0.191 C 
ENDROOT
BRANCH   1   2
ATOM      2  C   UNL     1      24.295  -8.327 -11.250  1.00  0.00    -0.023 A 
ATOM      3  C   UNL     1      22.150  -8.109  -9.455  1.00  0.00     0.000 A 
ATOM      4  C   UNL     1      22.481  -9.352 -10.000  1.00  0.00     0.000 A 
ATOM      5  C   UNL     1      22.880  -6.972  -9.812  1.00  0.00     0.000 A 
ATOM      6  C   UNL     1      23.547  -9.462 -10.899  1.00  0.00     0.006 A 
ATOM      7  C   UNL     1      23.946  -7.077 -10.711  1.00  0.00     0.006 A 
ENDBRANCH   1   2
BRANCH   1   8
ATOM      8  O   UNL     1      25.866  -7.162 -12.610  1.00  0.00    -0.392 OA
ATOM      9  H   UNL     1      25.847  -6.609 -11.786  1.00  0.00     0.211 HD
ENDBRANCH   1   8
TORSDOF 2
ENDMDL
MODEL 6
REMARK VINA RESULT:    -4.173     18.359     18.929
REMARK INTER + INTRA:          -4.550
REMARK INTER:                  -4.530
REMARK INTRA:                  -0.020
REMARK UNBOUND:                -0.011
REMARK SMILES OCc1ccccc1
REMARK SMILES IDX 2 1 3 2 6 3 5 4 7 5 4 6 8 7 1 8
REMARK H PARENT 1 9
REMARK Flexibility Score: inf
ROOT
ATOM      1  C   UNL     1      24.085  -5.872 -10.088  1.00  0.00     0.191 C 
ENDROOT
BRANCH   1   2
ATOM      2  C   UNL     1      23.333  -7.175 -10.079  1.00  0.00    -0.023 A 
ATOM      3  C   UNL     1      21.959  -9.620  -9.989  1.00  0.00     0.000 A 
ATOM      4  C   UNL     1      21.351  -8.458  -9.506  1.00  0.00     0.000 A 
ATOM      5  C   UNL     1      23.256  -9.567 -10.506  1.00  0.00     0.000 A 
ATOM      6  C   UNL     1      22.035  -7.240  -9.546  1.00  0.00     0.006 A 
ATOM      7  C   UNL     1      23.945  -8.351 -10.547  1.00  0.00     0.006 A 
ENDBRANCH   1   2
BRANCH   1   8
ATOM      8  O   UNL     1      23.332  -4.878  -9.451  1.00  0.00    -0.392 OA
ATOM      9  H   UNL     1      22.973  -5.283  -8.618  1.00  0.00     0.211 HD
ENDBRANCH   1   8
TORSDOF 2
ENDMDL
MODEL 7
REMARK VINA RESULT:    -4.118      7.412      8.632
REMARK INTER + INTRA:          -4.490
REMARK INTER:                  -4.470
REMARK INTRA:                  -0.020
REMARK UNBOUND:                -0.011
REMARK SMILES OCc1ccccc1
REMARK SMILES IDX 2 1 3 2 6 3 5 4 7 5 4 6 8 7 1 8
REMARK H PARENT 1 9
REMARK Flexibility Score: inf
ROOT
ATOM      1  C   UNL     1      11.311  -1.102 -12.878  1.00  0.00     0.191 C 
ENDROOT
BRANCH   1   2
ATOM      2  C   UNL     1      12.130   0.109 -13.235  1.00  0.00    -0.023 A 
ATOM      3  C   UNL     1      13.704   2.320 -13.947  1.00  0.00     0.000 A 
ATOM      4  C   UNL     1      12.597   1.970 -14.726  1.00  0.00     0.000 A 
ATOM      5  C   UNL     1      14.032   1.563 -12.820  1.00  0.00     0.000 A 
ATOM      6  C   UNL     1      11.815   0.865 -14.375  1.00  0.00     0.006 A 
ATOM      7  C   UNL     1      13.253   0.457 -12.466  1.00  0.00     0.006 A 
ENDBRANCH   1   2
BRANCH   1   8
ATOM      8  O   UNL     1      11.824  -1.706 -11.724  1.00  0.00    -0.392 OA
ATOM      9  H   UNL     1      12.250  -2.555 -12.013  1.00  0.00     0.211 HD
ENDBRANCH   1   8
TORSDOF 2
ENDMDL
MODEL 8
REMARK VINA RESULT:    -4.116     20.855     21.311
REMARK INTER + INTRA:          -4.487
REMARK INTER:                  -4.473
REMARK INTRA:                  -0.014
REMARK UNBOUND:                -0.011
REMARK SMILES OCc1ccccc1
REMARK SMILES IDX 2 1 3 2 6 3 5 4 7 5 4 6 8 7 1 8
REMARK H PARENT 1 9
REMARK Flexibility Score: inf
ROOT
ATOM      1  C   UNL     1      24.748 -12.921 -16.636  1.00  0.00     0.191 C 
ENDROOT
BRANCH   1   2
ATOM      2  C   UNL     1      25.149 -12.544 -15.236  1.00  0.00    -0.023 A 
ATOM      3  C   UNL     1      25.966 -11.885 -12.634  1.00  0.00     0.000 A 
ATOM      4  C   UNL     1      26.338 -11.074 -13.710  1.00  0.00     0.000 A 
ATOM      5  C   UNL     1      25.196 -13.029 -12.855  1.00  0.00     0.000 A 
ATOM      6  C   UNL     1      25.936 -11.404 -15.008  1.00  0.00     0.006 A 
ATOM      7  C   UNL     1      24.792 -13.364 -14.151  1.00  0.00     0.006 A 
ENDBRANCH   1   2
BRANCH   1   8
ATOM      8  O   UNL     1      25.864 -12.888 -17.482  1.00  0.00    -0.392 OA
ATOM      9  H   UNL     1      25.540 -13.127 -18.389  1.00  0.00     0.211 HD
ENDBRANCH   1   8
TORSDOF 2
ENDMDL
MODEL 9
REMARK VINA RESULT:    -4.034     17.165     17.698
REMARK INTER + INTRA:          -4.398
REMARK INTER:                  -4.379
REMARK INTRA:                  -0.019
REMARK UNBOUND:                -0.011
REMARK SMILES OCc1ccccc1
REMARK SMILES IDX 2 1 3 2 6 3 5 4 7 5 4 6 8 7 1 8
REMARK H PARENT 1 9
REMARK Flexibility Score: inf
ROOT
ATOM      1  C   UNL     1      22.652  -3.525 -10.761  1.00  0.00     0.191 C 
ENDROOT
BRANCH   1   2
ATOM      2  C   UNL     1      22.702  -4.974 -10.359  1.00  0.00    -0.023 A 
ATOM      3  C   UNL     1      22.783  -7.697  -9.687  1.00  0.00     0.000 A 
ATOM      4  C   UNL     1      23.959  -7.029 -10.040  1.00  0.00     0.000 A 
ATOM      5  C   UNL     1      21.565  -7.012  -9.679  1.00  0.00     0.000 A 
ATOM      6  C   UNL     1      23.919  -5.673 -10.380  1.00  0.00     0.006 A 
ATOM      7  C   UNL     1      21.521  -5.656 -10.019  1.00  0.00     0.006 A 
ENDBRANCH   1   2
BRANCH   1   8
ATOM      8  O   UNL     1      23.951  -3.011 -10.869  1.00  0.00    -0.392 OA
ATOM      9  H   UNL     1      23.958  -2.151 -10.374  1.00  0.00     0.211 HD
ENDBRANCH   1   8
TORSDOF 2
ENDMDL
