MODEL 1
REMARK VINA RESULT:    -3.714      0.000      0.000
REMARK INTER + INTRA:          -5.703
REMARK INTER:                  -5.234
REMARK INTRA:                  -0.469
REMARK UNBOUND:                -0.469
REMARK SMILES CCCCCCCCC(=O)[O-]
REMARK SMILES IDX 6 1 7 2 8 3 9 4 10 5 11 6 5 7 4 8 3 9 2 10 1 11
REMARK H PARENT
REMARK Flexibility Score: inf
ROOT
ATOM      1  C   UNL     1      26.352   3.626  41.442  1.00  0.00     0.000 C 
ENDROOT
BRANCH   1   2
ATOM      2  C   UNL     1      26.580   3.031  40.044  1.00  0.00     0.006 C 
BRANCH   2   3
ATOM      3  C   UNL     1      25.652   1.844  39.759  1.00  0.00     0.053 C 
BRANCH   3   4
ATOM      4  C   UNL     1      26.344   0.772  38.974  1.00  0.00     0.041 C 
ATOM      5  O   UNL     1      25.841   0.348  37.900  1.00  0.00    -0.550 OA
ATOM      6  O   UNL     1      27.561   0.263  39.411  1.00  0.00    -0.550 OA
ENDBRANCH   3   4
ENDBRANCH   2   3
ENDBRANCH   1   2
BRANCH   1   7
ATOM      7  C   UNL     1      25.479   2.701  42.298  1.00  0.00     0.000 C 
BRANCH   7   8
ATOM      8  C   UNL     1      26.286   2.110  43.465  1.00  0.00    -0.000 C 
BRANCH   8   9
ATOM      9  C   UNL     1      25.820   0.697  43.850  1.00  0.00    -0.000 C 
BRANCH   9  10
ATOM     10  C   UNL     1      26.532  -0.400  43.045  1.00  0.00    -0.003 C 
ATOM     11  C   UNL     1      27.495  -1.190  43.927  1.00  0.00     0.004 C 
ENDBRANCH   9  10
ENDBRANCH   8   9
ENDBRANCH   7   8
ENDBRANCH   1   7
TORSDOF 7
ENDMDL
MODEL 2
REMARK VINA RESULT:    -3.690      6.242      8.318
REMARK INTER + INTRA:          -5.669
REMARK INTER:                  -5.080
REMARK INTRA:                  -0.589
REMARK UNBOUND:                -0.469
REMARK SMILES CCCCCCCCC(=O)[O-]
REMARK SMILES IDX 6 1 7 2 8 3 9 4 10 5 11 6 5 7 4 8 3 9 2 10 1 11
REMARK H PARENT
REMARK Flexibility Score: inf
ROOT
ATOM      1  C   UNL     1      22.538  -3.613  36.703  1.00  0.00     0.000 C 
ENDROOT
BRANCH   1   2
ATOM      2  C   UNL     1      23.728  -3.005  35.945  1.00  0.00     0.006 C 
BRANCH   2   3
ATOM      3  C   UNL     1      23.990  -1.548  36.345  1.00  0.00     0.053 C 
BRANCH   3   4
ATOM      4  C   UNL     1      25.372  -1.359  36.889  1.00  0.00     0.041 C 
ATOM      5  O   UNL     1      25.677  -0.295  37.489  1.00  0.00    -0.550 OA
ATOM      6  O   UNL     1      26.315  -2.372  36.765  1.00  0.00    -0.550 OA
ENDBRANCH   3   4
ENDBRANCH   2   3
ENDBRANCH   1   2
BRANCH   1   7
ATOM      7  C   UNL     1      22.144  -4.971  36.112  1.00  0.00     0.000 C 
BRANCH   7   8
ATOM      8  C   UNL     1      23.007  -5.308  34.886  1.00  0.00    -0.000 C 
BRANCH   8   9
ATOM      9  C   UNL     1      23.724  -6.660  35.021  1.00  0.00    -0.000 C 
BRANCH   9  10
ATOM     10  C   UNL     1      24.499  -6.789  36.339  1.00  0.00    -0.003 C 
ATOM     11  C   UNL     1      25.804  -6.000  36.289  1.00  0.00     0.004 C 
ENDBRANCH   9  10
ENDBRANCH   8   9
ENDBRANCH   7   8
ENDBRANCH   1   7
TORSDOF 7
ENDMDL
MODEL 3
REMARK VINA RESULT:    -3.588      2.552      4.531
REMARK INTER + INTRA:          -5.525
REMARK INTER:                  -4.970
REMARK INTRA:                  -0.556
REMARK UNBOUND:                -0.469
REMARK SMILES CCCCCCCCC(=O)[O-]
REMARK SMILES IDX 6 1 7 2 8 3 9 4 10 5 11 6 5 7 4 8 3 9 2 10 1 11
REMARK H PARENT
REMARK Flexibility Score: inf
ROOT
ATOM      1  C   UNL     1      25.269   1.104  44.065  1.00  0.00     0.000 C 
ENDROOT
BRANCH   1   2
ATOM      2  C   UNL     1      26.688   0.550  43.861  1.00  0.00     0.006 C 
BRANCH   2   3
ATOM      3  C   UNL     1      26.693  -0.747  43.041  1.00  0.00     0.053 C 
BRANCH   3   4
ATOM      4  C   UNL     1      27.650  -1.755  43.599  1.00  0.00     0.041 C 
ATOM      5  O   UNL     1      27.822  -2.856  43.014  1.00  0.00    -0.550 OA
ATOM      6  O   UNL     1      28.378  -1.465  44.746  1.00  0.00    -0.550 OA
ENDBRANCH   3   4
ENDBRANCH   2   3
ENDBRANCH   1   2
BRANCH   1   7
ATOM      7  C   UNL     1      24.972   2.233  43.072  1.00  0.00     0.000 C 
BRANCH   7   8
ATOM      8  C   UNL     1      26.263   2.956  42.659  1.00  0.00    -0.000 C 
BRANCH   8   9
ATOM      9  C   UNL     1      26.286   3.319  41.165  1.00  0.00    -0.000 C 
BRANCH   9  10
ATOM     10  C   UNL     1      26.177   2.087  40.256  1.00  0.00    -0.003 C 
ATOM     11  C   UNL     1      25.006   2.222  39.286  1.00  0.00     0.004 C 
ENDBRANCH   9  10
ENDBRANCH   8   9
ENDBRANCH   7   8
ENDBRANCH   1   7
TORSDOF 7
ENDMDL
MODEL 4
REMARK VINA RESULT:    -3.551      7.247      9.449
REMARK INTER + INTRA:          -5.473
REMARK INTER:                  -4.933
REMARK INTRA:                  -0.540
REMARK UNBOUND:                -0.469
REMARK SMILES CCCCCCCCC(=O)[O-]
REMARK SMILES IDX 6 1 7 2 8 3 9 4 10 5 11 6 5 7 4 8 3 9 2 10 1 11
REMARK H PARENT
REMARK Flexibility Score: inf
ROOT
ATOM      1  C   UNL     1      22.371  -3.611  36.254  1.00  0.00     0.000 C 
ENDROOT
BRANCH   1   2
ATOM      2  C   UNL     1      23.672  -2.894  36.647  1.00  0.00     0.006 C 
BRANCH   2   3
ATOM      3  C   UNL     1      24.693  -2.874  35.502  1.00  0.00     0.053 C 
BRANCH   3   4
ATOM      4  C   UNL     1      26.000  -3.480  35.912  1.00  0.00     0.041 C 
ATOM      5  O   UNL     1      26.032  -4.626  36.434  1.00  0.00    -0.550 OA
ATOM      6  O   UNL     1      27.187  -2.794  35.688  1.00  0.00    -0.550 OA
ENDBRANCH   3   4
ENDBRANCH   2   3
ENDBRANCH   1   2
BRANCH   1   7
ATOM      7  C   UNL     1      22.577  -4.481  35.009  1.00  0.00     0.000 C 
BRANCH   7   8
ATOM      8  C   UNL     1      22.509  -5.974  35.364  1.00  0.00    -0.000 C 
BRANCH   8   9
ATOM      9  C   UNL     1      23.722  -6.761  34.843  1.00  0.00    -0.000 C 
BRANCH   9  10
ATOM     10  C   UNL     1      23.597  -7.125  33.357  1.00  0.00    -0.003 C 
ATOM     11  C   UNL     1      24.750  -6.535  32.548  1.00  0.00     0.004 C 
ENDBRANCH   9  10
ENDBRANCH   8   9
ENDBRANCH   7   8
ENDBRANCH   1   7
TORSDOF 7
ENDMDL
MODEL 5
REMARK VINA RESULT:    -3.542      6.844      8.850
REMARK INTER + INTRA:          -5.460
REMARK INTER:                  -4.760
REMARK INTRA:                  -0.700
REMARK UNBOUND:                -0.469
REMARK SMILES CCCCCCCCC(=O)[O-]
REMARK SMILES IDX 6 1 7 2 8 3 9 4 10 5 11 6 5 7 4 8 3 9 2 10 1 11
REMARK H PARENT
REMARK Flexibility Score: inf
ROOT
ATOM      1  C   UNL     1      22.580  -4.832  34.959  1.00  0.00     0.000 C 
ENDROOT
BRANCH   1   2
ATOM      2  C   UNL     1      23.274  -6.203  34.927  1.00  0.00     0.006 C 
BRANCH   2   3
ATOM      3  C   UNL     1      24.152  -6.439  36.162  1.00  0.00     0.053 C 
BRANCH   3   4
ATOM      4  C   UNL     1      25.604  -6.226  35.862  1.00  0.00     0.041 C 
ATOM      5  O   UNL     1      25.977  -5.974  34.686  1.00  0.00    -0.550 OA
ATOM      6  O   UNL     1      26.541  -6.273  36.886  1.00  0.00    -0.550 OA
ENDBRANCH   3   4
ENDBRANCH   2   3
ENDBRANCH   1   2
BRANCH   1   7
ATOM      7  C   UNL     1      22.228  -4.428  36.395  1.00  0.00     0.000 C 
BRANCH   7   8
ATOM      8  C   UNL     1      22.680  -2.988  36.687  1.00  0.00    -0.000 C 
BRANCH   8   9
ATOM      9  C   UNL     1      23.897  -2.569  35.848  1.00  0.00    -0.000 C 
BRANCH   9  10
ATOM     10  C   UNL     1      25.082  -2.114  36.712  1.00  0.00    -0.003 C 
ATOM     11  C   UNL     1      26.393  -2.704  36.201  1.00  0.00     0.004 C 
ENDBRANCH   9  10
ENDBRANCH   8   9
ENDBRANCH   7   8
ENDBRANCH   1   7
TORSDOF 7
ENDMDL
MODEL 6
REMARK VINA RESULT:    -3.534      2.671      4.334
REMARK INTER + INTRA:          -5.449
REMARK INTER:                  -4.918
REMARK INTRA:                  -0.531
REMARK UNBOUND:                -0.469
REMARK SMILES CCCCCCCCC(=O)[O-]
REMARK SMILES IDX 6 1 7 2 8 3 9 4 10 5 11 6 5 7 4 8 3 9 2 10 1 11
REMARK H PARENT
REMARK Flexibility Score: inf
ROOT
ATOM      1  C   UNL     1      26.378   3.357  40.864  1.00  0.00     0.000 C 
ENDROOT
BRANCH   1   2
ATOM      2  C   UNL     1      26.238   3.018  42.356  1.00  0.00     0.006 C 
BRANCH   2   3
ATOM      3  C   UNL     1      25.552   1.665  42.582  1.00  0.00     0.053 C 
BRANCH   3   4
ATOM      4  C   UNL     1      25.868   1.098  43.933  1.00  0.00     0.041 C 
ATOM      5  O   UNL     1      25.163   1.406  44.930  1.00  0.00    -0.550 OA
ATOM      6  O   UNL     1      26.920   0.205  44.084  1.00  0.00    -0.550 OA
ENDBRANCH   3   4
ENDBRANCH   2   3
ENDBRANCH   1   2
BRANCH   1   7
ATOM      7  C   UNL     1      25.276   2.681  40.040  1.00  0.00     0.000 C 
BRANCH   7   8
ATOM      8  C   UNL     1      25.799   2.268  38.656  1.00  0.00    -0.000 C 
BRANCH   8   9
ATOM      9  C   UNL     1      27.175   1.587  38.724  1.00  0.00    -0.000 C 
BRANCH   9  10
ATOM     10  C   UNL     1      27.084   0.112  39.139  1.00  0.00    -0.003 C 
ATOM     11  C   UNL     1      28.463  -0.450  39.475  1.00  0.00     0.004 C 
ENDBRANCH   9  10
ENDBRANCH   8   9
ENDBRANCH   7   8
ENDBRANCH   1   7
TORSDOF 7
ENDMDL
MODEL 7
REMARK VINA RESULT:    -3.462      6.977      9.084
REMARK INTER + INTRA:          -5.348
REMARK INTER:                  -4.665
REMARK INTRA:                  -0.683
REMARK UNBOUND:                -0.469
REMARK SMILES CCCCCCCCC(=O)[O-]
REMARK SMILES IDX 6 1 7 2 8 3 9 4 10 5 11 6 5 7 4 8 3 9 2 10 1 11
REMARK H PARENT
REMARK Flexibility Score: inf
ROOT
ATOM      1  C   UNL     1      25.214  -6.673  36.104  1.00  0.00     0.000 C 
ENDROOT
BRANCH   1   2
ATOM      2  C   UNL     1      26.298  -5.645  36.464  1.00  0.00     0.006 C 
BRANCH   2   3
ATOM      3  C   UNL     1      26.142  -4.338  35.677  1.00  0.00     0.053 C 
BRANCH   3   4
ATOM      4  C   UNL     1      26.671  -3.162  36.440  1.00  0.00     0.041 C 
ATOM      5  O   UNL     1      25.944  -2.152  36.630  1.00  0.00    -0.550 OA
ATOM      6  O   UNL     1      27.954  -3.196  36.971  1.00  0.00    -0.550 OA
ENDBRANCH   3   4
ENDBRANCH   2   3
ENDBRANCH   1   2
BRANCH   1   7
ATOM      7  C   UNL     1      24.627  -6.392  34.716  1.00  0.00     0.000 C 
BRANCH   7   8
ATOM      8  C   UNL     1      23.093  -6.333  34.770  1.00  0.00    -0.000 C 
BRANCH   8   9
ATOM      9  C   UNL     1      22.561  -4.898  34.915  1.00  0.00    -0.000 C 
BRANCH   9  10
ATOM     10  C   UNL     1      22.134  -4.569  36.353  1.00  0.00    -0.003 C 
ATOM     11  C   UNL     1      22.589  -3.169  36.754  1.00  0.00     0.004 C 
ENDBRANCH   9  10
ENDBRANCH   8   9
ENDBRANCH   7   8
ENDBRANCH   1   7
TORSDOF 7
ENDMDL
MODEL 8
REMARK VINA RESULT:    -3.439      7.568      9.345
REMARK INTER + INTRA:          -5.316
REMARK INTER:                  -4.540
REMARK INTRA:                  -0.775
REMARK UNBOUND:                -0.469
REMARK SMILES CCCCCCCCC(=O)[O-]
REMARK SMILES IDX 6 1 7 2 8 3 9 4 10 5 11 6 5 7 4 8 3 9 2 10 1 11
REMARK H PARENT
REMARK Flexibility Score: inf
ROOT
ATOM      1  C   UNL     1      24.061  -6.468  36.233  1.00  0.00     0.000 C 
ENDROOT
BRANCH   1   2
ATOM      2  C   UNL     1      25.561  -6.657  35.960  1.00  0.00     0.006 C 
BRANCH   2   3
ATOM      3  C   UNL     1      26.371  -5.389  36.260  1.00  0.00     0.053 C 
BRANCH   3   4
ATOM      4  C   UNL     1      26.945  -4.787  35.014  1.00  0.00     0.041 C 
ATOM      5  O   UNL     1      27.859  -3.924  35.091  1.00  0.00    -0.550 OA
ATOM      6  O   UNL     1      26.495  -5.203  33.768  1.00  0.00    -0.550 OA
ENDBRANCH   3   4
ENDBRANCH   2   3
ENDBRANCH   1   2
BRANCH   1   7
ATOM      7  C   UNL     1      23.291  -6.224  34.930  1.00  0.00     0.000 C 
BRANCH   7   8
ATOM      8  C   UNL     1      22.733  -4.794  34.880  1.00  0.00    -0.000 C 
BRANCH   8   9
ATOM      9  C   UNL     1      22.133  -4.346  36.221  1.00  0.00    -0.000 C 
BRANCH   9  10
ATOM     10  C   UNL     1      22.767  -3.052  36.751  1.00  0.00    -0.003 C 
ATOM     11  C   UNL     1      23.973  -2.647  35.908  1.00  0.00     0.004 C 
ENDBRANCH   9  10
ENDBRANCH   8   9
ENDBRANCH   7   8
ENDBRANCH   1   7
TORSDOF 7
ENDMDL
MODEL 9
REMARK VINA RESULT:    -3.417      3.893      6.082
REMARK INTER + INTRA:          -5.285
REMARK INTER:                  -5.136
REMARK INTRA:                  -0.149
REMARK UNBOUND:                -0.469
REMARK SMILES CCCCCCCCC(=O)[O-]
REMARK SMILES IDX 6 1 7 2 8 3 9 4 10 5 11 6 5 7 4 8 3 9 2 10 1 11
REMARK H PARENT
REMARK Flexibility Score: inf
ROOT
ATOM      1  C   UNL     1      25.530   0.298  37.730  1.00  0.00     0.000 C 
ENDROOT
BRANCH   1   2
ATOM      2  C   UNL     1      26.712   0.556  38.677  1.00  0.00     0.006 C 
BRANCH   2   3
ATOM      3  C   UNL     1      26.745   2.003  39.185  1.00  0.00     0.053 C 
BRANCH   3   4
ATOM      4  C   UNL     1      25.757   2.227  40.289  1.00  0.00     0.041 C 
ATOM      5  O   UNL     1      24.612   2.683  40.031  1.00  0.00    -0.550 OA
ATOM      6  O   UNL     1      26.089   1.902  41.598  1.00  0.00    -0.550 OA
ENDBRANCH   3   4
ENDBRANCH   2   3
ENDBRANCH   1   2
BRANCH   1   7
ATOM      7  C   UNL     1      25.604  -1.110  37.128  1.00  0.00     0.000 C 
BRANCH   7   8
ATOM      8  C   UNL     1      24.295  -1.471  36.410  1.00  0.00    -0.000 C 
BRANCH   8   9
ATOM      9  C   UNL     1      24.004  -2.979  36.433  1.00  0.00    -0.000 C 
BRANCH   9  10
ATOM     10  C   UNL     1      22.525  -3.293  36.700  1.00  0.00    -0.003 C 
ATOM     11  C   UNL     1      22.127  -4.630  36.082  1.00  0.00     0.004 C 
ENDBRANCH   9  10
ENDBRANCH   8   9
ENDBRANCH   7   8
ENDBRANCH   1   7
TORSDOF 7
ENDMDL
