MODEL 1
REMARK VINA RESULT:    -3.356      0.000      0.000
REMARK INTER + INTRA:          -4.265
REMARK INTER:                  -4.043
REMARK INTRA:                  -0.222
REMARK UNBOUND:                -0.222
REMARK SMILES OCC(O)CO
REMARK SMILES IDX 3 1 5 2 6 3 2 5 1 6 4 8
REMARK H PARENT 6 4 1 7 4 9
REMARK Flexibility Score: inf
ROOT
ATOM      1  C   UNL     1     232.738 239.255 240.613  1.00  0.00     0.165 C 
ENDROOT
BRANCH   1   2
ATOM      2  C   UNL     1     232.673 240.265 239.453  1.00  0.00     0.190 C 
BRANCH   2   3
ATOM      3  O   UNL     1     231.478 240.999 239.496  1.00  0.00    -0.394 OA
ATOM      4  H   UNL     1     231.714 241.938 239.275  1.00  0.00     0.210 HD
ENDBRANCH   2   3
ENDBRANCH   1   2
BRANCH   1   5
ATOM      5  C   UNL     1     231.533 239.396 241.560  1.00  0.00     0.190 C 
BRANCH   5   6
ATOM      6  O   UNL     1     230.433 238.682 241.065  1.00  0.00    -0.394 OA
ATOM      7  H   UNL     1     230.741 238.223 240.240  1.00  0.00     0.210 HD
ENDBRANCH   5   6
ENDBRANCH   1   5
BRANCH   1   8
ATOM      8  O   UNL     1     232.821 237.945 240.112  1.00  0.00    -0.388 OA
ATOM      9  H   UNL     1     231.908 237.671 239.834  1.00  0.00     0.211 HD
ENDBRANCH   1   8
TORSDOF 5
ENDMDL
MODEL 2
REMARK VINA RESULT:    -3.339      0.688      2.659
REMARK INTER + INTRA:          -4.244
REMARK INTER:                  -4.023
REMARK INTRA:                  -0.221
REMARK UNBOUND:                -0.222
REMARK SMILES OCC(O)CO
REMARK SMILES IDX 3 1 5 2 6 3 2 5 1 6 4 8
REMARK H PARENT 6 4 1 7 4 9
REMARK Flexibility Score: inf
ROOT
ATOM      1  C   UNL     1     232.372 239.994 240.255  1.00  0.00     0.165 C 
ENDROOT
BRANCH   1   2
ATOM      2  C   UNL     1     231.568 239.475 241.460  1.00  0.00     0.190 C 
BRANCH   2   3
ATOM      3  O   UNL     1     230.493 238.678 241.039  1.00  0.00    -0.394 OA
ATOM      4  H   UNL     1     230.395 238.828 240.062  1.00  0.00     0.210 HD
ENDBRANCH   2   3
ENDBRANCH   1   2
BRANCH   1   5
ATOM      5  C   UNL     1     232.818 238.846 239.330  1.00  0.00     0.190 C 
BRANCH   5   6
ATOM      6  O   UNL     1     233.157 237.714 240.083  1.00  0.00    -0.394 OA
ATOM      7  H   UNL     1     233.968 237.951 240.604  1.00  0.00     0.210 HD
ENDBRANCH   5   6
ENDBRANCH   1   5
BRANCH   1   8
ATOM      8  O   UNL     1     231.618 240.940 239.539  1.00  0.00    -0.388 OA
ATOM      9  H   UNL     1     231.485 240.585 238.620  1.00  0.00     0.211 HD
ENDBRANCH   1   8
TORSDOF 5
ENDMDL
MODEL 3
REMARK VINA RESULT:    -3.330      1.409      2.039
REMARK INTER + INTRA:          -4.233
REMARK INTER:                  -4.010
REMARK INTRA:                  -0.223
REMARK UNBOUND:                -0.222
REMARK SMILES OCC(O)CO
REMARK SMILES IDX 3 1 5 2 6 3 2 5 1 6 4 8
REMARK H PARENT 6 4 1 7 4 9
REMARK Flexibility Score: inf
ROOT
ATOM      1  C   UNL     1     231.819 239.440 241.211  1.00  0.00     0.165 C 
ENDROOT
BRANCH   1   2
ATOM      2  C   UNL     1     232.305 240.034 239.878  1.00  0.00     0.190 C 
BRANCH   2   3
ATOM      3  O   UNL     1     231.520 241.137 239.506  1.00  0.00    -0.394 OA
ATOM      4  H   UNL     1     231.010 240.862 238.699  1.00  0.00     0.210 HD
ENDBRANCH   2   3
ENDBRANCH   1   2
BRANCH   1   5
ATOM      5  C   UNL     1     232.343 240.241 242.417  1.00  0.00     0.190 C 
BRANCH   5   6
ATOM      6  O   UNL     1     231.892 241.566 242.359  1.00  0.00    -0.394 OA
ATOM      7  H   UNL     1     232.556 242.069 241.818  1.00  0.00     0.210 HD
ENDBRANCH   5   6
ENDBRANCH   1   5
BRANCH   1   8
ATOM      8  O   UNL     1     230.415 239.377 241.233  1.00  0.00    -0.388 OA
ATOM      9  H   UNL     1     230.070 240.280 241.001  1.00  0.00     0.211 HD
ENDBRANCH   1   8
TORSDOF 5
ENDMDL
MODEL 4
REMARK VINA RESULT:    -3.328      1.413      2.933
REMARK INTER + INTRA:          -4.230
REMARK INTER:                  -4.026
REMARK INTRA:                  -0.204
REMARK UNBOUND:                -0.222
REMARK SMILES OCC(O)CO
REMARK SMILES IDX 3 1 5 2 6 3 2 5 1 6 4 8
REMARK H PARENT 6 4 1 7 4 9
REMARK Flexibility Score: inf
ROOT
ATOM      1  C   UNL     1     232.590 240.516 241.129  1.00  0.00     0.165 C 
ENDROOT
BRANCH   1   2
ATOM      2  C   UNL     1     231.692 239.465 241.805  1.00  0.00     0.190 C 
BRANCH   2   3
ATOM      3  O   UNL     1     230.443 239.391 241.171  1.00  0.00    -0.394 OA
ATOM      4  H   UNL     1     230.546 238.756 240.414  1.00  0.00     0.210 HD
ENDBRANCH   2   3
ENDBRANCH   1   2
BRANCH   1   5
ATOM      5  C   UNL     1     232.357 240.569 239.607  1.00  0.00     0.190 C 
BRANCH   5   6
ATOM      6  O   UNL     1     231.473 241.607 239.283  1.00  0.00    -0.394 OA
ATOM      7  H   UNL     1     231.322 242.123 240.118  1.00  0.00     0.210 HD
ENDBRANCH   5   6
ENDBRANCH   1   5
BRANCH   1   8
ATOM      8  O   UNL     1     232.378 241.780 241.705  1.00  0.00    -0.388 OA
ATOM      9  H   UNL     1     232.282 242.435 240.965  1.00  0.00     0.211 HD
ENDBRANCH   1   8
TORSDOF 5
ENDMDL
MODEL 5
REMARK VINA RESULT:    -3.323      1.675      2.165
REMARK INTER + INTRA:          -4.224
REMARK INTER:                  -4.013
REMARK INTRA:                  -0.211
REMARK UNBOUND:                -0.222
REMARK SMILES OCC(O)CO
REMARK SMILES IDX 3 1 5 2 6 3 2 5 1 6 4 8
REMARK H PARENT 6 4 1 7 4 9
REMARK Flexibility Score: inf
ROOT
ATOM      1  C   UNL     1     232.396 240.265 240.537  1.00  0.00     0.165 C 
ENDROOT
BRANCH   1   2
ATOM      2  C   UNL     1     232.928 241.257 241.586  1.00  0.00     0.190 C 
BRANCH   2   3
ATOM      3  O   UNL     1     231.954 241.525 242.560  1.00  0.00    -0.394 OA
ATOM      4  H   UNL     1     232.431 241.916 243.339  1.00  0.00     0.210 HD
ENDBRANCH   2   3
ENDBRANCH   1   2
BRANCH   1   5
ATOM      5  C   UNL     1     231.619 239.107 241.190  1.00  0.00     0.190 C 
BRANCH   5   6
ATOM      6  O   UNL     1     230.245 239.384 241.203  1.00  0.00    -0.394 OA
ATOM      7  H   UNL     1     229.893 239.039 242.065  1.00  0.00     0.210 HD
ENDBRANCH   5   6
ENDBRANCH   1   5
BRANCH   1   8
ATOM      8  O   UNL     1     231.590 240.933 239.599  1.00  0.00    -0.388 OA
ATOM      9  H   UNL     1     230.711 240.471 239.576  1.00  0.00     0.211 HD
ENDBRANCH   1   8
TORSDOF 5
ENDMDL
MODEL 6
REMARK VINA RESULT:    -3.077      9.785     10.644
REMARK INTER + INTRA:          -3.928
REMARK INTER:                  -3.720
REMARK INTRA:                  -0.209
REMARK UNBOUND:                -0.222
REMARK SMILES OCC(O)CO
REMARK SMILES IDX 3 1 5 2 6 3 2 5 1 6 4 8
REMARK H PARENT 6 4 1 7 4 9
REMARK Flexibility Score: inf
ROOT
ATOM      1  C   UNL     1     236.891 231.096 240.208  1.00  0.00     0.165 C 
ENDROOT
BRANCH   1   2
ATOM      2  C   UNL     1     238.108 230.275 239.745  1.00  0.00     0.190 C 
BRANCH   2   3
ATOM      3  O   UNL     1     238.180 229.055 240.435  1.00  0.00    -0.394 OA
ATOM      4  H   UNL     1     237.728 229.196 241.308  1.00  0.00     0.210 HD
ENDBRANCH   2   3
ENDBRANCH   1   2
BRANCH   1   5
ATOM      5  C   UNL     1     235.680 230.894 239.278  1.00  0.00     0.190 C 
BRANCH   5   6
ATOM      6  O   UNL     1     235.715 229.619 238.699  1.00  0.00    -0.394 OA
ATOM      7  H   UNL     1     236.623 229.254 238.867  1.00  0.00     0.210 HD
ENDBRANCH   5   6
ENDBRANCH   1   5
BRANCH   1   8
ATOM      8  O   UNL     1     236.557 230.766 241.532  1.00  0.00    -0.388 OA
ATOM      9  H   UNL     1     236.687 231.580 242.087  1.00  0.00     0.211 HD
ENDBRANCH   1   8
TORSDOF 5
ENDMDL
MODEL 7
REMARK VINA RESULT:    -2.974      4.297      4.713
REMARK INTER + INTRA:          -3.804
REMARK INTER:                  -3.580
REMARK INTRA:                  -0.224
REMARK UNBOUND:                -0.222
REMARK SMILES OCC(O)CO
REMARK SMILES IDX 3 1 5 2 6 3 2 5 1 6 4 8
REMARK H PARENT 6 4 1 7 4 9
REMARK Flexibility Score: inf
ROOT
ATOM      1  C   UNL     1     232.941 240.988 243.345  1.00  0.00     0.165 C 
ENDROOT
BRANCH   1   2
ATOM      2  C   UNL     1     234.207 241.423 242.584  1.00  0.00     0.190 C 
BRANCH   2   3
ATOM      3  O   UNL     1     235.315 240.660 242.981  1.00  0.00    -0.394 OA
ATOM      4  H   UNL     1     235.232 240.527 243.962  1.00  0.00     0.210 HD
ENDBRANCH   2   3
ENDBRANCH   1   2
BRANCH   1   5
ATOM      5  C   UNL     1     233.191 240.896 244.861  1.00  0.00     0.190 C 
BRANCH   5   6
ATOM      6  O   UNL     1     234.036 241.931 245.283  1.00  0.00    -0.394 OA
ATOM      7  H   UNL     1     233.458 242.721 245.446  1.00  0.00     0.210 HD
ENDBRANCH   5   6
ENDBRANCH   1   5
BRANCH   1   8
ATOM      8  O   UNL     1     231.882 241.872 243.072  1.00  0.00    -0.388 OA
ATOM      9  H   UNL     1     231.034 241.363 243.167  1.00  0.00     0.211 HD
ENDBRANCH   1   8
TORSDOF 5
ENDMDL
MODEL 8
REMARK VINA RESULT:    -2.970      8.589      9.318
REMARK INTER + INTRA:          -3.799
REMARK INTER:                  -3.589
REMARK INTRA:                  -0.210
REMARK UNBOUND:                -0.222
REMARK SMILES OCC(O)CO
REMARK SMILES IDX 3 1 5 2 6 3 2 5 1 6 4 8
REMARK H PARENT 6 4 1 7 4 9
REMARK Flexibility Score: inf
ROOT
ATOM      1  C   UNL     1     236.858 230.871 239.985  1.00  0.00     0.165 C 
ENDROOT
BRANCH   1   2
ATOM      2  C   UNL     1     235.671 230.627 239.036  1.00  0.00     0.190 C 
BRANCH   2   3
ATOM      3  O   UNL     1     234.485 231.150 239.573  1.00  0.00    -0.394 OA
ATOM      4  H   UNL     1     234.263 231.956 239.037  1.00  0.00     0.210 HD
ENDBRANCH   2   3
ENDBRANCH   1   2
BRANCH   1   5
ATOM      5  C   UNL     1     237.516 232.240 239.734  1.00  0.00     0.190 C 
BRANCH   5   6
ATOM      6  O   UNL     1     236.633 233.277 240.065  1.00  0.00    -0.394 OA
ATOM      7  H   UNL     1     236.504 233.814 239.240  1.00  0.00     0.210 HD
ENDBRANCH   5   6
ENDBRANCH   1   5
BRANCH   1   8
ATOM      8  O   UNL     1     236.441 230.762 241.323  1.00  0.00    -0.388 OA
ATOM      9  H   UNL     1     236.217 231.675 241.643  1.00  0.00     0.211 HD
ENDBRANCH   1   8
TORSDOF 5
ENDMDL
MODEL 9
REMARK VINA RESULT:    -2.945      1.668      3.017
REMARK INTER + INTRA:          -3.769
REMARK INTER:                  -3.766
REMARK INTRA:                  -0.002
REMARK UNBOUND:                -0.222
REMARK SMILES OCC(O)CO
REMARK SMILES IDX 3 1 5 2 6 3 2 5 1 6 4 8
REMARK H PARENT 6 4 1 7 4 9
REMARK Flexibility Score: inf
ROOT
ATOM      1  C   UNL     1     232.382 240.449 240.819  1.00  0.00     0.165 C 
ENDROOT
BRANCH   1   2
ATOM      2  C   UNL     1     231.682 239.377 241.673  1.00  0.00     0.190 C 
BRANCH   2   3
ATOM      3  O   UNL     1     230.693 238.713 240.931  1.00  0.00    -0.394 OA
ATOM      4  H   UNL     1     231.159 238.025 240.388  1.00  0.00     0.210 HD
ENDBRANCH   2   3
ENDBRANCH   1   2
BRANCH   1   5
ATOM      5  C   UNL     1     233.842 240.069 240.512  1.00  0.00     0.190 C 
BRANCH   5   6
ATOM      6  O   UNL     1     234.714 240.719 241.395  1.00  0.00    -0.394 OA
ATOM      7  H   UNL     1     234.751 240.164 242.218  1.00  0.00     0.210 HD
ENDBRANCH   5   6
ENDBRANCH   1   5
BRANCH   1   8
ATOM      8  O   UNL     1     231.667 240.665 239.628  1.00  0.00    -0.388 OA
ATOM      9  H   UNL     1     231.335 241.601 239.642  1.00  0.00     0.211 HD
ENDBRANCH   1   8
TORSDOF 5
ENDMDL
