MODEL 1
REMARK VINA RESULT:    -4.985      0.000      0.000
REMARK INTER + INTRA:          -9.615
REMARK INTER:                  -8.774
REMARK INTRA:                  -0.841
REMARK UNBOUND:                -0.841
REMARK SMILES CCCCCCC=CCCCCCCCC(=O)[O-]
REMARK SMILES IDX 10 1 11 2 12 3 13 4 14 5 15 6 16 7 17 8 18 9 9 10 8 11 7 12
REMARK SMILES IDX 6 13 5 14 4 15 3 16 2 17 1 18
REMARK H PARENT
REMARK Flexibility Score: inf
ROOT
ATOM      1  C   UNL     1       2.269  20.609  33.154  1.00  0.00     0.004 C 
ENDROOT
BRANCH   1   2
ATOM      2  C   UNL     1       2.694  19.136  33.021  1.00  0.00     0.000 C 
BRANCH   2   3
ATOM      3  C   UNL     1       2.025  18.222  34.060  1.00  0.00     0.000 C 
BRANCH   3   4
ATOM      4  C   UNL     1       3.073  17.489  34.904  1.00  0.00     0.000 C 
BRANCH   4   5
ATOM      5  C   UNL     1       4.493  17.897  34.495  1.00  0.00     0.006 C 
BRANCH   5   6
ATOM      6  C   UNL     1       5.321  16.675  34.086  1.00  0.00     0.053 C 
BRANCH   6   7
ATOM      7  C   UNL     1       6.140  16.980  32.871  1.00  0.00     0.041 C 
ATOM      8  O   UNL     1       6.230  18.162  32.449  1.00  0.00    -0.550 OA
ATOM      9  O   UNL     1       6.845  15.965  32.236  1.00  0.00    -0.550 OA
ENDBRANCH   6   7
ENDBRANCH   5   6
ENDBRANCH   4   5
ENDBRANCH   3   4
ENDBRANCH   2   3
ENDBRANCH   1   2
BRANCH   1  10
ATOM     10  C   UNL     1       0.843  20.813  33.695  1.00  0.00     0.027 C 
BRANCH  10  11
ATOM     11  C   UNL     1       0.081  21.859  32.920  1.00  0.00    -0.031 C 
ATOM     12  C   UNL     1      -0.624  21.623  31.798  1.00  0.00    -0.031 C 
BRANCH  12  13
ATOM     13  C   UNL     1      -0.684  20.295  31.088  1.00  0.00     0.027 C 
BRANCH  13  14
ATOM     14  C   UNL     1      -1.479  20.417  29.780  1.00  0.00     0.004 C 
BRANCH  14  15
ATOM     15  C   UNL     1      -1.536  19.096  28.994  1.00  0.00     0.000 C 
BRANCH  15  16
ATOM     16  C   UNL     1      -2.584  19.062  27.866  1.00  0.00    -0.000 C 
BRANCH  16  17
ATOM     17  C   UNL     1      -2.772  20.417  27.150  1.00  0.00    -0.003 C 
ATOM     18  C   UNL     1      -1.546  20.820  26.330  1.00  0.00     0.004 C 
ENDBRANCH  16  17
ENDBRANCH  15  16
ENDBRANCH  14  15
ENDBRANCH  13  14
ENDBRANCH  12  13
ENDBRANCH  10  11
ENDBRANCH   1  10
TORSDOF 13
ENDMDL
MODEL 2
REMARK VINA RESULT:    -4.902     15.376     18.580
REMARK INTER + INTRA:          -9.469
REMARK INTER:                  -8.921
REMARK INTRA:                  -0.548
REMARK UNBOUND:                -0.841
REMARK SMILES CCCCCCC=CCCCCCCCC(=O)[O-]
REMARK SMILES IDX 10 1 11 2 12 3 13 4 14 5 15 6 16 7 17 8 18 9 9 10 8 11 7 12
REMARK SMILES IDX 6 13 5 14 4 15 3 16 2 17 1 18
REMARK H PARENT
REMARK Flexibility Score: inf
ROOT
ATOM      1  C   UNL     1       1.691   8.046  15.472  1.00  0.00     0.004 C 
ENDROOT
BRANCH   1   2
ATOM      2  C   UNL     1       0.287   8.176  16.091  1.00  0.00     0.000 C 
BRANCH   2   3
ATOM      3  C   UNL     1       0.070   9.517  16.810  1.00  0.00     0.000 C 
BRANCH   3   4
ATOM      4  C   UNL     1      -0.888   9.357  17.996  1.00  0.00     0.000 C 
BRANCH   4   5
ATOM      5  C   UNL     1      -1.256  10.719  18.594  1.00  0.00     0.006 C 
BRANCH   5   6
ATOM      6  C   UNL     1      -1.230  10.674  20.125  1.00  0.00     0.053 C 
BRANCH   6   7
ATOM      7  C   UNL     1      -2.090   9.560  20.631  1.00  0.00     0.041 C 
ATOM      8  O   UNL     1      -1.659   8.781  21.522  1.00  0.00    -0.550 OA
ATOM      9  O   UNL     1      -3.387   9.412  20.155  1.00  0.00    -0.550 OA
ENDBRANCH   6   7
ENDBRANCH   5   6
ENDBRANCH   4   5
ENDBRANCH   3   4
ENDBRANCH   2   3
ENDBRANCH   1   2
BRANCH   1  10
ATOM     10  C   UNL     1       2.503   9.353  15.461  1.00  0.00     0.027 C 
BRANCH  10  11
ATOM     11  C   UNL     1       3.582   9.365  16.516  1.00  0.00    -0.031 C 
ATOM     12  C   UNL     1       4.817   9.874  16.346  1.00  0.00    -0.031 C 
BRANCH  12  13
ATOM     13  C   UNL     1       5.345  10.424  15.046  1.00  0.00     0.027 C 
BRANCH  13  14
ATOM     14  C   UNL     1       6.410  11.498  15.307  1.00  0.00     0.004 C 
BRANCH  14  15
ATOM     15  C   UNL     1       7.294  11.177  16.525  1.00  0.00     0.000 C 
BRANCH  15  16
ATOM     16  C   UNL     1       8.329  12.262  16.875  1.00  0.00    -0.000 C 
BRANCH  16  17
ATOM     17  C   UNL     1       8.867  12.164  18.319  1.00  0.00    -0.003 C 
ATOM     18  C   UNL     1       9.138  13.537  18.936  1.00  0.00     0.004 C 
ENDBRANCH  16  17
ENDBRANCH  15  16
ENDBRANCH  14  15
ENDBRANCH  13  14
ENDBRANCH  12  13
ENDBRANCH  10  11
ENDBRANCH   1  10
TORSDOF 13
ENDMDL
MODEL 3
REMARK VINA RESULT:    -4.733      3.762      8.344
REMARK INTER + INTRA:          -9.171
REMARK INTER:                  -8.418
REMARK INTRA:                  -0.754
REMARK UNBOUND:                -0.841
REMARK SMILES CCCCCCC=CCCCCCCCC(=O)[O-]
REMARK SMILES IDX 10 1 11 2 12 3 13 4 14 5 15 6 16 7 17 8 18 9 9 10 8 11 7 12
REMARK SMILES IDX 6 13 5 14 4 15 3 16 2 17 1 18
REMARK H PARENT
REMARK Flexibility Score: inf
ROOT
ATOM      1  C   UNL     1       0.558  21.479  32.865  1.00  0.00     0.004 C 
ENDROOT
BRANCH   1   2
ATOM      2  C   UNL     1      -0.513  21.508  31.760  1.00  0.00     0.000 C 
BRANCH   2   3
ATOM      3  C   UNL     1      -0.560  20.211  30.937  1.00  0.00     0.000 C 
BRANCH   3   4
ATOM      4  C   UNL     1      -1.595  20.313  29.810  1.00  0.00     0.000 C 
BRANCH   4   5
ATOM      5  C   UNL     1      -1.338  19.257  28.729  1.00  0.00     0.006 C 
BRANCH   5   6
ATOM      6  C   UNL     1      -2.497  19.198  27.730  1.00  0.00     0.053 C 
BRANCH   6   7
ATOM      7  C   UNL     1      -2.550  20.451  26.915  1.00  0.00     0.041 C 
ATOM      8  O   UNL     1      -3.543  21.221  27.001  1.00  0.00    -0.550 OA
ATOM      9  O   UNL     1      -1.480  20.795  26.097  1.00  0.00    -0.550 OA
ENDBRANCH   6   7
ENDBRANCH   5   6
ENDBRANCH   4   5
ENDBRANCH   3   4
ENDBRANCH   2   3
ENDBRANCH   1   2
BRANCH   1  10
ATOM     10  C   UNL     1       1.247  20.115  33.047  1.00  0.00     0.027 C 
BRANCH  10  11
ATOM     11  C   UNL     1       2.706  20.154  32.665  1.00  0.00    -0.031 C 
ATOM     12  C   UNL     1       3.633  19.273  33.084  1.00  0.00    -0.031 C 
BRANCH  12  13
ATOM     13  C   UNL     1       3.378  18.165  34.073  1.00  0.00     0.027 C 
BRANCH  13  14
ATOM     14  C   UNL     1       4.679  17.417  34.396  1.00  0.00     0.004 C 
BRANCH  14  15
ATOM     15  C   UNL     1       5.934  18.273  34.149  1.00  0.00     0.000 C 
BRANCH  15  16
ATOM     16  C   UNL     1       6.775  17.847  32.931  1.00  0.00    -0.000 C 
BRANCH  16  17
ATOM     17  C   UNL     1       6.254  16.574  32.231  1.00  0.00    -0.003 C 
ATOM     18  C   UNL     1       7.384  15.628  31.821  1.00  0.00     0.004 C 
ENDBRANCH  16  17
ENDBRANCH  15  16
ENDBRANCH  14  15
ENDBRANCH  13  14
ENDBRANCH  12  13
ENDBRANCH  10  11
ENDBRANCH   1  10
TORSDOF 13
ENDMDL
MODEL 4
REMARK VINA RESULT:    -4.622      3.653      7.721
REMARK INTER + INTRA:          -8.976
REMARK INTER:                  -7.915
REMARK INTRA:                  -1.061
REMARK UNBOUND:                -0.841
REMARK SMILES CCCCCCC=CCCCCCCCC(=O)[O-]
REMARK SMILES IDX 10 1 11 2 12 3 13 4 14 5 15 6 16 7 17 8 18 9 9 10 8 11 7 12
REMARK SMILES IDX 6 13 5 14 4 15 3 16 2 17 1 18
REMARK H PARENT
REMARK Flexibility Score: inf
ROOT
ATOM      1  C   UNL     1       0.301  22.435  33.197  1.00  0.00     0.004 C 
ENDROOT
BRANCH   1   2
ATOM      2  C   UNL     1      -0.829  21.769  32.391  1.00  0.00     0.000 C 
BRANCH   2   3
ATOM      3  C   UNL     1      -0.310  20.784  31.333  1.00  0.00     0.000 C 
BRANCH   3   4
ATOM      4  C   UNL     1      -1.294  20.665  30.163  1.00  0.00     0.000 C 
BRANCH   4   5
ATOM      5  C   UNL     1      -1.085  19.353  29.398  1.00  0.00     0.006 C 
BRANCH   5   6
ATOM      6  C   UNL     1      -2.221  19.109  28.401  1.00  0.00     0.053 C 
BRANCH   6   7
ATOM      7  C   UNL     1      -2.284  20.215  27.397  1.00  0.00     0.041 C 
ATOM      8  O   UNL     1      -1.291  20.459  26.662  1.00  0.00    -0.550 OA
ATOM      9  O   UNL     1      -3.457  20.942  27.235  1.00  0.00    -0.550 OA
ENDBRANCH   6   7
ENDBRANCH   5   6
ENDBRANCH   4   5
ENDBRANCH   3   4
ENDBRANCH   2   3
ENDBRANCH   1   2
BRANCH   1  10
ATOM     10  C   UNL     1       0.316  22.069  34.692  1.00  0.00     0.027 C 
BRANCH  10  11
ATOM     11  C   UNL     1       0.262  20.577  34.917  1.00  0.00    -0.031 C 
ATOM     12  C   UNL     1       1.324  19.753  34.856  1.00  0.00    -0.031 C 
BRANCH  12  13
ATOM     13  C   UNL     1       2.715  20.176  34.461  1.00  0.00     0.027 C 
BRANCH  13  14
ATOM     14  C   UNL     1       2.975  19.865  32.980  1.00  0.00     0.004 C 
BRANCH  14  15
ATOM     15  C   UNL     1       4.239  19.016  32.763  1.00  0.00     0.000 C 
BRANCH  15  16
ATOM     16  C   UNL     1       4.784  18.335  34.032  1.00  0.00    -0.000 C 
BRANCH  16  17
ATOM     17  C   UNL     1       5.217  16.869  33.813  1.00  0.00    -0.003 C 
ATOM     18  C   UNL     1       6.257  16.725  32.701  1.00  0.00     0.004 C 
ENDBRANCH  16  17
ENDBRANCH  15  16
ENDBRANCH  14  15
ENDBRANCH  13  14
ENDBRANCH  12  13
ENDBRANCH  10  11
ENDBRANCH   1  10
TORSDOF 13
ENDMDL
MODEL 5
REMARK VINA RESULT:    -4.265      1.128      2.000
REMARK INTER + INTRA:          -8.347
REMARK INTER:                  -7.419
REMARK INTRA:                  -0.928
REMARK UNBOUND:                -0.841
REMARK SMILES CCCCCCC=CCCCCCCCC(=O)[O-]
REMARK SMILES IDX 10 1 11 2 12 3 13 4 14 5 15 6 16 7 17 8 18 9 9 10 8 11 7 12
REMARK SMILES IDX 6 13 5 14 4 15 3 16 2 17 1 18
REMARK H PARENT
REMARK Flexibility Score: inf
ROOT
ATOM      1  C   UNL     1       3.652  19.639  32.886  1.00  0.00     0.004 C 
ENDROOT
BRANCH   1   2
ATOM      2  C   UNL     1       4.226  19.851  34.299  1.00  0.00     0.000 C 
BRANCH   2   3
ATOM      3  C   UNL     1       4.584  18.534  35.004  1.00  0.00     0.000 C 
BRANCH   3   4
ATOM      4  C   UNL     1       6.031  18.125  34.703  1.00  0.00     0.000 C 
BRANCH   4   5
ATOM      5  C   UNL     1       6.096  16.697  34.150  1.00  0.00     0.006 C 
BRANCH   5   6
ATOM      6  C   UNL     1       5.882  16.683  32.634  1.00  0.00     0.053 C 
BRANCH   6   7
ATOM      7  C   UNL     1       7.152  16.329  31.928  1.00  0.00     0.041 C 
ATOM      8  O   UNL     1       8.083  17.172  31.839  1.00  0.00    -0.550 OA
ATOM      9  O   UNL     1       7.329  15.050  31.413  1.00  0.00    -0.550 OA
ENDBRANCH   6   7
ENDBRANCH   5   6
ENDBRANCH   4   5
ENDBRANCH   3   4
ENDBRANCH   2   3
ENDBRANCH   1   2
BRANCH   1  10
ATOM     10  C   UNL     1       2.187  19.170  32.859  1.00  0.00     0.027 C 
BRANCH  10  11
ATOM     11  C   UNL     1       1.321  19.939  33.826  1.00  0.00    -0.031 C 
ATOM     12  C   UNL     1       0.416  20.870  33.472  1.00  0.00    -0.031 C 
BRANCH  12  13
ATOM     13  C   UNL     1       0.193  21.356  32.063  1.00  0.00     0.027 C 
BRANCH  13  14
ATOM     14  C   UNL     1      -0.961  20.588  31.402  1.00  0.00     0.004 C 
BRANCH  14  15
ATOM     15  C   UNL     1      -0.961  20.716  29.870  1.00  0.00     0.000 C 
BRANCH  15  16
ATOM     16  C   UNL     1      -1.740  19.612  29.130  1.00  0.00    -0.000 C 
BRANCH  16  17
ATOM     17  C   UNL     1      -1.788  19.804  27.599  1.00  0.00    -0.003 C 
ATOM     18  C   UNL     1      -3.077  20.484  27.135  1.00  0.00     0.004 C 
ENDBRANCH  16  17
ENDBRANCH  15  16
ENDBRANCH  14  15
ENDBRANCH  13  14
ENDBRANCH  12  13
ENDBRANCH  10  11
ENDBRANCH   1  10
TORSDOF 13
ENDMDL
MODEL 6
REMARK VINA RESULT:    -4.205      1.828      3.592
REMARK INTER + INTRA:          -8.242
REMARK INTER:                  -7.135
REMARK INTRA:                  -1.107
REMARK UNBOUND:                -0.841
REMARK SMILES CCCCCCC=CCCCCCCCC(=O)[O-]
REMARK SMILES IDX 10 1 11 2 12 3 13 4 14 5 15 6 16 7 17 8 18 9 9 10 8 11 7 12
REMARK SMILES IDX 6 13 5 14 4 15 3 16 2 17 1 18
REMARK H PARENT
REMARK Flexibility Score: inf
ROOT
ATOM      1  C   UNL     1      -0.369  20.700  31.710  1.00  0.00     0.004 C 
ENDROOT
BRANCH   1   2
ATOM      2  C   UNL     1      -0.625  22.114  32.263  1.00  0.00     0.000 C 
BRANCH   2   3
ATOM      3  C   UNL     1       0.060  22.361  33.616  1.00  0.00     0.000 C 
BRANCH   3   4
ATOM      4  C   UNL     1       0.432  21.038  34.294  1.00  0.00     0.000 C 
BRANCH   4   5
ATOM      5  C   UNL     1       1.947  20.932  34.503  1.00  0.00     0.006 C 
BRANCH   5   6
ATOM      6  C   UNL     1       2.402  19.470  34.509  1.00  0.00     0.053 C 
BRANCH   6   7
ATOM      7  C   UNL     1       3.395  19.225  33.419  1.00  0.00     0.041 C 
ATOM      8  O   UNL     1       3.458  20.006  32.432  1.00  0.00    -0.550 OA
ATOM      9  O   UNL     1       4.288  18.165  33.516  1.00  0.00    -0.550 OA
ENDBRANCH   6   7
ENDBRANCH   5   6
ENDBRANCH   4   5
ENDBRANCH   3   4
ENDBRANCH   2   3
ENDBRANCH   1   2
BRANCH   1  10
ATOM     10  C   UNL     1      -1.224  20.332  30.485  1.00  0.00     0.027 C 
BRANCH  10  11
ATOM     11  C   UNL     1      -0.411  19.679  29.394  1.00  0.00    -0.031 C 
ATOM     12  C   UNL     1      -0.870  18.731  28.556  1.00  0.00    -0.031 C 
BRANCH  12  13
ATOM     13  C   UNL     1      -2.239  18.106  28.639  1.00  0.00     0.027 C 
BRANCH  13  14
ATOM     14  C   UNL     1      -3.131  18.606  27.494  1.00  0.00     0.004 C 
BRANCH  14  15
ATOM     15  C   UNL     1      -3.694  20.015  27.750  1.00  0.00     0.000 C 
BRANCH  15  16
ATOM     16  C   UNL     1      -3.166  21.103  26.797  1.00  0.00    -0.000 C 
BRANCH  16  17
ATOM     17  C   UNL     1      -1.907  20.681  26.009  1.00  0.00    -0.003 C 
ATOM     18  C   UNL     1      -1.081  21.880  25.541  1.00  0.00     0.004 C 
ENDBRANCH  16  17
ENDBRANCH  15  16
ENDBRANCH  14  15
ENDBRANCH  13  14
ENDBRANCH  12  13
ENDBRANCH  10  11
ENDBRANCH   1  10
TORSDOF 13
ENDMDL
MODEL 7
REMARK VINA RESULT:    -4.108      3.674      8.159
REMARK INTER + INTRA:          -8.071
REMARK INTER:                  -7.335
REMARK INTRA:                  -0.736
REMARK UNBOUND:                -0.841
REMARK SMILES CCCCCCC=CCCCCCCCC(=O)[O-]
REMARK SMILES IDX 10 1 11 2 12 3 13 4 14 5 15 6 16 7 17 8 18 9 9 10 8 11 7 12
REMARK SMILES IDX 6 13 5 14 4 15 3 16 2 17 1 18
REMARK H PARENT
REMARK Flexibility Score: inf
ROOT
ATOM      1  C   UNL     1       2.067  20.258  32.272  1.00  0.00     0.004 C 
ENDROOT
BRANCH   1   2
ATOM      2  C   UNL     1       0.891  21.237  32.444  1.00  0.00     0.000 C 
BRANCH   2   3
ATOM      3  C   UNL     1      -0.453  20.644  31.994  1.00  0.00     0.000 C 
BRANCH   3   4
ATOM      4  C   UNL     1      -0.749  20.999  30.532  1.00  0.00     0.000 C 
BRANCH   4   5
ATOM      5  C   UNL     1      -1.752  20.016  29.918  1.00  0.00     0.006 C 
BRANCH   5   6
ATOM      6  C   UNL     1      -1.799  20.156  28.394  1.00  0.00     0.053 C 
BRANCH   6   7
ATOM      7  C   UNL     1      -2.490  18.981  27.780  1.00  0.00     0.041 C 
ATOM      8  O   UNL     1      -3.135  19.115  26.707  1.00  0.00    -0.550 OA
ATOM      9  O   UNL     1      -2.380  17.725  28.365  1.00  0.00    -0.550 OA
ENDBRANCH   6   7
ENDBRANCH   5   6
ENDBRANCH   4   5
ENDBRANCH   3   4
ENDBRANCH   2   3
ENDBRANCH   1   2
BRANCH   1  10
ATOM     10  C   UNL     1       1.986  19.005  33.162  1.00  0.00     0.027 C 
BRANCH  10  11
ATOM     11  C   UNL     1       2.315  19.305  34.604  1.00  0.00    -0.031 C 
ATOM     12  C   UNL     1       3.554  19.533  35.077  1.00  0.00    -0.031 C 
BRANCH  12  13
ATOM     13  C   UNL     1       4.816  19.432  34.259  1.00  0.00     0.027 C 
BRANCH  13  14
ATOM     14  C   UNL     1       5.409  18.019  34.353  1.00  0.00     0.004 C 
BRANCH  14  15
ATOM     15  C   UNL     1       5.525  17.329  32.983  1.00  0.00     0.000 C 
BRANCH  15  16
ATOM     16  C   UNL     1       6.475  16.118  32.949  1.00  0.00    -0.000 C 
BRANCH  16  17
ATOM     17  C   UNL     1       7.481  16.150  31.779  1.00  0.00    -0.003 C 
ATOM     18  C   UNL     1       7.556  14.817  31.033  1.00  0.00     0.004 C 
ENDBRANCH  16  17
ENDBRANCH  15  16
ENDBRANCH  14  15
ENDBRANCH  13  14
ENDBRANCH  12  13
ENDBRANCH  10  11
ENDBRANCH   1  10
TORSDOF 13
ENDMDL
MODEL 8
REMARK VINA RESULT:    -4.103      3.954      8.308
REMARK INTER + INTRA:          -8.062
REMARK INTER:                  -7.378
REMARK INTRA:                  -0.684
REMARK UNBOUND:                -0.841
REMARK SMILES CCCCCCC=CCCCCCCCC(=O)[O-]
REMARK SMILES IDX 10 1 11 2 12 3 13 4 14 5 15 6 16 7 17 8 18 9 9 10 8 11 7 12
REMARK SMILES IDX 6 13 5 14 4 15 3 16 2 17 1 18
REMARK H PARENT
REMARK Flexibility Score: inf
ROOT
ATOM      1  C   UNL     1      -0.327  21.277  32.038  1.00  0.00     0.004 C 
ENDROOT
BRANCH   1   2
ATOM      2  C   UNL     1      -0.811  21.152  30.582  1.00  0.00     0.000 C 
BRANCH   2   3
ATOM      3  C   UNL     1      -1.500  19.810  30.292  1.00  0.00     0.000 C 
BRANCH   3   4
ATOM      4  C   UNL     1      -1.214  19.342  28.860  1.00  0.00     0.000 C 
BRANCH   4   5
ATOM      5  C   UNL     1      -2.382  18.517  28.307  1.00  0.00     0.006 C 
BRANCH   5   6
ATOM      6  C   UNL     1      -2.791  19.006  26.915  1.00  0.00     0.053 C 
BRANCH   6   7
ATOM      7  C   UNL     1      -2.986  20.489  26.916  1.00  0.00     0.041 C 
ATOM      8  O   UNL     1      -3.860  21.012  27.656  1.00  0.00    -0.550 OA
ATOM      9  O   UNL     1      -2.166  21.299  26.139  1.00  0.00    -0.550 OA
ENDBRANCH   6   7
ENDBRANCH   5   6
ENDBRANCH   4   5
ENDBRANCH   3   4
ENDBRANCH   2   3
ENDBRANCH   1   2
BRANCH   1  10
ATOM     10  C   UNL     1       0.823  20.325  32.409  1.00  0.00     0.027 C 
BRANCH  10  11
ATOM     11  C   UNL     1       1.767  20.932  33.418  1.00  0.00    -0.031 C 
ATOM     12  C   UNL     1       2.103  20.366  34.592  1.00  0.00    -0.031 C 
BRANCH  12  13
ATOM     13  C   UNL     1       1.518  19.083  35.123  1.00  0.00     0.027 C 
BRANCH  13  14
ATOM     14  C   UNL     1       2.134  17.872  34.408  1.00  0.00     0.004 C 
BRANCH  14  15
ATOM     15  C   UNL     1       3.629  17.693  34.720  1.00  0.00     0.000 C 
BRANCH  15  16
ATOM     16  C   UNL     1       4.571  17.946  33.528  1.00  0.00    -0.000 C 
BRANCH  16  17
ATOM     17  C   UNL     1       5.653  16.859  33.350  1.00  0.00    -0.003 C 
ATOM     18  C   UNL     1       6.486  16.650  34.615  1.00  0.00     0.004 C 
ENDBRANCH  16  17
ENDBRANCH  15  16
ENDBRANCH  14  15
ENDBRANCH  13  14
ENDBRANCH  12  13
ENDBRANCH  10  11
ENDBRANCH   1  10
TORSDOF 13
ENDMDL
MODEL 9
REMARK VINA RESULT:    -2.323      1.156      2.341
REMARK INTER + INTRA:          -4.929
REMARK INTER:                  -4.382
REMARK INTRA:                  -0.547
REMARK UNBOUND:                -0.841
REMARK SMILES CCCCCCC=CCCCCCCCC(=O)[O-]
REMARK SMILES IDX 10 1 11 2 12 3 13 4 14 5 15 6 16 7 17 8 18 9 9 10 8 11 7 12
REMARK SMILES IDX 6 13 5 14 4 15 3 16 2 17 1 18
REMARK H PARENT
REMARK Flexibility Score: inf
ROOT
ATOM      1  C   UNL     1       0.263  22.308  33.368  1.00  0.00     0.004 C 
ENDROOT
BRANCH   1   2
ATOM      2  C   UNL     1       0.163  21.520  34.687  1.00  0.00     0.000 C 
BRANCH   2   3
ATOM      3  C   UNL     1       1.505  20.913  35.125  1.00  0.00     0.000 C 
BRANCH   3   4
ATOM      4  C   UNL     1       2.363  20.541  33.910  1.00  0.00     0.000 C 
BRANCH   4   5
ATOM      5  C   UNL     1       3.193  19.282  34.185  1.00  0.00     0.006 C 
BRANCH   5   6
ATOM      6  C   UNL     1       4.315  19.126  33.155  1.00  0.00     0.053 C 
BRANCH   6   7
ATOM      7  C   UNL     1       5.076  17.861  33.396  1.00  0.00     0.041 C 
ATOM      8  O   UNL     1       5.478  17.169  32.424  1.00  0.00    -0.550 OA
ATOM      9  O   UNL     1       5.386  17.472  34.693  1.00  0.00    -0.550 OA
ENDBRANCH   6   7
ENDBRANCH   5   6
ENDBRANCH   4   5
ENDBRANCH   3   4
ENDBRANCH   2   3
ENDBRANCH   1   2
BRANCH   1  10
ATOM     10  C   UNL     1      -0.578  21.727  32.217  1.00  0.00     0.027 C 
BRANCH  10  11
ATOM     11  C   UNL     1       0.117  20.582  31.522  1.00  0.00    -0.031 C 
ATOM     12  C   UNL     1      -0.346  19.955  30.425  1.00  0.00    -0.031 C 
BRANCH  12  13
ATOM     13  C   UNL     1      -1.676  20.237  29.775  1.00  0.00     0.027 C 
BRANCH  13  14
ATOM     14  C   UNL     1      -2.023  19.141  28.757  1.00  0.00     0.004 C 
BRANCH  14  15
ATOM     15  C   UNL     1      -3.199  19.527  27.844  1.00  0.00     0.000 C 
BRANCH  15  16
ATOM     16  C   UNL     1      -2.894  20.657  26.842  1.00  0.00    -0.000 C 
BRANCH  16  17
ATOM     17  C   UNL     1      -1.434  20.666  26.342  1.00  0.00    -0.003 C 
ATOM     18  C   UNL     1      -1.128  21.871  25.451  1.00  0.00     0.004 C 
ENDBRANCH  16  17
ENDBRANCH  15  16
ENDBRANCH  14  15
ENDBRANCH  13  14
ENDBRANCH  12  13
ENDBRANCH  10  11
ENDBRANCH   1  10
TORSDOF 13
ENDMDL
