MODEL 1
REMARK VINA RESULT:    -3.430      0.000      0.000
REMARK INTER + INTRA:          -7.506
REMARK INTER:                  -6.037
REMARK INTRA:                  -1.469
REMARK UNBOUND:                -1.469
REMARK SMILES CCCCCCCCCCCCCCC(=O)[O-]
REMARK SMILES IDX 9 1 10 2 11 3 12 4 13 5 14 6 15 7 16 8 17 9 8 10 7 11 6 12
REMARK SMILES IDX 5 13 4 14 3 15 2 16 1 17
REMARK H PARENT
REMARK Flexibility Score: inf
ROOT
ATOM      1  C   UNL     1      -9.138  15.638 -12.674  1.00  0.00     0.000 C 
ENDROOT
BRANCH   1   2
ATOM      2  C   UNL     1      -7.790  14.941 -12.439  1.00  0.00     0.000 C 
BRANCH   2   3
ATOM      3  C   UNL     1      -7.823  13.492 -12.949  1.00  0.00     0.000 C 
BRANCH   3   4
ATOM      4  C   UNL     1      -6.612  13.161 -13.846  1.00  0.00     0.000 C 
BRANCH   4   5
ATOM      5  C   UNL     1      -6.876  13.387 -15.345  1.00  0.00     0.006 C 
BRANCH   5   6
ATOM      6  C   UNL     1      -8.033  12.536 -15.882  1.00  0.00     0.053 C 
BRANCH   6   7
ATOM      7  C   UNL     1      -9.287  13.350 -15.960  1.00  0.00     0.041 C 
ATOM      8  O   UNL     1      -9.223  14.596 -16.123  1.00  0.00    -0.550 OA
ATOM      9  O   UNL     1     -10.526  12.726 -15.902  1.00  0.00    -0.550 OA
ENDBRANCH   6   7
ENDBRANCH   5   6
ENDBRANCH   4   5
ENDBRANCH   3   4
ENDBRANCH   2   3
ENDBRANCH   1   2
BRANCH   1  10
ATOM     10  C   UNL     1      -9.007  16.938 -13.487  1.00  0.00     0.000 C 
BRANCH  10  11
ATOM     11  C   UNL     1      -7.579  17.265 -13.968  1.00  0.00    -0.000 C 
BRANCH  11  12
ATOM     12  C   UNL     1      -7.453  17.582 -15.471  1.00  0.00    -0.000 C 
BRANCH  12  13
ATOM     13  C   UNL     1      -8.443  18.641 -15.995  1.00  0.00    -0.000 C 
BRANCH  13  14
ATOM     14  C   UNL     1      -8.050  20.101 -15.699  1.00  0.00    -0.000 C 
BRANCH  14  15
ATOM     15  C   UNL     1      -6.537  20.353 -15.541  1.00  0.00    -0.000 C 
BRANCH  15  16
ATOM     16  C   UNL     1      -6.132  21.067 -14.239  1.00  0.00    -0.003 C 
ATOM     17  C   UNL     1      -7.109  20.813 -13.092  1.00  0.00     0.004 C 
ENDBRANCH  15  16
ENDBRANCH  14  15
ENDBRANCH  13  14
ENDBRANCH  12  13
ENDBRANCH  11  12
ENDBRANCH  10  11
ENDBRANCH   1  10
TORSDOF 13
ENDMDL
MODEL 2
REMARK VINA RESULT:    -3.394      2.897      6.417
REMARK INTER + INTRA:          -7.442
REMARK INTER:                  -6.061
REMARK INTRA:                  -1.381
REMARK UNBOUND:                -1.469
REMARK SMILES CCCCCCCCCCCCCCC(=O)[O-]
REMARK SMILES IDX 9 1 10 2 11 3 12 4 13 5 14 6 15 7 16 8 17 9 8 10 7 11 6 12
REMARK SMILES IDX 5 13 4 14 3 15 2 16 1 17
REMARK H PARENT
REMARK Flexibility Score: inf
ROOT
ATOM      1  C   UNL     1      -8.995  15.828 -12.581  1.00  0.00     0.000 C 
ENDROOT
BRANCH   1   2
ATOM      2  C   UNL     1      -8.808  17.217 -13.210  1.00  0.00     0.000 C 
BRANCH   2   3
ATOM      3  C   UNL     1      -8.758  17.126 -14.742  1.00  0.00     0.000 C 
BRANCH   3   4
ATOM      4  C   UNL     1      -7.395  17.580 -15.309  1.00  0.00     0.000 C 
BRANCH   4   5
ATOM      5  C   UNL     1      -6.359  17.919 -14.224  1.00  0.00     0.006 C 
BRANCH   5   6
ATOM      6  C   UNL     1      -5.875  19.373 -14.294  1.00  0.00     0.053 C 
BRANCH   6   7
ATOM      7  C   UNL     1      -6.871  20.285 -13.649  1.00  0.00     0.041 C 
ATOM      8  O   UNL     1      -6.891  20.417 -12.397  1.00  0.00    -0.550 OA
ATOM      9  O   UNL     1      -7.744  21.028 -14.433  1.00  0.00    -0.550 OA
ENDBRANCH   6   7
ENDBRANCH   5   6
ENDBRANCH   4   5
ENDBRANCH   3   4
ENDBRANCH   2   3
ENDBRANCH   1   2
BRANCH   1  10
ATOM     10  C   UNL     1      -7.674  15.053 -12.437  1.00  0.00     0.000 C 
BRANCH  10  11
ATOM     11  C   UNL     1      -7.748  13.562 -12.823  1.00  0.00    -0.000 C 
BRANCH  11  12
ATOM     12  C   UNL     1      -6.434  12.960 -13.356  1.00  0.00    -0.000 C 
BRANCH  12  13
ATOM     13  C   UNL     1      -6.213  13.125 -14.873  1.00  0.00    -0.000 C 
BRANCH  13  14
ATOM     14  C   UNL     1      -7.454  13.581 -15.665  1.00  0.00    -0.000 C 
BRANCH  14  15
ATOM     15  C   UNL     1      -8.452  12.459 -16.019  1.00  0.00    -0.000 C 
BRANCH  15  16
ATOM     16  C   UNL     1      -9.930  12.805 -15.766  1.00  0.00    -0.003 C 
ATOM     17  C   UNL     1     -10.879  11.663 -16.125  1.00  0.00     0.004 C 
ENDBRANCH  15  16
ENDBRANCH  14  15
ENDBRANCH  13  14
ENDBRANCH  12  13
ENDBRANCH  11  12
ENDBRANCH  10  11
ENDBRANCH   1  10
TORSDOF 13
ENDMDL
MODEL 3
REMARK VINA RESULT:    -2.959      0.716      1.253
REMARK INTER + INTRA:          -6.676
REMARK INTER:                  -5.559
REMARK INTRA:                  -1.117
REMARK UNBOUND:                -1.469
REMARK SMILES CCCCCCCCCCCCCCC(=O)[O-]
REMARK SMILES IDX 9 1 10 2 11 3 12 4 13 5 14 6 15 7 16 8 17 9 8 10 7 11 6 12
REMARK SMILES IDX 5 13 4 14 3 15 2 16 1 17
REMARK H PARENT
REMARK Flexibility Score: inf
ROOT
ATOM      1  C   UNL     1      -7.989  15.072 -12.192  1.00  0.00     0.000 C 
ENDROOT
BRANCH   1   2
ATOM      2  C   UNL     1      -8.089  13.632 -12.716  1.00  0.00     0.000 C 
BRANCH   2   3
ATOM      3  C   UNL     1      -6.836  13.249 -13.518  1.00  0.00     0.000 C 
BRANCH   3   4
ATOM      4  C   UNL     1      -6.489  14.299 -14.594  1.00  0.00     0.000 C 
BRANCH   4   5
ATOM      5  C   UNL     1      -6.877  13.870 -16.020  1.00  0.00     0.006 C 
BRANCH   5   6
ATOM      6  C   UNL     1      -7.759  12.616 -16.047  1.00  0.00     0.053 C 
BRANCH   6   7
ATOM      7  C   UNL     1      -9.201  12.990 -15.906  1.00  0.00     0.041 C 
ATOM      8  O   UNL     1     -10.047  12.129 -15.548  1.00  0.00    -0.550 OA
ATOM      9  O   UNL     1      -9.605  14.301 -16.125  1.00  0.00    -0.550 OA
ENDBRANCH   6   7
ENDBRANCH   5   6
ENDBRANCH   4   5
ENDBRANCH   3   4
ENDBRANCH   2   3
ENDBRANCH   1   2
BRANCH   1  10
ATOM     10  C   UNL     1      -9.086  15.992 -12.755  1.00  0.00     0.000 C 
BRANCH  10  11
ATOM     11  C   UNL     1      -8.588  17.353 -13.281  1.00  0.00    -0.000 C 
BRANCH  11  12
ATOM     12  C   UNL     1      -8.512  17.472 -14.815  1.00  0.00    -0.000 C 
BRANCH  12  13
ATOM     13  C   UNL     1      -7.378  18.375 -15.340  1.00  0.00    -0.000 C 
BRANCH  13  14
ATOM     14  C   UNL     1      -7.842  19.702 -15.972  1.00  0.00    -0.000 C 
BRANCH  14  15
ATOM     15  C   UNL     1      -7.485  20.968 -15.168  1.00  0.00    -0.000 C 
BRANCH  15  16
ATOM     16  C   UNL     1      -6.265  20.823 -14.241  1.00  0.00    -0.003 C 
ATOM     17  C   UNL     1      -6.609  21.033 -12.767  1.00  0.00     0.004 C 
ENDBRANCH  15  16
ENDBRANCH  14  15
ENDBRANCH  13  14
ENDBRANCH  12  13
ENDBRANCH  11  12
ENDBRANCH  10  11
ENDBRANCH   1  10
TORSDOF 13
ENDMDL
MODEL 4
REMARK VINA RESULT:    -2.915      1.859      3.373
REMARK INTER + INTRA:          -6.598
REMARK INTER:                  -5.150
REMARK INTRA:                  -1.449
REMARK UNBOUND:                -1.469
REMARK SMILES CCCCCCCCCCCCCCC(=O)[O-]
REMARK SMILES IDX 9 1 10 2 11 3 12 4 13 5 14 6 15 7 16 8 17 9 8 10 7 11 6 12
REMARK SMILES IDX 5 13 4 14 3 15 2 16 1 17
REMARK H PARENT
REMARK Flexibility Score: inf
ROOT
ATOM      1  C   UNL     1      -8.909  13.120 -15.278  1.00  0.00     0.000 C 
ENDROOT
BRANCH   1   2
ATOM      2  C   UNL     1      -7.440  12.768 -15.003  1.00  0.00     0.000 C 
BRANCH   2   3
ATOM      3  C   UNL     1      -7.113  12.894 -13.508  1.00  0.00     0.000 C 
BRANCH   3   4
ATOM      4  C   UNL     1      -8.099  13.828 -12.773  1.00  0.00     0.000 C 
BRANCH   4   5
ATOM      5  C   UNL     1      -7.542  15.241 -12.529  1.00  0.00     0.006 C 
BRANCH   5   6
ATOM      6  C   UNL     1      -8.464  16.105 -11.660  1.00  0.00     0.053 C 
BRANCH   6   7
ATOM      7  C   UNL     1      -9.434  16.857 -12.515  1.00  0.00     0.041 C 
ATOM      8  O   UNL     1     -10.477  16.291 -12.936  1.00  0.00    -0.550 OA
ATOM      9  O   UNL     1      -9.211  18.196 -12.809  1.00  0.00    -0.550 OA
ENDBRANCH   6   7
ENDBRANCH   5   6
ENDBRANCH   4   5
ENDBRANCH   3   4
ENDBRANCH   2   3
ENDBRANCH   1   2
BRANCH   1  10
ATOM     10  C   UNL     1      -9.074  14.438 -16.056  1.00  0.00     0.000 C 
BRANCH  10  11
ATOM     11  C   UNL     1      -7.809  15.317 -16.124  1.00  0.00    -0.000 C 
BRANCH  11  12
ATOM     12  C   UNL     1      -8.044  16.819 -15.871  1.00  0.00    -0.000 C 
BRANCH  12  13
ATOM     13  C   UNL     1      -6.773  17.690 -15.914  1.00  0.00    -0.000 C 
BRANCH  13  14
ATOM     14  C   UNL     1      -6.291  18.206 -14.544  1.00  0.00    -0.000 C 
BRANCH  14  15
ATOM     15  C   UNL     1      -5.930  19.705 -14.500  1.00  0.00    -0.000 C 
BRANCH  15  16
ATOM     16  C   UNL     1      -6.999  20.609 -13.859  1.00  0.00    -0.003 C 
ATOM     17  C   UNL     1      -8.025  21.124 -14.866  1.00  0.00     0.004 C 
ENDBRANCH  15  16
ENDBRANCH  14  15
ENDBRANCH  13  14
ENDBRANCH  12  13
ENDBRANCH  11  12
ENDBRANCH  10  11
ENDBRANCH   1  10
TORSDOF 13
ENDMDL
MODEL 5
REMARK VINA RESULT:    -2.536      2.057      3.639
REMARK INTER + INTRA:          -5.931
REMARK INTER:                  -4.267
REMARK INTRA:                  -1.664
REMARK UNBOUND:                -1.469
REMARK SMILES CCCCCCCCCCCCCCC(=O)[O-]
REMARK SMILES IDX 9 1 10 2 11 3 12 4 13 5 14 6 15 7 16 8 17 9 8 10 7 11 6 12
REMARK SMILES IDX 5 13 4 14 3 15 2 16 1 17
REMARK H PARENT
REMARK Flexibility Score: inf
ROOT
ATOM      1  C   UNL     1      -6.751  16.171 -15.034  1.00  0.00     0.000 C 
ENDROOT
BRANCH   1   2
ATOM      2  C   UNL     1      -7.360  15.269 -16.117  1.00  0.00     0.000 C 
BRANCH   2   3
ATOM      3  C   UNL     1      -8.855  15.027 -15.855  1.00  0.00     0.000 C 
BRANCH   3   4
ATOM      4  C   UNL     1      -9.218  13.527 -15.891  1.00  0.00     0.000 C 
BRANCH   4   5
ATOM      5  C   UNL     1      -8.082  12.608 -15.409  1.00  0.00     0.006 C 
BRANCH   5   6
ATOM      6  C   UNL     1      -8.135  12.332 -13.902  1.00  0.00     0.053 C 
BRANCH   6   7
ATOM      7  C   UNL     1      -7.048  13.080 -13.196  1.00  0.00     0.041 C 
ATOM      8  O   UNL     1      -5.877  13.079 -13.657  1.00  0.00    -0.550 OA
ATOM      9  O   UNL     1      -7.338  13.816 -12.054  1.00  0.00    -0.550 OA
ENDBRANCH   6   7
ENDBRANCH   5   6
ENDBRANCH   4   5
ENDBRANCH   3   4
ENDBRANCH   2   3
ENDBRANCH   1   2
BRANCH   1  10
ATOM     10  C   UNL     1      -6.609  17.636 -15.484  1.00  0.00     0.000 C 
BRANCH  10  11
ATOM     11  C   UNL     1      -5.876  18.556 -14.487  1.00  0.00    -0.000 C 
BRANCH  11  12
ATOM     12  C   UNL     1      -6.432  19.990 -14.391  1.00  0.00    -0.000 C 
BRANCH  12  13
ATOM     13  C   UNL     1      -7.970  20.091 -14.408  1.00  0.00    -0.000 C 
BRANCH  13  14
ATOM     14  C   UNL     1      -8.668  19.610 -13.121  1.00  0.00    -0.000 C 
BRANCH  14  15
ATOM     15  C   UNL     1      -9.420  18.269 -13.247  1.00  0.00    -0.000 C 
BRANCH  15  16
ATOM     16  C   UNL     1      -9.017  17.202 -12.213  1.00  0.00    -0.003 C 
ATOM     17  C   UNL     1      -9.768  15.884 -12.394  1.00  0.00     0.004 C 
ENDBRANCH  15  16
ENDBRANCH  14  15
ENDBRANCH  13  14
ENDBRANCH  12  13
ENDBRANCH  11  12
ENDBRANCH  10  11
ENDBRANCH   1  10
TORSDOF 13
ENDMDL
MODEL 6
REMARK VINA RESULT:    -2.328      2.134      6.156
REMARK INTER + INTRA:          -5.566
REMARK INTER:                  -4.502
REMARK INTRA:                  -1.064
REMARK UNBOUND:                -1.469
REMARK SMILES CCCCCCCCCCCCCCC(=O)[O-]
REMARK SMILES IDX 9 1 10 2 11 3 12 4 13 5 14 6 15 7 16 8 17 9 8 10 7 11 6 12
REMARK SMILES IDX 5 13 4 14 3 15 2 16 1 17
REMARK H PARENT
REMARK Flexibility Score: inf
ROOT
ATOM      1  C   UNL     1      -9.548  16.970 -12.149  1.00  0.00     0.000 C 
ENDROOT
BRANCH   1   2
ATOM      2  C   UNL     1      -8.580  18.155 -12.273  1.00  0.00     0.000 C 
BRANCH   2   3
ATOM      3  C   UNL     1      -9.201  19.289 -13.103  1.00  0.00     0.000 C 
BRANCH   3   4
ATOM      4  C   UNL     1      -8.324  19.672 -14.314  1.00  0.00     0.000 C 
BRANCH   4   5
ATOM      5  C   UNL     1      -6.850  19.921 -13.953  1.00  0.00     0.006 C 
BRANCH   5   6
ATOM      6  C   UNL     1      -5.875  19.317 -14.972  1.00  0.00     0.053 C 
BRANCH   6   7
ATOM      7  C   UNL     1      -5.915  17.822 -14.909  1.00  0.00     0.041 C 
ATOM      8  O   UNL     1      -5.875  17.234 -13.797  1.00  0.00    -0.550 OA
ATOM      9  O   UNL     1      -6.046  17.080 -16.076  1.00  0.00    -0.550 OA
ENDBRANCH   6   7
ENDBRANCH   5   6
ENDBRANCH   4   5
ENDBRANCH   3   4
ENDBRANCH   2   3
ENDBRANCH   1   2
BRANCH   1  10
ATOM     10  C   UNL     1      -9.125  15.759 -12.999  1.00  0.00     0.000 C 
BRANCH  10  11
ATOM     11  C   UNL     1      -8.233  14.732 -12.273  1.00  0.00    -0.000 C 
BRANCH  11  12
ATOM     12  C   UNL     1      -7.721  13.575 -13.151  1.00  0.00    -0.000 C 
BRANCH  12  13
ATOM     13  C   UNL     1      -6.922  14.009 -14.396  1.00  0.00    -0.000 C 
BRANCH  13  14
ATOM     14  C   UNL     1      -7.101  13.107 -15.632  1.00  0.00    -0.000 C 
BRANCH  14  15
ATOM     15  C   UNL     1      -8.378  12.242 -15.631  1.00  0.00    -0.000 C 
BRANCH  15  16
ATOM     16  C   UNL     1      -9.660  12.984 -16.048  1.00  0.00    -0.003 C 
ATOM     17  C   UNL     1     -10.892  12.080 -16.068  1.00  0.00     0.004 C 
ENDBRANCH  15  16
ENDBRANCH  14  15
ENDBRANCH  13  14
ENDBRANCH  12  13
ENDBRANCH  11  12
ENDBRANCH  10  11
ENDBRANCH   1  10
TORSDOF 13
ENDMDL
MODEL 7
REMARK VINA RESULT:    -2.258      1.873      5.914
REMARK INTER + INTRA:          -5.443
REMARK INTER:                  -4.343
REMARK INTRA:                  -1.100
REMARK UNBOUND:                -1.469
REMARK SMILES CCCCCCCCCCCCCCC(=O)[O-]
REMARK SMILES IDX 9 1 10 2 11 3 12 4 13 5 14 6 15 7 16 8 17 9 8 10 7 11 6 12
REMARK SMILES IDX 5 13 4 14 3 15 2 16 1 17
REMARK H PARENT
REMARK Flexibility Score: inf
ROOT
ATOM      1  C   UNL     1      -5.944  18.644 -14.440  1.00  0.00     0.000 C 
ENDROOT
BRANCH   1   2
ATOM      2  C   UNL     1      -6.138  20.073 -13.913  1.00  0.00     0.000 C 
BRANCH   2   3
ATOM      3  C   UNL     1      -7.256  20.124 -12.861  1.00  0.00     0.000 C 
BRANCH   3   4
ATOM      4  C   UNL     1      -8.660  20.033 -13.496  1.00  0.00     0.000 C 
BRANCH   4   5
ATOM      5  C   UNL     1      -9.320  18.653 -13.337  1.00  0.00     0.006 C 
BRANCH   5   6
ATOM      6  C   UNL     1      -8.676  17.808 -12.231  1.00  0.00     0.053 C 
BRANCH   6   7
ATOM      7  C   UNL     1      -8.522  16.389 -12.681  1.00  0.00     0.041 C 
ATOM      8  O   UNL     1      -9.239  15.939 -13.614  1.00  0.00    -0.550 OA
ATOM      9  O   UNL     1      -7.555  15.577 -12.104  1.00  0.00    -0.550 OA
ENDBRANCH   6   7
ENDBRANCH   5   6
ENDBRANCH   4   5
ENDBRANCH   3   4
ENDBRANCH   2   3
ENDBRANCH   1   2
BRANCH   1  10
ATOM     10  C   UNL     1      -6.709  18.379 -15.749  1.00  0.00     0.000 C 
BRANCH  10  11
ATOM     11  C   UNL     1      -6.938  16.891 -16.080  1.00  0.00    -0.000 C 
BRANCH  11  12
ATOM     12  C   UNL     1      -5.904  15.921 -15.476  1.00  0.00    -0.000 C 
BRANCH  12  13
ATOM     13  C   UNL     1      -5.899  14.510 -16.096  1.00  0.00    -0.000 C 
BRANCH  13  14
ATOM     14  C   UNL     1      -7.269  13.806 -16.123  1.00  0.00    -0.000 C 
BRANCH  14  15
ATOM     15  C   UNL     1      -7.725  13.211 -14.775  1.00  0.00    -0.000 C 
BRANCH  15  16
ATOM     16  C   UNL     1      -9.235  12.927 -14.671  1.00  0.00    -0.003 C 
ATOM     17  C   UNL     1      -9.775  12.134 -15.859  1.00  0.00     0.004 C 
ENDBRANCH  15  16
ENDBRANCH  14  15
ENDBRANCH  13  14
ENDBRANCH  12  13
ENDBRANCH  11  12
ENDBRANCH  10  11
ENDBRANCH   1  10
TORSDOF 13
ENDMDL
