MODEL 1
REMARK VINA RESULT:    -3.438      0.000      0.000
REMARK INTER + INTRA:          -8.722
REMARK INTER:                  -7.457
REMARK INTRA:                  -1.265
REMARK UNBOUND:                -1.265
REMARK SMILES CCCCCCCCCCCCCCCCCCCCCC(=O)[O-]
REMARK SMILES IDX 12 1 11 2 10 3 9 4 8 5 7 6 6 7 5 8 4 9 3 10 2 11 1 12 13 13
REMARK SMILES IDX 14 14 15 15 16 16 17 17 18 18 19 19 20 20 21 21 22 22 23 23
REMARK SMILES IDX 24 24
REMARK H PARENT
REMARK Flexibility Score: inf
ROOT
ATOM      1  C   UNL     1      -4.821   9.391  -9.417  1.00  0.00     0.000 C 
ENDROOT
BRANCH   1   2
ATOM      2  C   UNL     1      -6.250   9.628  -8.886  1.00  0.00     0.000 C 
BRANCH   2   3
ATOM      3  C   UNL     1      -6.577   8.835  -7.609  1.00  0.00     0.000 C 
BRANCH   3   4
ATOM      4  C   UNL     1      -7.559   7.679  -7.861  1.00  0.00    -0.000 C 
BRANCH   4   5
ATOM      5  C   UNL     1      -7.233   6.893  -9.143  1.00  0.00    -0.000 C 
BRANCH   5   6
ATOM      6  C   UNL     1      -7.491   5.384  -8.992  1.00  0.00    -0.000 C 
BRANCH   6   7
ATOM      7  C   UNL     1      -8.833   4.940  -9.607  1.00  0.00    -0.000 C 
BRANCH   7   8
ATOM      8  C   UNL     1      -9.760   4.152  -8.662  1.00  0.00    -0.000 C 
BRANCH   8   9
ATOM      9  C   UNL     1      -9.830   4.755  -7.248  1.00  0.00    -0.000 C 
BRANCH   9  10
ATOM     10  C   UNL     1      -9.586   3.712  -6.140  1.00  0.00    -0.000 C 
BRANCH  10  11
ATOM     11  C   UNL     1     -10.054   4.134  -4.735  1.00  0.00    -0.003 C 
ATOM     12  C   UNL     1     -10.125   2.965  -3.753  1.00  0.00     0.004 C 
ENDBRANCH  10  11
ENDBRANCH   9  10
ENDBRANCH   8   9
ENDBRANCH   7   8
ENDBRANCH   6   7
ENDBRANCH   5   6
ENDBRANCH   4   5
ENDBRANCH   3   4
ENDBRANCH   2   3
ENDBRANCH   1   2
BRANCH   1  13
ATOM     13  C   UNL     1      -3.772   9.396  -8.291  1.00  0.00     0.000 C 
BRANCH  13  14
ATOM     14  C   UNL     1      -3.290   7.980  -7.929  1.00  0.00     0.000 C 
BRANCH  14  15
ATOM     15  C   UNL     1      -3.694   7.571  -6.504  1.00  0.00     0.000 C 
BRANCH  15  16
ATOM     16  C   UNL     1      -3.604   6.048  -6.319  1.00  0.00     0.000 C 
BRANCH  16  17
ATOM     17  C   UNL     1      -3.754   5.619  -4.849  1.00  0.00     0.000 C 
BRANCH  17  18
ATOM     18  C   UNL     1      -2.654   4.640  -4.402  1.00  0.00     0.000 C 
BRANCH  18  19
ATOM     19  C   UNL     1      -3.177   3.569  -3.430  1.00  0.00     0.000 C 
BRANCH  19  20
ATOM     20  C   UNL     1      -2.051   2.733  -2.804  1.00  0.00     0.006 C 
BRANCH  20  21
ATOM     21  C   UNL     1      -0.773   3.567  -2.655  1.00  0.00     0.053 C 
BRANCH  21  22
ATOM     22  C   UNL     1      -0.392   3.693  -1.213  1.00  0.00     0.041 C 
ATOM     23  O   UNL     1      -0.400   2.682  -0.465  1.00  0.00    -0.550 OA
ATOM     24  O   UNL     1       0.009   4.923  -0.705  1.00  0.00    -0.550 OA
ENDBRANCH  21  22
ENDBRANCH  20  21
ENDBRANCH  19  20
ENDBRANCH  18  19
ENDBRANCH  17  18
ENDBRANCH  16  17
ENDBRANCH  15  16
ENDBRANCH  14  15
ENDBRANCH  13  14
ENDBRANCH   1  13
TORSDOF 20
ENDMDL
MODEL 2
REMARK VINA RESULT:    -3.274      3.474      7.954
REMARK INTER + INTRA:          -8.367
REMARK INTER:                  -7.203
REMARK INTRA:                  -1.163
REMARK UNBOUND:                -1.265
REMARK SMILES CCCCCCCCCCCCCCCCCCCCCC(=O)[O-]
REMARK SMILES IDX 12 1 11 2 10 3 9 4 8 5 7 6 6 7 5 8 4 9 3 10 2 11 1 12 13 13
REMARK SMILES IDX 14 14 15 15 16 16 17 17 18 18 19 19 20 20 21 21 22 22 23 23
REMARK SMILES IDX 24 24
REMARK H PARENT
REMARK Flexibility Score: inf
ROOT
ATOM      1  C   UNL     1      -4.392   7.924  -6.929  1.00  0.00     0.000 C 
ENDROOT
BRANCH   1   2
ATOM      2  C   UNL     1      -3.320   6.861  -6.608  1.00  0.00     0.000 C 
BRANCH   2   3
ATOM      3  C   UNL     1      -3.888   5.580  -5.973  1.00  0.00     0.000 C 
BRANCH   3   4
ATOM      4  C   UNL     1      -3.489   5.421  -4.497  1.00  0.00    -0.000 C 
BRANCH   4   5
ATOM      5  C   UNL     1      -2.489   4.274  -4.273  1.00  0.00    -0.000 C 
BRANCH   5   6
ATOM      6  C   UNL     1      -2.822   3.434  -3.028  1.00  0.00    -0.000 C 
BRANCH   6   7
ATOM      7  C   UNL     1      -1.574   2.815  -2.369  1.00  0.00    -0.000 C 
BRANCH   7   8
ATOM      8  C   UNL     1      -0.548   2.209  -3.345  1.00  0.00    -0.000 C 
BRANCH   8   9
ATOM      9  C   UNL     1      -0.597   0.671  -3.391  1.00  0.00    -0.000 C 
BRANCH   9  10
ATOM     10  C   UNL     1      -2.026   0.113  -3.250  1.00  0.00    -0.000 C 
BRANCH  10  11
ATOM     11  C   UNL     1      -2.163  -1.399  -3.508  1.00  0.00    -0.003 C 
ATOM     12  C   UNL     1      -1.764  -1.801  -4.927  1.00  0.00     0.004 C 
ENDBRANCH  10  11
ENDBRANCH   9  10
ENDBRANCH   8   9
ENDBRANCH   7   8
ENDBRANCH   6   7
ENDBRANCH   5   6
ENDBRANCH   4   5
ENDBRANCH   3   4
ENDBRANCH   2   3
ENDBRANCH   1   2
BRANCH   1  13
ATOM     13  C   UNL     1      -5.739   7.617  -6.252  1.00  0.00     0.000 C 
BRANCH  13  14
ATOM     14  C   UNL     1      -6.941   7.933  -7.159  1.00  0.00     0.000 C 
BRANCH  14  15
ATOM     15  C   UNL     1      -6.588   7.842  -8.652  1.00  0.00     0.000 C 
BRANCH  15  16
ATOM     16  C   UNL     1      -6.203   6.406  -9.044  1.00  0.00     0.000 C 
BRANCH  16  17
ATOM     17  C   UNL     1      -7.221   5.364  -8.550  1.00  0.00     0.000 C 
BRANCH  17  18
ATOM     18  C   UNL     1      -8.281   5.022  -9.612  1.00  0.00     0.000 C 
BRANCH  18  19
ATOM     19  C   UNL     1      -9.563   4.435  -8.998  1.00  0.00     0.000 C 
BRANCH  19  20
ATOM     20  C   UNL     1      -9.648   4.650  -7.480  1.00  0.00     0.006 C 
BRANCH  20  21
ATOM     21  C   UNL     1      -9.543   3.315  -6.734  1.00  0.00     0.053 C 
BRANCH  21  22
ATOM     22  C   UNL     1      -9.758   3.514  -5.266  1.00  0.00     0.041 C 
ATOM     23  O   UNL     1      -9.576   2.562  -4.464  1.00  0.00    -0.550 OA
ATOM     24  O   UNL     1     -10.125   4.763  -4.781  1.00  0.00    -0.550 OA
ENDBRANCH  21  22
ENDBRANCH  20  21
ENDBRANCH  19  20
ENDBRANCH  18  19
ENDBRANCH  17  18
ENDBRANCH  16  17
ENDBRANCH  15  16
ENDBRANCH  14  15
ENDBRANCH  13  14
ENDBRANCH   1  13
TORSDOF 20
ENDMDL
MODEL 3
REMARK VINA RESULT:    -3.261      4.069      8.587
REMARK INTER + INTRA:          -8.339
REMARK INTER:                  -6.776
REMARK INTRA:                  -1.563
REMARK UNBOUND:                -1.265
REMARK SMILES CCCCCCCCCCCCCCCCCCCCCC(=O)[O-]
REMARK SMILES IDX 12 1 11 2 10 3 9 4 8 5 7 6 6 7 5 8 4 9 3 10 2 11 1 12 13 13
REMARK SMILES IDX 14 14 15 15 16 16 17 17 18 18 19 19 20 20 21 21 22 22 23 23
REMARK SMILES IDX 24 24
REMARK H PARENT
REMARK Flexibility Score: inf
ROOT
ATOM      1  C   UNL     1      -4.995   6.249  -6.738  1.00  0.00     0.000 C 
ENDROOT
BRANCH   1   2
ATOM      2  C   UNL     1      -3.924   5.189  -6.405  1.00  0.00     0.000 C 
BRANCH   2   3
ATOM      3  C   UNL     1      -3.391   5.277  -4.964  1.00  0.00     0.000 C 
BRANCH   3   4
ATOM      4  C   UNL     1      -2.610   4.022  -4.542  1.00  0.00    -0.000 C 
BRANCH   4   5
ATOM      5  C   UNL     1      -2.999   3.526  -3.139  1.00  0.00    -0.000 C 
BRANCH   5   6
ATOM      6  C   UNL     1      -1.797   2.973  -2.353  1.00  0.00    -0.000 C 
BRANCH   6   7
ATOM      7  C   UNL     1      -0.707   2.377  -3.264  1.00  0.00    -0.000 C 
BRANCH   7   8
ATOM      8  C   UNL     1      -0.384   0.891  -3.016  1.00  0.00    -0.000 C 
BRANCH   8   9
ATOM      9  C   UNL     1      -1.541  -0.048  -3.402  1.00  0.00    -0.000 C 
BRANCH   9  10
ATOM     10  C   UNL     1      -1.092  -1.210  -4.309  1.00  0.00    -0.000 C 
BRANCH  10  11
ATOM     11  C   UNL     1      -2.232  -2.092  -4.850  1.00  0.00    -0.003 C 
ATOM     12  C   UNL     1      -2.107  -3.555  -4.428  1.00  0.00     0.004 C 
ENDBRANCH  10  11
ENDBRANCH   9  10
ENDBRANCH   8   9
ENDBRANCH   7   8
ENDBRANCH   6   7
ENDBRANCH   5   6
ENDBRANCH   4   5
ENDBRANCH   3   4
ENDBRANCH   2   3
ENDBRANCH   1   2
BRANCH   1  13
ATOM     13  C   UNL     1      -4.542   7.673  -6.368  1.00  0.00     0.000 C 
BRANCH  13  14
ATOM     14  C   UNL     1      -3.436   8.200  -7.298  1.00  0.00     0.000 C 
BRANCH  14  15
ATOM     15  C   UNL     1      -3.886   8.264  -8.766  1.00  0.00     0.000 C 
BRANCH  15  16
ATOM     16  C   UNL     1      -4.255   9.701  -9.170  1.00  0.00     0.000 C 
BRANCH  16  17
ATOM     17  C   UNL     1      -5.713   9.827  -9.644  1.00  0.00     0.000 C 
BRANCH  17  18
ATOM     18  C   UNL     1      -6.723   9.727  -8.487  1.00  0.00     0.000 C 
BRANCH  18  19
ATOM     19  C   UNL     1      -8.177   9.636  -8.980  1.00  0.00     0.000 C 
BRANCH  19  20
ATOM     20  C   UNL     1      -8.659   8.187  -9.149  1.00  0.00     0.006 C 
BRANCH  20  21
ATOM     21  C   UNL     1      -7.989   7.269  -8.121  1.00  0.00     0.053 C 
BRANCH  21  22
ATOM     22  C   UNL     1      -8.599   5.903  -8.159  1.00  0.00     0.041 C 
ATOM     23  O   UNL     1      -8.122   4.975  -7.456  1.00  0.00    -0.550 OA
ATOM     24  O   UNL     1      -9.720   5.664  -8.946  1.00  0.00    -0.550 OA
ENDBRANCH  21  22
ENDBRANCH  20  21
ENDBRANCH  19  20
ENDBRANCH  18  19
ENDBRANCH  17  18
ENDBRANCH  16  17
ENDBRANCH  15  16
ENDBRANCH  14  15
ENDBRANCH  13  14
ENDBRANCH   1  13
TORSDOF 20
ENDMDL
MODEL 4
REMARK VINA RESULT:    -3.204      3.944      8.448
REMARK INTER + INTRA:          -8.215
REMARK INTER:                  -6.383
REMARK INTRA:                  -1.832
REMARK UNBOUND:                -1.265
REMARK SMILES CCCCCCCCCCCCCCCCCCCCCC(=O)[O-]
REMARK SMILES IDX 12 1 11 2 10 3 9 4 8 5 7 6 6 7 5 8 4 9 3 10 2 11 1 12 13 13
REMARK SMILES IDX 14 14 15 15 16 16 17 17 18 18 19 19 20 20 21 21 22 22 23 23
REMARK SMILES IDX 24 24
REMARK H PARENT
REMARK Flexibility Score: inf
ROOT
ATOM      1  C   UNL     1      -4.566   6.098  -6.919  1.00  0.00     0.000 C 
ENDROOT
BRANCH   1   2
ATOM      2  C   UNL     1      -3.625   5.135  -6.166  1.00  0.00     0.000 C 
BRANCH   2   3
ATOM      3  C   UNL     1      -3.564   5.387  -4.649  1.00  0.00     0.000 C 
BRANCH   3   4
ATOM      4  C   UNL     1      -2.481   4.548  -3.950  1.00  0.00    -0.000 C 
BRANCH   4   5
ATOM      5  C   UNL     1      -3.033   3.237  -3.365  1.00  0.00    -0.000 C 
BRANCH   5   6
ATOM      6  C   UNL     1      -2.268   2.782  -2.111  1.00  0.00    -0.000 C 
BRANCH   6   7
ATOM      7  C   UNL     1      -0.752   2.640  -2.350  1.00  0.00    -0.000 C 
BRANCH   7   8
ATOM      8  C   UNL     1      -0.356   1.787  -3.570  1.00  0.00    -0.000 C 
BRANCH   8   9
ATOM      9  C   UNL     1      -0.374   0.275  -3.277  1.00  0.00    -0.000 C 
BRANCH   9  10
ATOM     10  C   UNL     1      -1.573  -0.446  -3.923  1.00  0.00    -0.000 C 
BRANCH  10  11
ATOM     11  C   UNL     1      -1.234  -1.777  -4.618  1.00  0.00    -0.003 C 
ATOM     12  C   UNL     1      -2.416  -2.745  -4.662  1.00  0.00     0.004 C 
ENDBRANCH  10  11
ENDBRANCH   9  10
ENDBRANCH   8   9
ENDBRANCH   7   8
ENDBRANCH   6   7
ENDBRANCH   5   6
ENDBRANCH   4   5
ENDBRANCH   3   4
ENDBRANCH   2   3
ENDBRANCH   1   2
BRANCH   1  13
ATOM     13  C   UNL     1      -5.019   7.278  -6.040  1.00  0.00     0.000 C 
BRANCH  13  14
ATOM     14  C   UNL     1      -5.864   8.302  -6.818  1.00  0.00     0.000 C 
BRANCH  14  15
ATOM     15  C   UNL     1      -5.131   8.851  -8.052  1.00  0.00     0.000 C 
BRANCH  15  16
ATOM     16  C   UNL     1      -6.096   9.036  -9.233  1.00  0.00     0.000 C 
BRANCH  16  17
ATOM     17  C   UNL     1      -6.374   7.723  -9.983  1.00  0.00     0.000 C 
BRANCH  17  18
ATOM     18  C   UNL     1      -7.861   7.326  -9.953  1.00  0.00     0.000 C 
BRANCH  18  19
ATOM     19  C   UNL     1      -8.067   5.803 -10.027  1.00  0.00     0.000 C 
BRANCH  19  20
ATOM     20  C   UNL     1      -7.603   5.078  -8.755  1.00  0.00     0.006 C 
BRANCH  20  21
ATOM     21  C   UNL     1      -8.358   5.599  -7.526  1.00  0.00     0.053 C 
BRANCH  21  22
ATOM     22  C   UNL     1      -9.409   4.622  -7.102  1.00  0.00     0.041 C 
ATOM     23  O   UNL     1      -9.718   4.512  -5.887  1.00  0.00    -0.550 OA
ATOM     24  O   UNL     1     -10.073   3.858  -8.054  1.00  0.00    -0.550 OA
ENDBRANCH  21  22
ENDBRANCH  20  21
ENDBRANCH  19  20
ENDBRANCH  18  19
ENDBRANCH  17  18
ENDBRANCH  16  17
ENDBRANCH  15  16
ENDBRANCH  14  15
ENDBRANCH  13  14
ENDBRANCH   1  13
TORSDOF 20
ENDMDL
MODEL 5
REMARK VINA RESULT:    -3.196      3.606      7.870
REMARK INTER + INTRA:          -8.198
REMARK INTER:                  -6.127
REMARK INTRA:                  -2.071
REMARK UNBOUND:                -1.265
REMARK SMILES CCCCCCCCCCCCCCCCCCCCCC(=O)[O-]
REMARK SMILES IDX 12 1 11 2 10 3 9 4 8 5 7 6 6 7 5 8 4 9 3 10 2 11 1 12 13 13
REMARK SMILES IDX 14 14 15 15 16 16 17 17 18 18 19 19 20 20 21 21 22 22 23 23
REMARK SMILES IDX 24 24
REMARK H PARENT
REMARK Flexibility Score: inf
ROOT
ATOM      1  C   UNL     1      -3.461   8.858  -8.145  1.00  0.00     0.000 C 
ENDROOT
BRANCH   1   2
ATOM      2  C   UNL     1      -4.378   7.641  -7.906  1.00  0.00     0.000 C 
BRANCH   2   3
ATOM      3  C   UNL     1      -4.939   7.559  -6.475  1.00  0.00     0.000 C 
BRANCH   3   4
ATOM      4  C   UNL     1      -4.135   6.606  -5.576  1.00  0.00    -0.000 C 
BRANCH   4   5
ATOM      5  C   UNL     1      -3.872   5.244  -6.240  1.00  0.00    -0.000 C 
BRANCH   5   6
ATOM      6  C   UNL     1      -2.910   4.365  -5.423  1.00  0.00    -0.000 C 
BRANCH   6   7
ATOM      7  C   UNL     1      -3.032   4.591  -3.904  1.00  0.00    -0.000 C 
BRANCH   7   8
ATOM      8  C   UNL     1      -2.847   3.332  -3.035  1.00  0.00    -0.000 C 
BRANCH   8   9
ATOM      9  C   UNL     1      -1.668   3.450  -2.052  1.00  0.00    -0.000 C 
BRANCH   9  10
ATOM     10  C   UNL     1      -0.551   2.425  -2.330  1.00  0.00    -0.000 C 
BRANCH  10  11
ATOM     11  C   UNL     1      -0.730   1.602  -3.620  1.00  0.00    -0.003 C 
ATOM     12  C   UNL     1      -1.331   0.220  -3.368  1.00  0.00     0.004 C 
ENDBRANCH  10  11
ENDBRANCH   9  10
ENDBRANCH   8   9
ENDBRANCH   7   8
ENDBRANCH   6   7
ENDBRANCH   5   6
ENDBRANCH   4   5
ENDBRANCH   3   4
ENDBRANCH   2   3
ENDBRANCH   1   2
BRANCH   1  13
ATOM     13  C   UNL     1      -4.242  10.091  -8.637  1.00  0.00     0.000 C 
BRANCH  13  14
ATOM     14  C   UNL     1      -4.801   9.905 -10.058  1.00  0.00     0.000 C 
BRANCH  14  15
ATOM     15  C   UNL     1      -6.336   9.957 -10.096  1.00  0.00     0.000 C 
BRANCH  15  16
ATOM     16  C   UNL     1      -6.920  10.096  -8.681  1.00  0.00     0.000 C 
BRANCH  16  17
ATOM     17  C   UNL     1      -8.437   9.841  -8.638  1.00  0.00     0.000 C 
BRANCH  17  18
ATOM     18  C   UNL     1      -8.946   9.086  -9.879  1.00  0.00     0.000 C 
BRANCH  18  19
ATOM     19  C   UNL     1      -9.318   7.627  -9.570  1.00  0.00     0.000 C 
BRANCH  19  20
ATOM     20  C   UNL     1      -8.126   6.668  -9.704  1.00  0.00     0.006 C 
BRANCH  20  21
ATOM     21  C   UNL     1      -7.745   6.080  -8.340  1.00  0.00     0.053 C 
BRANCH  21  22
ATOM     22  C   UNL     1      -8.698   4.994  -7.950  1.00  0.00     0.041 C 
ATOM     23  O   UNL     1      -9.141   4.198  -8.818  1.00  0.00    -0.550 OA
ATOM     24  O   UNL     1      -9.068   4.840  -6.619  1.00  0.00    -0.550 OA
ENDBRANCH  21  22
ENDBRANCH  20  21
ENDBRANCH  19  20
ENDBRANCH  18  19
ENDBRANCH  17  18
ENDBRANCH  16  17
ENDBRANCH  15  16
ENDBRANCH  14  15
ENDBRANCH  13  14
ENDBRANCH   1  13
TORSDOF 20
ENDMDL
MODEL 6
REMARK VINA RESULT:    -3.044      2.165      3.628
REMARK INTER + INTRA:          -7.869
REMARK INTER:                  -5.939
REMARK INTRA:                  -1.930
REMARK UNBOUND:                -1.265
REMARK SMILES CCCCCCCCCCCCCCCCCCCCCC(=O)[O-]
REMARK SMILES IDX 12 1 11 2 10 3 9 4 8 5 7 6 6 7 5 8 4 9 3 10 2 11 1 12 13 13
REMARK SMILES IDX 14 14 15 15 16 16 17 17 18 18 19 19 20 20 21 21 22 22 23 23
REMARK SMILES IDX 24 24
REMARK H PARENT
REMARK Flexibility Score: inf
ROOT
ATOM      1  C   UNL     1      -4.671   7.249  -7.843  1.00  0.00     0.000 C 
ENDROOT
BRANCH   1   2
ATOM      2  C   UNL     1      -3.828   8.541  -7.836  1.00  0.00     0.000 C 
BRANCH   2   3
ATOM      3  C   UNL     1      -4.268   9.574  -8.888  1.00  0.00     0.000 C 
BRANCH   3   4
ATOM      4  C   UNL     1      -5.724   9.378  -9.342  1.00  0.00    -0.000 C 
BRANCH   4   5
ATOM      5  C   UNL     1      -6.739   9.976  -8.353  1.00  0.00    -0.000 C 
BRANCH   5   6
ATOM      6  C   UNL     1      -8.095   9.251  -8.388  1.00  0.00    -0.000 C 
BRANCH   6   7
ATOM      7  C   UNL     1      -8.243   8.311  -9.600  1.00  0.00    -0.000 C 
BRANCH   7   8
ATOM      8  C   UNL     1      -9.549   7.496  -9.644  1.00  0.00    -0.000 C 
BRANCH   8   9
ATOM      9  C   UNL     1      -9.309   5.975  -9.625  1.00  0.00    -0.000 C 
BRANCH   9  10
ATOM     10  C   UNL     1      -7.836   5.605  -9.364  1.00  0.00    -0.000 C 
BRANCH  10  11
ATOM     11  C   UNL     1      -7.555   4.993  -7.980  1.00  0.00    -0.003 C 
ATOM     12  C   UNL     1      -8.791   4.952  -7.082  1.00  0.00     0.004 C 
ENDBRANCH  10  11
ENDBRANCH   9  10
ENDBRANCH   8   9
ENDBRANCH   7   8
ENDBRANCH   6   7
ENDBRANCH   5   6
ENDBRANCH   4   5
ENDBRANCH   3   4
ENDBRANCH   2   3
ENDBRANCH   1   2
BRANCH   1  13
ATOM     13  C   UNL     1      -4.952   6.728  -6.422  1.00  0.00     0.000 C 
BRANCH  13  14
ATOM     14  C   UNL     1      -3.664   6.517  -5.607  1.00  0.00     0.000 C 
BRANCH  14  15
ATOM     15  C   UNL     1      -3.379   5.032  -5.334  1.00  0.00     0.000 C 
BRANCH  15  16
ATOM     16  C   UNL     1      -2.859   4.822  -3.903  1.00  0.00     0.000 C 
BRANCH  16  17
ATOM     17  C   UNL     1      -2.941   3.353  -3.452  1.00  0.00     0.000 C 
BRANCH  17  18
ATOM     18  C   UNL     1      -2.199   3.098  -2.128  1.00  0.00     0.000 C 
BRANCH  18  19
ATOM     19  C   UNL     1      -0.740   2.662  -2.344  1.00  0.00     0.000 C 
BRANCH  19  20
ATOM     20  C   UNL     1      -0.550   1.832  -3.623  1.00  0.00     0.006 C 
BRANCH  20  21
ATOM     21  C   UNL     1      -0.330   0.354  -3.284  1.00  0.00     0.053 C 
BRANCH  21  22
ATOM     22  C   UNL     1      -1.526  -0.459  -3.670  1.00  0.00     0.041 C 
ATOM     23  O   UNL     1      -2.583  -0.394  -2.990  1.00  0.00    -0.550 OA
ATOM     24  O   UNL     1      -1.484  -1.260  -4.805  1.00  0.00    -0.550 OA
ENDBRANCH  21  22
ENDBRANCH  20  21
ENDBRANCH  19  20
ENDBRANCH  18  19
ENDBRANCH  17  18
ENDBRANCH  16  17
ENDBRANCH  15  16
ENDBRANCH  14  15
ENDBRANCH  13  14
ENDBRANCH   1  13
TORSDOF 20
ENDMDL
MODEL 7
REMARK VINA RESULT:    -2.857      1.569      1.893
REMARK INTER + INTRA:          -7.462
REMARK INTER:                  -6.230
REMARK INTRA:                  -1.232
REMARK UNBOUND:                -1.265
REMARK SMILES CCCCCCCCCCCCCCCCCCCCCC(=O)[O-]
REMARK SMILES IDX 12 1 11 2 10 3 9 4 8 5 7 6 6 7 5 8 4 9 3 10 2 11 1 12 13 13
REMARK SMILES IDX 14 14 15 15 16 16 17 17 18 18 19 19 20 20 21 21 22 22 23 23
REMARK SMILES IDX 24 24
REMARK H PARENT
REMARK Flexibility Score: inf
ROOT
ATOM      1  C   UNL     1      -4.637   9.520  -8.305  1.00  0.00     0.000 C 
ENDROOT
BRANCH   1   2
ATOM      2  C   UNL     1      -5.757  10.124  -9.177  1.00  0.00     0.000 C 
BRANCH   2   3
ATOM      3  C   UNL     1      -6.632   9.071  -9.880  1.00  0.00     0.000 C 
BRANCH   3   4
ATOM      4  C   UNL     1      -7.870   8.681  -9.056  1.00  0.00    -0.000 C 
BRANCH   4   5
ATOM      5  C   UNL     1      -8.899   7.883  -9.874  1.00  0.00    -0.000 C 
BRANCH   5   6
ATOM      6  C   UNL     1      -9.402   6.633  -9.132  1.00  0.00    -0.000 C 
BRANCH   6   7
ATOM      7  C   UNL     1      -8.271   5.644  -8.785  1.00  0.00    -0.000 C 
BRANCH   7   8
ATOM      8  C   UNL     1      -8.719   4.359  -8.065  1.00  0.00    -0.000 C 
BRANCH   8   9
ATOM      9  C   UNL     1     -10.104   4.491  -7.405  1.00  0.00    -0.000 C 
BRANCH   9  10
ATOM     10  C   UNL     1     -10.039   4.457  -5.866  1.00  0.00    -0.000 C 
BRANCH  10  11
ATOM     11  C   UNL     1      -9.944   3.049  -5.250  1.00  0.00    -0.003 C 
ATOM     12  C   UNL     1     -10.108   3.049  -3.730  1.00  0.00     0.004 C 
ENDBRANCH  10  11
ENDBRANCH   9  10
ENDBRANCH   8   9
ENDBRANCH   7   8
ENDBRANCH   6   7
ENDBRANCH   5   6
ENDBRANCH   4   5
ENDBRANCH   3   4
ENDBRANCH   2   3
ENDBRANCH   1   2
BRANCH   1  13
ATOM     13  C   UNL     1      -4.047   8.237  -8.918  1.00  0.00     0.000 C 
BRANCH  13  14
ATOM     14  C   UNL     1      -3.399   7.324  -7.864  1.00  0.00     0.000 C 
BRANCH  14  15
ATOM     15  C   UNL     1      -4.232   6.063  -7.588  1.00  0.00     0.000 C 
BRANCH  15  16
ATOM     16  C   UNL     1      -4.608   5.961  -6.101  1.00  0.00     0.000 C 
BRANCH  16  17
ATOM     17  C   UNL     1      -3.391   6.105  -5.171  1.00  0.00     0.000 C 
BRANCH  17  18
ATOM     18  C   UNL     1      -3.522   5.261  -3.890  1.00  0.00     0.000 C 
BRANCH  18  19
ATOM     19  C   UNL     1      -2.606   4.025  -3.903  1.00  0.00     0.000 C 
BRANCH  19  20
ATOM     20  C   UNL     1      -2.833   3.105  -2.694  1.00  0.00     0.006 C 
BRANCH  20  21
ATOM     21  C   UNL     1      -1.500   2.557  -2.170  1.00  0.00     0.053 C 
BRANCH  21  22
ATOM     22  C   UNL     1      -0.798   1.774  -3.234  1.00  0.00     0.041 C 
ATOM     23  O   UNL     1       0.064   2.328  -3.964  1.00  0.00    -0.550 OA
ATOM     24  O   UNL     1      -1.072   0.421  -3.396  1.00  0.00    -0.550 OA
ENDBRANCH  21  22
ENDBRANCH  20  21
ENDBRANCH  19  20
ENDBRANCH  18  19
ENDBRANCH  17  18
ENDBRANCH  16  17
ENDBRANCH  15  16
ENDBRANCH  14  15
ENDBRANCH  13  14
ENDBRANCH   1  13
TORSDOF 20
ENDMDL
MODEL 8
REMARK VINA RESULT:    -2.805      2.731      4.771
REMARK INTER + INTRA:          -7.350
REMARK INTER:                  -5.439
REMARK INTRA:                  -1.911
REMARK UNBOUND:                -1.265
REMARK SMILES CCCCCCCCCCCCCCCCCCCCCC(=O)[O-]
REMARK SMILES IDX 12 1 11 2 10 3 9 4 8 5 7 6 6 7 5 8 4 9 3 10 2 11 1 12 13 13
REMARK SMILES IDX 14 14 15 15 16 16 17 17 18 18 19 19 20 20 21 21 22 22 23 23
REMARK SMILES IDX 24 24
REMARK H PARENT
REMARK Flexibility Score: inf
ROOT
ATOM      1  C   UNL     1      -4.699   5.750  -6.790  1.00  0.00     0.000 C 
ENDROOT
BRANCH   1   2
ATOM      2  C   UNL     1      -4.737   7.258  -6.466  1.00  0.00     0.000 C 
BRANCH   2   3
ATOM      3  C   UNL     1      -3.681   8.082  -7.225  1.00  0.00     0.000 C 
BRANCH   3   4
ATOM      4  C   UNL     1      -3.915   8.094  -8.744  1.00  0.00    -0.000 C 
BRANCH   4   5
ATOM      5  C   UNL     1      -4.368   9.469  -9.263  1.00  0.00    -0.000 C 
BRANCH   5   6
ATOM      6  C   UNL     1      -5.847   9.482  -9.688  1.00  0.00    -0.000 C 
BRANCH   6   7
ATOM      7  C   UNL     1      -6.777  10.071  -8.610  1.00  0.00    -0.000 C 
BRANCH   7   8
ATOM      8  C   UNL     1      -7.632   9.042  -7.846  1.00  0.00    -0.000 C 
BRANCH   8   9
ATOM      9  C   UNL     1      -7.829   7.729  -8.624  1.00  0.00    -0.000 C 
BRANCH   9  10
ATOM     10  C   UNL     1      -8.006   6.507  -7.701  1.00  0.00    -0.000 C 
BRANCH  10  11
ATOM     11  C   UNL     1      -8.949   5.416  -8.240  1.00  0.00    -0.003 C 
ATOM     12  C   UNL     1      -8.845   5.230  -9.753  1.00  0.00     0.004 C 
ENDBRANCH  10  11
ENDBRANCH   9  10
ENDBRANCH   8   9
ENDBRANCH   7   8
ENDBRANCH   6   7
ENDBRANCH   5   6
ENDBRANCH   4   5
ENDBRANCH   3   4
ENDBRANCH   2   3
ENDBRANCH   1   2
BRANCH   1  13
ATOM     13  C   UNL     1      -3.609   5.009  -5.995  1.00  0.00     0.000 C 
BRANCH  13  14
ATOM     14  C   UNL     1      -3.406   5.593  -4.587  1.00  0.00     0.000 C 
BRANCH  14  15
ATOM     15  C   UNL     1      -2.412   4.774  -3.749  1.00  0.00     0.000 C 
BRANCH  15  16
ATOM     16  C   UNL     1      -3.011   3.416  -3.349  1.00  0.00     0.000 C 
BRANCH  16  17
ATOM     17  C   UNL     1      -2.250   2.751  -2.190  1.00  0.00     0.000 C 
BRANCH  17  18
ATOM     18  C   UNL     1      -0.755   2.555  -2.498  1.00  0.00     0.000 C 
BRANCH  18  19
ATOM     19  C   UNL     1      -0.518   1.618  -3.695  1.00  0.00     0.000 C 
BRANCH  19  20
ATOM     20  C   UNL     1      -0.526   0.134  -3.300  1.00  0.00     0.006 C 
BRANCH  20  21
ATOM     21  C   UNL     1      -1.838  -0.535  -3.724  1.00  0.00     0.053 C 
BRANCH  21  22
ATOM     22  C   UNL     1      -1.565  -1.791  -4.491  1.00  0.00     0.041 C 
ATOM     23  O   UNL     1      -0.400  -2.050  -4.888  1.00  0.00    -0.550 OA
ATOM     24  O   UNL     1      -2.593  -2.694  -4.734  1.00  0.00    -0.550 OA
ENDBRANCH  21  22
ENDBRANCH  20  21
ENDBRANCH  19  20
ENDBRANCH  18  19
ENDBRANCH  17  18
ENDBRANCH  16  17
ENDBRANCH  15  16
ENDBRANCH  14  15
ENDBRANCH  13  14
ENDBRANCH   1  13
TORSDOF 20
ENDMDL
MODEL 9
REMARK VINA RESULT:    -2.655      3.303      7.438
REMARK INTER + INTRA:          -7.023
REMARK INTER:                  -5.754
REMARK INTRA:                  -1.270
REMARK UNBOUND:                -1.265
REMARK SMILES CCCCCCCCCCCCCCCCCCCCCC(=O)[O-]
REMARK SMILES IDX 12 1 11 2 10 3 9 4 8 5 7 6 6 7 5 8 4 9 3 10 2 11 1 12 13 13
REMARK SMILES IDX 14 14 15 15 16 16 17 17 18 18 19 19 20 20 21 21 22 22 23 23
REMARK SMILES IDX 24 24
REMARK H PARENT
REMARK Flexibility Score: inf
ROOT
ATOM      1  C   UNL     1      -4.331   9.923  -8.673  1.00  0.00     0.000 C 
ENDROOT
BRANCH   1   2
ATOM      2  C   UNL     1      -3.576   8.783  -7.958  1.00  0.00     0.000 C 
BRANCH   2   3
ATOM      3  C   UNL     1      -4.416   8.055  -6.894  1.00  0.00     0.000 C 
BRANCH   3   4
ATOM      4  C   UNL     1      -4.999   6.727  -7.404  1.00  0.00    -0.000 C 
BRANCH   4   5
ATOM      5  C   UNL     1      -4.756   5.560  -6.431  1.00  0.00    -0.000 C 
BRANCH   5   6
ATOM      6  C   UNL     1      -3.855   5.956  -5.248  1.00  0.00    -0.000 C 
BRANCH   6   7
ATOM      7  C   UNL     1      -2.691   4.971  -5.023  1.00  0.00    -0.000 C 
BRANCH   7   8
ATOM      8  C   UNL     1      -2.807   4.094  -3.762  1.00  0.00    -0.000 C 
BRANCH   8   9
ATOM      9  C   UNL     1      -1.738   2.988  -3.698  1.00  0.00    -0.000 C 
BRANCH   9  10
ATOM     10  C   UNL     1      -1.790   2.180  -2.387  1.00  0.00    -0.000 C 
BRANCH  10  11
ATOM     11  C   UNL     1      -1.501   2.991  -1.111  1.00  0.00    -0.003 C 
ATOM     12  C   UNL     1      -0.445   4.077  -1.320  1.00  0.00     0.004 C 
ENDBRANCH  10  11
ENDBRANCH   9  10
ENDBRANCH   8   9
ENDBRANCH   7   8
ENDBRANCH   6   7
ENDBRANCH   5   6
ENDBRANCH   4   5
ENDBRANCH   3   4
ENDBRANCH   2   3
ENDBRANCH   1   2
BRANCH   1  13
ATOM     13  C   UNL     1      -4.903   9.481 -10.032  1.00  0.00     0.000 C 
BRANCH  13  14
ATOM     14  C   UNL     1      -6.441   9.497 -10.056  1.00  0.00     0.000 C 
BRANCH  14  15
ATOM     15  C   UNL     1      -7.048   8.131  -9.700  1.00  0.00     0.000 C 
BRANCH  15  16
ATOM     16  C   UNL     1      -8.556   8.248  -9.431  1.00  0.00     0.000 C 
BRANCH  16  17
ATOM     17  C   UNL     1      -9.347   7.034  -9.950  1.00  0.00     0.000 C 
BRANCH  17  18
ATOM     18  C   UNL     1      -9.743   6.061  -8.825  1.00  0.00     0.000 C 
BRANCH  18  19
ATOM     19  C   UNL     1      -8.626   5.878  -7.783  1.00  0.00     0.000 C 
BRANCH  19  20
ATOM     20  C   UNL     1      -8.717   4.535  -7.043  1.00  0.00     0.006 C 
BRANCH  20  21
ATOM     21  C   UNL     1     -10.117   4.334  -6.452  1.00  0.00     0.053 C 
BRANCH  21  22
ATOM     22  C   UNL     1     -10.099   3.259  -5.411  1.00  0.00     0.041 C 
ATOM     23  O   UNL     1     -10.063   2.048  -5.750  1.00  0.00    -0.550 OA
ATOM     24  O   UNL     1     -10.085   3.598  -4.063  1.00  0.00    -0.550 OA
ENDBRANCH  21  22
ENDBRANCH  20  21
ENDBRANCH  19  20
ENDBRANCH  18  19
ENDBRANCH  17  18
ENDBRANCH  16  17
ENDBRANCH  15  16
ENDBRANCH  14  15
ENDBRANCH  13  14
ENDBRANCH   1  13
TORSDOF 20
ENDMDL
