MODEL 1
REMARK VINA RESULT:   115.005      0.000      0.000
REMARK INTER + INTRA:         124.889
REMARK INTER:                 125.090
REMARK INTRA:                  -0.201
REMARK UNBOUND:                -0.201
REMARK SMILES C[C@@H]1[C@H](C)CC[C@@]2(C(=O)[O-])CC[C@]3(C)C(=CC[C@H]4[C@]5(C)CC[C@@H](O)C(C)(C)[C@@H]5CC[C@]43C)[C@@H]12
REMARK SMILES IDX 7 1 6 2 11 3 33 4 5 5 12 6 15 7 2 8 3 9 13 10 16 11 1 12
REMARK SMILES IDX 4 13 14 14 31 15 17 16 18 17 30 18 32 19 19 20 29 21 28 22
REMARK SMILES IDX 21 23 20 24 25 25 22 26 23 27 26 28 27 29 8 30 9 31 10 32
REMARK SMILES IDX 24 33
REMARK H PARENT 24 34
REMARK Flexibility Score: inf
ROOT
ATOM      1  C   UNL     1      85.097  14.246 108.105  1.00  0.00     0.017 C 
ATOM      2  C   UNL     1      85.176  12.773 107.618  1.00  0.00     0.014 C 
ATOM      3  C   UNL     1      85.560  15.139 106.892  1.00  0.00     0.014 C 
ATOM      4  C   UNL     1      83.631  14.666 108.574  1.00  0.00     0.030 C 
ATOM      5  C   UNL     1      84.413  11.795 108.505  1.00  0.00     0.004 C 
ATOM      6  C   UNL     1      85.244  16.648 107.051  1.00  0.00     0.013 C 
ATOM      7  C   UNL     1      83.019  15.641 107.552  1.00  0.00    -0.063 C 
ATOM      8  C   UNL     1      82.651  13.537 109.096  1.00  0.00    -0.003 C 
ATOM      9  C   UNL     1      82.920  12.138 108.467  1.00  0.00    -0.011 C 
ATOM     10  C   UNL     1      83.735  16.994 107.408  1.00  0.00    -0.006 C 
ATOM     11  C   UNL     1      82.324  15.129 106.529  1.00  0.00    -0.027 C 
ATOM     12  C   UNL     1      82.603  13.483 110.644  1.00  0.00     0.008 C 
ATOM     13  C   UNL     1      82.090  11.007 109.094  1.00  0.00     0.008 C 
ATOM     14  C   UNL     1      83.706  17.700 108.812  1.00  0.00     0.017 C 
ATOM     15  C   UNL     1      83.058  17.975 106.311  1.00  0.00    -0.020 C 
ATOM     16  C   UNL     1      81.915  15.889 105.318  1.00  0.00     0.032 C 
ATOM     17  C   UNL     1      82.718  17.191 104.982  1.00  0.00     0.006 C 
ATOM     18  C   UNL     1      81.702  18.556 106.821  1.00  0.00     0.008 C 
ATOM     19  C   UNL     1      84.067  19.157 106.064  1.00  0.00     0.012 C 
ATOM     20  C   UNL     1      81.927  18.014 103.840  1.00  0.00    -0.025 C 
ATOM     21  C   UNL     1      80.930  19.395 105.782  1.00  0.00     0.005 C 
ATOM     22  C   UNL     1      80.615  18.673 104.434  1.00  0.00     0.003 C 
ATOM     23  C   UNL     1      82.798  19.133 103.186  1.00  0.00     0.010 C 
ATOM     24  C   UNL     1      81.596  16.985 102.705  1.00  0.00     0.012 C 
ATOM     25  C   UNL     1      79.817  19.622 103.415  1.00  0.00    -0.006 C 
ATOM     26  C   UNL     1      82.056  19.992 102.154  1.00  0.00     0.033 C 
ATOM     27  C   UNL     1      80.795  20.651 102.732  1.00  0.00     0.120 C 
ATOM     28  C   UNL     1      79.062  18.786 102.341  1.00  0.00     0.014 C 
ATOM     29  C   UNL     1      78.715  20.405 104.195  1.00  0.00     0.014 C 
ENDROOT
BRANCH   1  30
ATOM     30  C   UNL     1      86.089  14.419 109.259  1.00  0.00     0.048 C 
ATOM     31  O   UNL     1      87.331  14.293 109.073  1.00  0.00    -0.550 OA
ATOM     32  O   UNL     1      85.638  14.692 110.544  1.00  0.00    -0.550 OA
ENDBRANCH   1  30
BRANCH  27  33
ATOM     33  O   UNL     1      80.213  21.391 101.682  1.00  0.00    -0.393 OA
ATOM     34  H   UNL     1      79.253  21.589 101.889  1.00  0.00     0.210 HD
ENDBRANCH  27  33
TORSDOF 2
ENDMDL
