MODEL 1
REMARK VINA RESULT:    -3.140      0.000      0.000
REMARK INTER + INTRA:          -3.340
REMARK INTER:                  -3.324
REMARK INTRA:                  -0.016
REMARK UNBOUND:                -0.016
REMARK SMILES O=Cc1ccco1
REMARK SMILES IDX 5 1 6 2 7 3 3 4 4 5 2 6 1 7
REMARK H PARENT
REMARK Flexibility Score: inf
ROOT
ATOM      1  C   UNL     1     160.663 162.124 183.627  1.00  0.00     0.043 A 
ATOM      2  C   UNL     1     160.404 163.166 182.757  1.00  0.00     0.196 A 
ATOM      3  O   UNL     1     160.151 162.690 181.560  1.00  0.00    -0.462 OA
ATOM      4  C   UNL     1     160.233 161.380 181.605  1.00  0.00     0.166 A 
ATOM      5  C   UNL     1     160.554 160.969 182.883  1.00  0.00     0.054 A 
ENDROOT
BRANCH   4   6
ATOM      6  C   UNL     1     160.011 160.511 180.446  1.00  0.00     0.298 C 
ATOM      7  O   UNL     1     159.875 160.998 179.293  1.00  0.00    -0.294 OA
ENDBRANCH   4   6
TORSDOF 1
ENDMDL
MODEL 2
REMARK VINA RESULT:    -3.058     22.190     22.447
REMARK INTER + INTRA:          -3.253
REMARK INTER:                  -3.238
REMARK INTRA:                  -0.014
REMARK UNBOUND:                -0.016
REMARK SMILES O=Cc1ccco1
REMARK SMILES IDX 5 1 6 2 7 3 3 4 4 5 2 6 1 7
REMARK H PARENT
REMARK Flexibility Score: inf
ROOT
ATOM      1  C   UNL     1     179.630 172.548 182.820  1.00  0.00     0.043 A 
ATOM      2  C   UNL     1     179.979 172.529 181.483  1.00  0.00     0.196 A 
ATOM      3  O   UNL     1     179.370 173.506 180.853  1.00  0.00    -0.462 OA
ATOM      4  C   UNL     1     178.635 174.167 181.717  1.00  0.00     0.166 A 
ATOM      5  C   UNL     1     178.760 173.606 182.973  1.00  0.00     0.054 A 
ENDROOT
BRANCH   4   6
ATOM      6  C   UNL     1     177.811 175.327 181.366  1.00  0.00     0.298 C 
ATOM      7  O   UNL     1     178.214 176.171 180.523  1.00  0.00    -0.294 OA
ENDBRANCH   4   6
TORSDOF 1
ENDMDL
MODEL 3
REMARK VINA RESULT:    -3.035     16.239     16.528
REMARK INTER + INTRA:          -3.229
REMARK INTER:                  -3.215
REMARK INTRA:                  -0.014
REMARK UNBOUND:                -0.016
REMARK SMILES O=Cc1ccco1
REMARK SMILES IDX 5 1 6 2 7 3 3 4 4 5 2 6 1 7
REMARK H PARENT
REMARK Flexibility Score: inf
ROOT
ATOM      1  C   UNL     1     175.509 160.647 182.709  1.00  0.00     0.043 A 
ATOM      2  C   UNL     1     175.603 160.357 181.362  1.00  0.00     0.196 A 
ATOM      3  O   UNL     1     176.306 161.287 180.757  1.00  0.00    -0.462 OA
ATOM      4  C   UNL     1     176.677 162.176 181.649  1.00  0.00     0.166 A 
ATOM      5  C   UNL     1     176.202 161.824 182.896  1.00  0.00     0.054 A 
ENDROOT
BRANCH   4   6
ATOM      6  C   UNL     1     177.478 163.362 181.331  1.00  0.00     0.298 C 
ATOM      7  O   UNL     1     178.498 163.271 180.598  1.00  0.00    -0.294 OA
ENDBRANCH   4   6
TORSDOF 1
ENDMDL
MODEL 4
REMARK VINA RESULT:    -3.004      1.447      2.016
REMARK INTER + INTRA:          -3.196
REMARK INTER:                  -3.180
REMARK INTRA:                  -0.015
REMARK UNBOUND:                -0.016
REMARK SMILES O=Cc1ccco1
REMARK SMILES IDX 5 1 6 2 7 3 3 4 4 5 2 6 1 7
REMARK H PARENT
REMARK Flexibility Score: inf
ROOT
ATOM      1  C   UNL     1     160.631 161.545 183.646  1.00  0.00     0.043 A 
ATOM      2  C   UNL     1     160.113 160.700 182.683  1.00  0.00     0.196 A 
ATOM      3  O   UNL     1     159.962 161.355 181.555  1.00  0.00    -0.462 OA
ATOM      4  C   UNL     1     160.359 162.594 181.734  1.00  0.00     0.166 A 
ATOM      5  C   UNL     1     160.791 162.770 183.034  1.00  0.00     0.054 A 
ENDROOT
BRANCH   4   6
ATOM      6  C   UNL     1     160.332 163.616 180.685  1.00  0.00     0.298 C 
ATOM      7  O   UNL     1     160.328 163.290 179.469  1.00  0.00    -0.294 OA
ENDBRANCH   4   6
TORSDOF 1
ENDMDL
MODEL 5
REMARK VINA RESULT:    -2.990     20.645     21.108
REMARK INTER + INTRA:          -3.181
REMARK INTER:                  -3.169
REMARK INTRA:                  -0.012
REMARK UNBOUND:                -0.016
REMARK SMILES O=Cc1ccco1
REMARK SMILES IDX 5 1 6 2 7 3 3 4 4 5 2 6 1 7
REMARK H PARENT
REMARK Flexibility Score: inf
ROOT
ATOM      1  C   UNL     1     178.089 160.369 172.441  1.00  0.00     0.043 A 
ATOM      2  C   UNL     1     177.747 161.538 173.095  1.00  0.00     0.196 A 
ATOM      3  O   UNL     1     178.084 162.571 172.359  1.00  0.00    -0.462 OA
ATOM      4  C   UNL     1     178.632 162.133 171.249  1.00  0.00     0.166 A 
ATOM      5  C   UNL     1     178.662 160.753 171.247  1.00  0.00     0.054 A 
ENDROOT
BRANCH   4   6
ATOM      6  C   UNL     1     179.132 163.011 170.187  1.00  0.00     0.298 C 
ATOM      7  O   UNL     1     180.125 163.759 170.385  1.00  0.00    -0.294 OA
ENDBRANCH   4   6
TORSDOF 1
ENDMDL
MODEL 6
REMARK VINA RESULT:    -2.983     25.093     25.596
REMARK INTER + INTRA:          -3.173
REMARK INTER:                  -3.163
REMARK INTRA:                  -0.011
REMARK UNBOUND:                -0.016
REMARK SMILES O=Cc1ccco1
REMARK SMILES IDX 5 1 6 2 7 3 3 4 4 5 2 6 1 7
REMARK H PARENT
REMARK Flexibility Score: inf
ROOT
ATOM      1  C   UNL     1     179.866 174.634 172.630  1.00  0.00     0.043 A 
ATOM      2  C   UNL     1     178.514 174.670 172.913  1.00  0.00     0.196 A 
ATOM      3  O   UNL     1     177.902 175.443 172.046  1.00  0.00    -0.462 OA
ATOM      4  C   UNL     1     178.792 175.916 171.206  1.00  0.00     0.166 A 
ATOM      5  C   UNL     1     180.048 175.439 171.527  1.00  0.00     0.054 A 
ENDROOT
BRANCH   4   6
ATOM      6  C   UNL     1     178.467 176.820 170.098  1.00  0.00     0.298 C 
ATOM      7  O   UNL     1     178.462 178.067 170.267  1.00  0.00    -0.294 OA
ENDBRANCH   4   6
TORSDOF 1
ENDMDL
MODEL 7
REMARK VINA RESULT:    -2.962      2.542      2.840
REMARK INTER + INTRA:          -3.151
REMARK INTER:                  -3.140
REMARK INTRA:                  -0.011
REMARK UNBOUND:                -0.016
REMARK SMILES O=Cc1ccco1
REMARK SMILES IDX 5 1 6 2 7 3 3 4 4 5 2 6 1 7
REMARK H PARENT
REMARK Flexibility Score: inf
ROOT
ATOM      1  C   UNL     1     160.410 161.141 183.268  1.00  0.00     0.043 A 
ATOM      2  C   UNL     1     160.049 160.608 182.046  1.00  0.00     0.196 A 
ATOM      3  O   UNL     1     161.093 160.582 181.249  1.00  0.00    -0.462 OA
ATOM      4  C   UNL     1     162.124 161.074 181.896  1.00  0.00     0.166 A 
ATOM      5  C   UNL     1     161.751 161.444 183.173  1.00  0.00     0.054 A 
ENDROOT
BRANCH   4   6
ATOM      6  C   UNL     1     163.464 161.201 181.315  1.00  0.00     0.298 C 
ATOM      7  O   UNL     1     164.267 160.232 181.333  1.00  0.00    -0.294 OA
ENDBRANCH   4   6
TORSDOF 1
ENDMDL
MODEL 8
REMARK VINA RESULT:    -2.820      2.243      2.503
REMARK INTER + INTRA:          -3.000
REMARK INTER:                  -2.984
REMARK INTRA:                  -0.016
REMARK UNBOUND:                -0.016
REMARK SMILES O=Cc1ccco1
REMARK SMILES IDX 5 1 6 2 7 3 3 4 4 5 2 6 1 7
REMARK H PARENT
REMARK Flexibility Score: inf
ROOT
ATOM      1  C   UNL     1     163.452 160.955 182.773  1.00  0.00     0.043 A 
ATOM      2  C   UNL     1     163.724 160.832 181.424  1.00  0.00     0.196 A 
ATOM      3  O   UNL     1     162.604 160.886 180.741  1.00  0.00    -0.462 OA
ATOM      4  C   UNL     1     161.608 161.040 181.582  1.00  0.00     0.166 A 
ATOM      5  C   UNL     1     162.084 161.089 182.877  1.00  0.00     0.054 A 
ENDROOT
BRANCH   4   6
ATOM      6  C   UNL     1     160.204 161.140 181.172  1.00  0.00     0.298 C 
ATOM      7  O   UNL     1     159.875 160.996 179.965  1.00  0.00    -0.294 OA
ENDBRANCH   4   6
TORSDOF 1
ENDMDL
MODEL 9
REMARK VINA RESULT:    -2.788      4.265      4.505
REMARK INTER + INTRA:          -2.967
REMARK INTER:                  -2.954
REMARK INTRA:                  -0.013
REMARK UNBOUND:                -0.016
REMARK SMILES O=Cc1ccco1
REMARK SMILES IDX 5 1 6 2 7 3 3 4 4 5 2 6 1 7
REMARK H PARENT
REMARK Flexibility Score: inf
ROOT
ATOM      1  C   UNL     1     165.303 160.216 183.227  1.00  0.00     0.043 A 
ATOM      2  C   UNL     1     165.932 159.875 182.045  1.00  0.00     0.196 A 
ATOM      3  O   UNL     1     165.133 160.119 181.032  1.00  0.00    -0.462 OA
ATOM      4  C   UNL     1     164.006 160.606 181.497  1.00  0.00     0.166 A 
ATOM      5  C   UNL     1     164.057 160.688 182.875  1.00  0.00     0.054 A 
ENDROOT
BRANCH   4   6
ATOM      6  C   UNL     1     162.876 160.994 180.649  1.00  0.00     0.298 C 
ATOM      7  O   UNL     1     162.441 160.214 179.761  1.00  0.00    -0.294 OA
ENDBRANCH   4   6
TORSDOF 1
ENDMDL
