MODEL 1
REMARK VINA RESULT:    -4.731      0.000      0.000
REMARK INTER + INTRA:          -5.030
REMARK INTER:                  -5.008
REMARK INTRA:                  -0.022
REMARK UNBOUND:                -0.022
REMARK SMILES O=C([O-])c1cccnc1
REMARK SMILES IDX 4 1 5 2 9 3 6 4 8 5 7 6 2 7 1 8 3 9
REMARK H PARENT
REMARK Flexibility Score: inf
ROOT
ATOM      1  C   UNL     1      13.538 -48.422  72.061  1.00  0.00     0.016 A 
ATOM      2  C   UNL     1      13.502 -49.315  73.146  1.00  0.00     0.013 A 
ATOM      3  C   UNL     1      14.787 -48.079  71.519  1.00  0.00     0.120 A 
ATOM      4  C   UNL     1      14.688 -49.841  73.660  1.00  0.00     0.021 A 
ATOM      5  N   UNL     1      15.929 -48.606  72.040  1.00  0.00    -0.264 NA
ATOM      6  C   UNL     1      15.906 -49.470  73.088  1.00  0.00     0.111 A 
ENDROOT
BRANCH   1   7
ATOM      7  C   UNL     1      12.292 -47.855  71.501  1.00  0.00     0.073 C 
ATOM      8  O   UNL     1      12.241 -47.481  70.299  1.00  0.00    -0.545 OA
ATOM      9  O   UNL     1      11.157 -47.727  72.295  1.00  0.00    -0.545 OA
ENDBRANCH   1   7
TORSDOF 1
ENDMDL
MODEL 2
REMARK VINA RESULT:    -4.641      0.276      1.110
REMARK INTER + INTRA:          -4.935
REMARK INTER:                  -4.911
REMARK INTRA:                  -0.024
REMARK UNBOUND:                -0.022
REMARK SMILES O=C([O-])c1cccnc1
REMARK SMILES IDX 4 1 5 2 9 3 6 4 8 5 7 6 2 7 1 8 3 9
REMARK H PARENT
REMARK Flexibility Score: inf
ROOT
ATOM      1  C   UNL     1      13.587 -48.378  71.871  1.00  0.00     0.016 A 
ATOM      2  C   UNL     1      13.584 -49.115  73.068  1.00  0.00     0.013 A 
ATOM      3  C   UNL     1      14.805 -48.209  71.194  1.00  0.00     0.120 A 
ATOM      4  C   UNL     1      14.773 -49.661  73.557  1.00  0.00     0.021 A 
ATOM      5  N   UNL     1      15.950 -48.751  71.693  1.00  0.00    -0.264 NA
ATOM      6  C   UNL     1      15.958 -49.465  72.848  1.00  0.00     0.111 A 
ENDROOT
BRANCH   1   7
ATOM      7  C   UNL     1      12.339 -47.793  71.336  1.00  0.00     0.073 C 
ATOM      8  O   UNL     1      11.302 -47.731  72.050  1.00  0.00    -0.545 OA
ATOM      9  O   UNL     1      12.293 -47.301  70.036  1.00  0.00    -0.545 OA
ENDBRANCH   1   7
TORSDOF 1
ENDMDL
MODEL 3
REMARK VINA RESULT:    -4.563      2.738      3.654
REMARK INTER + INTRA:          -4.852
REMARK INTER:                  -4.829
REMARK INTRA:                  -0.023
REMARK UNBOUND:                -0.022
REMARK SMILES O=C([O-])c1cccnc1
REMARK SMILES IDX 4 1 5 2 9 3 6 4 8 5 7 6 2 7 1 8 3 9
REMARK H PARENT
REMARK Flexibility Score: inf
ROOT
ATOM      1  C   UNL     1      14.265 -48.880  72.609  1.00  0.00     0.016 A 
ATOM      2  C   UNL     1      12.871 -49.019  72.721  1.00  0.00     0.013 A 
ATOM      3  C   UNL     1      14.774 -48.046  71.600  1.00  0.00     0.120 A 
ATOM      4  C   UNL     1      12.026 -48.337  71.843  1.00  0.00     0.021 A 
ATOM      5  N   UNL     1      13.929 -47.394  70.757  1.00  0.00    -0.264 NA
ATOM      6  C   UNL     1      12.580 -47.521  70.856  1.00  0.00     0.111 A 
ENDROOT
BRANCH   1   7
ATOM      7  C   UNL     1      15.177 -49.592  73.530  1.00  0.00     0.073 C 
ATOM      8  O   UNL     1      14.799 -50.637  74.125  1.00  0.00    -0.545 OA
ATOM      9  O   UNL     1      16.465 -49.118  73.753  1.00  0.00    -0.545 OA
ENDBRANCH   1   7
TORSDOF 1
ENDMDL
MODEL 4
REMARK VINA RESULT:    -4.554      0.902      1.602
REMARK INTER + INTRA:          -4.842
REMARK INTER:                  -4.819
REMARK INTRA:                  -0.023
REMARK UNBOUND:                -0.022
REMARK SMILES O=C([O-])c1cccnc1
REMARK SMILES IDX 4 1 5 2 9 3 6 4 8 5 7 6 2 7 1 8 3 9
REMARK H PARENT
REMARK Flexibility Score: inf
ROOT
ATOM      1  C   UNL     1      13.516 -48.410  71.966  1.00  0.00     0.016 A 
ATOM      2  C   UNL     1      14.753 -48.118  71.364  1.00  0.00     0.013 A 
ATOM      3  C   UNL     1      13.505 -49.236  73.102  1.00  0.00     0.120 A 
ATOM      4  C   UNL     1      15.932 -48.645  71.896  1.00  0.00     0.021 A 
ATOM      5  N   UNL     1      14.668 -49.736  73.599  1.00  0.00    -0.264 NA
ATOM      6  C   UNL     1      15.868 -49.461  73.025  1.00  0.00     0.111 A 
ENDROOT
BRANCH   1   7
ATOM      7  C   UNL     1      12.257 -47.861  71.420  1.00  0.00     0.073 C 
ATOM      8  O   UNL     1      12.177 -47.522  70.208  1.00  0.00    -0.545 OA
ATOM      9  O   UNL     1      11.141 -47.712  72.236  1.00  0.00    -0.545 OA
ENDBRANCH   1   7
TORSDOF 1
ENDMDL
MODEL 5
REMARK VINA RESULT:    -4.337      7.776      8.892
REMARK INTER + INTRA:          -4.613
REMARK INTER:                  -4.593
REMARK INTRA:                  -0.020
REMARK UNBOUND:                -0.022
REMARK SMILES O=C([O-])c1cccnc1
REMARK SMILES IDX 4 1 5 2 9 3 6 4 8 5 7 6 2 7 1 8 3 9
REMARK H PARENT
REMARK Flexibility Score: inf
ROOT
ATOM      1  C   UNL     1      21.106 -46.919  67.983  1.00  0.00     0.016 A 
ATOM      2  C   UNL     1      21.098 -46.030  69.071  1.00  0.00     0.013 A 
ATOM      3  C   UNL     1      20.196 -47.989  67.987  1.00  0.00     0.120 A 
ATOM      4  C   UNL     1      20.199 -46.219  70.123  1.00  0.00     0.021 A 
ATOM      5  N   UNL     1      19.331 -48.151  69.025  1.00  0.00    -0.264 NA
ATOM      6  C   UNL     1      19.315 -47.297  70.082  1.00  0.00     0.111 A 
ENDROOT
BRANCH   1   7
ATOM      7  C   UNL     1      22.049 -46.735  66.859  1.00  0.00     0.073 C 
ATOM      8  O   UNL     1      23.265 -46.485  67.076  1.00  0.00    -0.545 OA
ATOM      9  O   UNL     1      21.606 -46.837  65.544  1.00  0.00    -0.545 OA
ENDBRANCH   1   7
TORSDOF 1
ENDMDL
MODEL 6
REMARK VINA RESULT:    -4.301      2.897      3.567
REMARK INTER + INTRA:          -4.575
REMARK INTER:                  -4.553
REMARK INTRA:                  -0.021
REMARK UNBOUND:                -0.022
REMARK SMILES O=C([O-])c1cccnc1
REMARK SMILES IDX 4 1 5 2 9 3 6 4 8 5 7 6 2 7 1 8 3 9
REMARK H PARENT
REMARK Flexibility Score: inf
ROOT
ATOM      1  C   UNL     1      14.722 -48.573  72.122  1.00  0.00     0.016 A 
ATOM      2  C   UNL     1      13.783 -49.226  72.938  1.00  0.00     0.013 A 
ATOM      3  C   UNL     1      14.250 -47.740  71.094  1.00  0.00     0.120 A 
ATOM      4  C   UNL     1      12.416 -49.041  72.719  1.00  0.00     0.021 A 
ATOM      5  N   UNL     1      12.913 -47.577  70.902  1.00  0.00    -0.264 NA
ATOM      6  C   UNL     1      11.996 -48.204  71.685  1.00  0.00     0.111 A 
ENDROOT
BRANCH   1   7
ATOM      7  C   UNL     1      16.174 -48.755  72.338  1.00  0.00     0.073 C 
ATOM      8  O   UNL     1      16.979 -48.687  71.371  1.00  0.00    -0.545 OA
ATOM      9  O   UNL     1      16.670 -49.004  73.613  1.00  0.00    -0.545 OA
ENDBRANCH   1   7
TORSDOF 1
ENDMDL
MODEL 7
REMARK VINA RESULT:    -4.260      2.996      3.665
REMARK INTER + INTRA:          -4.531
REMARK INTER:                  -4.512
REMARK INTRA:                  -0.018
REMARK UNBOUND:                -0.022
REMARK SMILES O=C([O-])c1cccnc1
REMARK SMILES IDX 4 1 5 2 9 3 6 4 8 5 7 6 2 7 1 8 3 9
REMARK H PARENT
REMARK Flexibility Score: inf
ROOT
ATOM      1  C   UNL     1      15.570 -48.577  72.201  1.00  0.00     0.016 A 
ATOM      2  C   UNL     1      15.478 -49.491  73.265  1.00  0.00     0.013 A 
ATOM      3  C   UNL     1      14.382 -48.140  71.592  1.00  0.00     0.120 A 
ATOM      4  C   UNL     1      14.229 -49.943  73.695  1.00  0.00     0.021 A 
ATOM      5  N   UNL     1      13.177 -48.597  72.030  1.00  0.00    -0.264 NA
ATOM      6  C   UNL     1      13.078 -49.480  73.057  1.00  0.00     0.111 A 
ENDROOT
BRANCH   1   7
ATOM      7  C   UNL     1      16.883 -48.086  71.731  1.00  0.00     0.073 C 
ATOM      8  O   UNL     1      17.675 -47.513  72.527  1.00  0.00    -0.545 OA
ATOM      9  O   UNL     1      17.263 -48.250  70.403  1.00  0.00    -0.545 OA
ENDBRANCH   1   7
TORSDOF 1
ENDMDL
MODEL 8
REMARK VINA RESULT:    -3.998      7.261      8.303
REMARK INTER + INTRA:          -4.254
REMARK INTER:                  -4.237
REMARK INTRA:                  -0.017
REMARK UNBOUND:                -0.022
REMARK SMILES O=C([O-])c1cccnc1
REMARK SMILES IDX 4 1 5 2 9 3 6 4 8 5 7 6 2 7 1 8 3 9
REMARK H PARENT
REMARK Flexibility Score: inf
ROOT
ATOM      1  C   UNL     1      20.587 -47.186  68.082  1.00  0.00     0.016 A 
ATOM      2  C   UNL     1      19.863 -48.389  68.141  1.00  0.00     0.013 A 
ATOM      3  C   UNL     1      20.575 -46.343  69.205  1.00  0.00     0.120 A 
ATOM      4  C   UNL     1      19.154 -48.724  69.297  1.00  0.00     0.021 A 
ATOM      5  N   UNL     1      19.876 -46.692  70.319  1.00  0.00    -0.264 NA
ATOM      6  C   UNL     1      19.173 -47.852  70.387  1.00  0.00     0.111 A 
ENDROOT
BRANCH   1   7
ATOM      7  C   UNL     1      21.345 -46.814  66.867  1.00  0.00     0.073 C 
ATOM      8  O   UNL     1      20.743 -46.427  65.830  1.00  0.00    -0.545 OA
ATOM      9  O   UNL     1      22.734 -46.886  66.854  1.00  0.00    -0.545 OA
ENDBRANCH   1   7
TORSDOF 1
ENDMDL
MODEL 9
REMARK VINA RESULT:    -3.897      7.538      8.418
REMARK INTER + INTRA:          -4.147
REMARK INTER:                  -4.126
REMARK INTRA:                  -0.021
REMARK UNBOUND:                -0.022
REMARK SMILES O=C([O-])c1cccnc1
REMARK SMILES IDX 4 1 5 2 9 3 6 4 8 5 7 6 2 7 1 8 3 9
REMARK H PARENT
REMARK Flexibility Score: inf
ROOT
ATOM      1  C   UNL     1      20.947 -46.079  69.191  1.00  0.00     0.016 A 
ATOM      2  C   UNL     1      20.106 -46.640  70.168  1.00  0.00     0.013 A 
ATOM      3  C   UNL     1      21.123 -46.773  67.983  1.00  0.00     0.120 A 
ATOM      4  C   UNL     1      19.469 -47.859  69.927  1.00  0.00     0.021 A 
ATOM      5  N   UNL     1      20.491 -47.960  67.774  1.00  0.00    -0.264 NA
ATOM      6  C   UNL     1      19.677 -48.511  68.711  1.00  0.00     0.111 A 
ENDROOT
BRANCH   1   7
ATOM      7  C   UNL     1      21.629 -44.788  69.426  1.00  0.00     0.073 C 
ATOM      8  O   UNL     1      21.795 -43.969  68.483  1.00  0.00    -0.545 OA
ATOM      9  O   UNL     1      22.098 -44.460  70.694  1.00  0.00    -0.545 OA
ENDBRANCH   1   7
TORSDOF 1
ENDMDL
