MODEL 1
REMARK VINA RESULT:    -4.383      0.000      0.000
REMARK INTER + INTRA:          -5.752
REMARK INTER:                  -5.279
REMARK INTRA:                  -0.473
REMARK UNBOUND:                -0.473
REMARK SMILES NC(=O)C[C@@H]([NH3+])C(=O)[O-]
REMARK SMILES IDX 4 1 5 2 6 3 7 7 8 8 9 9 2 10 3 11 1 12
REMARK H PARENT 6 4 6 5 6 6 1 13 1 14
REMARK Flexibility Score: inf
ROOT
ATOM      1  C   UNL     1     -24.569 -24.678 -13.235  1.00  0.00     0.171 C 
ENDROOT
BRANCH   1   2
ATOM      2  C   UNL     1     -24.201 -23.181 -13.264  1.00  0.00     0.237 C 
BRANCH   2   3
ATOM      3  N   UNL     1     -23.469 -22.857 -14.494  1.00  0.00    -0.350 N 
ATOM      4  H   UNL     1     -23.991 -23.221 -15.325  1.00  0.00     0.345 HD
ATOM      5  H   UNL     1     -22.512 -23.282 -14.477  1.00  0.00     0.345 HD
ATOM      6  H   UNL     1     -23.381 -21.820 -14.592  1.00  0.00     0.345 HD
ENDBRANCH   2   3
BRANCH   2   7
ATOM      7  C   UNL     1     -25.433 -22.321 -13.155  1.00  0.00     0.100 C 
ATOM      8  O   UNL     1     -26.535 -22.734 -13.602  1.00  0.00    -0.544 OA
ATOM      9  O   UNL     1     -25.360 -21.061 -12.571  1.00  0.00    -0.544 OA
ENDBRANCH   2   7
ENDBRANCH   1   2
BRANCH   1  10
ATOM     10  C   UNL     1     -24.592 -25.268 -14.616  1.00  0.00     0.223 C 
ATOM     11  O   UNL     1     -23.533 -25.738 -15.113  1.00  0.00    -0.275 OA
ATOM     12  N   UNL     1     -25.811 -25.337 -15.355  1.00  0.00    -0.369 N 
ATOM     13  H   UNL     1     -26.702 -24.970 -14.951  1.00  0.00     0.159 HD
ATOM     14  H   UNL     1     -25.826 -25.761 -16.309  1.00  0.00     0.159 HD
ENDBRANCH   1  10
TORSDOF 4
ENDMDL
MODEL 2
REMARK VINA RESULT:    -4.286      1.394      1.524
REMARK INTER + INTRA:          -5.636
REMARK INTER:                  -5.407
REMARK INTRA:                  -0.229
REMARK UNBOUND:                -0.473
REMARK SMILES NC(=O)C[C@@H]([NH3+])C(=O)[O-]
REMARK SMILES IDX 4 1 5 2 6 3 7 7 8 8 9 9 2 10 3 11 1 12
REMARK H PARENT 6 4 6 5 6 6 1 13 1 14
REMARK Flexibility Score: inf
ROOT
ATOM      1  C   UNL     1     -24.663 -23.326 -15.520  1.00  0.00     0.171 C 
ENDROOT
BRANCH   1   2
ATOM      2  C   UNL     1     -24.293 -22.573 -14.226  1.00  0.00     0.237 C 
BRANCH   2   3
ATOM      3  N   UNL     1     -22.841 -22.383 -14.141  1.00  0.00    -0.350 N 
ATOM      4  H   UNL     1     -22.477 -22.810 -13.257  1.00  0.00     0.345 HD
ATOM      5  H   UNL     1     -22.599 -21.365 -14.157  1.00  0.00     0.345 HD
ATOM      6  H   UNL     1     -22.374 -22.858 -14.948  1.00  0.00     0.345 HD
ENDBRANCH   2   3
BRANCH   2   7
ATOM      7  C   UNL     1     -24.994 -21.241 -14.159  1.00  0.00     0.100 C 
ATOM      8  O   UNL     1     -25.406 -20.689 -15.213  1.00  0.00    -0.544 OA
ATOM      9  O   UNL     1     -25.177 -20.605 -12.936  1.00  0.00    -0.544 OA
ENDBRANCH   2   7
ENDBRANCH   1   2
BRANCH   1  10
ATOM     10  C   UNL     1     -24.715 -24.811 -15.300  1.00  0.00     0.223 C 
ATOM     11  O   UNL     1     -23.704 -25.411 -14.846  1.00  0.00    -0.275 OA
ATOM     12  N   UNL     1     -25.912 -25.542 -15.565  1.00  0.00    -0.369 N 
ATOM     13  H   UNL     1     -26.765 -25.058 -15.924  1.00  0.00     0.159 HD
ATOM     14  H   UNL     1     -25.949 -26.571 -15.397  1.00  0.00     0.159 HD
ENDBRANCH   1  10
TORSDOF 4
ENDMDL
MODEL 3
REMARK VINA RESULT:    -4.221      1.811      3.682
REMARK INTER + INTRA:          -5.558
REMARK INTER:                  -5.090
REMARK INTRA:                  -0.467
REMARK UNBOUND:                -0.473
REMARK SMILES NC(=O)C[C@@H]([NH3+])C(=O)[O-]
REMARK SMILES IDX 4 1 5 2 6 3 7 7 8 8 9 9 2 10 3 11 1 12
REMARK H PARENT 6 4 6 5 6 6 1 13 1 14
REMARK Flexibility Score: inf
ROOT
ATOM      1  C   UNL     1     -26.118 -22.909 -14.223  1.00  0.00     0.171 C 
ENDROOT
BRANCH   1   2
ATOM      2  C   UNL     1     -25.404 -23.958 -15.100  1.00  0.00     0.237 C 
BRANCH   2   3
ATOM      3  N   UNL     1     -24.660 -23.299 -16.181  1.00  0.00    -0.350 N 
ATOM      4  H   UNL     1     -24.663 -22.263 -16.034  1.00  0.00     0.345 HD
ATOM      5  H   UNL     1     -25.089 -23.516 -17.111  1.00  0.00     0.345 HD
ATOM      6  H   UNL     1     -23.666 -23.626 -16.177  1.00  0.00     0.345 HD
ENDBRANCH   2   3
BRANCH   2   7
ATOM      7  C   UNL     1     -24.474 -24.807 -14.275  1.00  0.00     0.100 C 
ATOM      8  O   UNL     1     -23.593 -25.512 -14.837  1.00  0.00    -0.544 OA
ATOM      9  O   UNL     1     -24.588 -24.831 -12.890  1.00  0.00    -0.544 OA
ENDBRANCH   2   7
ENDBRANCH   1   2
BRANCH   1  10
ATOM     10  C   UNL     1     -25.278 -21.677 -14.039  1.00  0.00     0.223 C 
ATOM     11  O   UNL     1     -25.368 -20.731 -14.867  1.00  0.00    -0.275 OA
ATOM     12  N   UNL     1     -24.408 -21.554 -12.915  1.00  0.00    -0.369 N 
ATOM     13  H   UNL     1     -24.335 -22.320 -12.209  1.00  0.00     0.159 HD
ATOM     14  H   UNL     1     -23.837 -20.690 -12.784  1.00  0.00     0.159 HD
ENDBRANCH   1  10
TORSDOF 4
ENDMDL
MODEL 4
REMARK VINA RESULT:    -4.184      1.873      2.197
REMARK INTER + INTRA:          -5.513
REMARK INTER:                  -5.188
REMARK INTRA:                  -0.325
REMARK UNBOUND:                -0.473
REMARK SMILES NC(=O)C[C@@H]([NH3+])C(=O)[O-]
REMARK SMILES IDX 4 1 5 2 6 3 7 7 8 8 9 9 2 10 3 11 1 12
REMARK H PARENT 6 4 6 5 6 6 1 13 1 14
REMARK Flexibility Score: inf
ROOT
ATOM      1  C   UNL     1     -24.944 -23.373 -15.384  1.00  0.00     0.171 C 
ENDROOT
BRANCH   1   2
ATOM      2  C   UNL     1     -25.279 -22.423 -14.216  1.00  0.00     0.237 C 
BRANCH   2   3
ATOM      3  N   UNL     1     -26.265 -23.041 -13.321  1.00  0.00    -0.350 N 
ATOM      4  H   UNL     1     -25.789 -23.395 -12.458  1.00  0.00     0.345 HD
ATOM      5  H   UNL     1     -26.750 -23.837 -13.798  1.00  0.00     0.345 HD
ATOM      6  H   UNL     1     -26.976 -22.330 -13.032  1.00  0.00     0.345 HD
ENDBRANCH   2   3
BRANCH   2   7
ATOM      7  C   UNL     1     -24.038 -22.058 -13.445  1.00  0.00     0.100 C 
ATOM      8  O   UNL     1     -24.126 -21.382 -12.386  1.00  0.00    -0.544 OA
ATOM      9  O   UNL     1     -22.786 -22.453 -13.903  1.00  0.00    -0.544 OA
ENDBRANCH   2   7
ENDBRANCH   1   2
BRANCH   1  10
ATOM     10  C   UNL     1     -25.233 -24.805 -15.032  1.00  0.00     0.223 C 
ATOM     11  O   UNL     1     -24.617 -25.350 -14.077  1.00  0.00    -0.275 OA
ATOM     12  N   UNL     1     -26.226 -25.541 -15.745  1.00  0.00    -0.369 N 
ATOM     13  H   UNL     1     -26.760 -25.099 -16.527  1.00  0.00     0.159 HD
ATOM     14  H   UNL     1     -26.434 -26.531 -15.488  1.00  0.00     0.159 HD
ENDBRANCH   1  10
TORSDOF 4
ENDMDL
MODEL 5
REMARK VINA RESULT:    -4.165      1.929      3.973
REMARK INTER + INTRA:          -5.490
REMARK INTER:                  -5.394
REMARK INTRA:                  -0.096
REMARK UNBOUND:                -0.473
REMARK SMILES NC(=O)C[C@@H]([NH3+])C(=O)[O-]
REMARK SMILES IDX 4 1 5 2 6 3 7 7 8 8 9 9 2 10 3 11 1 12
REMARK H PARENT 6 4 6 5 6 6 1 13 1 14
REMARK Flexibility Score: inf
ROOT
ATOM      1  C   UNL     1     -23.217 -22.879 -13.917  1.00  0.00     0.171 C 
ENDROOT
BRANCH   1   2
ATOM      2  C   UNL     1     -24.538 -23.280 -14.605  1.00  0.00     0.237 C 
BRANCH   2   3
ATOM      3  N   UNL     1     -24.733 -22.499 -15.832  1.00  0.00    -0.350 N 
ATOM      4  H   UNL     1     -25.177 -21.580 -15.602  1.00  0.00     0.345 HD
ATOM      5  H   UNL     1     -25.344 -23.017 -16.507  1.00  0.00     0.345 HD
ATOM      6  H   UNL     1     -23.809 -22.310 -16.283  1.00  0.00     0.345 HD
ENDBRANCH   2   3
BRANCH   2   7
ATOM      7  C   UNL     1     -24.556 -24.753 -14.921  1.00  0.00     0.100 C 
ATOM      8  O   UNL     1     -25.603 -25.292 -15.368  1.00  0.00    -0.544 OA
ATOM      9  O   UNL     1     -23.422 -25.529 -14.709  1.00  0.00    -0.544 OA
ENDBRANCH   2   7
ENDBRANCH   1   2
BRANCH   1  10
ATOM     10  C   UNL     1     -23.300 -21.502 -13.321  1.00  0.00     0.223 C 
ATOM     11  O   UNL     1     -24.042 -21.297 -12.323  1.00  0.00    -0.275 OA
ATOM     12  N   UNL     1     -22.517 -20.434 -13.852  1.00  0.00    -0.369 N 
ATOM     13  H   UNL     1     -21.882 -20.590 -14.666  1.00  0.00     0.159 HD
ATOM     14  H   UNL     1     -22.566 -19.482 -13.425  1.00  0.00     0.159 HD
ENDBRANCH   1  10
TORSDOF 4
ENDMDL
MODEL 6
REMARK VINA RESULT:    -4.133      1.747      3.751
REMARK INTER + INTRA:          -5.451
REMARK INTER:                  -4.975
REMARK INTRA:                  -0.477
REMARK UNBOUND:                -0.473
REMARK SMILES NC(=O)C[C@@H]([NH3+])C(=O)[O-]
REMARK SMILES IDX 4 1 5 2 6 3 7 7 8 8 9 9 2 10 3 11 1 12
REMARK H PARENT 6 4 6 5 6 6 1 13 1 14
REMARK Flexibility Score: inf
ROOT
ATOM      1  C   UNL     1     -23.520 -23.299 -12.850  1.00  0.00     0.171 C 
ENDROOT
BRANCH   1   2
ATOM      2  C   UNL     1     -24.689 -24.078 -13.487  1.00  0.00     0.237 C 
BRANCH   2   3
ATOM      3  N   UNL     1     -25.942 -23.327 -13.346  1.00  0.00    -0.350 N 
ATOM      4  H   UNL     1     -26.226 -22.934 -14.273  1.00  0.00     0.345 HD
ATOM      5  H   UNL     1     -25.828 -22.544 -12.661  1.00  0.00     0.345 HD
ATOM      6  H   UNL     1     -26.702 -23.964 -13.015  1.00  0.00     0.345 HD
ENDBRANCH   2   3
BRANCH   2   7
ATOM      7  C   UNL     1     -24.417 -24.363 -14.941  1.00  0.00     0.100 C 
ATOM      8  O   UNL     1     -24.074 -25.519 -15.306  1.00  0.00    -0.544 OA
ATOM      9  O   UNL     1     -24.530 -23.351 -15.888  1.00  0.00    -0.544 OA
ENDBRANCH   2   7
ENDBRANCH   1   2
BRANCH   1  10
ATOM     10  C   UNL     1     -23.704 -21.814 -12.991  1.00  0.00     0.223 C 
ATOM     11  O   UNL     1     -24.389 -21.186 -12.140  1.00  0.00    -0.275 OA
ATOM     12  N   UNL     1     -23.078 -21.104 -14.059  1.00  0.00    -0.369 N 
ATOM     13  H   UNL     1     -22.491 -21.605 -14.762  1.00  0.00     0.159 HD
ATOM     14  H   UNL     1     -23.196 -20.070 -14.145  1.00  0.00     0.159 HD
ENDBRANCH   1  10
TORSDOF 4
ENDMDL
MODEL 7
REMARK VINA RESULT:    -3.925      2.482      4.542
REMARK INTER + INTRA:          -5.200
REMARK INTER:                  -4.747
REMARK INTRA:                  -0.454
REMARK UNBOUND:                -0.473
REMARK SMILES NC(=O)C[C@@H]([NH3+])C(=O)[O-]
REMARK SMILES IDX 4 1 5 2 6 3 7 7 8 8 9 9 2 10 3 11 1 12
REMARK H PARENT 6 4 6 5 6 6 1 13 1 14
REMARK Flexibility Score: inf
ROOT
ATOM      1  C   UNL     1     -24.873 -20.973 -13.425  1.00  0.00     0.171 C 
ENDROOT
BRANCH   1   2
ATOM      2  C   UNL     1     -25.032 -22.119 -14.444  1.00  0.00     0.237 C 
BRANCH   2   3
ATOM      3  N   UNL     1     -25.166 -21.580 -15.803  1.00  0.00    -0.350 N 
ATOM      4  H   UNL     1     -24.738 -22.242 -16.492  1.00  0.00     0.345 HD
ATOM      5  H   UNL     1     -24.692 -20.650 -15.880  1.00  0.00     0.345 HD
ATOM      6  H   UNL     1     -26.178 -21.470 -16.042  1.00  0.00     0.345 HD
ENDBRANCH   2   3
BRANCH   2   7
ATOM      7  C   UNL     1     -23.862 -23.066 -14.377  1.00  0.00     0.100 C 
ATOM      8  O   UNL     1     -22.767 -22.685 -13.885  1.00  0.00    -0.544 OA
ATOM      9  O   UNL     1     -23.977 -24.361 -14.870  1.00  0.00    -0.544 OA
ENDBRANCH   2   7
ENDBRANCH   1   2
BRANCH   1  10
ATOM     10  C   UNL     1     -24.378 -19.715 -14.080  1.00  0.00     0.223 C 
ATOM     11  O   UNL     1     -25.203 -18.831 -14.437  1.00  0.00    -0.275 OA
ATOM     12  N   UNL     1     -22.981 -19.495 -14.265  1.00  0.00    -0.369 N 
ATOM     13  H   UNL     1     -22.282 -20.208 -13.957  1.00  0.00     0.159 HD
ATOM     14  H   UNL     1     -22.640 -18.613 -14.707  1.00  0.00     0.159 HD
ENDBRANCH   1  10
TORSDOF 4
ENDMDL
MODEL 8
REMARK VINA RESULT:    -3.915      2.799      3.295
REMARK INTER + INTRA:          -5.189
REMARK INTER:                  -4.856
REMARK INTRA:                  -0.332
REMARK UNBOUND:                -0.473
REMARK SMILES NC(=O)C[C@@H]([NH3+])C(=O)[O-]
REMARK SMILES IDX 4 1 5 2 6 3 7 7 8 8 9 9 2 10 3 11 1 12
REMARK H PARENT 6 4 6 5 6 6 1 13 1 14
REMARK Flexibility Score: inf
ROOT
ATOM      1  C   UNL     1     -24.907 -22.263 -13.439  1.00  0.00     0.171 C 
ENDROOT
BRANCH   1   2
ATOM      2  C   UNL     1     -23.686 -21.588 -12.783  1.00  0.00     0.237 C 
BRANCH   2   3
ATOM      3  N   UNL     1     -22.810 -21.007 -13.808  1.00  0.00    -0.350 N 
ATOM      4  H   UNL     1     -23.057 -20.002 -13.958  1.00  0.00     0.345 HD
ATOM      5  H   UNL     1     -22.907 -21.525 -14.713  1.00  0.00     0.345 HD
ATOM      6  H   UNL     1     -21.814 -21.055 -13.492  1.00  0.00     0.345 HD
ENDBRANCH   2   3
BRANCH   2   7
ATOM      7  C   UNL     1     -24.118 -20.523 -11.809  1.00  0.00     0.100 C 
ATOM      8  O   UNL     1     -23.261 -19.773 -11.270  1.00  0.00    -0.544 OA
ATOM      9  O   UNL     1     -25.462 -20.369 -11.487  1.00  0.00    -0.544 OA
ENDBRANCH   2   7
ENDBRANCH   1   2
BRANCH   1  10
ATOM     10  C   UNL     1     -25.112 -21.786 -14.849  1.00  0.00     0.223 C 
ATOM     11  O   UNL     1     -25.455 -20.592 -15.060  1.00  0.00    -0.275 OA
ATOM     12  N   UNL     1     -24.883 -22.663 -15.951  1.00  0.00    -0.369 N 
ATOM     13  H   UNL     1     -24.579 -23.649 -15.795  1.00  0.00     0.159 HD
ATOM     14  H   UNL     1     -25.012 -22.323 -16.930  1.00  0.00     0.159 HD
ENDBRANCH   1  10
TORSDOF 4
ENDMDL
MODEL 9
REMARK VINA RESULT:    -3.827      1.890      2.357
REMARK INTER + INTRA:          -5.082
REMARK INTER:                  -4.687
REMARK INTRA:                  -0.395
REMARK UNBOUND:                -0.473
REMARK SMILES NC(=O)C[C@@H]([NH3+])C(=O)[O-]
REMARK SMILES IDX 4 1 5 2 6 3 7 7 8 8 9 9 2 10 3 11 1 12
REMARK H PARENT 6 4 6 5 6 6 1 13 1 14
REMARK Flexibility Score: inf
ROOT
ATOM      1  C   UNL     1     -23.667 -23.535 -12.883  1.00  0.00     0.171 C 
ENDROOT
BRANCH   1   2
ATOM      2  C   UNL     1     -23.167 -22.450 -13.859  1.00  0.00     0.237 C 
BRANCH   2   3
ATOM      3  N   UNL     1     -23.866 -22.556 -15.145  1.00  0.00    -0.350 N 
ATOM      4  H   UNL     1     -23.642 -21.726 -15.741  1.00  0.00     0.345 HD
ATOM      5  H   UNL     1     -24.901 -22.607 -15.000  1.00  0.00     0.345 HD
ATOM      6  H   UNL     1     -23.549 -23.415 -15.651  1.00  0.00     0.345 HD
ENDBRANCH   2   3
BRANCH   2   7
ATOM      7  C   UNL     1     -23.359 -21.073 -13.278  1.00  0.00     0.100 C 
ATOM      8  O   UNL     1     -22.561 -20.145 -13.573  1.00  0.00    -0.544 OA
ATOM      9  O   UNL     1     -24.410 -20.821 -12.404  1.00  0.00    -0.544 OA
ENDBRANCH   2   7
ENDBRANCH   1   2
BRANCH   1  10
ATOM     10  C   UNL     1     -24.972 -24.127 -13.337  1.00  0.00     0.223 C 
ATOM     11  O   UNL     1     -24.980 -25.236 -13.936  1.00  0.00    -0.275 OA
ATOM     12  N   UNL     1     -26.204 -23.462 -13.062  1.00  0.00    -0.369 N 
ATOM     13  H   UNL     1     -26.218 -22.552 -12.550  1.00  0.00     0.159 HD
ATOM     14  H   UNL     1     -27.109 -23.884 -13.366  1.00  0.00     0.159 HD
ENDBRANCH   1  10
TORSDOF 4
ENDMDL
