MODEL 1
REMARK VINA RESULT:    -3.594      0.000      0.000
REMARK INTER + INTRA:          -5.343
REMARK INTER:                  -5.485
REMARK INTRA:                   0.142
REMARK UNBOUND:                 0.142
REMARK SMILES CC1=CCC[C@H](C)C(=O)C[C@H](C(C)C)C(=O)C1
REMARK SMILES IDX 8 1 9 2 6 3 7 4 5 5 4 6 3 7 2 8 1 9 10 11 11 12 15 13 16 14
REMARK SMILES IDX 17 15 12 17 13 18 14 19
REMARK H PARENT
REMARK Flexibility Score: 70.00
ROOT
ATOM      1  C   UNL     1       8.409 -29.736  16.402  1.00  0.00     0.136 C 
ATOM      2  O   UNL     1       9.261 -29.045  16.942  1.00  0.00    -0.299 OA
ENDROOT
BRANCH   1   3
ATOM      3  C   UNL     1       7.341 -30.382  17.265  1.00  0.00     0.053 C 
ATOM      4  C   UNL     1       5.953 -29.824  16.931  1.00  0.00     0.016 C 
BRANCH   3   5
ATOM      5  C   UNL     1       7.374 -31.917  17.145  1.00  0.00     0.015 C 
BRANCH   5   6
ATOM      6  C   UNL     1       6.347 -32.428  16.119  1.00  0.00     0.028 C 
BRANCH   6   7
ATOM      7  C   UNL     1       6.834 -33.673  15.429  1.00  0.00    -0.028 C 
ATOM      8  C   UNL     1       7.552 -33.686  14.281  1.00  0.00    -0.070 CG0
ATOM      9  C   UNL     1       7.937 -35.025  13.702  1.00  0.00     0.039 C 
ATOM     10  G   UNL     1       8.005 -32.421  13.571  1.00  0.00     0.000 G0
ENDBRANCH   6   7
ENDBRANCH   5   6
ENDBRANCH   3   5
ENDBRANCH   1   3
BRANCH   1  11
ATOM     11  C   UNL     1       8.450 -29.898  14.898  1.00  0.00     0.087 C 
BRANCH  11  12
ATOM     12  C   UNL     1       9.737 -30.619  14.419  1.00  0.00     0.066 C 
BRANCH  12  13
ATOM     13  C   UNL     1       9.431 -32.030  13.941  1.00  0.00     0.140 C 
ATOM     14  O   UNL     1      10.315 -32.876  13.935  1.00  0.00    -0.299 OA
BRANCH  13  15
ATOM     15  C   UNL     1       8.029 -32.429  13.553  1.00  0.00     0.106 CG0
ATOM     16  G   UNL     1       7.559 -33.680  14.279  1.00  0.00     0.000 G0
ENDBRANCH  13  15
ENDBRANCH  12  13
BRANCH  12  17
ATOM     17  C   UNL     1      10.523 -29.823  13.327  1.00  0.00    -0.006 C 
ATOM     18  C   UNL     1      11.477 -28.793  13.954  1.00  0.00     0.008 C 
ATOM     19  C   UNL     1       9.625 -29.131  12.284  1.00  0.00     0.008 C 
ENDBRANCH  12  17
ENDBRANCH  11  12
ENDBRANCH   1  11
TORSDOF 1
ENDMDL
MODEL 2
REMARK VINA RESULT:    -3.298      1.830      5.195
REMARK INTER + INTRA:          -4.890
REMARK INTER:                  -4.778
REMARK INTRA:                  -0.113
REMARK UNBOUND:                 0.142
REMARK SMILES CC1=CCC[C@H](C)C(=O)C[C@H](C(C)C)C(=O)C1
REMARK SMILES IDX 8 1 9 2 6 3 7 4 5 5 4 6 3 7 2 8 1 9 10 11 11 12 15 13 16 14
REMARK SMILES IDX 17 15 12 17 13 18 14 19
REMARK H PARENT
REMARK Flexibility Score: 70.00
ROOT
ATOM      1  C   UNL     1       9.064 -32.658  13.993  1.00  0.00     0.136 C 
ATOM      2  O   UNL     1      10.004 -33.097  14.640  1.00  0.00    -0.299 OA
ENDROOT
BRANCH   1   3
ATOM      3  C   UNL     1       9.328 -32.116  12.600  1.00  0.00     0.053 C 
ATOM      4  C   UNL     1       8.029 -31.638  11.941  1.00  0.00     0.016 C 
BRANCH   3   5
ATOM      5  C   UNL     1      10.390 -31.001  12.623  1.00  0.00     0.015 C 
BRANCH   5   6
ATOM      6  C   UNL     1       9.779 -29.644  13.012  1.00  0.00     0.028 C 
BRANCH   6   7
ATOM      7  C   UNL     1      10.044 -29.317  14.457  1.00  0.00    -0.028 C 
ATOM      8  C   UNL     1       9.104 -29.317  15.432  1.00  0.00    -0.070 CG0
ATOM      9  C   UNL     1       9.531 -28.937  16.828  1.00  0.00     0.039 C 
ATOM     10  G   UNL     1       7.656 -29.709  15.188  1.00  0.00     0.000 G0
ENDBRANCH   6   7
ENDBRANCH   5   6
ENDBRANCH   3   5
ENDBRANCH   1   3
BRANCH   1  11
ATOM     11  C   UNL     1       7.680 -32.693  14.605  1.00  0.00     0.087 C 
BRANCH  11  12
ATOM     12  C   UNL     1       7.676 -32.206  16.077  1.00  0.00     0.066 C 
BRANCH  12  13
ATOM     13  C   UNL     1       7.184 -30.771  16.180  1.00  0.00     0.140 C 
ATOM     14  O   UNL     1       6.449 -30.444  17.103  1.00  0.00    -0.299 OA
BRANCH  13  15
ATOM     15  C   UNL     1       7.656 -29.719  15.209  1.00  0.00     0.106 CG0
ATOM     16  G   UNL     1       9.104 -29.320  15.442  1.00  0.00     0.000 G0
ENDBRANCH  13  15
ENDBRANCH  12  13
BRANCH  12  17
ATOM     17  C   UNL     1       6.867 -33.139  17.036  1.00  0.00    -0.006 C 
ATOM     18  C   UNL     1       7.712 -33.579  18.244  1.00  0.00     0.008 C 
ATOM     19  C   UNL     1       6.262 -34.376  16.347  1.00  0.00     0.008 C 
ENDBRANCH  12  17
ENDBRANCH  11  12
ENDBRANCH   1  11
TORSDOF 1
ENDMDL
MODEL 3
REMARK VINA RESULT:    -3.276      1.816      4.063
REMARK INTER + INTRA:          -4.858
REMARK INTER:                  -4.885
REMARK INTRA:                   0.027
REMARK UNBOUND:                 0.142
REMARK SMILES CC1=CCC[C@H](C)C(=O)C[C@H](C(C)C)C(=O)C1
REMARK SMILES IDX 8 1 9 2 6 3 7 4 5 5 4 6 3 7 2 8 1 9 10 11 11 12 15 13 16 14
REMARK SMILES IDX 17 15 12 17 13 18 14 19
REMARK H PARENT
REMARK Flexibility Score: 70.00
ROOT
ATOM      1  C   UNL     1       9.574 -29.590  15.116  1.00  0.00     0.136 C 
ATOM      2  O   UNL     1       9.512 -28.752  16.005  1.00  0.00    -0.299 OA
ENDROOT
BRANCH   1   3
ATOM      3  C   UNL     1      10.429 -29.296  13.898  1.00  0.00     0.053 C 
ATOM      4  C   UNL     1      11.579 -28.345  14.250  1.00  0.00     0.016 C 
BRANCH   3   5
ATOM      5  C   UNL     1      10.950 -30.593  13.251  1.00  0.00     0.015 C 
BRANCH   5   6
ATOM      6  C   UNL     1      10.245 -30.882  11.914  1.00  0.00     0.028 C 
BRANCH   6   7
ATOM      7  C   UNL     1       9.680 -32.277  11.883  1.00  0.00    -0.028 C 
ATOM      8  C   UNL     1       8.392 -32.592  12.157  1.00  0.00    -0.070 CG0
ATOM      9  C   UNL     1       7.993 -34.045  12.111  1.00  0.00     0.039 C 
ATOM     10  G   UNL     1       7.333 -31.549  12.478  1.00  0.00     0.000 G0
ENDBRANCH   6   7
ENDBRANCH   5   6
ENDBRANCH   3   5
ENDBRANCH   1   3
BRANCH   1  11
ATOM     11  C   UNL     1       8.809 -30.885  15.283  1.00  0.00     0.087 C 
BRANCH  11  12
ATOM     12  C   UNL     1       7.293 -30.711  15.008  1.00  0.00     0.066 C 
BRANCH  12  13
ATOM     13  C   UNL     1       6.821 -31.657  13.914  1.00  0.00     0.140 C 
ATOM     14  O   UNL     1       5.952 -32.484  14.158  1.00  0.00    -0.299 OA
BRANCH  13  15
ATOM     15  C   UNL     1       7.346 -31.535  12.506  1.00  0.00     0.106 CG0
ATOM     16  G   UNL     1       8.383 -32.597  12.179  1.00  0.00     0.000 G0
ENDBRANCH  13  15
ENDBRANCH  12  13
BRANCH  12  17
ATOM     17  C   UNL     1       6.410 -30.862  16.289  1.00  0.00    -0.006 C 
ATOM     18  C   UNL     1       6.279 -29.529  17.047  1.00  0.00     0.008 C 
ATOM     19  C   UNL     1       6.885 -31.963  17.255  1.00  0.00     0.008 C 
ENDBRANCH  12  17
ENDBRANCH  11  12
ENDBRANCH   1  11
TORSDOF 1
ENDMDL
MODEL 4
REMARK VINA RESULT:    -3.153      1.803      4.284
REMARK INTER + INTRA:          -4.670
REMARK INTER:                  -4.907
REMARK INTRA:                   0.237
REMARK UNBOUND:                 0.142
REMARK SMILES CC1=CCC[C@H](C)C(=O)C[C@H](C(C)C)C(=O)C1
REMARK SMILES IDX 8 1 9 2 6 3 7 4 5 5 4 6 3 7 2 8 1 9 10 11 11 12 15 13 16 14
REMARK SMILES IDX 17 15 12 17 13 18 14 19
REMARK H PARENT
REMARK Flexibility Score: 70.00
ROOT
ATOM      1  C   UNL     1       7.294 -32.661  16.339  1.00  0.00     0.136 C 
ATOM      2  O   UNL     1       7.492 -33.145  17.444  1.00  0.00    -0.299 OA
ENDROOT
BRANCH   1   3
ATOM      3  C   UNL     1       7.394 -33.560  15.121  1.00  0.00     0.053 C 
ATOM      4  C   UNL     1       6.246 -33.290  14.143  1.00  0.00     0.016 C 
BRANCH   3   5
ATOM      5  C   UNL     1       8.764 -33.422  14.432  1.00  0.00     0.015 C 
BRANCH   5   6
ATOM      6  C   UNL     1       8.639 -32.749  13.053  1.00  0.00     0.028 C 
BRANCH   6   7
ATOM      7  C   UNL     1       9.683 -31.680  12.869  1.00  0.00    -0.028 C 
ATOM      8  C   UNL     1       9.569 -30.407  13.316  1.00  0.00    -0.070 CG0
ATOM      9  C   UNL     1      10.697 -29.449  13.021  1.00  0.00     0.039 C 
ATOM     10  G   UNL     1       8.376 -29.913  14.118  1.00  0.00     0.000 G0
ENDBRANCH   6   7
ENDBRANCH   5   6
ENDBRANCH   3   5
ENDBRANCH   1   3
BRANCH   1  11
ATOM     11  C   UNL     1       6.942 -31.192  16.242  1.00  0.00     0.087 C 
BRANCH  11  12
ATOM     12  C   UNL     1       8.096 -30.277  16.727  1.00  0.00     0.066 C 
BRANCH  12  13
ATOM     13  C   UNL     1       8.762 -29.565  15.560  1.00  0.00     0.140 C 
ATOM     14  O   UNL     1       9.663 -28.765  15.769  1.00  0.00    -0.299 OA
BRANCH  13  15
ATOM     15  C   UNL     1       8.385 -29.894  14.137  1.00  0.00     0.106 CG0
ATOM     16  G   UNL     1       9.568 -30.396  13.324  1.00  0.00     0.000 G0
ENDBRANCH  13  15
ENDBRANCH  12  13
BRANCH  12  17
ATOM     17  C   UNL     1       7.654 -29.252  17.822  1.00  0.00    -0.006 C 
ATOM     18  C   UNL     1       8.530 -29.357  19.082  1.00  0.00     0.008 C 
ATOM     19  C   UNL     1       6.168 -29.349  18.212  1.00  0.00     0.008 C 
ENDBRANCH  12  17
ENDBRANCH  11  12
ENDBRANCH   1  11
TORSDOF 1
ENDMDL
MODEL 5
REMARK VINA RESULT:    -3.076      1.857      3.917
REMARK INTER + INTRA:          -4.552
REMARK INTER:                  -4.752
REMARK INTRA:                   0.199
REMARK UNBOUND:                 0.142
REMARK SMILES CC1=CCC[C@H](C)C(=O)C[C@H](C(C)C)C(=O)C1
REMARK SMILES IDX 8 1 9 2 6 3 7 4 5 5 4 6 3 7 2 8 1 9 10 11 11 12 15 13 16 14
REMARK SMILES IDX 17 15 12 17 13 18 14 19
REMARK H PARENT
REMARK Flexibility Score: 70.00
ROOT
ATOM      1  C   UNL     1       8.841 -29.904  13.608  1.00  0.00     0.136 C 
ATOM      2  O   UNL     1       7.938 -29.186  13.205  1.00  0.00    -0.299 OA
ENDROOT
BRANCH   1   3
ATOM      3  C   UNL     1       9.624 -30.724  12.599  1.00  0.00     0.053 C 
ATOM      4  C   UNL     1      11.058 -30.969  13.084  1.00  0.00     0.016 C 
BRANCH   3   5
ATOM      5  C   UNL     1       8.908 -32.047  12.272  1.00  0.00     0.015 C 
BRANCH   5   6
ATOM      6  C   UNL     1       9.207 -33.129  13.326  1.00  0.00     0.028 C 
BRANCH   6   7
ATOM      7  C   UNL     1       7.958 -33.872  13.717  1.00  0.00    -0.028 C 
ATOM      8  C   UNL     1       7.283 -33.687  14.877  1.00  0.00    -0.070 CG0
ATOM      9  C   UNL     1       6.063 -34.537  15.130  1.00  0.00     0.039 C 
ATOM     10  G   UNL     1       7.682 -32.647  15.912  1.00  0.00     0.000 G0
ENDBRANCH   6   7
ENDBRANCH   5   6
ENDBRANCH   3   5
ENDBRANCH   1   3
BRANCH   1  11
ATOM     11  C   UNL     1       9.147 -29.927  15.089  1.00  0.00     0.087 C 
BRANCH  11  12
ATOM     12  C   UNL     1       7.862 -30.015  15.953  1.00  0.00     0.066 C 
BRANCH  12  13
ATOM     13  C   UNL     1       7.082 -31.286  15.650  1.00  0.00     0.140 C 
ATOM     14  O   UNL     1       5.984 -31.212  15.114  1.00  0.00    -0.299 OA
BRANCH  13  15
ATOM     15  C   UNL     1       7.678 -32.644  15.922  1.00  0.00     0.106 CG0
ATOM     16  G   UNL     1       7.279 -33.674  14.878  1.00  0.00     0.000 G0
ENDBRANCH  13  15
ENDBRANCH  12  13
BRANCH  12  17
ATOM     17  C   UNL     1       8.137 -29.888  17.487  1.00  0.00    -0.006 C 
ATOM     18  C   UNL     1       6.846 -29.591  18.270  1.00  0.00     0.008 C 
ATOM     19  C   UNL     1       9.214 -28.849  17.849  1.00  0.00     0.008 C 
ENDBRANCH  12  17
ENDBRANCH  11  12
ENDBRANCH   1  11
TORSDOF 1
ENDMDL
MODEL 6
REMARK VINA RESULT:    -2.763      2.119      5.163
REMARK INTER + INTRA:          -4.075
REMARK INTER:                  -4.505
REMARK INTRA:                   0.430
REMARK UNBOUND:                 0.142
REMARK SMILES CC1=CCC[C@H](C)C(=O)C[C@H](C(C)C)C(=O)C1
REMARK SMILES IDX 8 1 9 2 6 3 7 4 5 5 4 6 3 7 2 8 1 9 10 11 11 12 15 13 16 14
REMARK SMILES IDX 17 15 12 17 13 18 14 19
REMARK H PARENT
REMARK Flexibility Score: 70.00
ROOT
ATOM      1  C   UNL     1       9.278 -33.808  13.355  1.00  0.00     0.136 C 
ATOM      2  O   UNL     1       9.305 -34.662  12.480  1.00  0.00    -0.299 OA
ENDROOT
BRANCH   1   3
ATOM      3  C   UNL     1      10.459 -32.864  13.487  1.00  0.00     0.053 C 
ATOM      4  C   UNL     1      11.701 -33.606  13.992  1.00  0.00     0.016 C 
BRANCH   3   5
ATOM      5  C   UNL     1      10.742 -32.130  12.164  1.00  0.00     0.015 C 
BRANCH   5   6
ATOM      6  C   UNL     1      10.347 -30.645  12.243  1.00  0.00     0.028 C 
BRANCH   6   7
ATOM      7  C   UNL     1      10.381 -30.144  13.662  1.00  0.00    -0.028 C 
ATOM      8  C   UNL     1       9.289 -29.788  14.380  1.00  0.00    -0.070 CG0
ATOM      9  C   UNL     1       9.500 -29.276  15.783  1.00  0.00     0.039 C 
ATOM     10  G   UNL     1       7.871 -29.908  13.847  1.00  0.00     0.000 G0
ENDBRANCH   6   7
ENDBRANCH   5   6
ENDBRANCH   3   5
ENDBRANCH   1   3
BRANCH   1  11
ATOM     11  C   UNL     1       8.062 -33.722  14.251  1.00  0.00     0.087 C 
BRANCH  11  12
ATOM     12  C   UNL     1       7.912 -32.325  14.906  1.00  0.00     0.066 C 
BRANCH  12  13
ATOM     13  C   UNL     1       7.341 -31.315  13.922  1.00  0.00     0.140 C 
ATOM     14  O   UNL     1       6.388 -31.622  13.219  1.00  0.00    -0.299 OA
BRANCH  13  15
ATOM     15  C   UNL     1       7.878 -29.907  13.859  1.00  0.00     0.106 CG0
ATOM     16  G   UNL     1       9.298 -29.802  14.393  1.00  0.00     0.000 G0
ENDBRANCH  13  15
ENDBRANCH  12  13
BRANCH  12  17
ATOM     17  C   UNL     1       7.074 -32.346  16.226  1.00  0.00    -0.006 C 
ATOM     18  C   UNL     1       7.936 -31.985  17.448  1.00  0.00     0.008 C 
ATOM     19  C   UNL     1       6.339 -33.674  16.482  1.00  0.00     0.008 C 
ENDBRANCH  12  17
ENDBRANCH  11  12
ENDBRANCH   1  11
TORSDOF 1
ENDMDL
MODEL 7
REMARK VINA RESULT:    -2.686      2.030      4.733
REMARK INTER + INTRA:          -3.957
REMARK INTER:                  -4.477
REMARK INTRA:                   0.520
REMARK UNBOUND:                 0.142
REMARK SMILES CC1=CCC[C@H](C)C(=O)C[C@H](C(C)C)C(=O)C1
REMARK SMILES IDX 8 1 9 2 6 3 7 4 5 5 4 6 3 7 2 8 1 9 10 11 11 12 15 13 16 14
REMARK SMILES IDX 17 15 12 17 13 18 14 19
REMARK H PARENT
REMARK Flexibility Score: 70.00
ROOT
ATOM      1  C   UNL     1       9.636 -31.836  13.438  1.00  0.00     0.136 C 
ATOM      2  O   UNL     1       9.545 -32.489  12.408  1.00  0.00    -0.299 OA
ENDROOT
BRANCH   1   3
ATOM      3  C   UNL     1       9.984 -30.363  13.338  1.00  0.00     0.053 C 
ATOM      4  C   UNL     1      10.020 -29.905  11.875  1.00  0.00     0.016 C 
BRANCH   3   5
ATOM      5  C   UNL     1       9.021 -29.500  14.173  1.00  0.00     0.015 C 
BRANCH   5   6
ATOM      6  C   UNL     1       9.463 -29.419  15.645  1.00  0.00     0.028 C 
BRANCH   6   7
ATOM      7  C   UNL     1       8.284 -29.239  16.563  1.00  0.00    -0.028 C 
ATOM      8  C   UNL     1       7.691 -30.237  17.259  1.00  0.00    -0.070 CG0
ATOM      9  C   UNL     1       6.497 -29.892  18.113  1.00  0.00     0.039 C 
ATOM     10  G   UNL     1       8.190 -31.673  17.240  1.00  0.00     0.000 G0
ENDBRANCH   6   7
ENDBRANCH   5   6
ENDBRANCH   3   5
ENDBRANCH   1   3
BRANCH   1  11
ATOM     11  C   UNL     1       9.378 -32.525  14.760  1.00  0.00     0.087 C 
BRANCH  11  12
ATOM     12  C   UNL     1       7.893 -32.938  14.928  1.00  0.00     0.066 C 
BRANCH  12  13
ATOM     13  C   UNL     1       7.374 -32.572  16.310  1.00  0.00     0.140 C 
ATOM     14  O   UNL     1       6.322 -33.052  16.712  1.00  0.00    -0.299 OA
BRANCH  13  15
ATOM     15  C   UNL     1       8.179 -31.691  17.231  1.00  0.00     0.106 CG0
ATOM     16  G   UNL     1       7.676 -30.257  17.252  1.00  0.00     0.000 G0
ENDBRANCH  13  15
ENDBRANCH  12  13
BRANCH  12  17
ATOM     17  C   UNL     1       6.959 -32.360  13.815  1.00  0.00    -0.006 C 
ATOM     18  C   UNL     1       6.054 -31.242  14.361  1.00  0.00     0.008 C 
ATOM     19  C   UNL     1       6.102 -33.420  13.100  1.00  0.00     0.008 C 
ENDBRANCH  12  17
ENDBRANCH  11  12
ENDBRANCH   1  11
TORSDOF 1
ENDMDL
MODEL 8
REMARK VINA RESULT:    -2.684      1.570      4.070
REMARK INTER + INTRA:          -3.953
REMARK INTER:                  -4.470
REMARK INTRA:                   0.516
REMARK UNBOUND:                 0.142
REMARK SMILES CC1=CCC[C@H](C)C(=O)C[C@H](C(C)C)C(=O)C1
REMARK SMILES IDX 8 1 9 2 6 3 7 4 5 5 4 6 3 7 2 8 1 9 10 11 11 12 15 13 16 14
REMARK SMILES IDX 17 15 12 17 13 18 14 19
REMARK H PARENT
REMARK Flexibility Score: 70.00
ROOT
ATOM      1  C   UNL     1       7.394 -30.264  17.444  1.00  0.00     0.136 C 
ATOM      2  O   UNL     1       6.223 -29.952  17.607  1.00  0.00    -0.299 OA
ENDROOT
BRANCH   1   3
ATOM      3  C   UNL     1       8.457 -29.189  17.569  1.00  0.00     0.053 C 
ATOM      4  C   UNL     1       9.015 -29.131  18.996  1.00  0.00     0.016 C 
BRANCH   3   5
ATOM      5  C   UNL     1       9.580 -29.386  16.535  1.00  0.00     0.015 C 
BRANCH   5   6
ATOM      6  C   UNL     1       9.080 -29.140  15.100  1.00  0.00     0.028 C 
BRANCH   6   7
ATOM      7  C   UNL     1       9.898 -29.905  14.096  1.00  0.00    -0.028 C 
ATOM      8  C   UNL     1       9.472 -31.009  13.436  1.00  0.00    -0.070 CG0
ATOM      9  C   UNL     1      10.429 -31.677  12.481  1.00  0.00     0.039 C 
ATOM     10  G   UNL     1       8.073 -31.581  13.594  1.00  0.00     0.000 G0
ENDBRANCH   6   7
ENDBRANCH   5   6
ENDBRANCH   3   5
ENDBRANCH   1   3
BRANCH   1  11
ATOM     11  C   UNL     1       7.726 -31.709  17.143  1.00  0.00     0.087 C 
BRANCH  11  12
ATOM     12  C   UNL     1       6.969 -32.239  15.898  1.00  0.00     0.066 C 
BRANCH  12  13
ATOM     13  C   UNL     1       7.928 -32.528  14.753  1.00  0.00     0.140 C 
ATOM     14  O   UNL     1       8.559 -33.577  14.737  1.00  0.00    -0.299 OA
BRANCH  13  15
ATOM     15  C   UNL     1       8.053 -31.578  13.589  1.00  0.00     0.106 CG0
ATOM     16  G   UNL     1       9.459 -31.020  13.442  1.00  0.00     0.000 G0
ENDBRANCH  13  15
ENDBRANCH  12  13
BRANCH  12  17
ATOM     17  C   UNL     1       6.077 -33.486  16.200  1.00  0.00    -0.006 C 
ATOM     18  C   UNL     1       6.609 -34.285  17.402  1.00  0.00     0.008 C 
ATOM     19  C   UNL     1       5.882 -34.427  14.996  1.00  0.00     0.008 C 
ENDBRANCH  12  17
ENDBRANCH  11  12
ENDBRANCH   1  11
TORSDOF 1
ENDMDL
MODEL 9
REMARK VINA RESULT:    -2.408      1.698      3.997
REMARK INTER + INTRA:          -3.533
REMARK INTER:                  -3.683
REMARK INTRA:                   0.150
REMARK UNBOUND:                 0.142
REMARK SMILES CC1=CCC[C@H](C)C(=O)C[C@H](C(C)C)C(=O)C1
REMARK SMILES IDX 8 1 9 2 6 3 7 4 5 5 4 6 3 7 2 8 1 9 10 11 11 12 15 13 16 14
REMARK SMILES IDX 17 15 12 17 13 18 14 19
REMARK H PARENT
REMARK Flexibility Score: 70.00
ROOT
ATOM      1  C   UNL     1       8.048 -31.636  16.295  1.00  0.00     0.136 C 
ATOM      2  O   UNL     1       8.854 -31.896  17.177  1.00  0.00    -0.299 OA
ENDROOT
BRANCH   1   3
ATOM      3  C   UNL     1       7.910 -30.197  15.836  1.00  0.00     0.053 C 
ATOM      4  C   UNL     1       7.216 -29.343  16.903  1.00  0.00     0.016 C 
BRANCH   3   5
ATOM      5  C   UNL     1       9.273 -29.600  15.438  1.00  0.00     0.015 C 
BRANCH   5   6
ATOM      6  C   UNL     1       9.402 -29.449  13.912  1.00  0.00     0.028 C 
BRANCH   6   7
ATOM      7  C   UNL     1      10.553 -30.258  13.377  1.00  0.00    -0.028 C 
ATOM      8  C   UNL     1      10.429 -31.443  12.733  1.00  0.00    -0.070 CG0
ATOM      9  C   UNL     1      11.688 -32.141  12.286  1.00  0.00     0.039 C 
ATOM     10  G   UNL     1       9.085 -32.080  12.421  1.00  0.00     0.000 G0
ENDBRANCH   6   7
ENDBRANCH   5   6
ENDBRANCH   3   5
ENDBRANCH   1   3
BRANCH   1  11
ATOM     11  C   UNL     1       7.240 -32.765  15.694  1.00  0.00     0.087 C 
BRANCH  11  12
ATOM     12  C   UNL     1       7.197 -32.696  14.145  1.00  0.00     0.066 C 
BRANCH  12  13
ATOM     13  C   UNL     1       8.573 -32.944  13.545  1.00  0.00     0.140 C 
ATOM     14  O   UNL     1       9.246 -33.887  13.936  1.00  0.00    -0.299 OA
BRANCH  13  15
ATOM     15  C   UNL     1       9.087 -32.093  12.412  1.00  0.00     0.106 CG0
ATOM     16  G   UNL     1      10.424 -31.445  12.732  1.00  0.00     0.000 G0
ENDBRANCH  13  15
ENDBRANCH  12  13
BRANCH  12  17
ATOM     17  C   UNL     1       6.136 -33.654  13.511  1.00  0.00    -0.006 C 
ATOM     18  C   UNL     1       5.952 -34.929  14.352  1.00  0.00     0.008 C 
ATOM     19  C   UNL     1       6.428 -34.035  12.048  1.00  0.00     0.008 C 
ENDBRANCH  12  17
ENDBRANCH  11  12
ENDBRANCH   1  11
TORSDOF 1
ENDMDL
