MODEL 1
REMARK VINA RESULT:    -4.345      0.000      0.000
REMARK INTER + INTRA:          -4.741
REMARK INTER:                  -4.726
REMARK INTRA:                  -0.014
REMARK UNBOUND:                -0.014
REMARK SMILES OCc1ccco1
REMARK SMILES IDX 2 1 3 2 5 3 6 4 4 5 7 6 1 7
REMARK H PARENT 1 8
REMARK Flexibility Score: inf
ROOT
ATOM      1  C   UNL     1      -8.581   3.494   2.492  1.00  0.00     0.231 C 
ENDROOT
BRANCH   1   2
ATOM      2  C   UNL     1      -8.799   2.088   2.954  1.00  0.00     0.129 A 
ATOM      3  C   UNL     1      -9.724   0.250   3.718  1.00  0.00     0.042 A 
ATOM      4  C   UNL     1      -8.408   0.033   3.359  1.00  0.00     0.195 A 
ATOM      5  C   UNL     1      -9.980   1.577   3.454  1.00  0.00     0.048 A 
ATOM      6  O   UNL     1      -7.885   1.148   2.905  1.00  0.00    -0.467 OA
ENDBRANCH   1   2
BRANCH   1   7
ATOM      7  O   UNL     1      -8.875   3.604   1.128  1.00  0.00    -0.388 OA
ATOM      8  H   UNL     1      -9.247   2.728   0.846  1.00  0.00     0.211 HD
ENDBRANCH   1   7
TORSDOF 2
ENDMDL
MODEL 2
REMARK VINA RESULT:    -3.998     15.567     16.755
REMARK INTER + INTRA:          -4.362
REMARK INTER:                  -4.347
REMARK INTRA:                  -0.016
REMARK UNBOUND:                -0.014
REMARK SMILES OCc1ccco1
REMARK SMILES IDX 2 1 3 2 5 3 6 4 4 5 7 6 1 7
REMARK H PARENT 1 8
REMARK Flexibility Score: inf
ROOT
ATOM      1  C   UNL     1       5.769  -7.014  -1.025  1.00  0.00     0.231 C 
ENDROOT
BRANCH   1   2
ATOM      2  C   UNL     1       4.563  -7.167  -1.896  1.00  0.00     0.129 A 
ATOM      3  C   UNL     1       3.221  -7.704  -3.549  1.00  0.00     0.042 A 
ATOM      4  C   UNL     1       2.530  -7.080  -2.529  1.00  0.00     0.195 A 
ATOM      5  C   UNL     1       4.536  -7.764  -3.140  1.00  0.00     0.048 A 
ATOM      6  O   UNL     1       3.357  -6.775  -1.556  1.00  0.00    -0.467 OA
ENDBRANCH   1   2
BRANCH   1   7
ATOM      7  O   UNL     1       5.969  -5.664  -0.710  1.00  0.00    -0.388 OA
ATOM      8  H   UNL     1       6.949  -5.535  -0.624  1.00  0.00     0.211 HD
ENDBRANCH   1   7
TORSDOF 2
ENDMDL
MODEL 3
REMARK VINA RESULT:    -3.967     16.213     16.870
REMARK INTER + INTRA:          -4.329
REMARK INTER:                  -4.308
REMARK INTRA:                  -0.021
REMARK UNBOUND:                -0.014
REMARK SMILES OCc1ccco1
REMARK SMILES IDX 2 1 3 2 5 3 6 4 4 5 7 6 1 7
REMARK H PARENT 1 8
REMARK Flexibility Score: inf
ROOT
ATOM      1  C   UNL     1       6.959   5.479   2.634  1.00  0.00     0.231 C 
ENDROOT
BRANCH   1   2
ATOM      2  C   UNL     1       7.444   4.690   1.460  1.00  0.00     0.129 A 
ATOM      3  C   UNL     1       8.401   4.110  -0.429  1.00  0.00     0.042 A 
ATOM      4  C   UNL     1       7.851   3.015   0.207  1.00  0.00     0.195 A 
ATOM      5  C   UNL     1       8.142   5.194   0.381  1.00  0.00     0.048 A 
ATOM      6  O   UNL     1       7.290   3.392   1.332  1.00  0.00    -0.467 OA
ENDBRANCH   1   2
BRANCH   1   7
ATOM      7  O   UNL     1       6.426   4.622   3.605  1.00  0.00    -0.388 OA
ATOM      8  H   UNL     1       6.934   4.788   4.441  1.00  0.00     0.211 HD
ENDBRANCH   1   7
TORSDOF 2
ENDMDL
MODEL 4
REMARK VINA RESULT:    -3.944      1.325      3.074
REMARK INTER + INTRA:          -4.304
REMARK INTER:                  -4.287
REMARK INTRA:                  -0.017
REMARK UNBOUND:                -0.014
REMARK SMILES OCc1ccco1
REMARK SMILES IDX 2 1 3 2 5 3 6 4 4 5 7 6 1 7
REMARK H PARENT 1 8
REMARK Flexibility Score: inf
ROOT
ATOM      1  C   UNL     1      -8.519  -0.921   3.720  1.00  0.00     0.231 C 
ENDROOT
BRANCH   1   2
ATOM      2  C   UNL     1      -8.755   0.508   3.345  1.00  0.00     0.129 A 
ATOM      3  C   UNL     1      -9.674   2.484   3.079  1.00  0.00     0.042 A 
ATOM      4  C   UNL     1      -8.370   2.476   2.625  1.00  0.00     0.195 A 
ATOM      5  C   UNL     1      -9.923   1.213   3.549  1.00  0.00     0.048 A 
ATOM      6  O   UNL     1      -7.847   1.284   2.800  1.00  0.00    -0.467 OA
ENDBRANCH   1   2
BRANCH   1   7
ATOM      7  O   UNL     1      -7.899  -1.600   2.664  1.00  0.00    -0.388 OA
ATOM      8  H   UNL     1      -8.626  -1.958   2.091  1.00  0.00     0.211 HD
ENDBRANCH   1   7
TORSDOF 2
ENDMDL
MODEL 5
REMARK VINA RESULT:    -3.833      1.650      3.729
REMARK INTER + INTRA:          -4.184
REMARK INTER:                  -4.168
REMARK INTRA:                  -0.016
REMARK UNBOUND:                -0.014
REMARK SMILES OCc1ccco1
REMARK SMILES IDX 2 1 3 2 5 3 6 4 4 5 7 6 1 7
REMARK H PARENT 1 8
REMARK Flexibility Score: inf
ROOT
ATOM      1  C   UNL     1      -8.541   2.320   2.996  1.00  0.00     0.231 C 
ENDROOT
BRANCH   1   2
ATOM      2  C   UNL     1      -8.878   3.675   2.460  1.00  0.00     0.129 A 
ATOM      3  C   UNL     1      -9.968   5.405   1.661  1.00  0.00     0.042 A 
ATOM      4  C   UNL     1      -8.640   5.712   1.881  1.00  0.00     0.195 A 
ATOM      5  C   UNL     1     -10.125   4.089   2.039  1.00  0.00     0.048 A 
ATOM      6  O   UNL     1      -8.017   4.661   2.360  1.00  0.00    -0.467 OA
ENDBRANCH   1   2
BRANCH   1   7
ATOM      7  O   UNL     1      -7.501   1.752   2.249  1.00  0.00    -0.388 OA
ATOM      8  H   UNL     1      -7.093   1.049   2.820  1.00  0.00     0.211 HD
ENDBRANCH   1   7
TORSDOF 2
ENDMDL
MODEL 6
REMARK VINA RESULT:    -3.709     16.032     17.183
REMARK INTER + INTRA:          -4.048
REMARK INTER:                  -4.028
REMARK INTRA:                  -0.020
REMARK UNBOUND:                -0.014
REMARK SMILES OCc1ccco1
REMARK SMILES IDX 2 1 3 2 5 3 6 4 4 5 7 6 1 7
REMARK H PARENT 1 8
REMARK Flexibility Score: inf
ROOT
ATOM      1  C   UNL     1       3.307  -6.918  -2.906  1.00  0.00     0.231 C 
ENDROOT
BRANCH   1   2
ATOM      2  C   UNL     1       4.620  -7.161  -2.231  1.00  0.00     0.129 A 
ATOM      3  C   UNL     1       6.611  -7.939  -1.733  1.00  0.00     0.042 A 
ATOM      4  C   UNL     1       6.241  -6.928  -0.868  1.00  0.00     0.195 A 
ATOM      5  C   UNL     1       5.566  -8.089  -2.617  1.00  0.00     0.048 A 
ATOM      6  O   UNL     1       5.050  -6.483  -1.193  1.00  0.00    -0.467 OA
ENDBRANCH   1   2
BRANCH   1   7
ATOM      7  O   UNL     1       2.383  -6.400  -1.990  1.00  0.00    -0.388 OA
ATOM      8  H   UNL     1       1.923  -7.179  -1.581  1.00  0.00     0.211 HD
ENDBRANCH   1   7
TORSDOF 2
ENDMDL
MODEL 7
REMARK VINA RESULT:    -3.708     13.874     15.079
REMARK INTER + INTRA:          -4.047
REMARK INTER:                  -4.028
REMARK INTRA:                  -0.019
REMARK UNBOUND:                -0.014
REMARK SMILES OCc1ccco1
REMARK SMILES IDX 2 1 3 2 5 3 6 4 4 5 7 6 1 7
REMARK H PARENT 1 8
REMARK Flexibility Score: inf
ROOT
ATOM      1  C   UNL     1      -0.226  -7.634  -2.949  1.00  0.00     0.231 C 
ENDROOT
BRANCH   1   2
ATOM      2  C   UNL     1       1.225  -7.674  -2.589  1.00  0.00     0.129 A 
ATOM      3  C   UNL     1       3.230  -8.372  -2.028  1.00  0.00     0.042 A 
ATOM      4  C   UNL     1       3.222  -7.010  -2.254  1.00  0.00     0.195 A 
ATOM      5  C   UNL     1       1.940  -8.804  -2.248  1.00  0.00     0.048 A 
ATOM      6  O   UNL     1       2.013  -6.624  -2.589  1.00  0.00    -0.467 OA
ENDBRANCH   1   2
BRANCH   1   7
ATOM      7  O   UNL     1      -0.776  -6.396  -2.594  1.00  0.00    -0.388 OA
ATOM      8  H   UNL     1      -1.055  -5.956  -3.439  1.00  0.00     0.211 HD
ENDBRANCH   1   7
TORSDOF 2
ENDMDL
MODEL 8
REMARK VINA RESULT:    -3.686     17.296     17.922
REMARK INTER + INTRA:          -4.023
REMARK INTER:                  -4.008
REMARK INTRA:                  -0.015
REMARK UNBOUND:                -0.014
REMARK SMILES OCc1ccco1
REMARK SMILES IDX 2 1 3 2 5 3 6 4 4 5 7 6 1 7
REMARK H PARENT 1 8
REMARK Flexibility Score: inf
ROOT
ATOM      1  C   UNL     1       8.347   2.874   0.104  1.00  0.00     0.231 C 
ENDROOT
BRANCH   1   2
ATOM      2  C   UNL     1       8.418   2.400  -1.312  1.00  0.00     0.129 A 
ATOM      3  C   UNL     1       8.964   2.180  -3.428  1.00  0.00     0.042 A 
ATOM      4  C   UNL     1       8.069   1.203  -3.040  1.00  0.00     0.195 A 
ATOM      5  C   UNL     1       9.194   2.953  -2.311  1.00  0.00     0.048 A 
ATOM      6  O   UNL     1       7.764   1.359  -1.773  1.00  0.00    -0.467 OA
ENDBRANCH   1   2
BRANCH   1   7
ATOM      7  O   UNL     1       7.035   3.243   0.424  1.00  0.00    -0.388 OA
ATOM      8  H   UNL     1       6.607   2.445   0.832  1.00  0.00     0.211 HD
ENDBRANCH   1   7
TORSDOF 2
ENDMDL
MODEL 9
REMARK VINA RESULT:    -3.639     11.747     12.589
REMARK INTER + INTRA:          -3.972
REMARK INTER:                  -3.951
REMARK INTRA:                  -0.021
REMARK UNBOUND:                -0.014
REMARK SMILES OCc1ccco1
REMARK SMILES IDX 2 1 3 2 5 3 6 4 4 5 7 6 1 7
REMARK H PARENT 1 8
REMARK Flexibility Score: inf
ROOT
ATOM      1  C   UNL     1      -1.541  -7.610  -3.008  1.00  0.00     0.231 C 
ENDROOT
BRANCH   1   2
ATOM      2  C   UNL     1      -2.795  -7.110  -3.653  1.00  0.00     0.129 A 
ATOM      3  C   UNL     1      -4.829  -6.983  -4.470  1.00  0.00     0.042 A 
ATOM      4  C   UNL     1      -4.189  -5.761  -4.536  1.00  0.00     0.195 A 
ATOM      5  C   UNL     1      -3.931  -7.855  -3.895  1.00  0.00     0.048 A 
ATOM      6  O   UNL     1      -2.978  -5.868  -4.039  1.00  0.00    -0.467 OA
ENDBRANCH   1   2
BRANCH   1   7
ATOM      7  O   UNL     1      -0.709  -6.534  -2.675  1.00  0.00    -0.388 OA
ATOM      8  H   UNL     1      -0.110  -6.387  -3.453  1.00  0.00     0.211 HD
ENDBRANCH   1   7
TORSDOF 2
ENDMDL
