MODEL 1
REMARK VINA RESULT:    -4.016      0.000      0.000
REMARK INTER + INTRA:          -6.269
REMARK INTER:                  -5.894
REMARK INTRA:                  -0.375
REMARK UNBOUND:                -0.375
REMARK SMILES O=C([O-])CCCCCCCC(=O)[O-]
REMARK SMILES IDX 7 1 6 2 5 3 4 4 2 5 1 6 3 7 8 8 9 9 10 10 11 11 12 12 13 13
REMARK H PARENT
REMARK Flexibility Score: inf
ROOT
ATOM      1  C   UNL     1       4.521  10.313   8.817  1.00  0.00     0.000 C 
ENDROOT
BRANCH   1   2
ATOM      2  C   UNL     1       5.287  10.014   7.516  1.00  0.00     0.000 C 
BRANCH   2   3
ATOM      3  C   UNL     1       4.932  10.993   6.385  1.00  0.00     0.006 C 
BRANCH   3   4
ATOM      4  C   UNL     1       3.960  12.091   6.835  1.00  0.00     0.053 C 
BRANCH   4   5
ATOM      5  C   UNL     1       4.665  13.407   6.922  1.00  0.00     0.041 C 
ATOM      6  O   UNL     1       4.733  14.158   5.914  1.00  0.00    -0.550 OA
ATOM      7  O   UNL     1       5.204  13.829   8.131  1.00  0.00    -0.550 OA
ENDBRANCH   4   5
ENDBRANCH   3   4
ENDBRANCH   2   3
ENDBRANCH   1   2
BRANCH   1   8
ATOM      8  C   UNL     1       3.841   9.066   9.412  1.00  0.00     0.000 C 
BRANCH   8   9
ATOM      9  C   UNL     1       4.144   7.741   8.683  1.00  0.00     0.006 C 
BRANCH   9  10
ATOM     10  C   UNL     1       3.841   6.477   9.502  1.00  0.00     0.053 C 
BRANCH  10  11
ATOM     11  C   UNL     1       3.271   5.383   8.654  1.00  0.00     0.041 C 
ATOM     12  O   UNL     1       3.774   5.123   7.530  1.00  0.00    -0.550 OA
ATOM     13  O   UNL     1       2.204   4.624   9.122  1.00  0.00    -0.550 OA
ENDBRANCH  10  11
ENDBRANCH   9  10
ENDBRANCH   8   9
ENDBRANCH   1   8
TORSDOF 8
ENDMDL
MODEL 2
REMARK VINA RESULT:    -3.990      1.492      6.978
REMARK INTER + INTRA:          -6.232
REMARK INTER:                  -6.005
REMARK INTRA:                  -0.227
REMARK UNBOUND:                -0.375
REMARK SMILES O=C([O-])CCCCCCCC(=O)[O-]
REMARK SMILES IDX 7 1 6 2 5 3 4 4 2 5 1 6 3 7 8 8 9 9 10 10 11 11 12 12 13 13
REMARK H PARENT
REMARK Flexibility Score: inf
ROOT
ATOM      1  C   UNL     1       4.118   7.985   8.802  1.00  0.00     0.000 C 
ENDROOT
BRANCH   1   2
ATOM      2  C   UNL     1       4.012   6.986   9.968  1.00  0.00     0.000 C 
BRANCH   2   3
ATOM      3  C   UNL     1       3.445   5.626   9.530  1.00  0.00     0.006 C 
BRANCH   3   4
ATOM      4  C   UNL     1       3.966   5.182   8.158  1.00  0.00     0.053 C 
BRANCH   4   5
ATOM      5  C   UNL     1       3.027   4.194   7.539  1.00  0.00     0.041 C 
ATOM      6  O   UNL     1       2.760   4.258   6.310  1.00  0.00    -0.550 OA
ATOM      7  O   UNL     1       2.486   3.173   8.309  1.00  0.00    -0.550 OA
ENDBRANCH   4   5
ENDBRANCH   3   4
ENDBRANCH   2   3
ENDBRANCH   1   2
BRANCH   1   8
ATOM      8  C   UNL     1       3.884   9.443   9.239  1.00  0.00     0.000 C 
BRANCH   8   9
ATOM      9  C   UNL     1       4.771  10.489   8.534  1.00  0.00     0.006 C 
BRANCH   9  10
ATOM     10  C   UNL     1       4.070  11.267   7.409  1.00  0.00     0.053 C 
BRANCH  10  11
ATOM     11  C   UNL     1       5.015  11.635   6.308  1.00  0.00     0.041 C 
ATOM     12  O   UNL     1       4.594  12.237   5.286  1.00  0.00    -0.550 OA
ATOM     13  O   UNL     1       6.370  11.346   6.426  1.00  0.00    -0.550 OA
ENDBRANCH  10  11
ENDBRANCH   9  10
ENDBRANCH   8   9
ENDBRANCH   1   8
TORSDOF 8
ENDMDL
MODEL 3
REMARK VINA RESULT:    -3.885      1.535      2.280
REMARK INTER + INTRA:          -6.077
REMARK INTER:                  -5.861
REMARK INTRA:                  -0.217
REMARK UNBOUND:                -0.375
REMARK SMILES O=C([O-])CCCCCCCC(=O)[O-]
REMARK SMILES IDX 7 1 6 2 5 3 4 4 2 5 1 6 3 7 8 8 9 9 10 10 11 11 12 12 13 13
REMARK H PARENT
REMARK Flexibility Score: inf
ROOT
ATOM      1  C   UNL     1       4.051   8.067   8.900  1.00  0.00     0.000 C 
ENDROOT
BRANCH   1   2
ATOM      2  C   UNL     1       4.098   9.486   9.493  1.00  0.00     0.000 C 
BRANCH   2   3
ATOM      3  C   UNL     1       4.932  10.454   8.639  1.00  0.00     0.006 C 
BRANCH   3   4
ATOM      4  C   UNL     1       4.137  11.048   7.470  1.00  0.00     0.053 C 
BRANCH   4   5
ATOM      5  C   UNL     1       5.066  11.563   6.416  1.00  0.00     0.041 C 
ATOM      6  O   UNL     1       6.300  11.322   6.486  1.00  0.00    -0.550 OA
ATOM      7  O   UNL     1       4.563  12.265   5.329  1.00  0.00    -0.550 OA
ENDBRANCH   4   5
ENDBRANCH   3   4
ENDBRANCH   2   3
ENDBRANCH   1   2
BRANCH   1   8
ATOM      8  C   UNL     1       3.934   6.971   9.975  1.00  0.00     0.000 C 
BRANCH   8   9
ATOM      9  C   UNL     1       3.337   5.634   9.488  1.00  0.00     0.006 C 
BRANCH   9  10
ATOM     10  C   UNL     1       3.965   5.087   8.197  1.00  0.00     0.053 C 
BRANCH  10  11
ATOM     11  C   UNL     1       3.077   4.090   7.520  1.00  0.00     0.041 C 
ATOM     12  O   UNL     1       2.678   4.292   6.344  1.00  0.00    -0.550 OA
ATOM     13  O   UNL     1       2.717   2.918   8.177  1.00  0.00    -0.550 OA
ENDBRANCH  10  11
ENDBRANCH   9  10
ENDBRANCH   8   9
ENDBRANCH   1   8
TORSDOF 8
ENDMDL
MODEL 4
REMARK VINA RESULT:    -3.650     15.858     17.879
REMARK INTER + INTRA:          -5.731
REMARK INTER:                  -5.302
REMARK INTRA:                  -0.429
REMARK UNBOUND:                -0.375
REMARK SMILES O=C([O-])CCCCCCCC(=O)[O-]
REMARK SMILES IDX 7 1 6 2 5 3 4 4 2 5 1 6 3 7 8 8 9 9 10 10 11 11 12 12 13 13
REMARK H PARENT
REMARK Flexibility Score: inf
ROOT
ATOM      1  C   UNL     1       3.366   3.888  -9.037  1.00  0.00     0.000 C 
ENDROOT
BRANCH   1   2
ATOM      2  C   UNL     1       4.537   2.919  -9.272  1.00  0.00     0.000 C 
BRANCH   2   3
ATOM      3  C   UNL     1       5.218   2.488  -7.963  1.00  0.00     0.006 C 
BRANCH   3   4
ATOM      4  C   UNL     1       5.049   0.992  -7.672  1.00  0.00     0.053 C 
BRANCH   4   5
ATOM      5  C   UNL     1       4.659   0.780  -6.243  1.00  0.00     0.041 C 
ATOM      6  O   UNL     1       5.376   1.240  -5.316  1.00  0.00    -0.550 OA
ATOM      7  O   UNL     1       3.477   0.118  -5.935  1.00  0.00    -0.550 OA
ENDBRANCH   4   5
ENDBRANCH   3   4
ENDBRANCH   2   3
ENDBRANCH   1   2
BRANCH   1   8
ATOM      8  C   UNL     1       3.467   5.168  -9.886  1.00  0.00     0.000 C 
BRANCH   8   9
ATOM      9  C   UNL     1       3.470   6.488  -9.088  1.00  0.00     0.006 C 
BRANCH   9  10
ATOM     10  C   UNL     1       4.840   7.180  -9.005  1.00  0.00     0.053 C 
BRANCH  10  11
ATOM     11  C   UNL     1       5.530   6.904  -7.705  1.00  0.00     0.041 C 
ATOM     12  O   UNL     1       5.373   7.679  -6.726  1.00  0.00    -0.550 OA
ATOM     13  O   UNL     1       6.321   5.769  -7.564  1.00  0.00    -0.550 OA
ENDBRANCH  10  11
ENDBRANCH   9  10
ENDBRANCH   8   9
ENDBRANCH   1   8
TORSDOF 8
ENDMDL
MODEL 5
REMARK VINA RESULT:    -3.579     15.932     17.013
REMARK INTER + INTRA:          -5.627
REMARK INTER:                  -5.088
REMARK INTRA:                  -0.540
REMARK UNBOUND:                -0.375
REMARK SMILES O=C([O-])CCCCCCCC(=O)[O-]
REMARK SMILES IDX 7 1 6 2 5 3 4 4 2 5 1 6 3 7 8 8 9 9 10 10 11 11 12 12 13 13
REMARK H PARENT
REMARK Flexibility Score: inf
ROOT
ATOM      1  C   UNL     1       2.224   4.540  -9.501  1.00  0.00     0.000 C 
ENDROOT
BRANCH   1   2
ATOM      2  C   UNL     1       2.075   6.067  -9.387  1.00  0.00     0.000 C 
BRANCH   2   3
ATOM      3  C   UNL     1       3.416   6.803  -9.542  1.00  0.00     0.006 C 
BRANCH   3   4
ATOM      4  C   UNL     1       3.740   7.702  -8.342  1.00  0.00     0.053 C 
BRANCH   4   5
ATOM      5  C   UNL     1       5.129   7.438  -7.853  1.00  0.00     0.041 C 
ATOM      6  O   UNL     1       5.420   7.620  -6.642  1.00  0.00    -0.550 OA
ATOM      7  O   UNL     1       6.091   6.944  -8.725  1.00  0.00    -0.550 OA
ENDBRANCH   4   5
ENDBRANCH   3   4
ENDBRANCH   2   3
ENDBRANCH   1   2
BRANCH   1   8
ATOM      8  C   UNL     1       3.681   4.094  -9.723  1.00  0.00     0.000 C 
BRANCH   8   9
ATOM      9  C   UNL     1       4.252   3.154  -8.641  1.00  0.00     0.006 C 
BRANCH   9  10
ATOM     10  C   UNL     1       5.651   3.538  -8.135  1.00  0.00     0.053 C 
BRANCH  10  11
ATOM     11  C   UNL     1       6.057   2.729  -6.942  1.00  0.00     0.041 C 
ATOM     12  O   UNL     1       6.663   3.274  -5.983  1.00  0.00    -0.550 OA
ATOM     13  O   UNL     1       5.736   1.378  -6.874  1.00  0.00    -0.550 OA
ENDBRANCH  10  11
ENDBRANCH   9  10
ENDBRANCH   8   9
ENDBRANCH   1   8
TORSDOF 8
ENDMDL
MODEL 6
REMARK VINA RESULT:    -3.565     16.596     17.361
REMARK INTER + INTRA:          -5.607
REMARK INTER:                  -5.300
REMARK INTRA:                  -0.307
REMARK UNBOUND:                -0.375
REMARK SMILES O=C([O-])CCCCCCCC(=O)[O-]
REMARK SMILES IDX 7 1 6 2 5 3 4 4 2 5 1 6 3 7 8 8 9 9 10 10 11 11 12 12 13 13
REMARK H PARENT
REMARK Flexibility Score: inf
ROOT
ATOM      1  C   UNL     1       4.526   3.872  -9.347  1.00  0.00     0.000 C 
ENDROOT
BRANCH   1   2
ATOM      2  C   UNL     1       3.029   3.818  -8.994  1.00  0.00     0.000 C 
BRANCH   2   3
ATOM      3  C   UNL     1       2.254   5.035  -9.526  1.00  0.00     0.006 C 
BRANCH   3   4
ATOM      4  C   UNL     1       3.014   6.352  -9.332  1.00  0.00     0.053 C 
BRANCH   4   5
ATOM      5  C   UNL     1       2.055   7.492  -9.192  1.00  0.00     0.041 C 
ATOM      6  O   UNL     1       0.992   7.348  -8.533  1.00  0.00    -0.550 OA
ATOM      7  O   UNL     1       2.359   8.728  -9.748  1.00  0.00    -0.550 OA
ENDBRANCH   4   5
ENDBRANCH   3   4
ENDBRANCH   2   3
ENDBRANCH   1   2
BRANCH   1   8
ATOM      8  C   UNL     1       5.372   2.889  -8.519  1.00  0.00     0.000 C 
BRANCH   8   9
ATOM      9  C   UNL     1       4.983   1.403  -8.663  1.00  0.00     0.006 C 
BRANCH   9  10
ATOM     10  C   UNL     1       5.523   0.490  -7.552  1.00  0.00     0.053 C 
BRANCH  10  11
ATOM     11  C   UNL     1       4.793   0.686  -6.260  1.00  0.00     0.041 C 
ATOM     12  O   UNL     1       5.319   1.350  -5.329  1.00  0.00    -0.550 OA
ATOM     13  O   UNL     1       3.515   0.164  -6.096  1.00  0.00    -0.550 OA
ENDBRANCH  10  11
ENDBRANCH   9  10
ENDBRANCH   8   9
ENDBRANCH   1   8
TORSDOF 8
ENDMDL
MODEL 7
REMARK VINA RESULT:    -3.535     15.912     17.730
REMARK INTER + INTRA:          -5.562
REMARK INTER:                  -5.012
REMARK INTRA:                  -0.550
REMARK UNBOUND:                -0.375
REMARK SMILES O=C([O-])CCCCCCCC(=O)[O-]
REMARK SMILES IDX 7 1 6 2 5 3 4 4 2 5 1 6 3 7 8 8 9 9 10 10 11 11 12 12 13 13
REMARK H PARENT
REMARK Flexibility Score: inf
ROOT
ATOM      1  C   UNL     1       2.437   4.486  -9.353  1.00  0.00     0.000 C 
ENDROOT
BRANCH   1   2
ATOM      2  C   UNL     1       3.907   4.194  -9.700  1.00  0.00     0.000 C 
BRANCH   2   3
ATOM      3  C   UNL     1       4.513   3.088  -8.821  1.00  0.00     0.006 C 
BRANCH   3   4
ATOM      4  C   UNL     1       5.734   3.566  -8.026  1.00  0.00     0.053 C 
BRANCH   4   5
ATOM      5  C   UNL     1       5.998   2.647  -6.874  1.00  0.00     0.041 C 
ATOM      6  O   UNL     1       6.462   3.101  -5.795  1.00  0.00    -0.550 OA
ATOM      7  O   UNL     1       5.686   1.298  -6.976  1.00  0.00    -0.550 OA
ENDBRANCH   4   5
ENDBRANCH   3   4
ENDBRANCH   2   3
ENDBRANCH   1   2
BRANCH   1   8
ATOM      8  C   UNL     1       2.102   5.989  -9.377  1.00  0.00     0.000 C 
BRANCH   8   9
ATOM      9  C   UNL     1       3.311   6.929  -9.560  1.00  0.00     0.006 C 
BRANCH   9  10
ATOM     10  C   UNL     1       3.727   7.691  -8.292  1.00  0.00     0.053 C 
BRANCH  10  11
ATOM     11  C   UNL     1       5.139   7.392  -7.895  1.00  0.00     0.041 C 
ATOM     12  O   UNL     1       5.957   6.954  -8.745  1.00  0.00    -0.550 OA
ATOM     13  O   UNL     1       5.562   7.632  -6.593  1.00  0.00    -0.550 OA
ENDBRANCH  10  11
ENDBRANCH   9  10
ENDBRANCH   8   9
ENDBRANCH   1   8
TORSDOF 8
ENDMDL
MODEL 8
REMARK VINA RESULT:    -3.518      8.177     10.917
REMARK INTER + INTRA:          -5.538
REMARK INTER:                  -5.151
REMARK INTRA:                  -0.386
REMARK UNBOUND:                -0.375
REMARK SMILES O=C([O-])CCCCCCCC(=O)[O-]
REMARK SMILES IDX 7 1 6 2 5 3 4 4 2 5 1 6 3 7 8 8 9 9 10 10 11 11 12 12 13 13
REMARK H PARENT
REMARK Flexibility Score: inf
ROOT
ATOM      1  C   UNL     1       7.125   1.041   7.648  1.00  0.00     0.000 C 
ENDROOT
BRANCH   1   2
ATOM      2  C   UNL     1       5.993   0.066   8.013  1.00  0.00     0.000 C 
BRANCH   2   3
ATOM      3  C   UNL     1       6.031  -1.223   7.176  1.00  0.00     0.006 C 
BRANCH   3   4
ATOM      4  C   UNL     1       7.367  -1.416   6.449  1.00  0.00     0.053 C 
BRANCH   4   5
ATOM      5  C   UNL     1       7.186  -1.247   4.973  1.00  0.00     0.041 C 
ATOM      6  O   UNL     1       6.394  -1.995   4.342  1.00  0.00    -0.550 OA
ATOM      7  O   UNL     1       7.855  -0.231   4.303  1.00  0.00    -0.550 OA
ENDBRANCH   4   5
ENDBRANCH   3   4
ENDBRANCH   2   3
ENDBRANCH   1   2
BRANCH   1   8
ATOM      8  C   UNL     1       6.652   2.503   7.556  1.00  0.00     0.000 C 
BRANCH   8   9
ATOM      9  C   UNL     1       7.623   3.464   6.840  1.00  0.00     0.006 C 
BRANCH   9  10
ATOM     10  C   UNL     1       7.462   3.515   5.313  1.00  0.00     0.053 C 
BRANCH  10  11
ATOM     11  C   UNL     1       8.779   3.427   4.606  1.00  0.00     0.041 C 
ATOM     12  O   UNL     1       9.093   4.287   3.742  1.00  0.00    -0.550 OA
ATOM     13  O   UNL     1       9.676   2.415   4.927  1.00  0.00    -0.550 OA
ENDBRANCH  10  11
ENDBRANCH   9  10
ENDBRANCH   8   9
ENDBRANCH   1   8
TORSDOF 8
ENDMDL
MODEL 9
REMARK VINA RESULT:    -3.512      8.071      9.458
REMARK INTER + INTRA:          -5.530
REMARK INTER:                  -4.845
REMARK INTRA:                  -0.684
REMARK UNBOUND:                -0.375
REMARK SMILES O=C([O-])CCCCCCCC(=O)[O-]
REMARK SMILES IDX 7 1 6 2 5 3 4 4 2 5 1 6 3 7 8 8 9 9 10 10 11 11 12 12 13 13
REMARK H PARENT
REMARK Flexibility Score: inf
ROOT
ATOM      1  C   UNL     1       6.560   1.469   7.896  1.00  0.00     0.000 C 
ENDROOT
BRANCH   1   2
ATOM      2  C   UNL     1       6.491   2.980   7.614  1.00  0.00     0.000 C 
BRANCH   2   3
ATOM      3  C   UNL     1       7.697   3.485   6.805  1.00  0.00     0.006 C 
BRANCH   3   4
ATOM      4  C   UNL     1       7.422   3.529   5.297  1.00  0.00     0.053 C 
BRANCH   4   5
ATOM      5  C   UNL     1       8.702   3.419   4.531  1.00  0.00     0.041 C 
ATOM      6  O   UNL     1       9.026   4.313   3.705  1.00  0.00    -0.550 OA
ATOM      7  O   UNL     1       9.563   2.355   4.765  1.00  0.00    -0.550 OA
ENDBRANCH   4   5
ENDBRANCH   3   4
ENDBRANCH   2   3
ENDBRANCH   1   2
BRANCH   1   8
ATOM      8  C   UNL     1       8.003   0.936   7.956  1.00  0.00     0.000 C 
BRANCH   8   9
ATOM      9  C   UNL     1       8.290  -0.286   7.060  1.00  0.00     0.006 C 
BRANCH   9  10
ATOM     10  C   UNL     1       7.550  -0.278   5.714  1.00  0.00     0.053 C 
BRANCH  10  11
ATOM     11  C   UNL     1       7.032  -1.635   5.351  1.00  0.00     0.041 C 
ATOM     12  O   UNL     1       6.208  -1.768   4.409  1.00  0.00    -0.550 OA
ATOM     13  O   UNL     1       7.486  -2.760   6.031  1.00  0.00    -0.550 OA
ENDBRANCH  10  11
ENDBRANCH   9  10
ENDBRANCH   8   9
ENDBRANCH   1   8
TORSDOF 8
ENDMDL
