MODEL 1
REMARK VINA RESULT:    -5.070      0.000      0.000
REMARK INTER + INTRA:          -7.834
REMARK INTER:                  -7.440
REMARK INTRA:                  -0.394
REMARK UNBOUND:                -0.394
REMARK SMILES O=C([O-])CCCCCCCC(=O)[O-]
REMARK SMILES IDX 7 1 6 2 5 3 4 4 2 5 1 6 3 7 8 8 9 9 10 10 11 11 12 12 13 13
REMARK H PARENT
REMARK Flexibility Score: inf
ROOT
ATOM      1  C   UNL     1     102.064 305.865 193.419  1.00  0.00     0.000 C 
ENDROOT
BRANCH   1   2
ATOM      2  C   UNL     1     103.563 306.215 193.388  1.00  0.00     0.000 C 
BRANCH   2   3
ATOM      3  C   UNL     1     103.894 307.352 192.412  1.00  0.00     0.006 C 
BRANCH   3   4
ATOM      4  C   UNL     1     102.622 307.900 191.756  1.00  0.00     0.053 C 
BRANCH   4   5
ATOM      5  C   UNL     1     102.968 308.866 190.669  1.00  0.00     0.041 C 
ATOM      6  O   UNL     1     104.125 309.358 190.601  1.00  0.00    -0.550 OA
ATOM      7  O   UNL     1     101.998 309.262 189.757  1.00  0.00    -0.550 OA
ENDBRANCH   4   5
ENDBRANCH   3   4
ENDBRANCH   2   3
ENDBRANCH   1   2
BRANCH   1   8
ATOM      8  C   UNL     1     101.365 306.110 194.769  1.00  0.00     0.000 C 
BRANCH   8   9
ATOM      9  C   UNL     1     102.350 306.422 195.905  1.00  0.00     0.006 C 
BRANCH   9  10
ATOM     10  C   UNL     1     102.087 305.524 197.118  1.00  0.00     0.053 C 
BRANCH  10  11
ATOM     11  C   UNL     1     101.825 306.355 198.336  1.00  0.00     0.041 C 
ATOM     12  O   UNL     1     101.547 305.802 199.432  1.00  0.00    -0.550 OA
ATOM     13  O   UNL     1     101.937 307.738 198.271  1.00  0.00    -0.550 OA
ENDBRANCH  10  11
ENDBRANCH   9  10
ENDBRANCH   8   9
ENDBRANCH   1   8
TORSDOF 8
ENDMDL
MODEL 2
REMARK VINA RESULT:    -5.001     19.941     20.591
REMARK INTER + INTRA:          -7.734
REMARK INTER:                  -7.356
REMARK INTRA:                  -0.378
REMARK UNBOUND:                -0.394
REMARK SMILES O=C([O-])CCCCCCCC(=O)[O-]
REMARK SMILES IDX 7 1 6 2 5 3 4 4 2 5 1 6 3 7 8 8 9 9 10 10 11 11 12 12 13 13
REMARK H PARENT
REMARK Flexibility Score: inf
ROOT
ATOM      1  C   UNL     1      86.517 320.920 194.450  1.00  0.00     0.000 C 
ENDROOT
BRANCH   1   2
ATOM      2  C   UNL     1      85.063 320.415 194.520  1.00  0.00     0.000 C 
BRANCH   2   3
ATOM      3  C   UNL     1      84.753 319.336 193.473  1.00  0.00     0.006 C 
BRANCH   3   4
ATOM      4  C   UNL     1      86.010 318.963 192.681  1.00  0.00     0.053 C 
BRANCH   4   5
ATOM      5  C   UNL     1      85.662 318.058 191.543  1.00  0.00     0.041 C 
ATOM      6  O   UNL     1      86.520 317.787 190.662  1.00  0.00    -0.550 OA
ATOM      7  O   UNL     1      84.374 317.550 191.427  1.00  0.00    -0.550 OA
ENDBRANCH   4   5
ENDBRANCH   3   4
ENDBRANCH   2   3
ENDBRANCH   1   2
BRANCH   1   8
ATOM      8  C   UNL     1      87.391 320.556 195.664  1.00  0.00     0.000 C 
BRANCH   8   9
ATOM      9  C   UNL     1      86.569 320.116 196.885  1.00  0.00     0.006 C 
BRANCH   9  10
ATOM     10  C   UNL     1      86.950 320.932 198.124  1.00  0.00     0.053 C 
BRANCH  10  11
ATOM     11  C   UNL     1      87.458 320.032 199.207  1.00  0.00     0.041 C 
ATOM     12  O   UNL     1      88.003 320.518 200.232  1.00  0.00    -0.550 OA
ATOM     13  O   UNL     1      87.282 318.657 199.107  1.00  0.00    -0.550 OA
ENDBRANCH  10  11
ENDBRANCH   9  10
ENDBRANCH   8   9
ENDBRANCH   1   8
TORSDOF 8
ENDMDL
MODEL 3
REMARK VINA RESULT:    -4.956      1.045      7.140
REMARK INTER + INTRA:          -7.668
REMARK INTER:                  -7.399
REMARK INTRA:                  -0.269
REMARK UNBOUND:                -0.394
REMARK SMILES O=C([O-])CCCCCCCC(=O)[O-]
REMARK SMILES IDX 7 1 6 2 5 3 4 4 2 5 1 6 3 7 8 8 9 9 10 10 11 11 12 12 13 13
REMARK H PARENT
REMARK Flexibility Score: inf
ROOT
ATOM      1  C   UNL     1     101.455 306.016 194.845  1.00  0.00     0.000 C 
ENDROOT
BRANCH   1   2
ATOM      2  C   UNL     1     102.463 306.592 195.857  1.00  0.00     0.000 C 
BRANCH   2   3
ATOM      3  C   UNL     1     101.826 306.922 197.214  1.00  0.00     0.006 C 
BRANCH   3   4
ATOM      4  C   UNL     1     101.842 305.701 198.139  1.00  0.00     0.053 C 
BRANCH   4   5
ATOM      5  C   UNL     1     101.547 306.107 199.547  1.00  0.00     0.041 C 
ATOM      6  O   UNL     1     100.492 306.738 199.818  1.00  0.00    -0.550 OA
ATOM      7  O   UNL     1     102.461 305.830 200.556  1.00  0.00    -0.550 OA
ENDBRANCH   4   5
ENDBRANCH   3   4
ENDBRANCH   2   3
ENDBRANCH   1   2
BRANCH   1   8
ATOM      8  C   UNL     1     101.962 305.938 193.393  1.00  0.00     0.000 C 
BRANCH   8   9
ATOM      9  C   UNL     1     102.923 307.082 193.032  1.00  0.00     0.006 C 
BRANCH   9  10
ATOM     10  C   UNL     1     102.163 308.257 192.408  1.00  0.00     0.053 C 
BRANCH  10  11
ATOM     11  C   UNL     1     102.631 308.497 191.006  1.00  0.00     0.041 C 
ATOM     12  O   UNL     1     101.798 308.584 190.067  1.00  0.00    -0.550 OA
ATOM     13  O   UNL     1     103.984 308.675 190.747  1.00  0.00    -0.550 OA
ENDBRANCH  10  11
ENDBRANCH   9  10
ENDBRANCH   8   9
ENDBRANCH   1   8
TORSDOF 8
ENDMDL
MODEL 4
REMARK VINA RESULT:    -4.945      0.734      6.723
REMARK INTER + INTRA:          -7.652
REMARK INTER:                  -7.270
REMARK INTRA:                  -0.382
REMARK UNBOUND:                -0.394
REMARK SMILES O=C([O-])CCCCCCCC(=O)[O-]
REMARK SMILES IDX 7 1 6 2 5 3 4 4 2 5 1 6 3 7 8 8 9 9 10 10 11 11 12 12 13 13
REMARK H PARENT
REMARK Flexibility Score: inf
ROOT
ATOM      1  C   UNL     1     102.180 305.877 193.383  1.00  0.00     0.000 C 
ENDROOT
BRANCH   1   2
ATOM      2  C   UNL     1     101.537 306.172 194.751  1.00  0.00     0.000 C 
BRANCH   2   3
ATOM      3  C   UNL     1     102.559 306.604 195.812  1.00  0.00     0.006 C 
BRANCH   3   4
ATOM      4  C   UNL     1     101.863 307.255 197.011  1.00  0.00     0.053 C 
BRANCH   4   5
ATOM      5  C   UNL     1     101.846 306.320 198.178  1.00  0.00     0.041 C 
ATOM      6  O   UNL     1     101.489 305.122 198.026  1.00  0.00    -0.550 OA
ATOM      7  O   UNL     1     102.179 306.783 199.445  1.00  0.00    -0.550 OA
ENDBRANCH   4   5
ENDBRANCH   3   4
ENDBRANCH   2   3
ENDBRANCH   1   2
BRANCH   1   8
ATOM      8  C   UNL     1     103.676 306.226 193.277  1.00  0.00     0.000 C 
BRANCH   8   9
ATOM      9  C   UNL     1     103.954 307.377 192.298  1.00  0.00     0.006 C 
BRANCH   9  10
ATOM     10  C   UNL     1     102.655 307.883 191.665  1.00  0.00     0.053 C 
BRANCH  10  11
ATOM     11  C   UNL     1     102.934 309.028 190.741  1.00  0.00     0.041 C 
ATOM     12  O   UNL     1     104.098 309.220 190.304  1.00  0.00    -0.550 OA
ATOM     13  O   UNL     1     101.896 309.853 190.325  1.00  0.00    -0.550 OA
ENDBRANCH  10  11
ENDBRANCH   9  10
ENDBRANCH   8   9
ENDBRANCH   1   8
TORSDOF 8
ENDMDL
MODEL 5
REMARK VINA RESULT:    -4.897      1.194      6.149
REMARK INTER + INTRA:          -7.582
REMARK INTER:                  -7.068
REMARK INTRA:                  -0.513
REMARK UNBOUND:                -0.394
REMARK SMILES O=C([O-])CCCCCCCC(=O)[O-]
REMARK SMILES IDX 7 1 6 2 5 3 4 4 2 5 1 6 3 7 8 8 9 9 10 10 11 11 12 12 13 13
REMARK H PARENT
REMARK Flexibility Score: inf
ROOT
ATOM      1  C   UNL     1     101.910 305.859 193.452  1.00  0.00     0.000 C 
ENDROOT
BRANCH   1   2
ATOM      2  C   UNL     1     101.354 306.220 194.842  1.00  0.00     0.000 C 
BRANCH   2   3
ATOM      3  C   UNL     1     102.438 306.265 195.928  1.00  0.00     0.006 C 
BRANCH   3   4
ATOM      4  C   UNL     1     101.982 305.527 197.190  1.00  0.00     0.053 C 
BRANCH   4   5
ATOM      5  C   UNL     1     101.908 306.468 198.350  1.00  0.00     0.041 C 
ATOM      6  O   UNL     1     101.886 306.023 199.527  1.00  0.00    -0.550 OA
ATOM      7  O   UNL     1     101.815 307.836 198.129  1.00  0.00    -0.550 OA
ENDBRANCH   4   5
ENDBRANCH   3   4
ENDBRANCH   2   3
ENDBRANCH   1   2
BRANCH   1   8
ATOM      8  C   UNL     1     103.443 305.924 193.327  1.00  0.00     0.000 C 
BRANCH   8   9
ATOM      9  C   UNL     1     103.927 307.126 192.502  1.00  0.00     0.006 C 
BRANCH   9  10
ATOM     10  C   UNL     1     102.747 307.848 191.844  1.00  0.00     0.053 C 
BRANCH  10  11
ATOM     11  C   UNL     1     102.562 309.205 192.447  1.00  0.00     0.041 C 
ATOM     12  O   UNL     1     101.914 310.090 191.829  1.00  0.00    -0.550 OA
ATOM     13  O   UNL     1     103.064 309.477 193.714  1.00  0.00    -0.550 OA
ENDBRANCH  10  11
ENDBRANCH   9  10
ENDBRANCH   8   9
ENDBRANCH   1   8
TORSDOF 8
ENDMDL
MODEL 6
REMARK VINA RESULT:    -4.875      1.535      2.302
REMARK INTER + INTRA:          -7.549
REMARK INTER:                  -7.149
REMARK INTRA:                  -0.400
REMARK UNBOUND:                -0.394
REMARK SMILES O=C([O-])CCCCCCCC(=O)[O-]
REMARK SMILES IDX 7 1 6 2 5 3 4 4 2 5 1 6 3 7 8 8 9 9 10 10 11 11 12 12 13 13
REMARK H PARENT
REMARK Flexibility Score: inf
ROOT
ATOM      1  C   UNL     1     102.202 307.207 192.431  1.00  0.00     0.000 C 
ENDROOT
BRANCH   1   2
ATOM      2  C   UNL     1     103.592 307.742 192.042  1.00  0.00     0.000 C 
BRANCH   2   3
ATOM      3  C   UNL     1     103.544 308.747 190.883  1.00  0.00     0.006 C 
BRANCH   3   4
ATOM      4  C   UNL     1     102.129 308.855 190.307  1.00  0.00     0.053 C 
BRANCH   4   5
ATOM      5  C   UNL     1     102.137 309.647 189.039  1.00  0.00     0.041 C 
ATOM      6  O   UNL     1     101.197 309.527 188.210  1.00  0.00    -0.550 OA
ATOM      7  O   UNL     1     103.208 310.482 188.749  1.00  0.00    -0.550 OA
ENDBRANCH   4   5
ENDBRANCH   3   4
ENDBRANCH   2   3
ENDBRANCH   1   2
BRANCH   1   8
ATOM      8  C   UNL     1     102.211 305.900 193.245  1.00  0.00     0.000 C 
BRANCH   8   9
ATOM      9  C   UNL     1     101.554 306.048 194.625  1.00  0.00     0.006 C 
BRANCH   9  10
ATOM     10  C   UNL     1     102.595 306.404 195.691  1.00  0.00     0.053 C 
BRANCH  10  11
ATOM     11  C   UNL     1     102.291 307.741 196.293  1.00  0.00     0.041 C 
ATOM     12  O   UNL     1     102.023 307.838 197.519  1.00  0.00    -0.550 OA
ATOM     13  O   UNL     1     102.353 308.886 195.509  1.00  0.00    -0.550 OA
ENDBRANCH  10  11
ENDBRANCH   9  10
ENDBRANCH   8   9
ENDBRANCH   1   8
TORSDOF 8
ENDMDL
MODEL 7
REMARK VINA RESULT:    -4.874      1.411      1.742
REMARK INTER + INTRA:          -7.547
REMARK INTER:                  -7.194
REMARK INTRA:                  -0.353
REMARK UNBOUND:                -0.394
REMARK SMILES O=C([O-])CCCCCCCC(=O)[O-]
REMARK SMILES IDX 7 1 6 2 5 3 4 4 2 5 1 6 3 7 8 8 9 9 10 10 11 11 12 12 13 13
REMARK H PARENT
REMARK Flexibility Score: inf
ROOT
ATOM      1  C   UNL     1     101.528 306.193 194.580  1.00  0.00     0.000 C 
ENDROOT
BRANCH   1   2
ATOM      2  C   UNL     1     102.166 305.724 193.259  1.00  0.00     0.000 C 
BRANCH   2   3
ATOM      3  C   UNL     1     103.063 306.790 192.615  1.00  0.00     0.006 C 
BRANCH   3   4
ATOM      4  C   UNL     1     102.256 307.690 191.674  1.00  0.00     0.053 C 
BRANCH   4   5
ATOM      5  C   UNL     1     102.310 309.112 192.135  1.00  0.00     0.041 C 
ATOM      6  O   UNL     1     102.936 309.973 191.463  1.00  0.00    -0.550 OA
ATOM      7  O   UNL     1     101.710 309.478 193.333  1.00  0.00    -0.550 OA
ENDBRANCH   4   5
ENDBRANCH   3   4
ENDBRANCH   2   3
ENDBRANCH   1   2
BRANCH   1   8
ATOM      8  C   UNL     1     102.527 306.549 195.696  1.00  0.00     0.000 C 
BRANCH   8   9
ATOM      9  C   UNL     1     101.842 306.884 197.029  1.00  0.00     0.006 C 
BRANCH   9  10
ATOM     10  C   UNL     1     101.852 305.674 197.968  1.00  0.00     0.053 C 
BRANCH  10  11
ATOM     11  C   UNL     1     101.538 306.097 199.370  1.00  0.00     0.041 C 
ATOM     12  O   UNL     1     100.412 306.584 199.648  1.00  0.00    -0.550 OA
ATOM     13  O   UNL     1     102.475 305.907 200.378  1.00  0.00    -0.550 OA
ENDBRANCH  10  11
ENDBRANCH   9  10
ENDBRANCH   8   9
ENDBRANCH   1   8
TORSDOF 8
ENDMDL
MODEL 8
REMARK VINA RESULT:    -4.870      1.761      5.776
REMARK INTER + INTRA:          -7.541
REMARK INTER:                  -6.890
REMARK INTRA:                  -0.651
REMARK UNBOUND:                -0.394
REMARK SMILES O=C([O-])CCCCCCCC(=O)[O-]
REMARK SMILES IDX 7 1 6 2 5 3 4 4 2 5 1 6 3 7 8 8 9 9 10 10 11 11 12 12 13 13
REMARK H PARENT
REMARK Flexibility Score: inf
ROOT
ATOM      1  C   UNL     1     103.428 306.450 193.162  1.00  0.00     0.000 C 
ENDROOT
BRANCH   1   2
ATOM      2  C   UNL     1     102.000 305.878 193.235  1.00  0.00     0.000 C 
BRANCH   2   3
ATOM      3  C   UNL     1     101.381 305.988 194.635  1.00  0.00     0.006 C 
BRANCH   3   4
ATOM      4  C   UNL     1     102.339 306.686 195.606  1.00  0.00     0.053 C 
BRANCH   4   5
ATOM      5  C   UNL     1     101.984 306.356 197.020  1.00  0.00     0.041 C 
ATOM      6  O   UNL     1     101.713 305.170 197.346  1.00  0.00    -0.550 OA
ATOM      7  O   UNL     1     101.906 307.366 197.971  1.00  0.00    -0.550 OA
ENDBRANCH   4   5
ENDBRANCH   3   4
ENDBRANCH   2   3
ENDBRANCH   1   2
BRANCH   1   8
ATOM      8  C   UNL     1     103.645 307.522 192.078  1.00  0.00     0.000 C 
BRANCH   8   9
ATOM      9  C   UNL     1     102.331 308.032 191.468  1.00  0.00     0.006 C 
BRANCH   9  10
ATOM     10  C   UNL     1     102.261 309.561 191.520  1.00  0.00     0.053 C 
BRANCH  10  11
ATOM     11  C   UNL     1     102.452 310.046 192.923  1.00  0.00     0.041 C 
ATOM     12  O   UNL     1     101.636 309.717 193.823  1.00  0.00    -0.550 OA
ATOM     13  O   UNL     1     103.559 310.820 193.246  1.00  0.00    -0.550 OA
ENDBRANCH  10  11
ENDBRANCH   9  10
ENDBRANCH   8   9
ENDBRANCH   1   8
TORSDOF 8
ENDMDL
MODEL 9
REMARK VINA RESULT:    -4.866      1.454      6.983
REMARK INTER + INTRA:          -7.536
REMARK INTER:                  -7.201
REMARK INTRA:                  -0.335
REMARK UNBOUND:                -0.394
REMARK SMILES O=C([O-])CCCCCCCC(=O)[O-]
REMARK SMILES IDX 7 1 6 2 5 3 4 4 2 5 1 6 3 7 8 8 9 9 10 10 11 11 12 12 13 13
REMARK H PARENT
REMARK Flexibility Score: inf
ROOT
ATOM      1  C   UNL     1     102.215 307.304 192.507  1.00  0.00     0.000 C 
ENDROOT
BRANCH   1   2
ATOM      2  C   UNL     1     102.154 305.927 193.194  1.00  0.00     0.000 C 
BRANCH   2   3
ATOM      3  C   UNL     1     101.513 305.981 194.588  1.00  0.00     0.006 C 
BRANCH   3   4
ATOM      4  C   UNL     1     101.683 307.367 195.217  1.00  0.00     0.053 C 
BRANCH   4   5
ATOM      5  C   UNL     1     102.032 307.244 196.666  1.00  0.00     0.041 C 
ATOM      6  O   UNL     1     102.000 306.121 197.234  1.00  0.00    -0.550 OA
ATOM      7  O   UNL     1     102.347 308.379 197.404  1.00  0.00    -0.550 OA
ENDBRANCH   4   5
ENDBRANCH   3   4
ENDBRANCH   2   3
ENDBRANCH   1   2
BRANCH   1   8
ATOM      8  C   UNL     1     103.619 307.743 192.052  1.00  0.00     0.000 C 
BRANCH   8   9
ATOM      9  C   UNL     1     103.584 308.748 190.890  1.00  0.00     0.006 C 
BRANCH   9  10
ATOM     10  C   UNL     1     102.166 308.884 190.326  1.00  0.00     0.053 C 
BRANCH  10  11
ATOM     11  C   UNL     1     102.182 309.674 189.055  1.00  0.00     0.041 C 
ATOM     12  O   UNL     1     103.176 310.390 188.766  1.00  0.00    -0.550 OA
ATOM     13  O   UNL     1     101.119 309.579 188.165  1.00  0.00    -0.550 OA
ENDBRANCH  10  11
ENDBRANCH   9  10
ENDBRANCH   8   9
ENDBRANCH   1   8
TORSDOF 8
ENDMDL
