MODEL 1
REMARK VINA RESULT:    -3.569      0.000      0.000
REMARK INTER + INTRA:          -3.569
REMARK INTER:                  -3.569
REMARK INTRA:                   0.000
REMARK UNBOUND:                 0.000
REMARK SMILES O=C1CCCCC1
REMARK SMILES IDX 5 1 4 2 3 3 2 4 1 5 7 6 6 7
REMARK H PARENT
REMARK Flexibility Score: inf
ROOT
ATOM      1  C   UNL     1      17.861  45.573  -0.474  1.00  0.00     0.001 C 
ATOM      2  C   UNL     1      19.313  45.092  -0.331  1.00  0.00     0.008 C 
ATOM      3  C   UNL     1      19.590  44.556   1.079  1.00  0.00     0.075 C 
ATOM      4  C   UNL     1      18.539  43.555   1.474  1.00  0.00     0.132 C 
ATOM      5  O   UNL     1      18.857  42.517   2.034  1.00  0.00    -0.300 OA
ATOM      6  C   UNL     1      17.089  43.886   1.256  1.00  0.00     0.075 C 
ATOM      7  C   UNL     1      16.874  44.439  -0.159  1.00  0.00     0.008 C 
ENDROOT
TORSDOF 0
ENDMDL
MODEL 2
REMARK VINA RESULT:    -3.510      1.313      1.887
REMARK INTER + INTRA:          -3.510
REMARK INTER:                  -3.510
REMARK INTRA:                   0.000
REMARK UNBOUND:                 0.000
REMARK SMILES O=C1CCCCC1
REMARK SMILES IDX 5 1 4 2 3 3 2 4 1 5 7 6 6 7
REMARK H PARENT
REMARK Flexibility Score: inf
ROOT
ATOM      1  C   UNL     1      16.988  44.167   0.849  1.00  0.00     0.001 C 
ATOM      2  C   UNL     1      17.967  44.715  -0.200  1.00  0.00     0.008 C 
ATOM      3  C   UNL     1      19.418  44.635   0.291  1.00  0.00     0.075 C 
ATOM      4  C   UNL     1      19.724  43.252   0.794  1.00  0.00     0.132 C 
ATOM      5  O   UNL     1      20.781  42.711   0.506  1.00  0.00    -0.300 OA
ATOM      6  C   UNL     1      18.759  42.580   1.731  1.00  0.00     0.075 C 
ATOM      7  C   UNL     1      17.324  42.711   1.204  1.00  0.00     0.008 C 
ENDROOT
TORSDOF 0
ENDMDL
MODEL 3
REMARK VINA RESULT:    -3.495      1.739      2.619
REMARK INTER + INTRA:          -3.495
REMARK INTER:                  -3.495
REMARK INTRA:                   0.000
REMARK UNBOUND:                 0.000
REMARK SMILES O=C1CCCCC1
REMARK SMILES IDX 5 1 4 2 3 3 2 4 1 5 7 6 6 7
REMARK H PARENT
REMARK Flexibility Score: inf
ROOT
ATOM      1  C   UNL     1      17.640  42.515   1.494  1.00  0.00     0.001 C 
ATOM      2  C   UNL     1      19.132  42.806   1.714  1.00  0.00     0.008 C 
ATOM      3  C   UNL     1      19.764  43.460   0.479  1.00  0.00     0.075 C 
ATOM      4  C   UNL     1      18.940  44.635   0.030  1.00  0.00     0.132 C 
ATOM      5  O   UNL     1      19.483  45.677  -0.303  1.00  0.00    -0.300 OA
ATOM      6  C   UNL     1      17.449  44.482  -0.097  1.00  0.00     0.075 C 
ATOM      7  C   UNL     1      16.874  43.803   1.153  1.00  0.00     0.008 C 
ENDROOT
TORSDOF 0
ENDMDL
MODEL 4
REMARK VINA RESULT:    -3.486      0.916      2.143
REMARK INTER + INTRA:          -3.486
REMARK INTER:                  -3.486
REMARK INTRA:                   0.000
REMARK UNBOUND:                 0.000
REMARK SMILES O=C1CCCCC1
REMARK SMILES IDX 5 1 4 2 3 3 2 4 1 5 7 6 6 7
REMARK H PARENT
REMARK Flexibility Score: inf
ROOT
ATOM      1  C   UNL     1      16.702  44.804  -0.357  1.00  0.00     0.001 C 
ATOM      2  C   UNL     1      16.631  44.262   1.078  1.00  0.00     0.008 C 
ATOM      3  C   UNL     1      17.878  43.441   1.429  1.00  0.00     0.075 C 
ATOM      4  C   UNL     1      19.124  44.214   1.095  1.00  0.00     0.132 C 
ATOM      5  O   UNL     1      20.066  44.230   1.872  1.00  0.00    -0.300 OA
ATOM      6  C   UNL     1      19.234  44.888  -0.245  1.00  0.00     0.075 C 
ATOM      7  C   UNL     1      17.953  45.673  -0.554  1.00  0.00     0.008 C 
ENDROOT
TORSDOF 0
ENDMDL
MODEL 5
REMARK VINA RESULT:    -3.453      1.715      2.985
REMARK INTER + INTRA:          -3.453
REMARK INTER:                  -3.453
REMARK INTRA:                   0.000
REMARK UNBOUND:                 0.000
REMARK SMILES O=C1CCCCC1
REMARK SMILES IDX 5 1 4 2 3 3 2 4 1 5 7 6 6 7
REMARK H PARENT
REMARK Flexibility Score: inf
ROOT
ATOM      1  C   UNL     1      19.514  44.259   1.377  1.00  0.00     0.001 C 
ATOM      2  C   UNL     1      18.336  43.299   1.604  1.00  0.00     0.008 C 
ATOM      3  C   UNL     1      16.995  43.975   1.290  1.00  0.00     0.075 C 
ATOM      4  C   UNL     1      17.041  44.626  -0.065  1.00  0.00     0.132 C 
ATOM      5  O   UNL     1      16.097  44.520  -0.832  1.00  0.00    -0.300 OA
ATOM      6  C   UNL     1      18.220  45.486  -0.427  1.00  0.00     0.075 C 
ATOM      7  C   UNL     1      19.531  44.773  -0.071  1.00  0.00     0.008 C 
ENDROOT
TORSDOF 0
ENDMDL
MODEL 6
REMARK VINA RESULT:    -3.452      1.868      2.685
REMARK INTER + INTRA:          -3.452
REMARK INTER:                  -3.452
REMARK INTRA:                   0.000
REMARK UNBOUND:                 0.000
REMARK SMILES O=C1CCCCC1
REMARK SMILES IDX 5 1 4 2 3 3 2 4 1 5 7 6 6 7
REMARK H PARENT
REMARK Flexibility Score: inf
ROOT
ATOM      1  C   UNL     1      19.446  42.834   1.390  1.00  0.00     0.001 C 
ATOM      2  C   UNL     1      19.717  44.344   1.323  1.00  0.00     0.008 C 
ATOM      3  C   UNL     1      19.170  44.954   0.026  1.00  0.00     0.075 C 
ATOM      4  C   UNL     1      17.736  44.549  -0.178  1.00  0.00     0.132 C 
ATOM      5  O   UNL     1      16.911  45.369  -0.551  1.00  0.00    -0.300 OA
ATOM      6  C   UNL     1      17.349  43.105  -0.011  1.00  0.00     0.075 C 
ATOM      7  C   UNL     1      17.942  42.541   1.287  1.00  0.00     0.008 C 
ENDROOT
TORSDOF 0
ENDMDL
MODEL 7
REMARK VINA RESULT:    -3.399      1.155      2.241
REMARK INTER + INTRA:          -3.399
REMARK INTER:                  -3.399
REMARK INTRA:                   0.000
REMARK UNBOUND:                 0.000
REMARK SMILES O=C1CCCCC1
REMARK SMILES IDX 5 1 4 2 3 3 2 4 1 5 7 6 6 7
REMARK H PARENT
REMARK Flexibility Score: inf
ROOT
ATOM      1  C   UNL     1      19.195  44.910   0.031  1.00  0.00     0.001 C 
ATOM      2  C   UNL     1      17.707  44.642  -0.240  1.00  0.00     0.008 C 
ATOM      3  C   UNL     1      17.398  43.140  -0.234  1.00  0.00     0.075 C 
ATOM      4  C   UNL     1      17.951  42.497   1.009  1.00  0.00     0.132 C 
ATOM      5  O   UNL     1      17.286  41.681   1.628  1.00  0.00    -0.300 OA
ATOM      6  C   UNL     1      19.364  42.798   1.425  1.00  0.00     0.075 C 
ATOM      7  C   UNL     1      19.624  44.309   1.378  1.00  0.00     0.008 C 
ENDROOT
TORSDOF 0
ENDMDL
MODEL 8
REMARK VINA RESULT:    -3.379      1.978      2.393
REMARK INTER + INTRA:          -3.379
REMARK INTER:                  -3.379
REMARK INTRA:                   0.000
REMARK UNBOUND:                 0.000
REMARK SMILES O=C1CCCCC1
REMARK SMILES IDX 5 1 4 2 3 3 2 4 1 5 7 6 6 7
REMARK H PARENT
REMARK Flexibility Score: inf
ROOT
ATOM      1  C   UNL     1      18.891  44.036   2.060  1.00  0.00     0.001 C 
ATOM      2  C   UNL     1      19.907  43.826   0.928  1.00  0.00     0.008 C 
ATOM      3  C   UNL     1      19.773  42.430   0.307  1.00  0.00     0.075 C 
ATOM      4  C   UNL     1      18.340  42.154  -0.056  1.00  0.00     0.132 C 
ATOM      5  O   UNL     1      18.065  41.627  -1.123  1.00  0.00    -0.300 OA
ATOM      6  C   UNL     1      17.258  42.446   0.947  1.00  0.00     0.075 C 
ATOM      7  C   UNL     1      17.454  43.843   1.552  1.00  0.00     0.008 C 
ENDROOT
TORSDOF 0
ENDMDL
MODEL 9
REMARK VINA RESULT:    -3.266      1.913      2.893
REMARK INTER + INTRA:          -3.266
REMARK INTER:                  -3.266
REMARK INTRA:                   0.000
REMARK UNBOUND:                 0.000
REMARK SMILES O=C1CCCCC1
REMARK SMILES IDX 5 1 4 2 3 3 2 4 1 5 7 6 6 7
REMARK H PARENT
REMARK Flexibility Score: inf
ROOT
ATOM      1  C   UNL     1      19.846  42.430   0.380  1.00  0.00     0.001 C 
ATOM      2  C   UNL     1      18.515  42.210  -0.353  1.00  0.00     0.008 C 
ATOM      3  C   UNL     1      17.322  42.328   0.605  1.00  0.00     0.075 C 
ATOM      4  C   UNL     1      17.415  43.601   1.401  1.00  0.00     0.132 C 
ATOM      5  O   UNL     1      16.422  44.290   1.578  1.00  0.00    -0.300 OA
ATOM      6  C   UNL     1      18.718  43.966   2.055  1.00  0.00     0.075 C 
ATOM      7  C   UNL     1      19.877  43.807   1.061  1.00  0.00     0.008 C 
ENDROOT
TORSDOF 0
ENDMDL
