MODEL 1
REMARK VINA RESULT:    -5.240      0.000      0.000
REMARK INTER + INTRA:          -5.999
REMARK INTER:                  -5.852
REMARK INTRA:                  -0.147
REMARK UNBOUND:                -0.147
REMARK SMILES C=CCc1ccc2c(c1)OCO2
REMARK SMILES IDX 3 1 2 2 1 3 4 4 9 5 5 6 8 7 6 8 7 9 10 10 12 11 11 12
REMARK H PARENT
REMARK Flexibility Score: inf
ROOT
ATOM      1  C   UNL     1      20.280 -19.325 -11.631  1.00  0.00     0.062 C 
ENDROOT
BRANCH   1   2
ATOM      2  C   UNL     1      21.214 -20.502 -11.667  1.00  0.00    -0.030 C 
ATOM      3  C   UNL     1      20.762 -21.759 -11.681  1.00  0.00     0.004 C 
ENDBRANCH   1   2
BRANCH   1   4
ATOM      4  C   UNL     1      21.032 -18.058 -11.326  1.00  0.00    -0.040 A 
ATOM      5  C   UNL     1      21.770 -17.937 -10.127  1.00  0.00     0.054 A 
ATOM      6  C   UNL     1      20.966 -16.959 -12.223  1.00  0.00     0.008 A 
ATOM      7  C   UNL     1      22.423 -16.734  -9.881  1.00  0.00     0.166 A 
ATOM      8  C   UNL     1      21.641 -15.760 -11.934  1.00  0.00     0.051 A 
ATOM      9  C   UNL     1      22.362 -15.690 -10.746  1.00  0.00     0.165 A 
ATOM     10  O   UNL     1      23.199 -16.383  -8.792  1.00  0.00    -0.454 OA
ATOM     11  O   UNL     1      23.098 -14.633 -10.246  1.00  0.00    -0.454 OA
ATOM     12  C   UNL     1      23.654 -15.038  -8.987  1.00  0.00     0.468 C 
ENDBRANCH   1   4
TORSDOF 2
ENDMDL
MODEL 2
REMARK VINA RESULT:    -5.232      0.882      1.961
REMARK INTER + INTRA:          -5.990
REMARK INTER:                  -5.807
REMARK INTRA:                  -0.183
REMARK UNBOUND:                -0.147
REMARK SMILES C=CCc1ccc2c(c1)OCO2
REMARK SMILES IDX 3 1 2 2 1 3 4 4 9 5 5 6 8 7 6 8 7 9 10 10 12 11 11 12
REMARK H PARENT
REMARK Flexibility Score: inf
ROOT
ATOM      1  C   UNL     1      20.601 -18.249 -12.190  1.00  0.00     0.062 C 
ENDROOT
BRANCH   1   2
ATOM      2  C   UNL     1      20.237 -19.582 -11.598  1.00  0.00    -0.030 C 
ATOM      3  C   UNL     1      20.741 -20.724 -12.075  1.00  0.00     0.004 C 
ENDBRANCH   1   2
BRANCH   1   4
ATOM      4  C   UNL     1      21.378 -17.422 -11.203  1.00  0.00    -0.040 A 
ATOM      5  C   UNL     1      21.867 -16.147 -11.568  1.00  0.00     0.054 A 
ATOM      6  C   UNL     1      21.663 -17.939  -9.911  1.00  0.00     0.008 A 
ATOM      7  C   UNL     1      22.604 -15.436 -10.627  1.00  0.00     0.166 A 
ATOM      8  C   UNL     1      22.413 -17.185  -8.991  1.00  0.00     0.051 A 
ATOM      9  C   UNL     1      22.866 -15.932  -9.392  1.00  0.00     0.165 A 
ATOM     10  O   UNL     1      23.177 -14.184 -10.751  1.00  0.00    -0.454 OA
ATOM     11  O   UNL     1      23.614 -15.017  -8.676  1.00  0.00    -0.454 OA
ATOM     12  C   UNL     1      23.836 -13.875  -9.515  1.00  0.00     0.468 C 
ENDBRANCH   1   4
TORSDOF 2
ENDMDL
MODEL 3
REMARK VINA RESULT:    -5.222      2.128      2.817
REMARK INTER + INTRA:          -5.979
REMARK INTER:                  -5.750
REMARK INTRA:                  -0.228
REMARK UNBOUND:                -0.147
REMARK SMILES C=CCc1ccc2c(c1)OCO2
REMARK SMILES IDX 3 1 2 2 1 3 4 4 9 5 5 6 8 7 6 8 7 9 10 10 12 11 11 12
REMARK H PARENT
REMARK Flexibility Score: inf
ROOT
ATOM      1  C   UNL     1      24.443 -19.910  -9.600  1.00  0.00     0.062 C 
ENDROOT
BRANCH   1   2
ATOM      2  C   UNL     1      24.327 -20.626 -10.916  1.00  0.00    -0.030 C 
ATOM      3  C   UNL     1      25.001 -20.224 -11.998  1.00  0.00     0.004 C 
ENDBRANCH   1   2
BRANCH   1   4
ATOM      4  C   UNL     1      23.705 -18.599  -9.640  1.00  0.00    -0.040 A 
ATOM      5  C   UNL     1      24.335 -17.412  -9.204  1.00  0.00     0.054 A 
ATOM      6  C   UNL     1      22.354 -18.557 -10.076  1.00  0.00     0.008 A 
ATOM      7  C   UNL     1      23.598 -16.232  -9.234  1.00  0.00     0.166 A 
ATOM      8  C   UNL     1      21.646 -17.342 -10.091  1.00  0.00     0.051 A 
ATOM      9  C   UNL     1      22.310 -16.198  -9.660  1.00  0.00     0.165 A 
ATOM     10  O   UNL     1      23.994 -14.961  -8.864  1.00  0.00    -0.454 OA
ATOM     11  O   UNL     1      21.833 -14.904  -9.581  1.00  0.00    -0.454 OA
ATOM     12  C   UNL     1      22.887 -14.074  -9.073  1.00  0.00     0.468 C 
ENDBRANCH   1   4
TORSDOF 2
ENDMDL
MODEL 4
REMARK VINA RESULT:    -5.147     17.653     19.738
REMARK INTER + INTRA:          -5.895
REMARK INTER:                  -5.761
REMARK INTRA:                  -0.134
REMARK UNBOUND:                -0.147
REMARK SMILES C=CCc1ccc2c(c1)OCO2
REMARK SMILES IDX 3 1 2 2 1 3 4 4 9 5 5 6 8 7 6 8 7 9 10 10 12 11 11 12
REMARK H PARENT
REMARK Flexibility Score: inf
ROOT
ATOM      1  C   UNL     1      21.719 -30.516   0.314  1.00  0.00     0.062 C 
ENDROOT
BRANCH   1   2
ATOM      2  C   UNL     1      21.750 -29.217   1.069  1.00  0.00    -0.030 C 
ATOM      3  C   UNL     1      22.850 -28.461   1.122  1.00  0.00     0.004 C 
ENDBRANCH   1   2
BRANCH   1   4
ATOM      4  C   UNL     1      22.691 -31.500   0.905  1.00  0.00    -0.040 A 
ATOM      5  C   UNL     1      22.707 -31.736   2.299  1.00  0.00     0.054 A 
ATOM      6  C   UNL     1      23.627 -32.165   0.070  1.00  0.00     0.008 A 
ATOM      7  C   UNL     1      23.645 -32.635   2.798  1.00  0.00     0.166 A 
ATOM      8  C   UNL     1      24.558 -33.066   0.617  1.00  0.00     0.051 A 
ATOM      9  C   UNL     1      24.531 -33.273   1.993  1.00  0.00     0.165 A 
ATOM     10  O   UNL     1      23.850 -33.025   4.108  1.00  0.00    -0.454 OA
ATOM     11  O   UNL     1      25.336 -34.097   2.755  1.00  0.00    -0.454 OA
ATOM     12  C   UNL     1      24.931 -33.968   4.125  1.00  0.00     0.468 C 
ENDBRANCH   1   4
TORSDOF 2
ENDMDL
MODEL 5
REMARK VINA RESULT:    -5.066      1.552      3.694
REMARK INTER + INTRA:          -5.805
REMARK INTER:                  -5.644
REMARK INTRA:                  -0.161
REMARK UNBOUND:                -0.147
REMARK SMILES C=CCc1ccc2c(c1)OCO2
REMARK SMILES IDX 3 1 2 2 1 3 4 4 9 5 5 6 8 7 6 8 7 9 10 10 12 11 11 12
REMARK H PARENT
REMARK Flexibility Score: inf
ROOT
ATOM      1  C   UNL     1      20.617 -16.191 -13.168  1.00  0.00     0.062 C 
ENDROOT
BRANCH   1   2
ATOM      2  C   UNL     1      20.796 -14.699 -13.154  1.00  0.00    -0.030 C 
ATOM      3  C   UNL     1      19.865 -13.875 -13.644  1.00  0.00     0.004 C 
ENDBRANCH   1   2
BRANCH   1   4
ATOM      4  C   UNL     1      21.243 -16.814 -11.950  1.00  0.00    -0.040 A 
ATOM      5  C   UNL     1      22.169 -16.083 -11.172  1.00  0.00     0.054 A 
ATOM      6  C   UNL     1      20.940 -18.157 -11.603  1.00  0.00     0.008 A 
ATOM      7  C   UNL     1      22.740 -16.715 -10.072  1.00  0.00     0.166 A 
ATOM      8  C   UNL     1      21.541 -18.758 -10.482  1.00  0.00     0.051 A 
ATOM      9  C   UNL     1      22.439 -17.997  -9.741  1.00  0.00     0.165 A 
ATOM     10  O   UNL     1      23.658 -16.211  -9.170  1.00  0.00    -0.454 OA
ATOM     11  O   UNL     1      23.151 -18.361  -8.613  1.00  0.00    -0.454 OA
ATOM     12  C   UNL     1      23.949 -17.238  -8.213  1.00  0.00     0.468 C 
ENDBRANCH   1   4
TORSDOF 2
ENDMDL
MODEL 6
REMARK VINA RESULT:    -5.055      2.220      4.218
REMARK INTER + INTRA:          -5.792
REMARK INTER:                  -5.627
REMARK INTRA:                  -0.165
REMARK UNBOUND:                -0.147
REMARK SMILES C=CCc1ccc2c(c1)OCO2
REMARK SMILES IDX 3 1 2 2 1 3 4 4 9 5 5 6 8 7 6 8 7 9 10 10 12 11 11 12
REMARK H PARENT
REMARK Flexibility Score: inf
ROOT
ATOM      1  C   UNL     1      21.414 -15.326 -11.592  1.00  0.00     0.062 C 
ENDROOT
BRANCH   1   2
ATOM      2  C   UNL     1      21.007 -15.254 -13.037  1.00  0.00    -0.030 C 
ATOM      3  C   UNL     1      20.232 -14.269 -13.500  1.00  0.00     0.004 C 
ENDBRANCH   1   2
BRANCH   1   4
ATOM      4  C   UNL     1      21.817 -16.728 -11.222  1.00  0.00    -0.040 A 
ATOM      5  C   UNL     1      23.094 -16.981 -10.671  1.00  0.00     0.054 A 
ATOM      6  C   UNL     1      20.932 -17.810 -11.467  1.00  0.00     0.008 A 
ATOM      7  C   UNL     1      23.427 -18.298 -10.373  1.00  0.00     0.166 A 
ATOM      8  C   UNL     1      21.310 -19.128 -11.150  1.00  0.00     0.051 A 
ATOM      9  C   UNL     1      22.573 -19.327 -10.602  1.00  0.00     0.165 A 
ATOM     10  O   UNL     1      24.601 -18.787  -9.831  1.00  0.00    -0.454 OA
ATOM     11  O   UNL     1      23.165 -20.514 -10.214  1.00  0.00    -0.454 OA
ATOM     12  C   UNL     1      24.474 -20.211  -9.712  1.00  0.00     0.468 C 
ENDBRANCH   1   4
TORSDOF 2
ENDMDL
MODEL 7
REMARK VINA RESULT:    -5.009      1.374      1.911
REMARK INTER + INTRA:          -5.741
REMARK INTER:                  -5.567
REMARK INTRA:                  -0.174
REMARK UNBOUND:                -0.147
REMARK SMILES C=CCc1ccc2c(c1)OCO2
REMARK SMILES IDX 3 1 2 2 1 3 4 4 9 5 5 6 8 7 6 8 7 9 10 10 12 11 11 12
REMARK H PARENT
REMARK Flexibility Score: inf
ROOT
ATOM      1  C   UNL     1      22.830 -21.168 -10.841  1.00  0.00     0.062 C 
ENDROOT
BRANCH   1   2
ATOM      2  C   UNL     1      21.512 -21.801 -11.189  1.00  0.00    -0.030 C 
ATOM      3  C   UNL     1      21.324 -23.121 -11.111  1.00  0.00     0.004 C 
ENDBRANCH   1   2
BRANCH   1   4
ATOM      4  C   UNL     1      22.664 -19.692 -10.597  1.00  0.00    -0.040 A 
ATOM      5  C   UNL     1      23.661 -18.967  -9.906  1.00  0.00     0.054 A 
ATOM      6  C   UNL     1      21.483 -19.030 -11.023  1.00  0.00     0.008 A 
ATOM      7  C   UNL     1      23.445 -17.611  -9.682  1.00  0.00     0.166 A 
ATOM      8  C   UNL     1      21.306 -17.657 -10.776  1.00  0.00     0.051 A 
ATOM      9  C   UNL     1      22.317 -16.982 -10.099  1.00  0.00     0.165 A 
ATOM     10  O   UNL     1      24.266 -16.704  -9.038  1.00  0.00    -0.454 OA
ATOM     11  O   UNL     1      22.373 -15.649  -9.741  1.00  0.00    -0.454 OA
ATOM     12  C   UNL     1      23.613 -15.427  -9.055  1.00  0.00     0.468 C 
ENDBRANCH   1   4
TORSDOF 2
ENDMDL
MODEL 8
REMARK VINA RESULT:    -4.928      3.201      4.840
REMARK INTER + INTRA:          -5.650
REMARK INTER:                  -5.447
REMARK INTRA:                  -0.204
REMARK UNBOUND:                -0.147
REMARK SMILES C=CCc1ccc2c(c1)OCO2
REMARK SMILES IDX 3 1 2 2 1 3 4 4 9 5 5 6 8 7 6 8 7 9 10 10 12 11 11 12
REMARK H PARENT
REMARK Flexibility Score: inf
ROOT
ATOM      1  C   UNL     1      21.772 -17.628  -9.522  1.00  0.00     0.062 C 
ENDROOT
BRANCH   1   2
ATOM      2  C   UNL     1      23.051 -18.286  -9.085  1.00  0.00    -0.030 C 
ATOM      3  C   UNL     1      24.246 -17.788  -9.414  1.00  0.00     0.004 C 
ENDBRANCH   1   2
BRANCH   1   4
ATOM      4  C   UNL     1      21.348 -18.134 -10.874  1.00  0.00    -0.040 A 
ATOM      5  C   UNL     1      21.403 -19.515 -11.168  1.00  0.00     0.054 A 
ATOM      6  C   UNL     1      20.933 -17.219 -11.877  1.00  0.00     0.008 A 
ATOM      7  C   UNL     1      21.027 -19.927 -12.443  1.00  0.00     0.166 A 
ATOM      8  C   UNL     1      20.561 -17.679 -13.153  1.00  0.00     0.051 A 
ATOM      9  C   UNL     1      20.623 -19.048 -13.394  1.00  0.00     0.165 A 
ATOM     10  O   UNL     1      20.994 -21.209 -12.958  1.00  0.00    -0.454 OA
ATOM     11  O   UNL     1      20.315 -19.733 -14.554  1.00  0.00    -0.454 OA
ATOM     12  C   UNL     1      20.540 -21.129 -14.316  1.00  0.00     0.468 C 
ENDBRANCH   1   4
TORSDOF 2
ENDMDL
MODEL 9
REMARK VINA RESULT:    -4.783      2.922      5.075
REMARK INTER + INTRA:          -5.489
REMARK INTER:                  -5.322
REMARK INTRA:                  -0.167
REMARK UNBOUND:                -0.147
REMARK SMILES C=CCc1ccc2c(c1)OCO2
REMARK SMILES IDX 3 1 2 2 1 3 4 4 9 5 5 6 8 7 6 8 7 9 10 10 12 11 11 12
REMARK H PARENT
REMARK Flexibility Score: inf
ROOT
ATOM      1  C   UNL     1      22.386 -17.207  -8.983  1.00  0.00     0.062 C 
ENDROOT
BRANCH   1   2
ATOM      2  C   UNL     1      23.735 -16.601  -9.248  1.00  0.00    -0.030 C 
ATOM      3  C   UNL     1      23.915 -15.278  -9.295  1.00  0.00     0.004 C 
ENDBRANCH   1   2
BRANCH   1   4
ATOM      4  C   UNL     1      22.061 -18.254 -10.013  1.00  0.00    -0.040 A 
ATOM      5  C   UNL     1      22.837 -19.431 -10.103  1.00  0.00     0.054 A 
ATOM      6  C   UNL     1      20.997 -18.043 -10.929  1.00  0.00     0.008 A 
ATOM      7  C   UNL     1      22.512 -20.354 -11.092  1.00  0.00     0.166 A 
ATOM      8  C   UNL     1      20.702 -19.003 -11.914  1.00  0.00     0.051 A 
ATOM      9  C   UNL     1      21.489 -20.150 -11.960  1.00  0.00     0.165 A 
ATOM     10  O   UNL     1      23.117 -21.565 -11.372  1.00  0.00    -0.454 OA
ATOM     11  O   UNL     1      21.398 -21.222 -12.826  1.00  0.00    -0.454 OA
ATOM     12  C   UNL     1      22.430 -22.157 -12.482  1.00  0.00     0.468 C 
ENDBRANCH   1   4
TORSDOF 2
ENDMDL
