MODEL 1
REMARK VINA RESULT:    -4.096      0.000      0.000
REMARK INTER + INTRA:          -5.661
REMARK INTER:                  -5.294
REMARK INTRA:                  -0.368
REMARK UNBOUND:                -0.368
REMARK SMILES CCO[C@@H]1O[C@H](CO)[C@@H](O)[C@@H](O)[C@@H]1O
REMARK SMILES IDX 4 1 13 2 11 3 9 4 6 5 5 6 3 7 2 8 1 9 14 10 12 12 7 14 8 15
REMARK SMILES IDX 10 17
REMARK H PARENT 14 11 12 13 8 16 10 18
REMARK Flexibility Score: inf
ROOT
ATOM      1  C   UNL     1      13.093  42.411  60.181  1.00  0.00     0.281 C 
ATOM      2  C   UNL     1      13.555  40.997  60.573  1.00  0.00     0.202 C 
ATOM      3  C   UNL     1      12.332  40.075  60.737  1.00  0.00     0.179 C 
ATOM      4  C   UNL     1      11.287  40.733  61.664  1.00  0.00     0.177 C 
ATOM      5  C   UNL     1      11.008  42.186  61.205  1.00  0.00     0.178 C 
ATOM      6  O   UNL     1      12.217  42.926  61.171  1.00  0.00    -0.341 OA
ENDROOT
BRANCH   1   7
ATOM      7  O   UNL     1      14.235  43.244  60.091  1.00  0.00    -0.350 OA
BRANCH   7   8
ATOM      8  C   UNL     1      14.899  43.068  58.852  1.00  0.00     0.160 C 
ATOM      9  C   UNL     1      16.040  44.069  58.722  1.00  0.00     0.035 C 
ENDBRANCH   7   8
ENDBRANCH   1   7
BRANCH   2  10
ATOM     10  O   UNL     1      14.280  41.056  61.776  1.00  0.00    -0.385 OA
ATOM     11  H   UNL     1      13.653  41.384  62.472  1.00  0.00     0.211 HD
ENDBRANCH   2  10
BRANCH   3  12
ATOM     12  O   UNL     1      11.774  39.819  59.471  1.00  0.00    -0.387 OA
ATOM     13  H   UNL     1      11.942  38.862  59.266  1.00  0.00     0.211 HD
ENDBRANCH   3  12
BRANCH   5  14
ATOM     14  C   UNL     1      10.044  42.902  62.162  1.00  0.00     0.191 C 
BRANCH  14  15
ATOM     15  O   UNL     1      10.097  42.320  63.437  1.00  0.00    -0.394 OA
ATOM     16  H   UNL     1       9.399  42.776  63.975  1.00  0.00     0.210 HD
ENDBRANCH  14  15
ENDBRANCH   5  14
BRANCH   4  17
ATOM     17  O   UNL     1      10.097  39.984  61.655  1.00  0.00    -0.387 OA
ATOM     18  H   UNL     1       9.875  39.790  62.604  1.00  0.00     0.211 HD
ENDBRANCH   4  17
TORSDOF 7
ENDMDL
MODEL 2
REMARK VINA RESULT:    -4.045      4.083      5.760
REMARK INTER + INTRA:          -5.595
REMARK INTER:                  -5.272
REMARK INTRA:                  -0.323
REMARK UNBOUND:                -0.368
REMARK SMILES CCO[C@@H]1O[C@H](CO)[C@@H](O)[C@@H](O)[C@@H]1O
REMARK SMILES IDX 4 1 13 2 11 3 9 4 6 5 5 6 3 7 2 8 1 9 14 10 12 12 7 14 8 15
REMARK SMILES IDX 10 17
REMARK H PARENT 14 11 12 13 8 16 10 18
REMARK Flexibility Score: inf
ROOT
ATOM      1  C   UNL     1      10.946  43.861  58.852  1.00  0.00     0.281 C 
ATOM      2  C   UNL     1      12.223  43.112  58.433  1.00  0.00     0.202 C 
ATOM      3  C   UNL     1      12.564  43.440  56.967  1.00  0.00     0.179 C 
ATOM      4  C   UNL     1      11.325  43.231  56.070  1.00  0.00     0.177 C 
ATOM      5  C   UNL     1      10.098  43.954  56.679  1.00  0.00     0.178 C 
ATOM      6  O   UNL     1       9.870  43.496  58.002  1.00  0.00    -0.341 OA
ENDROOT
BRANCH   1   7
ATOM      7  O   UNL     1      10.632  43.496  60.183  1.00  0.00    -0.350 OA
BRANCH   7   8
ATOM      8  C   UNL     1       9.709  44.404  60.758  1.00  0.00     0.160 C 
ATOM      9  C   UNL     1       9.068  43.789  61.996  1.00  0.00     0.035 C 
ENDBRANCH   7   8
ENDBRANCH   1   7
BRANCH   2  10
ATOM     10  O   UNL     1      12.028  41.728  58.585  1.00  0.00    -0.385 OA
ATOM     11  H   UNL     1      11.613  41.594  59.477  1.00  0.00     0.211 HD
ENDBRANCH   2  10
BRANCH   3  12
ATOM     12  O   UNL     1      13.011  44.771  56.884  1.00  0.00    -0.387 OA
ATOM     13  H   UNL     1      12.279  45.299  56.472  1.00  0.00     0.211 HD
ENDBRANCH   3  12
BRANCH   5  14
ATOM     14  C   UNL     1       8.826  43.686  55.863  1.00  0.00     0.191 C 
BRANCH  14  15
ATOM     15  O   UNL     1       8.910  44.303  54.606  1.00  0.00    -0.394 OA
ATOM     16  H   UNL     1       8.410  45.156  54.685  1.00  0.00     0.210 HD
ENDBRANCH  14  15
ENDBRANCH   5  14
BRANCH   4  17
ATOM     17  O   UNL     1      11.581  43.715  54.775  1.00  0.00    -0.387 OA
ATOM     18  H   UNL     1      11.993  42.967  54.267  1.00  0.00     0.211 HD
ENDBRANCH   4  17
TORSDOF 7
ENDMDL
MODEL 3
REMARK VINA RESULT:    -4.043      2.753      3.654
REMARK INTER + INTRA:          -5.593
REMARK INTER:                  -5.233
REMARK INTRA:                  -0.360
REMARK UNBOUND:                -0.368
REMARK SMILES CCO[C@@H]1O[C@H](CO)[C@@H](O)[C@@H](O)[C@@H]1O
REMARK SMILES IDX 4 1 13 2 11 3 9 4 6 5 5 6 3 7 2 8 1 9 14 10 12 12 7 14 8 15
REMARK SMILES IDX 10 17
REMARK H PARENT 14 11 12 13 8 16 10 18
REMARK Flexibility Score: inf
ROOT
ATOM      1  C   UNL     1      10.758  43.183  58.774  1.00  0.00     0.281 C 
ATOM      2  C   UNL     1      10.981  44.003  60.057  1.00  0.00     0.202 C 
ATOM      3  C   UNL     1      11.089  43.058  61.269  1.00  0.00     0.179 C 
ATOM      4  C   UNL     1       9.899  42.073  61.286  1.00  0.00     0.177 C 
ATOM      5  C   UNL     1       9.737  41.409  59.896  1.00  0.00     0.178 C 
ATOM      6  O   UNL     1       9.579  42.403  58.897  1.00  0.00    -0.341 OA
ENDROOT
BRANCH   1   7
ATOM      7  O   UNL     1      10.610  44.083  57.690  1.00  0.00    -0.350 OA
BRANCH   7   8
ATOM      8  C   UNL     1      11.871  44.527  57.220  1.00  0.00     0.160 C 
ATOM      9  C   UNL     1      12.333  43.659  56.057  1.00  0.00     0.035 C 
ENDBRANCH   7   8
ENDBRANCH   1   7
BRANCH   2  10
ATOM     10  O   UNL     1       9.911  44.897  60.234  1.00  0.00    -0.385 OA
ATOM     11  H   UNL     1      10.180  45.753  59.810  1.00  0.00     0.211 HD
ENDBRANCH   2  10
BRANCH   3  12
ATOM     12  O   UNL     1      12.306  42.357  61.200  1.00  0.00    -0.387 OA
ATOM     13  H   UNL     1      13.012  43.019  60.984  1.00  0.00     0.211 HD
ENDBRANCH   3  12
BRANCH   5  14
ATOM     14  C   UNL     1       8.504  40.496  59.850  1.00  0.00     0.191 C 
BRANCH  14  15
ATOM     15  O   UNL     1       7.472  41.025  60.639  1.00  0.00    -0.394 OA
ATOM     16  H   UNL     1       7.319  41.948  60.307  1.00  0.00     0.210 HD
ENDBRANCH  14  15
ENDBRANCH   5  14
BRANCH   4  17
ATOM     17  O   UNL     1      10.100  41.093  62.273  1.00  0.00    -0.387 OA
ATOM     18  H   UNL     1       9.725  41.456  63.117  1.00  0.00     0.211 HD
ENDBRANCH   4  17
TORSDOF 7
ENDMDL
MODEL 4
REMARK VINA RESULT:    -4.020      7.723      9.409
REMARK INTER + INTRA:          -5.563
REMARK INTER:                  -5.116
REMARK INTRA:                  -0.446
REMARK UNBOUND:                -0.368
REMARK SMILES CCO[C@@H]1O[C@H](CO)[C@@H](O)[C@@H](O)[C@@H]1O
REMARK SMILES IDX 4 1 13 2 11 3 9 4 6 5 5 6 3 7 2 8 1 9 14 10 12 12 7 14 8 15
REMARK SMILES IDX 10 17
REMARK H PARENT 14 11 12 13 8 16 10 18
REMARK Flexibility Score: inf
ROOT
ATOM      1  C   UNL     1      12.418  32.159  63.392  1.00  0.00     0.281 C 
ATOM      2  C   UNL     1      12.098  32.030  64.891  1.00  0.00     0.202 C 
ATOM      3  C   UNL     1      10.660  32.511  65.161  1.00  0.00     0.179 C 
ATOM      4  C   UNL     1      10.434  33.903  64.532  1.00  0.00     0.177 C 
ATOM      5  C   UNL     1      10.904  33.903  63.056  1.00  0.00     0.178 C 
ATOM      6  O   UNL     1      12.263  33.507  62.977  1.00  0.00    -0.341 OA
ENDROOT
BRANCH   1   7
ATOM      7  O   UNL     1      13.762  31.761  63.187  1.00  0.00    -0.350 OA
BRANCH   7   8
ATOM      8  C   UNL     1      14.477  32.737  62.450  1.00  0.00     0.160 C 
ATOM      9  C   UNL     1      15.779  33.083  63.163  1.00  0.00     0.035 C 
ENDBRANCH   7   8
ENDBRANCH   1   7
BRANCH   2  10
ATOM     10  O   UNL     1      13.011  32.798  65.634  1.00  0.00    -0.385 OA
ATOM     11  H   UNL     1      13.476  32.174  66.250  1.00  0.00     0.211 HD
ENDBRANCH   2  10
BRANCH   3  12
ATOM     12  O   UNL     1       9.753  31.578  64.627  1.00  0.00    -0.387 OA
ATOM     13  H   UNL     1      10.111  30.675  64.829  1.00  0.00     0.211 HD
ENDBRANCH   3  12
BRANCH   5  14
ATOM     14  C   UNL     1      10.783  35.298  62.428  1.00  0.00     0.191 C 
BRANCH  14  15
ATOM     15  O   UNL     1      10.670  36.278  63.425  1.00  0.00    -0.394 OA
ATOM     16  H   UNL     1      11.543  36.291  63.897  1.00  0.00     0.210 HD
ENDBRANCH  14  15
ENDBRANCH   5  14
BRANCH   4  17
ATOM     17  O   UNL     1       9.074  34.252  64.609  1.00  0.00    -0.387 OA
ATOM     18  H   UNL     1       8.560  33.468  64.282  1.00  0.00     0.211 HD
ENDBRANCH   4  17
TORSDOF 7
ENDMDL
MODEL 5
REMARK VINA RESULT:    -4.019      2.237      4.615
REMARK INTER + INTRA:          -5.562
REMARK INTER:                  -5.397
REMARK INTRA:                  -0.165
REMARK UNBOUND:                -0.368
REMARK SMILES CCO[C@@H]1O[C@H](CO)[C@@H](O)[C@@H](O)[C@@H]1O
REMARK SMILES IDX 4 1 13 2 11 3 9 4 6 5 5 6 3 7 2 8 1 9 14 10 12 12 7 14 8 15
REMARK SMILES IDX 10 17
REMARK H PARENT 14 11 12 13 8 16 10 18
REMARK Flexibility Score: inf
ROOT
ATOM      1  C   UNL     1      10.649  43.370  60.779  1.00  0.00     0.281 C 
ATOM      2  C   UNL     1      10.345  43.440  59.272  1.00  0.00     0.202 C 
ATOM      3  C   UNL     1      11.271  42.475  58.507  1.00  0.00     0.179 C 
ATOM      4  C   UNL     1      12.741  42.706  58.918  1.00  0.00     0.177 C 
ATOM      5  C   UNL     1      12.868  42.717  60.462  1.00  0.00     0.178 C 
ATOM      6  O   UNL     1      12.009  43.701  61.014  1.00  0.00    -0.341 OA
ENDROOT
BRANCH   1   7
ATOM      7  O   UNL     1       9.821  44.306  61.445  1.00  0.00    -0.350 OA
BRANCH   7   8
ATOM      8  C   UNL     1       8.891  43.653  62.291  1.00  0.00     0.160 C 
ATOM      9  C   UNL     1       9.614  43.004  63.465  1.00  0.00     0.035 C 
ENDBRANCH   7   8
ENDBRANCH   1   7
BRANCH   2  10
ATOM     10  O   UNL     1      10.535  44.755  58.815  1.00  0.00    -0.385 OA
ATOM     11  H   UNL     1       9.634  45.163  58.733  1.00  0.00     0.211 HD
ENDBRANCH   2  10
BRANCH   3  12
ATOM     12  O   UNL     1      10.886  41.150  58.784  1.00  0.00    -0.387 OA
ATOM     13  H   UNL     1      11.650  40.567  58.538  1.00  0.00     0.211 HD
ENDBRANCH   3  12
BRANCH   5  14
ATOM     14  C   UNL     1      14.301  43.040  60.906  1.00  0.00     0.191 C 
BRANCH  14  15
ATOM     15  O   UNL     1      14.290  43.880  62.028  1.00  0.00    -0.394 OA
ATOM     16  H   UNL     1      14.903  44.631  61.815  1.00  0.00     0.210 HD
ENDBRANCH  14  15
ENDBRANCH   5  14
BRANCH   4  17
ATOM     17  O   UNL     1      13.558  41.701  58.371  1.00  0.00    -0.387 OA
ATOM     18  H   UNL     1      13.436  41.740  57.386  1.00  0.00     0.211 HD
ENDBRANCH   4  17
TORSDOF 7
ENDMDL
MODEL 6
REMARK VINA RESULT:    -3.994      9.226     11.033
REMARK INTER + INTRA:          -5.530
REMARK INTER:                  -5.121
REMARK INTRA:                  -0.409
REMARK UNBOUND:                -0.368
REMARK SMILES CCO[C@@H]1O[C@H](CO)[C@@H](O)[C@@H](O)[C@@H]1O
REMARK SMILES IDX 4 1 13 2 11 3 9 4 6 5 5 6 3 7 2 8 1 9 14 10 12 12 7 14 8 15
REMARK SMILES IDX 10 17
REMARK H PARENT 14 11 12 13 8 16 10 18
REMARK Flexibility Score: inf
ROOT
ATOM      1  C   UNL     1      10.666  32.206  62.507  1.00  0.00     0.281 C 
ATOM      2  C   UNL     1       9.750  32.511  63.705  1.00  0.00     0.202 C 
ATOM      3  C   UNL     1      10.473  33.448  64.691  1.00  0.00     0.179 C 
ATOM      4  C   UNL     1      11.874  32.891  65.027  1.00  0.00     0.177 C 
ATOM      5  C   UNL     1      12.631  32.531  63.725  1.00  0.00     0.178 C 
ATOM      6  O   UNL     1      11.872  31.610  62.959  1.00  0.00    -0.341 OA
ENDROOT
BRANCH   1   7
ATOM      7  O   UNL     1       9.993  31.303  61.650  1.00  0.00    -0.350 OA
BRANCH   7   8
ATOM      8  C   UNL     1      10.874  30.302  61.169  1.00  0.00     0.160 C 
ATOM      9  C   UNL     1      10.083  29.178  60.511  1.00  0.00     0.035 C 
ENDBRANCH   7   8
ENDBRANCH   1   7
BRANCH   2  10
ATOM     10  O   UNL     1       9.402  31.310  64.347  1.00  0.00    -0.385 OA
ATOM     11  H   UNL     1       9.445  31.484  65.323  1.00  0.00     0.211 HD
ENDBRANCH   2  10
BRANCH   3  12
ATOM     12  O   UNL     1      10.578  34.728  64.119  1.00  0.00    -0.387 OA
ATOM     13  H   UNL     1      10.485  35.386  64.856  1.00  0.00     0.211 HD
ENDBRANCH   3  12
BRANCH   5  14
ATOM     14  C   UNL     1      13.991  31.885  64.025  1.00  0.00     0.191 C 
BRANCH  14  15
ATOM     15  O   UNL     1      14.006  31.355  65.323  1.00  0.00    -0.394 OA
ATOM     16  H   UNL     1      14.760  30.710  65.348  1.00  0.00     0.210 HD
ENDBRANCH  14  15
ENDBRANCH   5  14
BRANCH   4  17
ATOM     17  O   UNL     1      12.604  33.838  65.767  1.00  0.00    -0.387 OA
ATOM     18  H   UNL     1      13.289  34.213  65.154  1.00  0.00     0.211 HD
ENDBRANCH   4  17
TORSDOF 7
ENDMDL
MODEL 7
REMARK VINA RESULT:    -3.982      2.873      5.455
REMARK INTER + INTRA:          -5.513
REMARK INTER:                  -5.194
REMARK INTRA:                  -0.319
REMARK UNBOUND:                -0.368
REMARK SMILES CCO[C@@H]1O[C@H](CO)[C@@H](O)[C@@H](O)[C@@H]1O
REMARK SMILES IDX 4 1 13 2 11 3 9 4 6 5 5 6 3 7 2 8 1 9 14 10 12 12 7 14 8 15
REMARK SMILES IDX 10 17
REMARK H PARENT 14 11 12 13 8 16 10 18
REMARK Flexibility Score: inf
ROOT
ATOM      1  C   UNL     1      11.394  42.662  59.390  1.00  0.00     0.281 C 
ATOM      2  C   UNL     1      10.391  43.676  58.813  1.00  0.00     0.202 C 
ATOM      3  C   UNL     1      10.731  43.968  57.340  1.00  0.00     0.179 C 
ATOM      4  C   UNL     1      12.225  44.331  57.198  1.00  0.00     0.177 C 
ATOM      5  C   UNL     1      13.101  43.277  57.920  1.00  0.00     0.178 C 
ATOM      6  O   UNL     1      12.714  43.172  59.280  1.00  0.00    -0.341 OA
ENDROOT
BRANCH   1   7
ATOM      7  O   UNL     1      11.086  42.458  60.756  1.00  0.00    -0.350 OA
BRANCH   7   8
ATOM      8  C   UNL     1      11.605  41.223  61.218  1.00  0.00     0.160 C 
ATOM      9  C   UNL     1      10.496  40.180  61.285  1.00  0.00     0.035 C 
ENDBRANCH   7   8
ENDBRANCH   1   7
BRANCH   2  10
ATOM     10  O   UNL     1      10.438  44.863  59.565  1.00  0.00    -0.385 OA
ATOM     11  H   UNL     1      10.499  45.611  58.915  1.00  0.00     0.211 HD
ENDBRANCH   2  10
BRANCH   3  12
ATOM     12  O   UNL     1      10.425  42.837  56.562  1.00  0.00    -0.387 OA
ATOM     13  H   UNL     1       9.661  43.082  55.978  1.00  0.00     0.211 HD
ENDBRANCH   3  12
BRANCH   5  14
ATOM     14  C   UNL     1      14.587  43.659  57.881  1.00  0.00     0.191 C 
BRANCH  14  15
ATOM     15  O   UNL     1      15.075  43.598  56.568  1.00  0.00    -0.394 OA
ATOM     16  H   UNL     1      14.317  43.855  55.981  1.00  0.00     0.210 HD
ENDBRANCH  14  15
ENDBRANCH   5  14
BRANCH   4  17
ATOM     17  O   UNL     1      12.576  44.405  55.838  1.00  0.00    -0.387 OA
ATOM     18  H   UNL     1      12.876  45.337  55.672  1.00  0.00     0.211 HD
ENDBRANCH   4  17
TORSDOF 7
ENDMDL
MODEL 8
REMARK VINA RESULT:    -3.826      7.314      8.821
REMARK INTER + INTRA:          -5.312
REMARK INTER:                  -4.923
REMARK INTRA:                  -0.389
REMARK UNBOUND:                -0.368
REMARK SMILES CCO[C@@H]1O[C@H](CO)[C@@H](O)[C@@H](O)[C@@H]1O
REMARK SMILES IDX 4 1 13 2 11 3 9 4 6 5 5 6 3 7 2 8 1 9 14 10 12 12 7 14 8 15
REMARK SMILES IDX 10 17
REMARK H PARENT 14 11 12 13 8 16 10 18
REMARK Flexibility Score: inf
ROOT
ATOM      1  C   UNL     1      13.011  34.142  63.861  1.00  0.00     0.281 C 
ATOM      2  C   UNL     1      12.165  34.568  62.648  1.00  0.00     0.202 C 
ATOM      3  C   UNL     1      10.748  34.959  63.110  1.00  0.00     0.179 C 
ATOM      4  C   UNL     1      10.151  33.850  64.003  1.00  0.00     0.177 C 
ATOM      5  C   UNL     1      11.162  33.455  65.109  1.00  0.00     0.178 C 
ATOM      6  O   UNL     1      12.390  33.053  64.526  1.00  0.00    -0.341 OA
ENDROOT
BRANCH   1   7
ATOM      7  O   UNL     1      14.285  33.738  63.395  1.00  0.00    -0.350 OA
BRANCH   7   8
ATOM      8  C   UNL     1      15.053  34.853  62.978  1.00  0.00     0.160 C 
ATOM      9  C   UNL     1      15.512  35.658  64.188  1.00  0.00     0.035 C 
ENDBRANCH   7   8
ENDBRANCH   1   7
BRANCH   2  10
ATOM     10  O   UNL     1      12.096  33.507  61.728  1.00  0.00    -0.385 OA
ATOM     11  H   UNL     1      11.924  32.683  62.253  1.00  0.00     0.211 HD
ENDBRANCH   2  10
BRANCH   3  12
ATOM     12  O   UNL     1      10.813  36.175  63.814  1.00  0.00    -0.387 OA
ATOM     13  H   UNL     1      11.642  36.636  63.525  1.00  0.00     0.211 HD
ENDBRANCH   3  12
BRANCH   5  14
ATOM     14  C   UNL     1      10.638  32.287  65.956  1.00  0.00     0.191 C 
BRANCH  14  15
ATOM     15  O   UNL     1       9.719  31.522  65.224  1.00  0.00    -0.394 OA
ATOM     16  H   UNL     1       9.139  31.076  65.894  1.00  0.00     0.210 HD
ENDBRANCH  14  15
ENDBRANCH   5  14
BRANCH   4  17
ATOM     17  O   UNL     1       8.948  34.291  64.580  1.00  0.00    -0.387 OA
ATOM     18  H   UNL     1       8.451  34.774  63.868  1.00  0.00     0.211 HD
ENDBRANCH   4  17
TORSDOF 7
ENDMDL
MODEL 9
REMARK VINA RESULT:    -3.700      8.088      9.860
REMARK INTER + INTRA:          -5.149
REMARK INTER:                  -4.781
REMARK INTRA:                  -0.368
REMARK UNBOUND:                -0.368
REMARK SMILES CCO[C@@H]1O[C@H](CO)[C@@H](O)[C@@H](O)[C@@H]1O
REMARK SMILES IDX 4 1 13 2 11 3 9 4 6 5 5 6 3 7 2 8 1 9 14 10 12 12 7 14 8 15
REMARK SMILES IDX 10 17
REMARK H PARENT 14 11 12 13 8 16 10 18
REMARK Flexibility Score: inf
ROOT
ATOM      1  C   UNL     1      12.081  33.306  62.909  1.00  0.00     0.281 C 
ATOM      2  C   UNL     1      12.221  34.082  64.230  1.00  0.00     0.202 C 
ATOM      3  C   UNL     1      11.758  33.202  65.406  1.00  0.00     0.179 C 
ATOM      4  C   UNL     1      10.365  32.604  65.110  1.00  0.00     0.177 C 
ATOM      5  C   UNL     1      10.352  31.954  63.704  1.00  0.00     0.178 C 
ATOM      6  O   UNL     1      10.732  32.905  62.724  1.00  0.00    -0.341 OA
ENDROOT
BRANCH   1   7
ATOM      7  O   UNL     1      12.463  34.160  61.847  1.00  0.00    -0.350 OA
BRANCH   7   8
ATOM      8  C   UNL     1      13.780  33.874  61.410  1.00  0.00     0.160 C 
ATOM      9  C   UNL     1      14.018  32.369  61.409  1.00  0.00     0.035 C 
ENDBRANCH   7   8
ENDBRANCH   1   7
BRANCH   2  10
ATOM     10  O   UNL     1      11.447  35.254  64.170  1.00  0.00    -0.385 OA
ATOM     11  H   UNL     1      11.123  35.431  65.091  1.00  0.00     0.211 HD
ENDBRANCH   2  10
BRANCH   3  12
ATOM     12  O   UNL     1      12.698  32.177  65.613  1.00  0.00    -0.387 OA
ATOM     13  H   UNL     1      12.962  32.211  66.569  1.00  0.00     0.211 HD
ENDBRANCH   3  12
BRANCH   5  14
ATOM     14  C   UNL     1       8.955  31.435  63.339  1.00  0.00     0.191 C 
BRANCH  14  15
ATOM     15  O   UNL     1       8.580  30.389  64.195  1.00  0.00    -0.394 OA
ATOM     16  H   UNL     1       8.444  29.595  63.616  1.00  0.00     0.210 HD
ENDBRANCH  14  15
ENDBRANCH   5  14
BRANCH   4  17
ATOM     17  O   UNL     1      10.032  31.652  66.089  1.00  0.00    -0.387 OA
ATOM     18  H   UNL     1       9.040  31.604  66.114  1.00  0.00     0.211 HD
ENDBRANCH   4  17
TORSDOF 7
ENDMDL
