MODEL 1
REMARK VINA RESULT:    -6.333      0.000      0.000
REMARK INTER + INTRA:         -13.469
REMARK INTER:                 -10.961
REMARK INTRA:                  -2.508
REMARK UNBOUND:                -2.508
REMARK SMILES OC[C@@H]1O[C@@H](O[C@H]2[C@@H](O)[C@@H](O)[C@H](O[C@@H]3[C@H](O)[C@@H](O)[C@H](O)O[C@@H]3CO)O[C@@H]2CO)[C@H](O)[C@@H](O)[C@H]1O
REMARK SMILES IDX 7 1 26 2 25 3 12 4 10 5 8 6 6 7 5 8 3 9 33 10 4 11 31 12
REMARK SMILES IDX 29 13 2 14 1 15 34 17 32 19 30 21 27 23 28 24 9 26 11 28
REMARK SMILES IDX 13 30 14 31 22 32 15 33 21 34 17 35 19 36 23 37 24 38 16 40
REMARK SMILES IDX 18 42 20 44
REMARK H PARENT 1 16 34 18 32 20 30 22 28 25 9 27 11 29 24 39 16 41 18 43
REMARK H PARENT 20 45
REMARK Flexibility Score: inf
ROOT
ATOM      1  C   UNL     1     -28.701  30.102 -39.643  1.00  0.00     0.184 C 
ATOM      2  C   UNL     1     -27.879  29.104 -40.497  1.00  0.00     0.178 C 
ATOM      3  O   UNL     1     -26.745  28.593 -39.800  1.00  0.00    -0.341 OA
ATOM      4  C   UNL     1     -25.857  29.587 -39.308  1.00  0.00     0.282 C 
ATOM      5  C   UNL     1     -26.559  30.609 -38.386  1.00  0.00     0.202 C 
ATOM      6  C   UNL     1     -27.779  31.213 -39.101  1.00  0.00     0.180 C 
ENDROOT
BRANCH   1   7
ATOM      7  O   UNL     1     -29.289  29.405 -38.555  1.00  0.00    -0.341 OA
BRANCH   7   8
ATOM      8  C   UNL     1     -30.711  29.454 -38.566  1.00  0.00     0.282 C 
ATOM      9  C   UNL     1     -30.758  30.354 -36.389  1.00  0.00     0.178 C 
ATOM     10  C   UNL     1     -31.345  29.047 -35.779  1.00  0.00     0.177 C 
ATOM     11  O   UNL     1     -31.180  30.511 -37.738  1.00  0.00    -0.341 OA
ATOM     12  C   UNL     1     -30.956  27.822 -36.637  1.00  0.00     0.179 C 
ATOM     13  C   UNL     1     -31.285  28.097 -38.116  1.00  0.00     0.202 C 
BRANCH   9  14
ATOM     14  C   UNL     1     -31.223  31.596 -35.609  1.00  0.00     0.191 C 
BRANCH  14  15
ATOM     15  O   UNL     1     -32.373  31.320 -34.853  1.00  0.00    -0.394 OA
ATOM     16  H   UNL     1     -33.099  31.890 -35.220  1.00  0.00     0.210 HD
ENDBRANCH  14  15
ENDBRANCH   9  14
BRANCH  10  17
ATOM     17  O   UNL     1     -30.952  28.860 -34.440  1.00  0.00    -0.387 OA
ATOM     18  H   UNL     1     -30.025  28.499 -34.447  1.00  0.00     0.211 HD
ENDBRANCH  10  17
BRANCH  12  19
ATOM     19  O   UNL     1     -29.582  27.548 -36.514  1.00  0.00    -0.387 OA
ATOM     20  H   UNL     1     -29.352  27.628 -35.549  1.00  0.00     0.211 HD
ENDBRANCH  12  19
BRANCH  13  21
ATOM     21  O   UNL     1     -32.678  28.101 -38.306  1.00  0.00    -0.385 OA
ATOM     22  H   UNL     1     -32.992  27.164 -38.169  1.00  0.00     0.211 HD
ENDBRANCH  13  21
ENDBRANCH   7   8
ENDBRANCH   1   7
BRANCH   2  23
ATOM     23  C   UNL     1     -27.544  29.606 -41.914  1.00  0.00     0.191 C 
BRANCH  23  24
ATOM     24  O   UNL     1     -27.458  28.519 -42.797  1.00  0.00    -0.394 OA
ATOM     25  H   UNL     1     -26.784  28.774 -43.484  1.00  0.00     0.210 HD
ENDBRANCH  23  24
ENDBRANCH   2  23
BRANCH   6  26
ATOM     26  O   UNL     1     -28.469  32.113 -38.265  1.00  0.00    -0.387 OA
ATOM     27  H   UNL     1     -28.204  33.037 -38.508  1.00  0.00     0.211 HD
ENDBRANCH   6  26
BRANCH   5  28
ATOM     28  O   UNL     1     -26.944  29.994 -37.180  1.00  0.00    -0.385 OA
ATOM     29  H   UNL     1     -27.127  29.038 -37.389  1.00  0.00     0.211 HD
ENDBRANCH   5  28
BRANCH   4  30
ATOM     30  O   UNL     1     -25.220  30.255 -40.388  1.00  0.00    -0.341 OA
BRANCH  30  31
ATOM     31  C   UNL     1     -23.814  30.353 -40.212  1.00  0.00     0.184 C 
ATOM     32  C   UNL     1     -23.086  29.174 -40.921  1.00  0.00     0.178 C 
ATOM     33  C   UNL     1     -23.342  31.746 -40.673  1.00  0.00     0.180 C 
ATOM     34  O   UNL     1     -21.676  29.334 -41.038  1.00  0.00    -0.342 OA
ATOM     35  C   UNL     1     -21.810  31.798 -40.858  1.00  0.00     0.201 C 
ATOM     36  C   UNL     1     -21.270  30.563 -41.617  1.00  0.00     0.279 C 
BRANCH  32  37
ATOM     37  C   UNL     1     -23.747  28.629 -42.210  1.00  0.00     0.191 C 
BRANCH  37  38
ATOM     38  O   UNL     1     -24.747  27.686 -41.938  1.00  0.00    -0.394 OA
ATOM     39  H   UNL     1     -24.862  27.154 -42.762  1.00  0.00     0.210 HD
ENDBRANCH  37  38
ENDBRANCH  32  37
BRANCH  33  40
ATOM     40  O   UNL     1     -24.055  32.219 -41.793  1.00  0.00    -0.387 OA
ATOM     41  H   UNL     1     -24.865  32.699 -41.485  1.00  0.00     0.211 HD
ENDBRANCH  33  40
BRANCH  35  42
ATOM     42  O   UNL     1     -21.205  31.865 -39.590  1.00  0.00    -0.385 OA
ATOM     43  H   UNL     1     -20.378  31.318 -39.634  1.00  0.00     0.211 HD
ENDBRANCH  35  42
BRANCH  36  44
ATOM     44  O   UNL     1     -21.589  30.597 -42.982  1.00  0.00    -0.366 OA
ATOM     45  H   UNL     1     -22.268  29.886 -43.144  1.00  0.00     0.213 HD
ENDBRANCH  36  44
ENDBRANCH  30  31
ENDBRANCH   4  30
TORSDOF 18
ENDMDL
MODEL 2
REMARK VINA RESULT:    -6.076      2.380      5.421
REMARK INTER + INTRA:         -13.023
REMARK INTER:                 -10.232
REMARK INTRA:                  -2.791
REMARK UNBOUND:                -2.508
REMARK SMILES OC[C@@H]1O[C@@H](O[C@H]2[C@@H](O)[C@@H](O)[C@H](O[C@@H]3[C@H](O)[C@@H](O)[C@H](O)O[C@@H]3CO)O[C@@H]2CO)[C@H](O)[C@@H](O)[C@H]1O
REMARK SMILES IDX 7 1 26 2 25 3 12 4 10 5 8 6 6 7 5 8 3 9 33 10 4 11 31 12
REMARK SMILES IDX 29 13 2 14 1 15 34 17 32 19 30 21 27 23 28 24 9 26 11 28
REMARK SMILES IDX 13 30 14 31 22 32 15 33 21 34 17 35 19 36 23 37 24 38 16 40
REMARK SMILES IDX 18 42 20 44
REMARK H PARENT 1 16 34 18 32 20 30 22 28 25 9 27 11 29 24 39 16 41 18 43
REMARK H PARENT 20 45
REMARK Flexibility Score: inf
ROOT
ATOM      1  C   UNL     1     -24.736  29.599 -39.068  1.00  0.00     0.184 C 
ATOM      2  C   UNL     1     -24.089  30.769 -38.284  1.00  0.00     0.178 C 
ATOM      3  O   UNL     1     -23.859  31.914 -39.101  1.00  0.00    -0.341 OA
ATOM      4  C   UNL     1     -23.069  31.667 -40.255  1.00  0.00     0.282 C 
ATOM      5  C   UNL     1     -23.656  30.556 -41.153  1.00  0.00     0.202 C 
ATOM      6  C   UNL     1     -23.899  29.283 -40.325  1.00  0.00     0.180 C 
ENDROOT
BRANCH   1   7
ATOM      7  O   UNL     1     -26.048  29.975 -39.459  1.00  0.00    -0.341 OA
BRANCH   7   8
ATOM      8  C   UNL     1     -27.043  29.062 -39.011  1.00  0.00     0.282 C 
ATOM      9  C   UNL     1     -27.824  28.738 -41.211  1.00  0.00     0.178 C 
ATOM     10  C   UNL     1     -29.157  29.493 -40.931  1.00  0.00     0.177 C 
ATOM     11  O   UNL     1     -27.344  28.113 -40.028  1.00  0.00    -0.341 OA
ATOM     12  C   UNL     1     -28.974  30.517 -39.788  1.00  0.00     0.179 C 
ATOM     13  C   UNL     1     -28.305  29.834 -38.580  1.00  0.00     0.202 C 
BRANCH   9  14
ATOM     14  C   UNL     1     -28.012  27.642 -42.274  1.00  0.00     0.191 C 
BRANCH  14  15
ATOM     15  O   UNL     1     -26.805  27.360 -42.932  1.00  0.00    -0.394 OA
ATOM     16  H   UNL     1     -26.097  27.877 -42.463  1.00  0.00     0.210 HD
ENDBRANCH  14  15
ENDBRANCH   9  14
BRANCH  10  17
ATOM     17  O   UNL     1     -29.665  30.123 -42.084  1.00  0.00    -0.387 OA
ATOM     18  H   UNL     1     -29.086  30.908 -42.277  1.00  0.00     0.211 HD
ENDBRANCH  10  17
BRANCH  12  19
ATOM     19  O   UNL     1     -28.173  31.592 -40.209  1.00  0.00    -0.387 OA
ATOM     20  H   UNL     1     -27.622  31.267 -40.972  1.00  0.00     0.211 HD
ENDBRANCH  12  19
BRANCH  13  21
ATOM     21  O   UNL     1     -29.206  28.941 -37.973  1.00  0.00    -0.385 OA
ATOM     22  H   UNL     1     -30.113  29.157 -38.329  1.00  0.00     0.211 HD
ENDBRANCH  13  21
ENDBRANCH   7   8
ENDBRANCH   1   7
BRANCH   2  23
ATOM     23  C   UNL     1     -22.862  30.367 -37.444  1.00  0.00     0.191 C 
BRANCH  23  24
ATOM     24  O   UNL     1     -22.241  31.514 -36.928  1.00  0.00    -0.394 OA
ATOM     25  H   UNL     1     -21.526  31.757 -37.575  1.00  0.00     0.210 HD
ENDBRANCH  23  24
ENDBRANCH   2  23
BRANCH   6  26
ATOM     26  O   UNL     1     -24.481  28.266 -41.107  1.00  0.00    -0.387 OA
ATOM     27  H   UNL     1     -23.774  27.619 -41.362  1.00  0.00     0.211 HD
ENDBRANCH   6  26
BRANCH   5  28
ATOM     28  O   UNL     1     -24.852  30.994 -41.753  1.00  0.00    -0.385 OA
ATOM     29  H   UNL     1     -25.361  31.488 -41.055  1.00  0.00     0.211 HD
ENDBRANCH   5  28
BRANCH   4  30
ATOM     30  O   UNL     1     -21.737  31.345 -39.879  1.00  0.00    -0.341 OA
BRANCH  30  31
ATOM     31  C   UNL     1     -20.777  31.859 -40.791  1.00  0.00     0.184 C 
ATOM     32  C   UNL     1     -19.717  32.722 -40.045  1.00  0.00     0.178 C 
ATOM     33  C   UNL     1     -20.174  30.695 -41.602  1.00  0.00     0.180 C 
ATOM     34  O   UNL     1     -18.567  33.047 -40.820  1.00  0.00    -0.342 OA
ATOM     35  C   UNL     1     -18.884  31.117 -42.336  1.00  0.00     0.201 C 
ATOM     36  C   UNL     1     -17.934  31.932 -41.428  1.00  0.00     0.279 C 
BRANCH  32  37
ATOM     37  C   UNL     1     -19.375  32.299 -38.597  1.00  0.00     0.191 C 
BRANCH  37  38
ATOM     38  O   UNL     1     -19.508  30.918 -38.400  1.00  0.00    -0.394 OA
ATOM     39  H   UNL     1     -18.852  30.486 -39.000  1.00  0.00     0.210 HD
ENDBRANCH  37  38
ENDBRANCH  32  37
BRANCH  33  40
ATOM     40  O   UNL     1     -20.022  29.520 -40.837  1.00  0.00    -0.387 OA
ATOM     41  H   UNL     1     -19.864  28.754 -41.444  1.00  0.00     0.211 HD
ENDBRANCH  33  40
BRANCH  35  42
ATOM     42  O   UNL     1     -19.235  31.892 -43.456  1.00  0.00    -0.385 OA
ATOM     43  H   UNL     1     -18.939  32.821 -43.271  1.00  0.00     0.211 HD
ENDBRANCH  35  42
BRANCH  36  44
ATOM     44  O   UNL     1     -17.305  31.134 -40.462  1.00  0.00    -0.366 OA
ATOM     45  H   UNL     1     -16.690  30.516 -40.945  1.00  0.00     0.213 HD
ENDBRANCH  36  44
ENDBRANCH  30  31
ENDBRANCH   4  30
TORSDOF 18
ENDMDL
MODEL 3
REMARK VINA RESULT:    -6.046      1.860      8.528
REMARK INTER + INTRA:         -12.971
REMARK INTER:                 -10.173
REMARK INTRA:                  -2.798
REMARK UNBOUND:                -2.508
REMARK SMILES OC[C@@H]1O[C@@H](O[C@H]2[C@@H](O)[C@@H](O)[C@H](O[C@@H]3[C@H](O)[C@@H](O)[C@H](O)O[C@@H]3CO)O[C@@H]2CO)[C@H](O)[C@@H](O)[C@H]1O
REMARK SMILES IDX 7 1 26 2 25 3 12 4 10 5 8 6 6 7 5 8 3 9 33 10 4 11 31 12
REMARK SMILES IDX 29 13 2 14 1 15 34 17 32 19 30 21 27 23 28 24 9 26 11 28
REMARK SMILES IDX 13 30 14 31 22 32 15 33 21 34 17 35 19 36 23 37 24 38 16 40
REMARK SMILES IDX 18 42 20 44
REMARK H PARENT 1 16 34 18 32 20 30 22 28 25 9 27 11 29 24 39 16 41 18 43
REMARK H PARENT 20 45
REMARK Flexibility Score: inf
ROOT
ATOM      1  C   UNL     1     -25.220  30.257 -41.476  1.00  0.00     0.184 C 
ATOM      2  C   UNL     1     -26.017  31.447 -40.882  1.00  0.00     0.178 C 
ATOM      3  O   UNL     1     -26.197  31.335 -39.472  1.00  0.00    -0.341 OA
ATOM      4  C   UNL     1     -26.822  30.131 -39.050  1.00  0.00     0.282 C 
ATOM      5  C   UNL     1     -26.074  28.869 -39.533  1.00  0.00     0.202 C 
ATOM      6  C   UNL     1     -25.876  28.925 -41.057  1.00  0.00     0.180 C 
ENDROOT
BRANCH   1   7
ATOM      7  O   UNL     1     -23.889  30.301 -40.984  1.00  0.00    -0.341 OA
BRANCH   7   8
ATOM      8  C   UNL     1     -23.281  31.578 -41.142  1.00  0.00     0.282 C 
ATOM      9  C   UNL     1     -21.186  30.594 -41.586  1.00  0.00     0.178 C 
ATOM     10  C   UNL     1     -20.588  31.074 -40.232  1.00  0.00     0.177 C 
ATOM     11  O   UNL     1     -22.183  31.500 -42.043  1.00  0.00    -0.341 OA
ATOM     12  C   UNL     1     -21.703  31.261 -39.178  1.00  0.00     0.179 C 
ATOM     13  C   UNL     1     -22.837  32.119 -39.769  1.00  0.00     0.202 C 
BRANCH   9  14
ATOM     14  C   UNL     1     -20.105  30.502 -42.677  1.00  0.00     0.191 C 
BRANCH  14  15
ATOM     15  O   UNL     1     -19.153  31.524 -42.535  1.00  0.00    -0.394 OA
ATOM     16  H   UNL     1     -18.879  31.788 -43.453  1.00  0.00     0.210 HD
ENDBRANCH  14  15
ENDBRANCH   9  14
BRANCH  10  17
ATOM     17  O   UNL     1     -19.592  30.201 -39.750  1.00  0.00    -0.387 OA
ATOM     18  H   UNL     1     -19.737  30.092 -38.772  1.00  0.00     0.211 HD
ENDBRANCH  10  17
BRANCH  12  19
ATOM     19  O   UNL     1     -22.225  30.017 -38.783  1.00  0.00    -0.387 OA
ATOM     20  H   UNL     1     -22.975  29.803 -39.402  1.00  0.00     0.211 HD
ENDBRANCH  12  19
BRANCH  13  21
ATOM     21  O   UNL     1     -22.407  33.450 -39.916  1.00  0.00    -0.385 OA
ATOM     22  H   UNL     1     -21.773  33.466 -40.686  1.00  0.00     0.211 HD
ENDBRANCH  13  21
ENDBRANCH   7   8
ENDBRANCH   1   7
BRANCH   2  23
ATOM     23  C   UNL     1     -27.319  31.777 -41.634  1.00  0.00     0.191 C 
BRANCH  23  24
ATOM     24  O   UNL     1     -28.011  32.797 -40.965  1.00  0.00    -0.394 OA
ATOM     25  H   UNL     1     -27.317  33.397 -40.581  1.00  0.00     0.210 HD
ENDBRANCH  23  24
ENDBRANCH   2  23
BRANCH   6  26
ATOM     26  O   UNL     1     -25.151  27.810 -41.521  1.00  0.00    -0.387 OA
ATOM     27  H   UNL     1     -25.110  27.135 -40.795  1.00  0.00     0.211 HD
ENDBRANCH   6  26
BRANCH   5  28
ATOM     28  O   UNL     1     -24.834  28.755 -38.875  1.00  0.00    -0.385 OA
ATOM     29  H   UNL     1     -24.736  29.564 -38.303  1.00  0.00     0.211 HD
ENDBRANCH   5  28
BRANCH   4  30
ATOM     30  O   UNL     1     -28.174  30.100 -39.488  1.00  0.00    -0.341 OA
BRANCH  30  31
ATOM     31  C   UNL     1     -29.034  29.474 -38.547  1.00  0.00     0.184 C 
ATOM     32  C   UNL     1     -29.753  30.538 -37.666  1.00  0.00     0.178 C 
ATOM     33  C   UNL     1     -29.996  28.527 -39.292  1.00  0.00     0.180 C 
ATOM     34  O   UNL     1     -30.834  30.030 -36.890  1.00  0.00    -0.342 OA
ATOM     35  C   UNL     1     -31.182  28.102 -38.401  1.00  0.00     0.201 C 
ATOM     36  C   UNL     1     -31.795  29.296 -37.632  1.00  0.00     0.279 C 
BRANCH  32  37
ATOM     37  C   UNL     1     -30.070  31.894 -38.340  1.00  0.00     0.191 C 
BRANCH  37  38
ATOM     38  O   UNL     1     -30.452  31.746 -39.679  1.00  0.00    -0.394 OA
ATOM     39  H   UNL     1     -29.985  32.455 -40.185  1.00  0.00     0.210 HD
ENDBRANCH  37  38
ENDBRANCH  32  37
BRANCH  33  40
ATOM     40  O   UNL     1     -30.394  29.033 -40.546  1.00  0.00    -0.387 OA
ATOM     41  H   UNL     1     -31.184  29.617 -40.427  1.00  0.00     0.211 HD
ENDBRANCH  33  40
BRANCH  35  42
ATOM     42  O   UNL     1     -30.733  27.137 -37.481  1.00  0.00    -0.385 OA
ATOM     43  H   UNL     1     -29.743  27.209 -37.445  1.00  0.00     0.211 HD
ENDBRANCH  35  42
BRANCH  36  44
ATOM     44  O   UNL     1     -32.531  30.146 -38.468  1.00  0.00    -0.366 OA
ATOM     45  H   UNL     1     -33.155  30.663 -37.888  1.00  0.00     0.213 HD
ENDBRANCH  36  44
ENDBRANCH  30  31
ENDBRANCH   4  30
TORSDOF 18
ENDMDL
MODEL 4
REMARK VINA RESULT:    -6.000      1.798      3.332
REMARK INTER + INTRA:         -12.893
REMARK INTER:                 -10.123
REMARK INTRA:                  -2.770
REMARK UNBOUND:                -2.508
REMARK SMILES OC[C@@H]1O[C@@H](O[C@H]2[C@@H](O)[C@@H](O)[C@H](O[C@@H]3[C@H](O)[C@@H](O)[C@H](O)O[C@@H]3CO)O[C@@H]2CO)[C@H](O)[C@@H](O)[C@H]1O
REMARK SMILES IDX 7 1 26 2 25 3 12 4 10 5 8 6 6 7 5 8 3 9 33 10 4 11 31 12
REMARK SMILES IDX 29 13 2 14 1 15 34 17 32 19 30 21 27 23 28 24 9 26 11 28
REMARK SMILES IDX 13 30 14 31 22 32 15 33 21 34 17 35 19 36 23 37 24 38 16 40
REMARK SMILES IDX 18 42 20 44
REMARK H PARENT 1 16 34 18 32 20 30 22 28 25 9 27 11 29 24 39 16 41 18 43
REMARK H PARENT 20 45
REMARK Flexibility Score: inf
ROOT
ATOM      1  C   UNL     1     -29.372  28.614 -38.051  1.00  0.00     0.184 C 
ATOM      2  C   UNL     1     -28.063  28.432 -37.243  1.00  0.00     0.178 C 
ATOM      3  O   UNL     1     -27.398  29.669 -36.992  1.00  0.00    -0.341 OA
ATOM      4  C   UNL     1     -27.096  30.423 -38.157  1.00  0.00     0.282 C 
ATOM      5  C   UNL     1     -28.346  30.723 -39.015  1.00  0.00     0.202 C 
ATOM      6  C   UNL     1     -29.088  29.416 -39.338  1.00  0.00     0.180 C 
ENDROOT
BRANCH   1   7
ATOM      7  O   UNL     1     -30.313  29.320 -37.255  1.00  0.00    -0.341 OA
BRANCH   7   8
ATOM      8  C   UNL     1     -30.423  28.802 -35.935  1.00  0.00     0.282 C 
ATOM      9  C   UNL     1     -32.725  29.301 -35.865  1.00  0.00     0.178 C 
ATOM     10  C   UNL     1     -32.525  30.440 -34.823  1.00  0.00     0.177 C 
ATOM     11  O   UNL     1     -31.732  28.295 -35.705  1.00  0.00    -0.341 OA
ATOM     12  C   UNL     1     -31.102  31.033 -34.930  1.00  0.00     0.179 C 
ATOM     13  C   UNL     1     -30.062  29.897 -34.912  1.00  0.00     0.202 C 
BRANCH   9  14
ATOM     14  C   UNL     1     -34.099  28.628 -35.704  1.00  0.00     0.191 C 
BRANCH  14  15
ATOM     15  O   UNL     1     -34.627  28.851 -34.423  1.00  0.00    -0.394 OA
ATOM     16  H   UNL     1     -35.591  29.059 -34.545  1.00  0.00     0.210 HD
ENDBRANCH  14  15
ENDBRANCH   9  14
BRANCH  10  17
ATOM     17  O   UNL     1     -33.495  31.454 -34.949  1.00  0.00    -0.387 OA
ATOM     18  H   UNL     1     -33.045  32.323 -34.767  1.00  0.00     0.211 HD
ENDBRANCH  10  17
BRANCH  12  19
ATOM     19  O   UNL     1     -30.959  31.768 -36.120  1.00  0.00    -0.387 OA
ATOM     20  H   UNL     1     -30.854  31.111 -36.860  1.00  0.00     0.211 HD
ENDBRANCH  12  19
BRANCH  13  21
ATOM     21  O   UNL     1     -29.998  29.324 -33.629  1.00  0.00    -0.385 OA
ATOM     22  H   UNL     1     -29.148  28.804 -33.586  1.00  0.00     0.211 HD
ENDBRANCH  13  21
ENDBRANCH   7   8
ENDBRANCH   1   7
BRANCH   2  23
ATOM     23  C   UNL     1     -27.125  27.341 -37.791  1.00  0.00     0.191 C 
BRANCH  23  24
ATOM     24  O   UNL     1     -25.953  27.288 -37.022  1.00  0.00    -0.394 OA
ATOM     25  H   UNL     1     -25.417  28.086 -37.280  1.00  0.00     0.210 HD
ENDBRANCH  23  24
ENDBRANCH   2  23
BRANCH   6  26
ATOM     26  O   UNL     1     -30.261  29.662 -40.078  1.00  0.00    -0.387 OA
ATOM     27  H   UNL     1     -30.670  30.504 -39.751  1.00  0.00     0.211 HD
ENDBRANCH   6  26
BRANCH   5  28
ATOM     28  O   UNL     1     -29.194  31.623 -38.343  1.00  0.00    -0.385 OA
ATOM     29  H   UNL     1     -29.469  31.182 -37.494  1.00  0.00     0.211 HD
ENDBRANCH   5  28
BRANCH   4  30
ATOM     30  O   UNL     1     -26.114  29.754 -38.935  1.00  0.00    -0.341 OA
BRANCH  30  31
ATOM     31  C   UNL     1     -25.189  30.651 -39.532  1.00  0.00     0.184 C 
ATOM     32  C   UNL     1     -23.984  30.912 -38.581  1.00  0.00     0.178 C 
ATOM     33  C   UNL     1     -24.786  30.116 -40.919  1.00  0.00     0.180 C 
ATOM     34  O   UNL     1     -22.879  31.571 -39.194  1.00  0.00    -0.342 OA
ATOM     35  C   UNL     1     -23.528  30.826 -41.463  1.00  0.00     0.201 C 
ATOM     36  C   UNL     1     -22.422  30.961 -40.390  1.00  0.00     0.279 C 
BRANCH  32  37
ATOM     37  C   UNL     1     -23.562  29.741 -37.663  1.00  0.00     0.191 C 
BRANCH  37  38
ATOM     38  O   UNL     1     -23.690  28.497 -38.294  1.00  0.00    -0.394 OA
ATOM     39  H   UNL     1     -24.343  28.620 -39.025  1.00  0.00     0.210 HD
ENDBRANCH  37  38
ENDBRANCH  32  37
BRANCH  33  40
ATOM     40  O   UNL     1     -24.690  28.710 -40.952  1.00  0.00    -0.387 OA
ATOM     41  H   UNL     1     -24.575  28.369 -40.030  1.00  0.00     0.211 HD
ENDBRANCH  33  40
BRANCH  35  42
ATOM     42  O   UNL     1     -23.894  32.107 -41.916  1.00  0.00    -0.385 OA
ATOM     43  H   UNL     1     -24.093  32.026 -42.885  1.00  0.00     0.211 HD
ENDBRANCH  35  42
BRANCH  36  44
ATOM     44  O   UNL     1     -21.796  29.737 -40.114  1.00  0.00    -0.366 OA
ATOM     45  H   UNL     1     -21.204  29.879 -39.327  1.00  0.00     0.213 HD
ENDBRANCH  36  44
ENDBRANCH  30  31
ENDBRANCH   4  30
TORSDOF 18
ENDMDL
MODEL 5
REMARK VINA RESULT:    -5.969      1.736      2.158
REMARK INTER + INTRA:         -12.838
REMARK INTER:                 -10.080
REMARK INTRA:                  -2.758
REMARK UNBOUND:                -2.508
REMARK SMILES OC[C@@H]1O[C@@H](O[C@H]2[C@@H](O)[C@@H](O)[C@H](O[C@@H]3[C@H](O)[C@@H](O)[C@H](O)O[C@@H]3CO)O[C@@H]2CO)[C@H](O)[C@@H](O)[C@H]1O
REMARK SMILES IDX 7 1 26 2 25 3 12 4 10 5 8 6 6 7 5 8 3 9 33 10 4 11 31 12
REMARK SMILES IDX 29 13 2 14 1 15 34 17 32 19 30 21 27 23 28 24 9 26 11 28
REMARK SMILES IDX 13 30 14 31 22 32 15 33 21 34 17 35 19 36 23 37 24 38 16 40
REMARK SMILES IDX 18 42 20 44
REMARK H PARENT 1 16 34 18 32 20 30 22 28 25 9 27 11 29 24 39 16 41 18 43
REMARK H PARENT 20 45
REMARK Flexibility Score: inf
ROOT
ATOM      1  C   UNL     1     -27.857  29.779 -40.544  1.00  0.00     0.184 C 
ATOM      2  C   UNL     1     -26.763  28.682 -40.579  1.00  0.00     0.178 C 
ATOM      3  O   UNL     1     -25.985  28.647 -39.385  1.00  0.00    -0.341 OA
ATOM      4  C   UNL     1     -25.363  29.878 -39.049  1.00  0.00     0.282 C 
ATOM      5  C   UNL     1     -26.372  31.042 -38.923  1.00  0.00     0.202 C 
ATOM      6  C   UNL     1     -27.223  31.142 -40.200  1.00  0.00     0.180 C 
ENDROOT
BRANCH   1   7
ATOM      7  O   UNL     1     -28.817  29.443 -39.554  1.00  0.00    -0.341 OA
BRANCH   7   8
ATOM      8  C   UNL     1     -29.600  28.307 -39.901  1.00  0.00     0.282 C 
ATOM      9  C   UNL     1     -31.084  28.706 -38.115  1.00  0.00     0.178 C 
ATOM     10  C   UNL     1     -30.593  27.455 -37.327  1.00  0.00     0.177 C 
ATOM     11  O   UNL     1     -30.956  28.498 -39.516  1.00  0.00    -0.341 OA
ATOM     12  C   UNL     1     -29.139  27.104 -37.713  1.00  0.00     0.179 C 
ATOM     13  C   UNL     1     -29.007  27.044 -39.247  1.00  0.00     0.202 C 
BRANCH   9  14
ATOM     14  C   UNL     1     -32.563  29.009 -37.822  1.00  0.00     0.191 C 
BRANCH  14  15
ATOM     15  O   UNL     1     -33.271  27.835 -37.519  1.00  0.00    -0.394 OA
ATOM     16  H   UNL     1     -32.593  27.140 -37.307  1.00  0.00     0.210 HD
ENDBRANCH  14  15
ENDBRANCH   9  14
BRANCH  10  17
ATOM     17  O   UNL     1     -30.709  27.623 -35.934  1.00  0.00    -0.387 OA
ATOM     18  H   UNL     1     -31.629  27.954 -35.747  1.00  0.00     0.211 HD
ENDBRANCH  10  17
BRANCH  12  19
ATOM     19  O   UNL     1     -28.246  28.067 -37.213  1.00  0.00    -0.387 OA
ATOM     20  H   UNL     1     -28.335  28.876 -37.787  1.00  0.00     0.211 HD
ENDBRANCH  12  19
BRANCH  13  21
ATOM     21  O   UNL     1     -29.678  25.911 -39.743  1.00  0.00    -0.385 OA
ATOM     22  H   UNL     1     -30.565  26.222 -40.075  1.00  0.00     0.211 HD
ENDBRANCH  13  21
ENDBRANCH   7   8
ENDBRANCH   1   7
BRANCH   2  23
ATOM     23  C   UNL     1     -25.908  28.679 -41.860  1.00  0.00     0.191 C 
BRANCH  23  24
ATOM     24  O   UNL     1     -24.925  27.681 -41.775  1.00  0.00    -0.394 OA
ATOM     25  H   UNL     1     -24.714  27.421 -42.712  1.00  0.00     0.210 HD
ENDBRANCH  23  24
ENDBRANCH   2  23
BRANCH   6  26
ATOM     26  O   UNL     1     -28.187  32.163 -40.094  1.00  0.00    -0.387 OA
ATOM     27  H   UNL     1     -28.867  31.888 -39.427  1.00  0.00     0.211 HD
ENDBRANCH   6  26
BRANCH   5  28
ATOM     28  O   UNL     1     -27.192  30.856 -37.793  1.00  0.00    -0.385 OA
ATOM     29  H   UNL     1     -27.993  30.351 -38.098  1.00  0.00     0.211 HD
ENDBRANCH   5  28
BRANCH   4  30
ATOM     30  O   UNL     1     -24.360  30.199 -40.003  1.00  0.00    -0.341 OA
BRANCH  30  31
ATOM     31  C   UNL     1     -23.228  30.821 -39.413  1.00  0.00     0.184 C 
ATOM     32  C   UNL     1     -22.003  29.861 -39.423  1.00  0.00     0.178 C 
ATOM     33  C   UNL     1     -22.970  32.171 -40.112  1.00  0.00     0.180 C 
ATOM     34  O   UNL     1     -20.761  30.484 -39.112  1.00  0.00    -0.342 OA
ATOM     35  C   UNL     1     -21.567  32.724 -39.786  1.00  0.00     0.201 C 
ATOM     36  C   UNL     1     -20.471  31.637 -39.886  1.00  0.00     0.279 C 
BRANCH  32  37
ATOM     37  C   UNL     1     -21.909  28.874 -40.611  1.00  0.00     0.191 C 
BRANCH  37  38
ATOM     38  O   UNL     1     -22.411  29.421 -41.799  1.00  0.00    -0.394 OA
ATOM     39  H   UNL     1     -23.255  29.877 -41.563  1.00  0.00     0.210 HD
ENDBRANCH  37  38
ENDBRANCH  32  37
BRANCH  33  40
ATOM     40  O   UNL     1     -23.245  32.128 -41.494  1.00  0.00    -0.387 OA
ATOM     41  H   UNL     1     -23.813  31.340 -41.689  1.00  0.00     0.211 HD
ENDBRANCH  33  40
BRANCH  35  42
ATOM     42  O   UNL     1     -21.581  33.251 -38.482  1.00  0.00    -0.385 OA
ATOM     43  H   UNL     1     -22.488  33.087 -38.113  1.00  0.00     0.211 HD
ENDBRANCH  35  42
BRANCH  36  44
ATOM     44  O   UNL     1     -20.190  31.284 -41.214  1.00  0.00    -0.366 OA
ATOM     45  H   UNL     1     -21.060  31.085 -41.656  1.00  0.00     0.213 HD
ENDBRANCH  36  44
ENDBRANCH  30  31
ENDBRANCH   4  30
TORSDOF 18
ENDMDL
MODEL 6
REMARK VINA RESULT:    -5.922      2.645      5.475
REMARK INTER + INTRA:         -12.757
REMARK INTER:                 -10.357
REMARK INTRA:                  -2.400
REMARK UNBOUND:                -2.508
REMARK SMILES OC[C@@H]1O[C@@H](O[C@H]2[C@@H](O)[C@@H](O)[C@H](O[C@@H]3[C@H](O)[C@@H](O)[C@H](O)O[C@@H]3CO)O[C@@H]2CO)[C@H](O)[C@@H](O)[C@H]1O
REMARK SMILES IDX 7 1 26 2 25 3 12 4 10 5 8 6 6 7 5 8 3 9 33 10 4 11 31 12
REMARK SMILES IDX 29 13 2 14 1 15 34 17 32 19 30 21 27 23 28 24 9 26 11 28
REMARK SMILES IDX 13 30 14 31 22 32 15 33 21 34 17 35 19 36 23 37 24 38 16 40
REMARK SMILES IDX 18 42 20 44
REMARK H PARENT 1 16 34 18 32 20 30 22 28 25 9 27 11 29 24 39 16 41 18 43
REMARK H PARENT 20 45
REMARK Flexibility Score: inf
ROOT
ATOM      1  C   UNL     1     -31.210  29.128 -35.960  1.00  0.00     0.184 C 
ATOM      2  C   UNL     1     -30.536  30.343 -36.647  1.00  0.00     0.178 C 
ATOM      3  O   UNL     1     -30.857  30.435 -38.033  1.00  0.00    -0.341 OA
ATOM      4  C   UNL     1     -30.547  29.273 -38.789  1.00  0.00     0.282 C 
ATOM      5  C   UNL     1     -31.220  28.000 -38.231  1.00  0.00     0.202 C 
ATOM      6  C   UNL     1     -30.884  27.837 -36.739  1.00  0.00     0.180 C 
ENDROOT
BRANCH   1   7
ATOM      7  O   UNL     1     -32.615  29.326 -35.944  1.00  0.00    -0.341 OA
BRANCH   7   8
ATOM      8  C   UNL     1     -33.015  30.404 -35.106  1.00  0.00     0.282 C 
ATOM      9  C   UNL     1     -35.287  29.821 -35.335  1.00  0.00     0.178 C 
ATOM     10  C   UNL     1     -35.602  31.081 -36.195  1.00  0.00     0.177 C 
ATOM     11  O   UNL     1     -34.224  30.087 -34.428  1.00  0.00    -0.341 OA
ATOM     12  C   UNL     1     -34.336  31.566 -36.937  1.00  0.00     0.179 C 
ATOM     13  C   UNL     1     -33.166  31.689 -35.943  1.00  0.00     0.202 C 
BRANCH   9  14
ATOM     14  C   UNL     1     -36.508  29.386 -34.507  1.00  0.00     0.191 C 
BRANCH  14  15
ATOM     15  O   UNL     1     -36.595  27.987 -34.427  1.00  0.00    -0.394 OA
ATOM     16  H   UNL     1     -37.295  27.707 -35.074  1.00  0.00     0.210 HD
ENDBRANCH  14  15
ENDBRANCH   9  14
BRANCH  10  17
ATOM     17  O   UNL     1     -36.654  30.855 -37.104  1.00  0.00    -0.387 OA
ATOM     18  H   UNL     1     -37.169  30.069 -36.778  1.00  0.00     0.211 HD
ENDBRANCH  10  17
BRANCH  12  19
ATOM     19  O   UNL     1     -33.982  30.663 -37.954  1.00  0.00    -0.387 OA
ATOM     20  H   UNL     1     -33.205  31.056 -38.438  1.00  0.00     0.211 HD
ENDBRANCH  12  19
BRANCH  13  21
ATOM     21  O   UNL     1     -33.382  32.778 -35.080  1.00  0.00    -0.385 OA
ATOM     22  H   UNL     1     -33.059  32.500 -34.177  1.00  0.00     0.211 HD
ENDBRANCH  13  21
ENDBRANCH   7   8
ENDBRANCH   1   7
BRANCH   2  23
ATOM     23  C   UNL     1     -29.028  30.477 -36.364  1.00  0.00     0.191 C 
BRANCH  23  24
ATOM     24  O   UNL     1     -28.498  31.547 -37.100  1.00  0.00    -0.394 OA
ATOM     25  H   UNL     1     -28.806  31.419 -38.037  1.00  0.00     0.210 HD
ENDBRANCH  23  24
ENDBRANCH   2  23
BRANCH   6  26
ATOM     26  O   UNL     1     -31.526  26.711 -36.189  1.00  0.00    -0.387 OA
ATOM     27  H   UNL     1     -31.115  26.512 -35.308  1.00  0.00     0.211 HD
ENDBRANCH   6  26
BRANCH   5  28
ATOM     28  O   UNL     1     -32.614  28.062 -38.421  1.00  0.00    -0.385 OA
ATOM     29  H   UNL     1     -33.006  27.282 -37.943  1.00  0.00     0.211 HD
ENDBRANCH   5  28
BRANCH   4  30
ATOM     30  O   UNL     1     -29.139  29.095 -38.860  1.00  0.00    -0.341 OA
BRANCH  30  31
ATOM     31  C   UNL     1     -28.630  29.310 -40.168  1.00  0.00     0.184 C 
ATOM     32  C   UNL     1     -27.192  29.905 -40.108  1.00  0.00     0.178 C 
ATOM     33  C   UNL     1     -28.730  28.000 -40.974  1.00  0.00     0.180 C 
ATOM     34  O   UNL     1     -26.495  29.896 -41.350  1.00  0.00    -0.342 OA
ATOM     35  C   UNL     1     -27.873  28.051 -42.256  1.00  0.00     0.201 C 
ATOM     36  C   UNL     1     -26.464  28.633 -41.996  1.00  0.00     0.279 C 
BRANCH  32  37
ATOM     37  C   UNL     1     -26.312  29.467 -38.912  1.00  0.00     0.191 C 
BRANCH  37  38
ATOM     38  O   UNL     1     -26.512  28.124 -38.570  1.00  0.00    -0.394 OA
ATOM     39  H   UNL     1     -25.632  27.680 -38.651  1.00  0.00     0.210 HD
ENDBRANCH  37  38
ENDBRANCH  32  37
BRANCH  33  40
ATOM     40  O   UNL     1     -28.486  26.857 -40.185  1.00  0.00    -0.387 OA
ATOM     41  H   UNL     1     -28.496  26.054 -40.764  1.00  0.00     0.211 HD
ENDBRANCH  33  40
BRANCH  35  42
ATOM     42  O   UNL     1     -28.535  28.844 -43.210  1.00  0.00    -0.385 OA
ATOM     43  H   UNL     1     -29.414  28.417 -43.384  1.00  0.00     0.211 HD
ENDBRANCH  35  42
BRANCH  36  44
ATOM     44  O   UNL     1     -25.639  27.740 -41.298  1.00  0.00    -0.366 OA
ATOM     45  H   UNL     1     -24.890  27.493 -41.907  1.00  0.00     0.213 HD
ENDBRANCH  36  44
ENDBRANCH  30  31
ENDBRANCH   4  30
TORSDOF 18
ENDMDL
MODEL 7
REMARK VINA RESULT:    -5.907      1.583      8.153
REMARK INTER + INTRA:         -12.732
REMARK INTER:                  -9.916
REMARK INTRA:                  -2.816
REMARK UNBOUND:                -2.508
REMARK SMILES OC[C@@H]1O[C@@H](O[C@H]2[C@@H](O)[C@@H](O)[C@H](O[C@@H]3[C@H](O)[C@@H](O)[C@H](O)O[C@@H]3CO)O[C@@H]2CO)[C@H](O)[C@@H](O)[C@H]1O
REMARK SMILES IDX 7 1 26 2 25 3 12 4 10 5 8 6 6 7 5 8 3 9 33 10 4 11 31 12
REMARK SMILES IDX 29 13 2 14 1 15 34 17 32 19 30 21 27 23 28 24 9 26 11 28
REMARK SMILES IDX 13 30 14 31 22 32 15 33 21 34 17 35 19 36 23 37 24 38 16 40
REMARK SMILES IDX 18 42 20 44
REMARK H PARENT 1 16 34 18 32 20 30 22 28 25 9 27 11 29 24 39 16 41 18 43
REMARK H PARENT 20 45
REMARK Flexibility Score: inf
ROOT
ATOM      1  C   UNL     1     -26.187  28.866 -39.610  1.00  0.00     0.184 C 
ATOM      2  C   UNL     1     -27.581  28.974 -40.278  1.00  0.00     0.178 C 
ATOM      3  O   UNL     1     -28.243  30.198 -39.969  1.00  0.00    -0.341 OA
ATOM      4  C   UNL     1     -28.400  30.450 -38.580  1.00  0.00     0.282 C 
ATOM      5  C   UNL     1     -27.058  30.431 -37.815  1.00  0.00     0.202 C 
ATOM      6  C   UNL     1     -26.311  29.116 -38.092  1.00  0.00     0.180 C 
ENDROOT
BRANCH   1   7
ATOM      7  O   UNL     1     -25.325  29.842 -40.178  1.00  0.00    -0.341 OA
BRANCH   7   8
ATOM      8  C   UNL     1     -24.051  29.318 -40.532  1.00  0.00     0.282 C 
ATOM      9  C   UNL     1     -22.951  30.966 -39.256  1.00  0.00     0.178 C 
ATOM     10  C   UNL     1     -22.406  31.691 -40.522  1.00  0.00     0.177 C 
ATOM     11  O   UNL     1     -23.103  29.574 -39.503  1.00  0.00    -0.341 OA
ATOM     12  C   UNL     1     -23.325  31.432 -41.737  1.00  0.00     0.179 C 
ATOM     13  C   UNL     1     -23.593  29.922 -41.874  1.00  0.00     0.202 C 
BRANCH   9  14
ATOM     14  C   UNL     1     -21.994  31.125 -38.062  1.00  0.00     0.191 C 
BRANCH  14  15
ATOM     15  O   UNL     1     -22.559  30.609 -36.886  1.00  0.00    -0.394 OA
ATOM     16  H   UNL     1     -22.107  31.066 -36.128  1.00  0.00     0.210 HD
ENDBRANCH  14  15
ENDBRANCH   9  14
BRANCH  10  17
ATOM     17  O   UNL     1     -22.238  33.074 -40.313  1.00  0.00    -0.387 OA
ATOM     18  H   UNL     1     -21.261  33.260 -40.306  1.00  0.00     0.211 HD
ENDBRANCH  10  17
BRANCH  12  19
ATOM     19  O   UNL     1     -24.550  32.104 -41.584  1.00  0.00    -0.387 OA
ATOM     20  H   UNL     1     -24.351  32.986 -41.167  1.00  0.00     0.211 HD
ENDBRANCH  12  19
BRANCH  13  21
ATOM     21  O   UNL     1     -22.425  29.263 -42.300  1.00  0.00    -0.385 OA
ATOM     22  H   UNL     1     -21.761  29.344 -41.560  1.00  0.00     0.211 HD
ENDBRANCH  13  21
ENDBRANCH   7   8
ENDBRANCH   1   7
BRANCH   2  23
ATOM     23  C   UNL     1     -28.475  27.735 -40.083  1.00  0.00     0.191 C 
BRANCH  23  24
ATOM     24  O   UNL     1     -29.774  28.008 -40.538  1.00  0.00    -0.394 OA
ATOM     25  H   UNL     1     -29.669  28.503 -41.395  1.00  0.00     0.210 HD
ENDBRANCH  23  24
ENDBRANCH   2  23
BRANCH   6  26
ATOM     26  O   UNL     1     -25.059  29.091 -37.447  1.00  0.00    -0.387 OA
ATOM     27  H   UNL     1     -24.407  28.639 -38.042  1.00  0.00     0.211 HD
ENDBRANCH   6  26
BRANCH   5  28
ATOM     28  O   UNL     1     -26.270  31.538 -38.185  1.00  0.00    -0.385 OA
ATOM     29  H   UNL     1     -25.319  31.261 -38.084  1.00  0.00     0.211 HD
ENDBRANCH   5  28
BRANCH   4  30
ATOM     30  O   UNL     1     -29.304  29.514 -38.010  1.00  0.00    -0.341 OA
BRANCH  30  31
ATOM     31  C   UNL     1     -30.017  30.051 -36.906  1.00  0.00     0.184 C 
ATOM     32  C   UNL     1     -31.552  30.012 -37.168  1.00  0.00     0.178 C 
ATOM     33  C   UNL     1     -29.585  29.321 -35.619  1.00  0.00     0.180 C 
ATOM     34  O   UNL     1     -32.355  30.267 -36.021  1.00  0.00    -0.342 OA
ATOM     35  C   UNL     1     -30.564  29.586 -34.455  1.00  0.00     0.201 C 
ATOM     36  C   UNL     1     -32.042  29.463 -34.894  1.00  0.00     0.279 C 
BRANCH  32  37
ATOM     37  C   UNL     1     -32.075  28.838 -38.030  1.00  0.00     0.191 C 
BRANCH  37  38
ATOM     38  O   UNL     1     -31.309  27.676 -37.868  1.00  0.00    -0.394 OA
ATOM     39  H   UNL     1     -31.142  27.321 -38.775  1.00  0.00     0.210 HD
ENDBRANCH  37  38
ENDBRANCH  32  37
BRANCH  33  40
ATOM     40  O   UNL     1     -29.329  27.951 -35.832  1.00  0.00    -0.387 OA
ATOM     41  H   UNL     1     -29.846  27.417 -35.177  1.00  0.00     0.211 HD
ENDBRANCH  33  40
BRANCH  35  42
ATOM     42  O   UNL     1     -30.332  30.880 -33.957  1.00  0.00    -0.385 OA
ATOM     43  H   UNL     1     -31.022  31.052 -33.264  1.00  0.00     0.211 HD
ENDBRANCH  35  42
BRANCH  36  44
ATOM     44  O   UNL     1     -32.424  28.132 -35.113  1.00  0.00    -0.366 OA
ATOM     45  H   UNL     1     -33.102  28.137 -35.843  1.00  0.00     0.213 HD
ENDBRANCH  36  44
ENDBRANCH  30  31
ENDBRANCH   4  30
TORSDOF 18
ENDMDL
MODEL 8
REMARK VINA RESULT:    -5.879      1.758      8.377
REMARK INTER + INTRA:         -12.683
REMARK INTER:                 -10.260
REMARK INTRA:                  -2.422
REMARK UNBOUND:                -2.508
REMARK SMILES OC[C@@H]1O[C@@H](O[C@H]2[C@@H](O)[C@@H](O)[C@H](O[C@@H]3[C@H](O)[C@@H](O)[C@H](O)O[C@@H]3CO)O[C@@H]2CO)[C@H](O)[C@@H](O)[C@H]1O
REMARK SMILES IDX 7 1 26 2 25 3 12 4 10 5 8 6 6 7 5 8 3 9 33 10 4 11 31 12
REMARK SMILES IDX 29 13 2 14 1 15 34 17 32 19 30 21 27 23 28 24 9 26 11 28
REMARK SMILES IDX 13 30 14 31 22 32 15 33 21 34 17 35 19 36 23 37 24 38 16 40
REMARK SMILES IDX 18 42 20 44
REMARK H PARENT 1 16 34 18 32 20 30 22 28 25 9 27 11 29 24 39 16 41 18 43
REMARK H PARENT 20 45
REMARK Flexibility Score: inf
ROOT
ATOM      1  C   UNL     1     -25.465  30.238 -41.523  1.00  0.00     0.184 C 
ATOM      2  C   UNL     1     -26.341  31.393 -40.975  1.00  0.00     0.178 C 
ATOM      3  O   UNL     1     -26.511  31.327 -39.561  1.00  0.00    -0.341 OA
ATOM      4  C   UNL     1     -27.052  30.103 -39.088  1.00  0.00     0.282 C 
ATOM      5  C   UNL     1     -26.220  28.875 -39.522  1.00  0.00     0.202 C 
ATOM      6  C   UNL     1     -26.027  28.882 -41.047  1.00  0.00     0.180 C 
ENDROOT
BRANCH   1   7
ATOM      7  O   UNL     1     -24.139  30.393 -41.039  1.00  0.00    -0.341 OA
BRANCH   7   8
ATOM      8  C   UNL     1     -23.180  29.679 -41.810  1.00  0.00     0.282 C 
ATOM      9  C   UNL     1     -21.837  29.310 -39.910  1.00  0.00     0.178 C 
ATOM     10  C   UNL     1     -20.725  30.277 -40.413  1.00  0.00     0.177 C 
ATOM     11  O   UNL     1     -22.515  28.711 -41.007  1.00  0.00    -0.341 OA
ATOM     12  C   UNL     1     -21.319  31.346 -41.357  1.00  0.00     0.179 C 
ATOM     13  C   UNL     1     -22.177  30.665 -42.440  1.00  0.00     0.202 C 
BRANCH   9  14
ATOM     14  C   UNL     1     -21.248  28.176 -39.053  1.00  0.00     0.191 C 
BRANCH  14  15
ATOM     15  O   UNL     1     -22.231  27.591 -38.240  1.00  0.00    -0.394 OA
ATOM     16  H   UNL     1     -22.073  27.924 -37.317  1.00  0.00     0.210 HD
ENDBRANCH  14  15
ENDBRANCH   9  14
BRANCH  10  17
ATOM     17  O   UNL     1     -20.028  30.886 -39.351  1.00  0.00    -0.387 OA
ATOM     18  H   UNL     1     -20.058  31.870 -39.498  1.00  0.00     0.211 HD
ENDBRANCH  10  17
BRANCH  12  19
ATOM     19  O   UNL     1     -22.119  32.252 -40.640  1.00  0.00    -0.387 OA
ATOM     20  H   UNL     1     -21.506  32.909 -40.210  1.00  0.00     0.211 HD
ENDBRANCH  12  19
BRANCH  13  21
ATOM     21  O   UNL     1     -21.351  29.969 -43.340  1.00  0.00    -0.385 OA
ATOM     22  H   UNL     1     -20.945  30.649 -43.947  1.00  0.00     0.211 HD
ENDBRANCH  13  21
ENDBRANCH   7   8
ENDBRANCH   1   7
BRANCH   2  23
ATOM     23  C   UNL     1     -27.663  31.602 -41.735  1.00  0.00     0.191 C 
BRANCH  23  24
ATOM     24  O   UNL     1     -28.361  32.689 -41.187  1.00  0.00    -0.394 OA
ATOM     25  H   UNL     1     -27.762  33.478 -41.279  1.00  0.00     0.210 HD
ENDBRANCH  23  24
ENDBRANCH   2  23
BRANCH   6  26
ATOM     26  O   UNL     1     -25.229  27.801 -41.468  1.00  0.00    -0.387 OA
ATOM     27  H   UNL     1     -24.958  27.278 -40.670  1.00  0.00     0.211 HD
ENDBRANCH   6  26
BRANCH   5  28
ATOM     28  O   UNL     1     -24.974  28.873 -38.864  1.00  0.00    -0.385 OA
ATOM     29  H   UNL     1     -25.022  29.570 -38.155  1.00  0.00     0.211 HD
ENDBRANCH   5  28
BRANCH   4  30
ATOM     30  O   UNL     1     -28.398  29.961 -39.518  1.00  0.00    -0.341 OA
BRANCH  30  31
ATOM     31  C   UNL     1     -29.239  29.428 -38.505  1.00  0.00     0.184 C 
ATOM     32  C   UNL     1     -29.904  30.571 -37.683  1.00  0.00     0.178 C 
ATOM     33  C   UNL     1     -30.246  28.451 -39.143  1.00  0.00     0.180 C 
ATOM     34  O   UNL     1     -30.968  30.149 -36.836  1.00  0.00    -0.342 OA
ATOM     35  C   UNL     1     -31.409  28.121 -38.185  1.00  0.00     0.201 C 
ATOM     36  C   UNL     1     -31.970  29.384 -37.488  1.00  0.00     0.279 C 
BRANCH  32  37
ATOM     37  C   UNL     1     -30.216  31.880 -38.447  1.00  0.00     0.191 C 
BRANCH  37  38
ATOM     38  O   UNL     1     -30.651  31.641 -39.757  1.00  0.00    -0.394 OA
ATOM     39  H   UNL     1     -31.388  32.276 -39.928  1.00  0.00     0.210 HD
ENDBRANCH  37  38
ENDBRANCH  32  37
BRANCH  33  40
ATOM     40  O   UNL     1     -30.676  28.870 -40.419  1.00  0.00    -0.387 OA
ATOM     41  H   UNL     1     -30.392  28.203 -41.094  1.00  0.00     0.211 HD
ENDBRANCH  33  40
BRANCH  35  42
ATOM     42  O   UNL     1     -30.948  27.218 -37.210  1.00  0.00    -0.385 OA
ATOM     43  H   UNL     1     -30.845  27.730 -36.366  1.00  0.00     0.211 HD
ENDBRANCH  35  42
BRANCH  36  44
ATOM     44  O   UNL     1     -32.716  30.187 -38.362  1.00  0.00    -0.366 OA
ATOM     45  H   UNL     1     -33.332  30.736 -37.804  1.00  0.00     0.213 HD
ENDBRANCH  36  44
ENDBRANCH  30  31
ENDBRANCH   4  30
TORSDOF 18
ENDMDL
MODEL 9
REMARK VINA RESULT:    -5.871      3.227      5.246
REMARK INTER + INTRA:         -12.668
REMARK INTER:                 -10.189
REMARK INTRA:                  -2.479
REMARK UNBOUND:                -2.508
REMARK SMILES OC[C@@H]1O[C@@H](O[C@H]2[C@@H](O)[C@@H](O)[C@H](O[C@@H]3[C@H](O)[C@@H](O)[C@H](O)O[C@@H]3CO)O[C@@H]2CO)[C@H](O)[C@@H](O)[C@H]1O
REMARK SMILES IDX 7 1 26 2 25 3 12 4 10 5 8 6 6 7 5 8 3 9 33 10 4 11 31 12
REMARK SMILES IDX 29 13 2 14 1 15 34 17 32 19 30 21 27 23 28 24 9 26 11 28
REMARK SMILES IDX 13 30 14 31 22 32 15 33 21 34 17 35 19 36 23 37 24 38 16 40
REMARK SMILES IDX 18 42 20 44
REMARK H PARENT 1 16 34 18 32 20 30 22 28 25 9 27 11 29 24 39 16 41 18 43
REMARK H PARENT 20 45
REMARK Flexibility Score: inf
ROOT
ATOM      1  C   UNL     1     -24.670  31.108 -40.948  1.00  0.00     0.184 C 
ATOM      2  C   UNL     1     -23.480  30.423 -41.666  1.00  0.00     0.178 C 
ATOM      3  O   UNL     1     -22.814  29.475 -40.836  1.00  0.00    -0.341 OA
ATOM      4  C   UNL     1     -22.342  29.998 -39.603  1.00  0.00     0.282 C 
ATOM      5  C   UNL     1     -23.462  30.655 -38.765  1.00  0.00     0.202 C 
ATOM      6  C   UNL     1     -24.199  31.709 -39.607  1.00  0.00     0.180 C 
ENDROOT
BRANCH   1   7
ATOM      7  O   UNL     1     -25.681  30.142 -40.701  1.00  0.00    -0.341 OA
BRANCH   7   8
ATOM      8  C   UNL     1     -26.169  29.533 -41.891  1.00  0.00     0.282 C 
ATOM      9  C   UNL     1     -28.323  30.421 -41.534  1.00  0.00     0.178 C 
ATOM     10  C   UNL     1     -28.929  29.023 -41.211  1.00  0.00     0.177 C 
ATOM     11  O   UNL     1     -27.235  30.297 -42.441  1.00  0.00    -0.341 OA
ATOM     12  C   UNL     1     -27.842  28.071 -40.661  1.00  0.00     0.179 C 
ATOM     13  C   UNL     1     -26.616  28.088 -41.593  1.00  0.00     0.202 C 
BRANCH   9  14
ATOM     14  C   UNL     1     -29.365  31.349 -42.180  1.00  0.00     0.191 C 
BRANCH  14  15
ATOM     15  O   UNL     1     -30.372  30.612 -42.823  1.00  0.00    -0.394 OA
ATOM     16  H   UNL     1     -31.077  31.262 -43.086  1.00  0.00     0.210 HD
ENDBRANCH  14  15
ENDBRANCH   9  14
BRANCH  10  17
ATOM     17  O   UNL     1     -30.014  29.106 -40.317  1.00  0.00    -0.387 OA
ATOM     18  H   UNL     1     -29.876  29.915 -39.753  1.00  0.00     0.211 HD
ENDBRANCH  10  17
BRANCH  12  19
ATOM     19  O   UNL     1     -27.446  28.464 -39.371  1.00  0.00    -0.387 OA
ATOM     20  H   UNL     1     -27.028  29.364 -39.454  1.00  0.00     0.211 HD
ENDBRANCH  12  19
BRANCH  13  21
ATOM     21  O   UNL     1     -26.923  27.443 -42.804  1.00  0.00    -0.385 OA
ATOM     22  H   UNL     1     -26.355  27.863 -43.508  1.00  0.00     0.211 HD
ENDBRANCH  13  21
ENDBRANCH   7   8
ENDBRANCH   1   7
BRANCH   2  23
ATOM     23  C   UNL     1     -22.516  31.397 -42.368  1.00  0.00     0.191 C 
BRANCH  23  24
ATOM     24  O   UNL     1     -21.510  30.678 -43.030  1.00  0.00    -0.394 OA
ATOM     25  H   UNL     1     -20.687  31.234 -42.968  1.00  0.00     0.210 HD
ENDBRANCH  23  24
ENDBRANCH   2  23
BRANCH   6  26
ATOM     26  O   UNL     1     -25.260  32.290 -38.886  1.00  0.00    -0.387 OA
ATOM     27  H   UNL     1     -25.186  33.277 -38.955  1.00  0.00     0.211 HD
ENDBRANCH   6  26
BRANCH   5  28
ATOM     28  O   UNL     1     -24.359  29.675 -38.298  1.00  0.00    -0.385 OA
ATOM     29  H   UNL     1     -24.636  29.950 -37.383  1.00  0.00     0.211 HD
ENDBRANCH   5  28
BRANCH   4  30
ATOM     30  O   UNL     1     -21.291  30.926 -39.833  1.00  0.00    -0.341 OA
BRANCH  30  31
ATOM     31  C   UNL     1     -20.055  30.495 -39.281  1.00  0.00     0.184 C 
ATOM     32  C   UNL     1     -18.892  30.725 -40.290  1.00  0.00     0.178 C 
ATOM     33  C   UNL     1     -19.842  31.179 -37.916  1.00  0.00     0.180 C 
ATOM     34  O   UNL     1     -17.589  30.586 -39.732  1.00  0.00    -0.342 OA
ATOM     35  C   UNL     1     -18.382  31.052 -37.435  1.00  0.00     0.201 C 
ATOM     36  C   UNL     1     -17.366  31.356 -38.561  1.00  0.00     0.279 C 
BRANCH  32  37
ATOM     37  C   UNL     1     -19.024  31.946 -41.231  1.00  0.00     0.191 C 
BRANCH  37  38
ATOM     38  O   UNL     1     -19.655  33.031 -40.609  1.00  0.00    -0.394 OA
ATOM     39  H   UNL     1     -19.568  32.886 -39.635  1.00  0.00     0.210 HD
ENDBRANCH  37  38
ENDBRANCH  32  37
BRANCH  33  40
ATOM     40  O   UNL     1     -20.326  32.503 -37.891  1.00  0.00    -0.387 OA
ATOM     41  H   UNL     1     -20.722  32.722 -38.772  1.00  0.00     0.211 HD
ENDBRANCH  33  40
BRANCH  35  42
ATOM     42  O   UNL     1     -18.174  29.744 -36.961  1.00  0.00    -0.385 OA
ATOM     43  H   UNL     1     -18.590  29.692 -36.062  1.00  0.00     0.211 HD
ENDBRANCH  35  42
BRANCH  36  44
ATOM     44  O   UNL     1     -17.305  32.722 -38.870  1.00  0.00    -0.366 OA
ATOM     45  H   UNL     1     -16.540  33.106 -38.361  1.00  0.00     0.213 HD
ENDBRANCH  36  44
ENDBRANCH  30  31
ENDBRANCH   4  30
TORSDOF 18
ENDMDL
