MODEL 1
REMARK VINA RESULT:    -3.553      0.000      0.000
REMARK INTER + INTRA:          -4.284
REMARK INTER:                  -4.176
REMARK INTRA:                  -0.108
REMARK UNBOUND:                -0.108
REMARK SMILES O=C([O-])CCC(=O)[O-]
REMARK SMILES IDX 4 1 2 2 1 3 3 4 5 5 6 6 7 7 8 8
REMARK H PARENT
REMARK Flexibility Score: inf
ROOT
ATOM      1  C   UNL     1      16.906  24.966  25.783  1.00  0.00     0.059 C 
ENDROOT
BRANCH   1   2
ATOM      2  C   UNL     1      15.445  25.151  25.507  1.00  0.00     0.042 C 
ATOM      3  O   UNL     1      15.030  25.244  24.322  1.00  0.00    -0.550 OA
ATOM      4  O   UNL     1      14.548  25.261  26.562  1.00  0.00    -0.550 OA
ENDBRANCH   1   2
BRANCH   1   5
ATOM      5  C   UNL     1      17.291  25.501  27.165  1.00  0.00     0.059 C 
BRANCH   5   6
ATOM      6  C   UNL     1      17.573  24.389  28.130  1.00  0.00     0.042 C 
ATOM      7  O   UNL     1      16.725  24.085  29.011  1.00  0.00    -0.550 OA
ATOM      8  O   UNL     1      18.751  23.661  28.028  1.00  0.00    -0.550 OA
ENDBRANCH   5   6
ENDBRANCH   1   5
TORSDOF 3
ENDMDL
MODEL 2
REMARK VINA RESULT:    -3.520     14.831     15.954
REMARK INTER + INTRA:          -4.245
REMARK INTER:                  -4.169
REMARK INTRA:                  -0.076
REMARK UNBOUND:                -0.108
REMARK SMILES O=C([O-])CCC(=O)[O-]
REMARK SMILES IDX 4 1 2 2 1 3 3 4 5 5 6 6 7 7 8 8
REMARK H PARENT
REMARK Flexibility Score: inf
ROOT
ATOM      1  C   UNL     1      17.869  35.310  15.975  1.00  0.00     0.059 C 
ENDROOT
BRANCH   1   2
ATOM      2  C   UNL     1      18.457  36.079  14.830  1.00  0.00     0.042 C 
ATOM      3  O   UNL     1      18.302  35.673  13.648  1.00  0.00    -0.550 OA
ATOM      4  O   UNL     1      19.208  37.221  15.073  1.00  0.00    -0.550 OA
ENDBRANCH   1   2
BRANCH   1   5
ATOM      5  C   UNL     1      16.752  34.372  15.509  1.00  0.00     0.059 C 
BRANCH   5   6
ATOM      6  C   UNL     1      15.404  34.856  15.950  1.00  0.00     0.042 C 
ATOM      7  O   UNL     1      15.284  35.512  17.018  1.00  0.00    -0.550 OA
ATOM      8  O   UNL     1      14.286  34.619  15.160  1.00  0.00    -0.550 OA
ENDBRANCH   5   6
ENDBRANCH   1   5
TORSDOF 3
ENDMDL
MODEL 3
REMARK VINA RESULT:    -3.507      0.709      3.685
REMARK INTER + INTRA:          -4.229
REMARK INTER:                  -4.147
REMARK INTRA:                  -0.083
REMARK UNBOUND:                -0.108
REMARK SMILES O=C([O-])CCC(=O)[O-]
REMARK SMILES IDX 4 1 2 2 1 3 3 4 5 5 6 6 7 7 8 8
REMARK H PARENT
REMARK Flexibility Score: inf
ROOT
ATOM      1  C   UNL     1      17.480  25.108  26.922  1.00  0.00     0.059 C 
ENDROOT
BRANCH   1   2
ATOM      2  C   UNL     1      17.755  24.220  28.098  1.00  0.00     0.042 C 
ATOM      3  O   UNL     1      18.854  23.613  28.191  1.00  0.00    -0.550 OA
ATOM      4  O   UNL     1      16.780  24.033  29.070  1.00  0.00    -0.550 OA
ENDBRANCH   1   2
BRANCH   1   5
ATOM      5  C   UNL     1      16.174  25.888  27.097  1.00  0.00     0.059 C 
BRANCH   5   6
ATOM      6  C   UNL     1      15.070  25.312  26.263  1.00  0.00     0.042 C 
ATOM      7  O   UNL     1      13.880  25.350  26.674  1.00  0.00    -0.550 OA
ATOM      8  O   UNL     1      15.350  24.772  25.015  1.00  0.00    -0.550 OA
ENDBRANCH   5   6
ENDBRANCH   1   5
TORSDOF 3
ENDMDL
MODEL 4
REMARK VINA RESULT:    -3.501     14.770     15.841
REMARK INTER + INTRA:          -4.223
REMARK INTER:                  -4.135
REMARK INTRA:                  -0.088
REMARK UNBOUND:                -0.108
REMARK SMILES O=C([O-])CCC(=O)[O-]
REMARK SMILES IDX 4 1 2 2 1 3 3 4 5 5 6 6 7 7 8 8
REMARK H PARENT
REMARK Flexibility Score: inf
ROOT
ATOM      1  C   UNL     1      16.773  34.334  15.627  1.00  0.00     0.059 C 
ENDROOT
BRANCH   1   2
ATOM      2  C   UNL     1      15.442  34.898  16.025  1.00  0.00     0.042 C 
ATOM      3  O   UNL     1      15.326  35.556  17.093  1.00  0.00    -0.550 OA
ATOM      4  O   UNL     1      14.324  34.664  15.236  1.00  0.00    -0.550 OA
ENDBRANCH   1   2
BRANCH   1   5
ATOM      5  C   UNL     1      17.922  35.263  16.032  1.00  0.00     0.059 C 
BRANCH   5   6
ATOM      6  C   UNL     1      18.409  36.078  14.873  1.00  0.00     0.042 C 
ATOM      7  O   UNL     1      18.049  35.789  13.700  1.00  0.00    -0.550 OA
ATOM      8  O   UNL     1      19.224  37.181  15.090  1.00  0.00    -0.550 OA
ENDBRANCH   5   6
ENDBRANCH   1   5
TORSDOF 3
ENDMDL
MODEL 5
REMARK VINA RESULT:    -3.454      0.762      3.978
REMARK INTER + INTRA:          -4.167
REMARK INTER:                  -4.087
REMARK INTRA:                  -0.080
REMARK UNBOUND:                -0.108
REMARK SMILES O=C([O-])CCC(=O)[O-]
REMARK SMILES IDX 4 1 2 2 1 3 3 4 5 5 6 6 7 7 8 8
REMARK H PARENT
REMARK Flexibility Score: inf
ROOT
ATOM      1  C   UNL     1      17.576  24.826  26.847  1.00  0.00     0.059 C 
ENDROOT
BRANCH   1   2
ATOM      2  C   UNL     1      17.852  24.182  28.172  1.00  0.00     0.042 C 
ATOM      3  O   UNL     1      16.960  24.154  29.061  1.00  0.00    -0.550 OA
ATOM      4  O   UNL     1      19.106  23.649  28.437  1.00  0.00    -0.550 OA
ENDBRANCH   1   2
BRANCH   1   5
ATOM      5  C   UNL     1      16.419  25.826  26.937  1.00  0.00     0.059 C 
BRANCH   5   6
ATOM      6  C   UNL     1      15.207  25.337  26.203  1.00  0.00     0.042 C 
ATOM      7  O   UNL     1      15.330  24.766  25.087  1.00  0.00    -0.550 OA
ATOM      8  O   UNL     1      13.947  25.474  26.770  1.00  0.00    -0.550 OA
ENDBRANCH   5   6
ENDBRANCH   1   5
TORSDOF 3
ENDMDL
MODEL 6
REMARK VINA RESULT:    -3.390     15.008     15.698
REMARK INTER + INTRA:          -4.092
REMARK INTER:                  -3.990
REMARK INTRA:                  -0.103
REMARK UNBOUND:                -0.108
REMARK SMILES O=C([O-])CCC(=O)[O-]
REMARK SMILES IDX 4 1 2 2 1 3 3 4 5 5 6 6 7 7 8 8
REMARK H PARENT
REMARK Flexibility Score: inf
ROOT
ATOM      1  C   UNL     1      16.550  33.741  14.871  1.00  0.00     0.059 C 
ENDROOT
BRANCH   1   2
ATOM      2  C   UNL     1      15.203  34.179  14.384  1.00  0.00     0.042 C 
ATOM      3  O   UNL     1      14.971  34.260  13.148  1.00  0.00    -0.550 OA
ATOM      4  O   UNL     1      14.217  34.536  15.294  1.00  0.00    -0.550 OA
ENDBRANCH   1   2
BRANCH   1   5
ATOM      5  C   UNL     1      17.654  34.702  14.418  1.00  0.00     0.059 C 
BRANCH   5   6
ATOM      6  C   UNL     1      18.034  35.659  15.507  1.00  0.00     0.042 C 
ATOM      7  O   UNL     1      17.593  35.497  16.676  1.00  0.00    -0.550 OA
ATOM      8  O   UNL     1      18.909  36.704  15.241  1.00  0.00    -0.550 OA
ENDBRANCH   5   6
ENDBRANCH   1   5
TORSDOF 3
ENDMDL
MODEL 7
REMARK VINA RESULT:    -3.334      1.525      4.194
REMARK INTER + INTRA:          -4.026
REMARK INTER:                  -3.997
REMARK INTRA:                  -0.029
REMARK UNBOUND:                -0.108
REMARK SMILES O=C([O-])CCC(=O)[O-]
REMARK SMILES IDX 4 1 2 2 1 3 3 4 5 5 6 6 7 7 8 8
REMARK H PARENT
REMARK Flexibility Score: inf
ROOT
ATOM      1  C   UNL     1      17.572  24.347  28.597  1.00  0.00     0.059 C 
ENDROOT
BRANCH   1   2
ATOM      2  C   UNL     1      18.514  23.202  28.820  1.00  0.00     0.042 C 
ATOM      3  O   UNL     1      19.631  23.178  28.239  1.00  0.00    -0.550 OA
ATOM      4  O   UNL     1      18.140  22.145  29.639  1.00  0.00    -0.550 OA
ENDBRANCH   1   2
BRANCH   1   5
ATOM      5  C   UNL     1      17.638  24.858  27.154  1.00  0.00     0.059 C 
BRANCH   5   6
ATOM      6  C   UNL     1      16.451  25.706  26.813  1.00  0.00     0.042 C 
ATOM      7  O   UNL     1      15.691  25.379  25.864  1.00  0.00    -0.550 OA
ATOM      8  O   UNL     1      16.160  26.834  27.570  1.00  0.00    -0.550 OA
ENDBRANCH   5   6
ENDBRANCH   1   5
TORSDOF 3
ENDMDL
MODEL 8
REMARK VINA RESULT:    -3.292      2.225      3.044
REMARK INTER + INTRA:          -3.977
REMARK INTER:                  -3.857
REMARK INTRA:                  -0.120
REMARK UNBOUND:                -0.108
REMARK SMILES O=C([O-])CCC(=O)[O-]
REMARK SMILES IDX 4 1 2 2 1 3 3 4 5 5 6 6 7 7 8 8
REMARK H PARENT
REMARK Flexibility Score: inf
ROOT
ATOM      1  C   UNL     1      16.707  25.736  27.236  1.00  0.00     0.059 C 
ENDROOT
BRANCH   1   2
ATOM      2  C   UNL     1      16.296  25.192  25.901  1.00  0.00     0.042 C 
ATOM      3  O   UNL     1      15.076  25.108  25.599  1.00  0.00    -0.550 OA
ATOM      4  O   UNL     1      17.259  24.741  25.009  1.00  0.00    -0.550 OA
ENDBRANCH   1   2
BRANCH   1   5
ATOM      5  C   UNL     1      15.883  26.969  27.620  1.00  0.00     0.059 C 
BRANCH   5   6
ATOM      6  C   UNL     1      14.993  26.695  28.795  1.00  0.00     0.042 C 
ATOM      7  O   UNL     1      15.234  27.230  29.910  1.00  0.00    -0.550 OA
ATOM      8  O   UNL     1      13.875  25.885  28.648  1.00  0.00    -0.550 OA
ENDBRANCH   5   6
ENDBRANCH   1   5
TORSDOF 3
ENDMDL
MODEL 9
REMARK VINA RESULT:    -3.247     15.468     16.918
REMARK INTER + INTRA:          -3.925
REMARK INTER:                  -3.896
REMARK INTRA:                  -0.029
REMARK UNBOUND:                -0.108
REMARK SMILES O=C([O-])CCC(=O)[O-]
REMARK SMILES IDX 4 1 2 2 1 3 3 4 5 5 6 6 7 7 8 8
REMARK H PARENT
REMARK Flexibility Score: inf
ROOT
ATOM      1  C   UNL     1      19.204  36.817  15.391  1.00  0.00     0.059 C 
ENDROOT
BRANCH   1   2
ATOM      2  C   UNL     1      19.891  37.738  14.428  1.00  0.00     0.042 C 
ATOM      3  O   UNL     1      19.311  38.782  14.027  1.00  0.00    -0.550 OA
ATOM      4  O   UNL     1      21.153  37.421  13.944  1.00  0.00    -0.550 OA
ENDBRANCH   1   2
BRANCH   1   5
ATOM      5  C   UNL     1      18.225  35.881  14.676  1.00  0.00     0.059 C 
BRANCH   5   6
ATOM      6  C   UNL     1      17.551  34.948  15.635  1.00  0.00     0.042 C 
ATOM      7  O   UNL     1      17.231  33.786  15.269  1.00  0.00    -0.550 OA
ATOM      8  O   UNL     1      17.316  35.346  16.945  1.00  0.00    -0.550 OA
ENDBRANCH   5   6
ENDBRANCH   1   5
TORSDOF 3
ENDMDL
