MODEL 1
REMARK VINA RESULT:    -4.516      0.000      0.000
REMARK INTER + INTRA:          -7.218
REMARK INTER:                  -6.892
REMARK INTRA:                  -0.326
REMARK UNBOUND:                -0.326
REMARK SMILES CCCCCCCCCCC(=O)[O-]
REMARK SMILES IDX 7 1 8 2 9 3 10 4 11 5 12 6 13 7 6 8 5 9 4 10 3 11 2 12 1 13
REMARK H PARENT
REMARK Flexibility Score: inf
ROOT
ATOM      1  C   UNL     1      -9.393   5.143 -10.814  1.00  0.00     0.000 C 
ENDROOT
BRANCH   1   2
ATOM      2  C   UNL     1      -8.633   4.460 -11.966  1.00  0.00     0.000 C 
BRANCH   2   3
ATOM      3  C   UNL     1      -7.672   5.412 -12.698  1.00  0.00     0.006 C 
BRANCH   3   4
ATOM      4  C   UNL     1      -7.991   5.520 -14.195  1.00  0.00     0.053 C 
BRANCH   4   5
ATOM      5  C   UNL     1      -6.749   5.496 -15.032  1.00  0.00     0.041 C 
ATOM      6  O   UNL     1      -6.830   5.422 -16.286  1.00  0.00    -0.550 OA
ATOM      7  O   UNL     1      -5.500   5.527 -14.424  1.00  0.00    -0.550 OA
ENDBRANCH   4   5
ENDBRANCH   3   4
ENDBRANCH   2   3
ENDBRANCH   1   2
BRANCH   1   8
ATOM      8  C   UNL     1      -9.198   4.495  -9.431  1.00  0.00     0.000 C 
BRANCH   8   9
ATOM      9  C   UNL     1      -9.128   5.522  -8.292  1.00  0.00    -0.000 C 
BRANCH   9  10
ATOM     10  C   UNL     1      -7.809   5.393  -7.518  1.00  0.00    -0.000 C 
BRANCH  10  11
ATOM     11  C   UNL     1      -8.059   5.380  -6.005  1.00  0.00    -0.000 C 
BRANCH  11  12
ATOM     12  C   UNL     1      -9.440   5.954  -5.671  1.00  0.00    -0.003 C 
ATOM     13  C   UNL     1      -9.330   7.120  -4.692  1.00  0.00     0.004 C 
ENDBRANCH  11  12
ENDBRANCH  10  11
ENDBRANCH   9  10
ENDBRANCH   8   9
ENDBRANCH   1   8
TORSDOF 9
ENDMDL
MODEL 2
REMARK VINA RESULT:    -4.486      4.317      7.627
REMARK INTER + INTRA:          -7.172
REMARK INTER:                  -6.828
REMARK INTRA:                  -0.345
REMARK UNBOUND:                -0.326
REMARK SMILES CCCCCCCCCCC(=O)[O-]
REMARK SMILES IDX 7 1 8 2 9 3 10 4 11 5 12 6 13 7 6 8 5 9 4 10 3 11 2 12 1 13
REMARK H PARENT
REMARK Flexibility Score: inf
ROOT
ATOM      1  C   UNL     1      -9.155   4.542  -9.384  1.00  0.00     0.000 C 
ENDROOT
BRANCH   1   2
ATOM      2  C   UNL     1      -9.018   5.525  -8.207  1.00  0.00     0.000 C 
BRANCH   2   3
ATOM      3  C   UNL     1      -7.578   5.628  -7.676  1.00  0.00     0.006 C 
BRANCH   3   4
ATOM      4  C   UNL     1      -7.513   6.311  -6.303  1.00  0.00     0.053 C 
BRANCH   4   5
ATOM      5  C   UNL     1      -8.033   5.422  -5.215  1.00  0.00     0.041 C 
ATOM      6  O   UNL     1      -9.152   5.653  -4.687  1.00  0.00    -0.550 OA
ATOM      7  O   UNL     1      -7.266   4.354  -4.764  1.00  0.00    -0.550 OA
ENDBRANCH   4   5
ENDBRANCH   3   4
ENDBRANCH   2   3
ENDBRANCH   1   2
BRANCH   1   8
ATOM      8  C   UNL     1      -9.446   5.194 -10.748  1.00  0.00     0.000 C 
BRANCH   8   9
ATOM      9  C   UNL     1      -8.782   4.457 -11.919  1.00  0.00    -0.000 C 
BRANCH   9  10
ATOM     10  C   UNL     1      -7.744   5.350 -12.611  1.00  0.00    -0.000 C 
BRANCH  10  11
ATOM     11  C   UNL     1      -6.828   4.524 -13.523  1.00  0.00    -0.000 C 
BRANCH  11  12
ATOM     12  C   UNL     1      -6.374   5.345 -14.735  1.00  0.00    -0.003 C 
ATOM     13  C   UNL     1      -7.568   5.942 -15.473  1.00  0.00     0.004 C 
ENDBRANCH  11  12
ENDBRANCH  10  11
ENDBRANCH   9  10
ENDBRANCH   8   9
ENDBRANCH   1   8
TORSDOF 9
ENDMDL
MODEL 3
REMARK VINA RESULT:    -4.409      3.149      7.624
REMARK INTER + INTRA:          -7.055
REMARK INTER:                  -6.632
REMARK INTRA:                  -0.423
REMARK UNBOUND:                -0.326
REMARK SMILES CCCCCCCCCCC(=O)[O-]
REMARK SMILES IDX 7 1 8 2 9 3 10 4 11 5 12 6 13 7 6 8 5 9 4 10 3 11 2 12 1 13
REMARK H PARENT
REMARK Flexibility Score: inf
ROOT
ATOM      1  C   UNL     1      -8.471   4.586 -11.812  1.00  0.00     0.000 C 
ENDROOT
BRANCH   1   2
ATOM      2  C   UNL     1      -9.357   5.208 -10.717  1.00  0.00     0.000 C 
BRANCH   2   3
ATOM      3  C   UNL     1      -9.213   4.503  -9.357  1.00  0.00     0.006 C 
BRANCH   3   4
ATOM      4  C   UNL     1      -9.173   5.498  -8.189  1.00  0.00     0.053 C 
BRANCH   4   5
ATOM      5  C   UNL     1      -7.834   5.513  -7.518  1.00  0.00     0.041 C 
ATOM      6  O   UNL     1      -7.730   5.196  -6.303  1.00  0.00    -0.550 OA
ATOM      7  O   UNL     1      -6.705   5.906  -8.226  1.00  0.00    -0.550 OA
ENDBRANCH   4   5
ENDBRANCH   3   4
ENDBRANCH   2   3
ENDBRANCH   1   2
BRANCH   1   8
ATOM      8  C   UNL     1      -7.322   5.483 -12.307  1.00  0.00     0.000 C 
BRANCH   8   9
ATOM      9  C   UNL     1      -7.004   5.284 -13.796  1.00  0.00    -0.000 C 
BRANCH   9  10
ATOM     10  C   UNL     1      -8.226   5.608 -14.666  1.00  0.00    -0.000 C 
BRANCH  10  11
ATOM     11  C   UNL     1      -7.811   6.347 -15.944  1.00  0.00    -0.000 C 
BRANCH  11  12
ATOM     12  C   UNL     1      -6.356   6.035 -16.311  1.00  0.00    -0.003 C 
ATOM     13  C   UNL     1      -6.275   5.209 -17.591  1.00  0.00     0.004 C 
ENDBRANCH  11  12
ENDBRANCH  10  11
ENDBRANCH   9  10
ENDBRANCH   8   9
ENDBRANCH   1   8
TORSDOF 9
ENDMDL
MODEL 4
REMARK VINA RESULT:    -4.363      3.735      7.353
REMARK INTER + INTRA:          -6.985
REMARK INTER:                  -6.649
REMARK INTRA:                  -0.336
REMARK UNBOUND:                -0.326
REMARK SMILES CCCCCCCCCCC(=O)[O-]
REMARK SMILES IDX 7 1 8 2 9 3 10 4 11 5 12 6 13 7 6 8 5 9 4 10 3 11 2 12 1 13
REMARK H PARENT
REMARK Flexibility Score: inf
ROOT
ATOM      1  C   UNL     1      -9.430   5.169 -10.607  1.00  0.00     0.000 C 
ENDROOT
BRANCH   1   2
ATOM      2  C   UNL     1      -9.296   4.466  -9.243  1.00  0.00     0.000 C 
BRANCH   2   3
ATOM      3  C   UNL     1      -8.933   5.433  -8.103  1.00  0.00     0.006 C 
BRANCH   3   4
ATOM      4  C   UNL     1      -7.418   5.648  -7.985  1.00  0.00     0.053 C 
BRANCH   4   5
ATOM      5  C   UNL     1      -7.074   6.580  -6.863  1.00  0.00     0.041 C 
ATOM      6  O   UNL     1      -5.879   6.928  -6.672  1.00  0.00    -0.550 OA
ATOM      7  O   UNL     1      -8.070   7.040  -6.012  1.00  0.00    -0.550 OA
ENDBRANCH   4   5
ENDBRANCH   3   4
ENDBRANCH   2   3
ENDBRANCH   1   2
BRANCH   1   8
ATOM      8  C   UNL     1      -8.232   4.983 -11.556  1.00  0.00     0.000 C 
BRANCH   8   9
ATOM      9  C   UNL     1      -8.636   4.434 -12.931  1.00  0.00    -0.000 C 
BRANCH   9  10
ATOM     10  C   UNL     1      -8.087   5.319 -14.058  1.00  0.00    -0.000 C 
BRANCH  10  11
ATOM     11  C   UNL     1      -6.567   5.156 -14.194  1.00  0.00    -0.000 C 
BRANCH  11  12
ATOM     12  C   UNL     1      -6.059   5.809 -15.485  1.00  0.00    -0.003 C 
ATOM     13  C   UNL     1      -7.219   6.256 -16.369  1.00  0.00     0.004 C 
ENDBRANCH  11  12
ENDBRANCH  10  11
ENDBRANCH   9  10
ENDBRANCH   8   9
ENDBRANCH   1   8
TORSDOF 9
ENDMDL
MODEL 5
REMARK VINA RESULT:    -4.355      1.373      1.996
REMARK INTER + INTRA:          -6.972
REMARK INTER:                  -6.575
REMARK INTRA:                  -0.397
REMARK UNBOUND:                -0.326
REMARK SMILES CCCCCCCCCCC(=O)[O-]
REMARK SMILES IDX 7 1 8 2 9 3 10 4 11 5 12 6 13 7 6 8 5 9 4 10 3 11 2 12 1 13
REMARK H PARENT
REMARK Flexibility Score: inf
ROOT
ATOM      1  C   UNL     1      -8.423   4.697 -11.826  1.00  0.00     0.000 C 
ENDROOT
BRANCH   1   2
ATOM      2  C   UNL     1      -7.201   5.613 -12.022  1.00  0.00     0.000 C 
BRANCH   2   3
ATOM      3  C   UNL     1      -6.174   5.040 -13.014  1.00  0.00     0.006 C 
BRANCH   3   4
ATOM      4  C   UNL     1      -6.813   4.065 -14.011  1.00  0.00     0.053 C 
BRANCH   4   5
ATOM      5  C   UNL     1      -5.928   3.819 -15.194  1.00  0.00     0.041 C 
ATOM      6  O   UNL     1      -5.118   2.854 -15.191  1.00  0.00    -0.550 OA
ATOM      7  O   UNL     1      -5.975   4.673 -16.288  1.00  0.00    -0.550 OA
ENDBRANCH   4   5
ENDBRANCH   3   4
ENDBRANCH   2   3
ENDBRANCH   1   2
BRANCH   1   8
ATOM      8  C   UNL     1      -9.424   5.167 -10.755  1.00  0.00     0.000 C 
BRANCH   8   9
ATOM      9  C   UNL     1      -9.241   4.454  -9.408  1.00  0.00    -0.000 C 
BRANCH   9  10
ATOM     10  C   UNL     1      -9.110   5.467  -8.264  1.00  0.00    -0.000 C 
BRANCH  10  11
ATOM     11  C   UNL     1      -7.669   5.524  -7.741  1.00  0.00    -0.000 C 
BRANCH  11  12
ATOM     12  C   UNL     1      -7.621   6.110  -6.326  1.00  0.00    -0.003 C 
ATOM     13  C   UNL     1      -7.628   5.006  -5.272  1.00  0.00     0.004 C 
ENDBRANCH  11  12
ENDBRANCH  10  11
ENDBRANCH   9  10
ENDBRANCH   8   9
ENDBRANCH   1   8
TORSDOF 9
ENDMDL
MODEL 6
REMARK VINA RESULT:    -4.288      2.097      3.469
REMARK INTER + INTRA:          -6.870
REMARK INTER:                  -6.076
REMARK INTRA:                  -0.795
REMARK UNBOUND:                -0.326
REMARK SMILES CCCCCCCCCCC(=O)[O-]
REMARK SMILES IDX 7 1 8 2 9 3 10 4 11 5 12 6 13 7 6 8 5 9 4 10 3 11 2 12 1 13
REMARK H PARENT
REMARK Flexibility Score: inf
ROOT
ATOM      1  C   UNL     1      -5.624   6.036  -9.273  1.00  0.00     0.000 C 
ENDROOT
BRANCH   1   2
ATOM      2  C   UNL     1      -4.915   6.681 -10.479  1.00  0.00     0.000 C 
BRANCH   2   3
ATOM      3  C   UNL     1      -5.349   6.075 -11.825  1.00  0.00     0.006 C 
BRANCH   3   4
ATOM      4  C   UNL     1      -6.820   5.637 -11.816  1.00  0.00     0.053 C 
BRANCH   4   5
ATOM      5  C   UNL     1      -7.139   4.738 -12.971  1.00  0.00     0.041 C 
ATOM      6  O   UNL     1      -6.215   4.276 -13.690  1.00  0.00    -0.550 OA
ATOM      7  O   UNL     1      -8.461   4.435 -13.272  1.00  0.00    -0.550 OA
ENDBRANCH   4   5
ENDBRANCH   3   4
ENDBRANCH   2   3
ENDBRANCH   1   2
BRANCH   1   8
ATOM      8  C   UNL     1      -5.570   6.856  -7.972  1.00  0.00     0.000 C 
BRANCH   8   9
ATOM      9  C   UNL     1      -6.893   6.832  -7.192  1.00  0.00    -0.000 C 
BRANCH   9  10
ATOM     10  C   UNL     1      -7.553   5.450  -7.276  1.00  0.00    -0.000 C 
BRANCH  10  11
ATOM     11  C   UNL     1      -8.972   5.552  -7.851  1.00  0.00    -0.000 C 
BRANCH  11  12
ATOM     12  C   UNL     1      -9.099   4.741  -9.146  1.00  0.00    -0.003 C 
ATOM     13  C   UNL     1     -10.085   5.393 -10.110  1.00  0.00     0.004 C 
ENDBRANCH  11  12
ENDBRANCH  10  11
ENDBRANCH   9  10
ENDBRANCH   8   9
ENDBRANCH   1   8
TORSDOF 9
ENDMDL
MODEL 7
REMARK VINA RESULT:    -4.220      4.710      7.890
REMARK INTER + INTRA:          -6.766
REMARK INTER:                  -6.327
REMARK INTRA:                  -0.439
REMARK UNBOUND:                -0.326
REMARK SMILES CCCCCCCCCCC(=O)[O-]
REMARK SMILES IDX 7 1 8 2 9 3 10 4 11 5 12 6 13 7 6 8 5 9 4 10 3 11 2 12 1 13
REMARK H PARENT
REMARK Flexibility Score: inf
ROOT
ATOM      1  C   UNL     1      -7.453   5.688  -7.793  1.00  0.00     0.000 C 
ENDROOT
BRANCH   1   2
ATOM      2  C   UNL     1      -7.099   6.710  -6.698  1.00  0.00     0.000 C 
BRANCH   2   3
ATOM      3  C   UNL     1      -6.770   6.053  -5.347  1.00  0.00     0.006 C 
BRANCH   3   4
ATOM      4  C   UNL     1      -8.012   5.902  -4.458  1.00  0.00     0.053 C 
BRANCH   4   5
ATOM      5  C   UNL     1      -8.618   7.229  -4.119  1.00  0.00     0.041 C 
ATOM      6  O   UNL     1      -7.935   8.105  -3.523  1.00  0.00    -0.550 OA
ATOM      7  O   UNL     1      -9.946   7.489  -4.434  1.00  0.00    -0.550 OA
ENDBRANCH   4   5
ENDBRANCH   3   4
ENDBRANCH   2   3
ENDBRANCH   1   2
BRANCH   1   8
ATOM      8  C   UNL     1      -8.954   5.576  -8.119  1.00  0.00     0.000 C 
BRANCH   8   9
ATOM      9  C   UNL     1      -9.252   4.559  -9.231  1.00  0.00    -0.000 C 
BRANCH   9  10
ATOM     10  C   UNL     1      -9.479   5.265 -10.573  1.00  0.00    -0.000 C 
BRANCH  10  11
ATOM     11  C   UNL     1      -8.791   4.508 -11.717  1.00  0.00    -0.000 C 
BRANCH  11  12
ATOM     12  C   UNL     1      -7.801   5.414 -12.457  1.00  0.00    -0.003 C 
ATOM     13  C   UNL     1      -8.056   5.395 -13.962  1.00  0.00     0.004 C 
ENDBRANCH  11  12
ENDBRANCH  10  11
ENDBRANCH   9  10
ENDBRANCH   8   9
ENDBRANCH   1   8
TORSDOF 9
ENDMDL
MODEL 8
REMARK VINA RESULT:    -4.165      1.702      2.496
REMARK INTER + INTRA:          -6.682
REMARK INTER:                  -6.212
REMARK INTRA:                  -0.470
REMARK UNBOUND:                -0.326
REMARK SMILES CCCCCCCCCCC(=O)[O-]
REMARK SMILES IDX 7 1 8 2 9 3 10 4 11 5 12 6 13 7 6 8 5 9 4 10 3 11 2 12 1 13
REMARK H PARENT
REMARK Flexibility Score: inf
ROOT
ATOM      1  C   UNL     1      -7.276   5.349 -12.067  1.00  0.00     0.000 C 
ENDROOT
BRANCH   1   2
ATOM      2  C   UNL     1      -6.277   4.690 -13.036  1.00  0.00     0.000 C 
BRANCH   2   3
ATOM      3  C   UNL     1      -5.835   5.628 -14.172  1.00  0.00     0.006 C 
BRANCH   3   4
ATOM      4  C   UNL     1      -6.263   5.110 -15.551  1.00  0.00     0.053 C 
BRANCH   4   5
ATOM      5  C   UNL     1      -7.407   5.898 -16.112  1.00  0.00     0.041 C 
ATOM      6  O   UNL     1      -7.452   6.164 -17.342  1.00  0.00    -0.550 OA
ATOM      7  O   UNL     1      -8.409   6.364 -15.270  1.00  0.00    -0.550 OA
ENDBRANCH   4   5
ENDBRANCH   3   4
ENDBRANCH   2   3
ENDBRANCH   1   2
BRANCH   1   8
ATOM      8  C   UNL     1      -8.636   4.637 -11.949  1.00  0.00     0.000 C 
BRANCH   8   9
ATOM      9  C   UNL     1      -9.496   5.174 -10.796  1.00  0.00    -0.000 C 
BRANCH   9  10
ATOM     10  C   UNL     1      -9.169   4.450  -9.484  1.00  0.00    -0.000 C 
BRANCH  10  11
ATOM     11  C   UNL     1      -9.060   5.442  -8.319  1.00  0.00    -0.000 C 
BRANCH  11  12
ATOM     12  C   UNL     1      -7.732   5.272  -7.575  1.00  0.00    -0.003 C 
ATOM     13  C   UNL     1      -7.187   6.619  -7.107  1.00  0.00     0.004 C 
ENDBRANCH  11  12
ENDBRANCH  10  11
ENDBRANCH   9  10
ENDBRANCH   8   9
ENDBRANCH   1   8
TORSDOF 9
ENDMDL
MODEL 9
REMARK VINA RESULT:    -3.971      4.352      7.438
REMARK INTER + INTRA:          -6.386
REMARK INTER:                  -6.102
REMARK INTRA:                  -0.284
REMARK UNBOUND:                -0.326
REMARK SMILES CCCCCCCCCCC(=O)[O-]
REMARK SMILES IDX 7 1 8 2 9 3 10 4 11 5 12 6 13 7 6 8 5 9 4 10 3 11 2 12 1 13
REMARK H PARENT
REMARK Flexibility Score: inf
ROOT
ATOM      1  C   UNL     1      -9.108   5.190  -8.376  1.00  0.00     0.000 C 
ENDROOT
BRANCH   1   2
ATOM      2  C   UNL     1      -7.618   5.526  -8.176  1.00  0.00     0.000 C 
BRANCH   2   3
ATOM      3  C   UNL     1      -7.366   6.443  -6.968  1.00  0.00     0.006 C 
BRANCH   3   4
ATOM      4  C   UNL     1      -5.983   7.104  -7.020  1.00  0.00     0.053 C 
BRANCH   4   5
ATOM      5  C   UNL     1      -5.631   7.762  -5.721  1.00  0.00     0.041 C 
ATOM      6  O   UNL     1      -4.811   7.217  -4.936  1.00  0.00    -0.550 OA
ATOM      7  O   UNL     1      -6.232   8.963  -5.364  1.00  0.00    -0.550 OA
ENDBRANCH   4   5
ENDBRANCH   3   4
ENDBRANCH   2   3
ENDBRANCH   1   2
BRANCH   1   8
ATOM      8  C   UNL     1      -9.474   4.656  -9.772  1.00  0.00     0.000 C 
BRANCH   8   9
ATOM      9  C   UNL     1      -8.613   5.260 -10.891  1.00  0.00    -0.000 C 
BRANCH   9  10
ATOM     10  C   UNL     1      -8.741   4.444 -12.183  1.00  0.00    -0.000 C 
BRANCH  10  11
ATOM     11  C   UNL     1      -7.587   4.753 -13.145  1.00  0.00    -0.000 C 
BRANCH  11  12
ATOM     12  C   UNL     1      -8.063   5.629 -14.310  1.00  0.00    -0.003 C 
ATOM     13  C   UNL     1      -6.992   5.736 -15.391  1.00  0.00     0.004 C 
ENDBRANCH  11  12
ENDBRANCH  10  11
ENDBRANCH   9  10
ENDBRANCH   8   9
ENDBRANCH   1   8
TORSDOF 9
ENDMDL
