MODEL 1
REMARK VINA RESULT:    -3.336      0.000      0.000
REMARK INTER + INTRA:          -4.468
REMARK INTER:                  -4.311
REMARK INTRA:                  -0.157
REMARK UNBOUND:                -0.157
REMARK SMILES CCCCCCC(=O)[O-]
REMARK SMILES IDX 5 1 6 2 7 3 8 4 9 5 4 6 3 7 2 8 1 9
REMARK H PARENT
REMARK Flexibility Score: inf
ROOT
ATOM      1  C   UNL     1     -17.078   3.677 -18.131  1.00  0.00     0.006 C 
ENDROOT
BRANCH   1   2
ATOM      2  C   UNL     1     -16.103   4.073 -19.245  1.00  0.00     0.053 C 
BRANCH   2   3
ATOM      3  C   UNL     1     -14.745   4.348 -18.678  1.00  0.00     0.041 C 
ATOM      4  O   UNL     1     -14.242   5.499 -18.769  1.00  0.00    -0.550 OA
ATOM      5  O   UNL     1     -14.057   3.348 -18.004  1.00  0.00    -0.550 OA
ENDBRANCH   2   3
ENDBRANCH   1   2
BRANCH   1   6
ATOM      6  C   UNL     1     -18.459   3.270 -18.670  1.00  0.00     0.000 C 
BRANCH   6   7
ATOM      7  C   UNL     1     -19.124   4.383 -19.494  1.00  0.00    -0.000 C 
BRANCH   7   8
ATOM      8  C   UNL     1     -20.639   4.406 -19.261  1.00  0.00    -0.003 C 
ATOM      9  C   UNL     1     -21.051   3.379 -18.209  1.00  0.00     0.004 C 
ENDBRANCH   7   8
ENDBRANCH   6   7
ENDBRANCH   1   6
TORSDOF 5
ENDMDL
MODEL 2
REMARK VINA RESULT:    -3.130      1.695      2.418
REMARK INTER + INTRA:          -4.202
REMARK INTER:                  -3.965
REMARK INTRA:                  -0.236
REMARK UNBOUND:                -0.157
REMARK SMILES CCCCCCC(=O)[O-]
REMARK SMILES IDX 5 1 6 2 7 3 8 4 9 5 4 6 3 7 2 8 1 9
REMARK H PARENT
REMARK Flexibility Score: inf
ROOT
ATOM      1  C   UNL     1     -18.899   4.752 -19.195  1.00  0.00     0.006 C 
ENDROOT
BRANCH   1   2
ATOM      2  C   UNL     1     -17.838   4.031 -20.035  1.00  0.00     0.053 C 
BRANCH   2   3
ATOM      3  C   UNL     1     -16.825   3.378 -19.149  1.00  0.00     0.041 C 
ATOM      4  O   UNL     1     -17.093   3.153 -17.939  1.00  0.00    -0.550 OA
ATOM      5  O   UNL     1     -15.603   2.973 -19.670  1.00  0.00    -0.550 OA
ENDBRANCH   2   3
ENDBRANCH   1   2
BRANCH   1   6
ATOM      6  C   UNL     1     -20.292   4.717 -19.843  1.00  0.00     0.000 C 
BRANCH   6   7
ATOM      7  C   UNL     1     -21.341   4.034 -18.953  1.00  0.00    -0.000 C 
BRANCH   7   8
ATOM      8  C   UNL     1     -20.696   2.953 -18.078  1.00  0.00    -0.003 C 
ATOM      9  C   UNL     1     -21.370   2.875 -16.710  1.00  0.00     0.004 C 
ENDBRANCH   7   8
ENDBRANCH   6   7
ENDBRANCH   1   6
TORSDOF 5
ENDMDL
MODEL 3
REMARK VINA RESULT:    -2.948      3.337      5.213
REMARK INTER + INTRA:          -3.967
REMARK INTER:                  -3.752
REMARK INTRA:                  -0.215
REMARK UNBOUND:                -0.157
REMARK SMILES CCCCCCC(=O)[O-]
REMARK SMILES IDX 5 1 6 2 7 3 8 4 9 5 4 6 3 7 2 8 1 9
REMARK H PARENT
REMARK Flexibility Score: inf
ROOT
ATOM      1  C   UNL     1     -17.931   4.087 -18.676  1.00  0.00     0.006 C 
ENDROOT
BRANCH   1   2
ATOM      2  C   UNL     1     -18.996   2.986 -18.622  1.00  0.00     0.053 C 
BRANCH   2   3
ATOM      3  C   UNL     1     -20.368   3.582 -18.668  1.00  0.00     0.041 C 
ATOM      4  O   UNL     1     -21.265   3.168 -17.887  1.00  0.00    -0.550 OA
ATOM      5  O   UNL     1     -20.642   4.630 -19.537  1.00  0.00    -0.550 OA
ENDBRANCH   2   3
ENDBRANCH   1   2
BRANCH   1   6
ATOM      6  C   UNL     1     -17.146   4.088 -19.998  1.00  0.00     0.000 C 
BRANCH   6   7
ATOM      7  C   UNL     1     -15.794   3.369 -19.884  1.00  0.00    -0.000 C 
BRANCH   7   8
ATOM      8  C   UNL     1     -15.034   3.826 -18.634  1.00  0.00    -0.003 C 
ATOM      9  C   UNL     1     -14.243   5.103 -18.905  1.00  0.00     0.004 C 
ENDBRANCH   7   8
ENDBRANCH   6   7
ENDBRANCH   1   6
TORSDOF 5
ENDMDL
MODEL 4
REMARK VINA RESULT:    -1.885      3.279      4.989
REMARK INTER + INTRA:          -2.594
REMARK INTER:                  -2.798
REMARK INTRA:                   0.205
REMARK UNBOUND:                -0.157
REMARK SMILES CCCCCCC(=O)[O-]
REMARK SMILES IDX 5 1 6 2 7 3 8 4 9 5 4 6 3 7 2 8 1 9
REMARK H PARENT
REMARK Flexibility Score: inf
ROOT
ATOM      1  C   UNL     1     -18.942   4.838 -19.550  1.00  0.00     0.006 C 
ENDROOT
BRANCH   1   2
ATOM      2  C   UNL     1     -20.382   4.747 -19.032  1.00  0.00     0.053 C 
BRANCH   2   3
ATOM      3  C   UNL     1     -20.574   3.492 -18.241  1.00  0.00     0.041 C 
ATOM      4  O   UNL     1     -19.621   3.014 -17.570  1.00  0.00    -0.550 OA
ATOM      5  O   UNL     1     -21.819   2.877 -18.202  1.00  0.00    -0.550 OA
ENDBRANCH   2   3
ENDBRANCH   1   2
BRANCH   1   6
ATOM      6  C   UNL     1     -18.434   3.507 -20.125  1.00  0.00     0.000 C 
BRANCH   6   7
ATOM      7  C   UNL     1     -16.901   3.407 -20.123  1.00  0.00    -0.000 C 
BRANCH   7   8
ATOM      8  C   UNL     1     -16.347   3.520 -18.698  1.00  0.00    -0.003 C 
ATOM      9  C   UNL     1     -14.908   4.028 -18.704  1.00  0.00     0.004 C 
ENDBRANCH   7   8
ENDBRANCH   6   7
ENDBRANCH   1   6
TORSDOF 5
ENDMDL
MODEL 5
REMARK VINA RESULT:    -1.839     20.969     22.344
REMARK INTER + INTRA:          -2.534
REMARK INTER:                  -2.399
REMARK INTRA:                  -0.135
REMARK UNBOUND:                -0.157
REMARK SMILES CCCCCCC(=O)[O-]
REMARK SMILES IDX 5 1 6 2 7 3 8 4 9 5 4 6 3 7 2 8 1 9
REMARK H PARENT
REMARK Flexibility Score: inf
ROOT
ATOM      1  C   UNL     1     -32.148  18.267 -10.662  1.00  0.00     0.006 C 
ENDROOT
BRANCH   1   2
ATOM      2  C   UNL     1     -30.621  18.385 -10.735  1.00  0.00     0.053 C 
BRANCH   2   3
ATOM      3  C   UNL     1     -30.046  17.246 -11.516  1.00  0.00     0.041 C 
ATOM      4  O   UNL     1     -29.349  17.468 -12.542  1.00  0.00    -0.550 OA
ATOM      5  O   UNL     1     -30.236  15.939 -11.083  1.00  0.00    -0.550 OA
ENDBRANCH   2   3
ENDBRANCH   1   2
BRANCH   1   6
ATOM      6  C   UNL     1     -32.829  19.601 -10.316  1.00  0.00     0.000 C 
BRANCH   6   7
ATOM      7  C   UNL     1     -31.872  20.798 -10.416  1.00  0.00    -0.000 C 
BRANCH   7   8
ATOM      8  C   UNL     1     -32.631  22.076 -10.792  1.00  0.00    -0.003 C 
ATOM      9  C   UNL     1     -32.525  23.125  -9.689  1.00  0.00     0.004 C 
ENDBRANCH   7   8
ENDBRANCH   6   7
ENDBRANCH   1   6
TORSDOF 5
ENDMDL
MODEL 6
REMARK VINA RESULT:    -1.700     21.825     23.334
REMARK INTER + INTRA:          -2.354
REMARK INTER:                  -2.181
REMARK INTRA:                  -0.174
REMARK UNBOUND:                -0.157
REMARK SMILES CCCCCCC(=O)[O-]
REMARK SMILES IDX 5 1 6 2 7 3 8 4 9 5 4 6 3 7 2 8 1 9
REMARK H PARENT
REMARK Flexibility Score: inf
ROOT
ATOM      1  C   UNL     1     -32.136  19.621 -10.484  1.00  0.00     0.006 C 
ENDROOT
BRANCH   1   2
ATOM      2  C   UNL     1     -33.126  20.688  -9.999  1.00  0.00     0.053 C 
BRANCH   2   3
ATOM      3  C   UNL     1     -32.657  22.053 -10.393  1.00  0.00     0.041 C 
ATOM      4  O   UNL     1     -31.473  22.228 -10.786  1.00  0.00    -0.550 OA
ATOM      5  O   UNL     1     -33.540  23.125 -10.373  1.00  0.00    -0.550 OA
ENDBRANCH   2   3
ENDBRANCH   1   2
BRANCH   1   6
ATOM      6  C   UNL     1     -32.714  18.199 -10.407  1.00  0.00     0.000 C 
BRANCH   6   7
ATOM      7  C   UNL     1     -31.654  17.116 -10.657  1.00  0.00    -0.000 C 
BRANCH   7   8
ATOM      8  C   UNL     1     -30.256  17.734 -10.773  1.00  0.00    -0.003 C 
ATOM      9  C   UNL     1     -29.555  17.279 -12.050  1.00  0.00     0.004 C 
ENDBRANCH   7   8
ENDBRANCH   6   7
ENDBRANCH   1   6
TORSDOF 5
ENDMDL
MODEL 7
REMARK VINA RESULT:    -1.353     21.846     23.334
REMARK INTER + INTRA:          -1.906
REMARK INTER:                  -1.730
REMARK INTRA:                  -0.175
REMARK UNBOUND:                -0.157
REMARK SMILES CCCCCCC(=O)[O-]
REMARK SMILES IDX 5 1 6 2 7 3 8 4 9 5 4 6 3 7 2 8 1 9
REMARK H PARENT
REMARK Flexibility Score: inf
ROOT
ATOM      1  C   UNL     1     -32.616  19.748 -11.003  1.00  0.00     0.006 C 
ENDROOT
BRANCH   1   2
ATOM      2  C   UNL     1     -32.986  20.743  -9.897  1.00  0.00     0.053 C 
BRANCH   2   3
ATOM      3  C   UNL     1     -32.673  22.142 -10.326  1.00  0.00     0.041 C 
ATOM      4  O   UNL     1     -31.536  22.425 -10.787  1.00  0.00    -0.550 OA
ATOM      5  O   UNL     1     -33.654  23.125 -10.265  1.00  0.00    -0.550 OA
ENDBRANCH   2   3
ENDBRANCH   1   2
BRANCH   1   6
ATOM      6  C   UNL     1     -31.881  18.511 -10.465  1.00  0.00     0.000 C 
BRANCH   6   7
ATOM      7  C   UNL     1     -30.360  18.594 -10.660  1.00  0.00    -0.000 C 
BRANCH   7   8
ATOM      8  C   UNL     1     -29.826  17.330 -11.344  1.00  0.00    -0.003 C 
ATOM      9  C   UNL     1     -30.727  16.130 -11.067  1.00  0.00     0.004 C 
ENDBRANCH   7   8
ENDBRANCH   6   7
ENDBRANCH   1   6
TORSDOF 5
ENDMDL
MODEL 8
REMARK VINA RESULT:    -1.251     20.938     22.332
REMARK INTER + INTRA:          -1.774
REMARK INTER:                  -1.637
REMARK INTRA:                  -0.137
REMARK UNBOUND:                -0.157
REMARK SMILES CCCCCCC(=O)[O-]
REMARK SMILES IDX 5 1 6 2 7 3 8 4 9 5 4 6 3 7 2 8 1 9
REMARK H PARENT
REMARK Flexibility Score: inf
ROOT
ATOM      1  C   UNL     1     -32.081  18.208 -10.509  1.00  0.00     0.006 C 
ENDROOT
BRANCH   1   2
ATOM      2  C   UNL     1     -30.586  18.402 -10.787  1.00  0.00     0.053 C 
BRANCH   2   3
ATOM      3  C   UNL     1     -30.028  17.213 -11.504  1.00  0.00     0.041 C 
ATOM      4  O   UNL     1     -30.248  16.051 -11.069  1.00  0.00    -0.550 OA
ATOM      5  O   UNL     1     -29.309  17.382 -12.680  1.00  0.00    -0.550 OA
ENDBRANCH   2   3
ENDBRANCH   1   2
BRANCH   1   6
ATOM      6  C   UNL     1     -32.847  19.538 -10.431  1.00  0.00     0.000 C 
BRANCH   6   7
ATOM      7  C   UNL     1     -31.916  20.759 -10.449  1.00  0.00    -0.000 C 
BRANCH   7   8
ATOM      8  C   UNL     1     -32.693  22.035 -10.794  1.00  0.00    -0.003 C 
ATOM      9  C   UNL     1     -32.454  23.125  -9.753  1.00  0.00     0.004 C 
ENDBRANCH   7   8
ENDBRANCH   6   7
ENDBRANCH   1   6
TORSDOF 5
ENDMDL
