MODEL 1
REMARK VINA RESULT:    -3.689      0.000      0.000
REMARK INTER + INTRA:          -3.922
REMARK INTER:                  -4.552
REMARK INTRA:                   0.630
REMARK UNBOUND:                 0.630
REMARK SMILES C=C1[C@@H]2CC[C@H]3[C@@H]2C(C)(C)CCC[C@@]13C
REMARK SMILES IDX 14 1 6 2 7 3 3 4 2 5 1 6 4 7 5 8 15 9 8 10 9 11 10 12 11 13
REMARK SMILES IDX 13 15 12 16
REMARK H PARENT
REMARK Flexibility Score: 80.00
ROOT
ATOM      1  C   UNL     1       8.959  20.201  24.192  1.00  0.00    -0.008 C 
ATOM      2  C   UNL     1       8.394  20.275  22.719  1.00  0.00     0.003 C 
ATOM      3  C   UNL     1       6.867  20.402  22.892  1.00  0.00     0.006 C 
ATOM      4  C   UNL     1       6.771  19.184  23.813  1.00  0.00     0.019 C 
ATOM      5  C   UNL     1       7.802  19.500  24.860  1.00  0.00    -0.068 C 
ATOM      6  C   UNL     1       7.732  19.132  26.144  1.00  0.00     0.009 C 
ATOM      7  C   UNL     1       7.380  18.086  22.911  1.00  0.00     0.008 C 
ATOM      8  C   UNL     1       8.432  18.860  22.078  1.00  0.00     0.005 C 
ATOM      9  C   UNL     1      10.257  19.358  24.317  1.00  0.00     0.016 C 
ENDROOT
BRANCH   3  10
ATOM     10  C   UNL     1       6.232  21.787  23.345  1.00  0.00    -0.032 C 
ATOM     11  C   UNL     1       5.564  22.434  22.099  1.00  0.00     0.011 C 
ATOM     12  C   UNL     1       5.100  21.582  24.382  1.00  0.00     0.011 C 
BRANCH  10  13
ATOM     13  C   UNL     1       7.256  22.841  23.854  1.00  0.00     0.007 CG0
ATOM     14  G   UNL     1       8.039  22.458  25.107  1.00  0.00     0.000 G0
ENDBRANCH  10  13
ENDBRANCH   3  10
BRANCH   1  15
ATOM     15  C   UNL     1       9.257  21.601  24.792  1.00  0.00     0.011 C 
BRANCH  15  16
ATOM     16  C   UNL     1       8.039  22.465  25.108  1.00  0.00     0.001 CG0
ATOM     17  G   UNL     1       7.251  22.841  23.855  1.00  0.00     0.000 G0
ENDBRANCH  15  16
ENDBRANCH   1  15
TORSDOF 0
ENDMDL
MODEL 2
REMARK VINA RESULT:    -3.566      1.788      3.255
REMARK INTER + INTRA:          -3.769
REMARK INTER:                  -4.399
REMARK INTRA:                   0.630
REMARK UNBOUND:                 0.630
REMARK SMILES C=C1[C@@H]2CC[C@H]3[C@@H]2C(C)(C)CCC[C@@]13C
REMARK SMILES IDX 14 1 6 2 7 3 3 4 2 5 1 6 4 7 5 8 15 9 8 10 9 11 10 12 11 13
REMARK SMILES IDX 13 15 12 16
REMARK H PARENT
REMARK Flexibility Score: 80.00
ROOT
ATOM      1  C   UNL     1       9.284  19.797  24.920  1.00  0.00    -0.008 C 
ATOM      2  C   UNL     1       7.970  18.984  25.253  1.00  0.00     0.003 C 
ATOM      3  C   UNL     1       6.832  19.801  24.607  1.00  0.00     0.006 C 
ATOM      4  C   UNL     1       7.255  21.108  25.280  1.00  0.00     0.019 C 
ATOM      5  C   UNL     1       8.710  21.192  24.916  1.00  0.00    -0.068 C 
ATOM      6  C   UNL     1       9.389  22.328  24.718  1.00  0.00     0.009 C 
ATOM      7  C   UNL     1       7.196  20.702  26.771  1.00  0.00     0.008 C 
ATOM      8  C   UNL     1       7.590  19.205  26.742  1.00  0.00     0.005 C 
ATOM      9  C   UNL     1      10.388  19.661  26.003  1.00  0.00     0.016 C 
ENDROOT
BRANCH   3  10
ATOM     10  C   UNL     1       6.618  19.756  23.033  1.00  0.00    -0.032 C 
ATOM     11  C   UNL     1       5.369  18.875  22.748  1.00  0.00     0.011 C 
ATOM     12  C   UNL     1       6.293  21.159  22.462  1.00  0.00     0.011 C 
BRANCH  10  13
ATOM     13  C   UNL     1       7.776  19.095  22.233  1.00  0.00     0.007 CG0
ATOM     14  G   UNL     1       9.131  19.793  22.324  1.00  0.00     0.000 G0
ENDBRANCH  10  13
ENDBRANCH   3  10
BRANCH   1  15
ATOM     15  C   UNL     1       9.914  19.389  23.561  1.00  0.00     0.011 C 
BRANCH  15  16
ATOM     16  C   UNL     1       9.130  19.790  22.315  1.00  0.00     0.001 CG0
ATOM     17  G   UNL     1       7.771  19.101  22.235  1.00  0.00     0.000 G0
ENDBRANCH  15  16
ENDBRANCH   1  15
TORSDOF 0
ENDMDL
MODEL 3
REMARK VINA RESULT:    -3.424      1.584      3.049
REMARK INTER + INTRA:          -3.595
REMARK INTER:                  -4.220
REMARK INTRA:                   0.625
REMARK UNBOUND:                 0.630
REMARK SMILES C=C1[C@@H]2CC[C@H]3[C@@H]2C(C)(C)CCC[C@@]13C
REMARK SMILES IDX 14 1 6 2 7 3 3 4 2 5 1 6 4 7 5 8 15 9 8 10 9 11 10 12 11 13
REMARK SMILES IDX 13 15 12 16
REMARK H PARENT
REMARK Flexibility Score: 80.00
ROOT
ATOM      1  C   UNL     1       8.910  21.235  26.343  1.00  0.00    -0.008 C 
ATOM      2  C   UNL     1       9.516  19.869  25.827  1.00  0.00     0.003 C 
ATOM      3  C   UNL     1       8.358  19.191  25.068  1.00  0.00     0.006 C 
ATOM      4  C   UNL     1       7.377  19.336  26.233  1.00  0.00     0.019 C 
ATOM      5  C   UNL     1       7.480  20.801  26.548  1.00  0.00    -0.068 C 
ATOM      6  C   UNL     1       6.482  21.558  27.020  1.00  0.00     0.009 C 
ATOM      7  C   UNL     1       8.140  18.589  27.352  1.00  0.00     0.008 C 
ATOM      8  C   UNL     1       9.624  18.871  27.013  1.00  0.00     0.005 C 
ATOM      9  C   UNL     1       9.532  21.723  27.679  1.00  0.00     0.016 C 
ENDROOT
BRANCH   3  10
ATOM     10  C   UNL     1       7.949  19.706  23.621  1.00  0.00    -0.032 C 
ATOM     11  C   UNL     1       8.475  18.676  22.582  1.00  0.00     0.011 C 
ATOM     12  C   UNL     1       6.410  19.746  23.445  1.00  0.00     0.011 C 
BRANCH  10  13
ATOM     13  C   UNL     1       8.582  21.065  23.206  1.00  0.00     0.007 CG0
ATOM     14  G   UNL     1       8.191  22.269  24.059  1.00  0.00     0.000 G0
ENDBRANCH  10  13
ENDBRANCH   3  10
BRANCH   1  15
ATOM     15  C   UNL     1       9.061  22.385  25.313  1.00  0.00     0.011 C 
BRANCH  15  16
ATOM     16  C   UNL     1       8.197  22.277  24.059  1.00  0.00     0.001 CG0
ATOM     17  G   UNL     1       8.563  21.068  23.203  1.00  0.00     0.000 G0
ENDBRANCH  15  16
ENDBRANCH   1  15
TORSDOF 0
ENDMDL
MODEL 4
REMARK VINA RESULT:    -3.416      2.992      4.200
REMARK INTER + INTRA:          -3.585
REMARK INTER:                  -4.226
REMARK INTRA:                   0.641
REMARK UNBOUND:                 0.630
REMARK SMILES C=C1[C@@H]2CC[C@H]3[C@@H]2C(C)(C)CCC[C@@]13C
REMARK SMILES IDX 14 1 6 2 7 3 3 4 2 5 1 6 4 7 5 8 15 9 8 10 9 11 10 12 11 13
REMARK SMILES IDX 13 15 12 16
REMARK H PARENT
REMARK Flexibility Score: 80.00
ROOT
ATOM      1  C   UNL     1      11.724  21.435  24.842  1.00  0.00    -0.008 C 
ATOM      2  C   UNL     1      10.475  20.842  24.077  1.00  0.00     0.003 C 
ATOM      3  C   UNL     1      10.056  19.612  24.909  1.00  0.00     0.006 C 
ATOM      4  C   UNL     1      11.461  19.007  24.904  1.00  0.00     0.019 C 
ATOM      5  C   UNL     1      12.298  20.154  25.395  1.00  0.00    -0.068 C 
ATOM      6  C   UNL     1      13.416  20.035  26.122  1.00  0.00     0.009 C 
ATOM      7  C   UNL     1      11.724  18.888  23.385  1.00  0.00     0.008 C 
ATOM      8  C   UNL     1      10.954  20.099  22.800  1.00  0.00     0.005 C 
ATOM      9  C   UNL     1      12.747  22.136  23.907  1.00  0.00     0.016 C 
ENDROOT
BRANCH   3  10
ATOM     10  C   UNL     1       9.286  19.810  26.284  1.00  0.00    -0.032 C 
ATOM     11  C   UNL     1       7.795  19.432  26.054  1.00  0.00     0.011 C 
ATOM     12  C   UNL     1       9.810  18.843  27.375  1.00  0.00     0.011 C 
BRANCH  10  13
ATOM     13  C   UNL     1       9.259  21.271  26.817  1.00  0.00     0.007 CG0
ATOM     14  G   UNL     1      10.615  21.874  27.173  1.00  0.00     0.000 G0
ENDBRANCH  10  13
ENDBRANCH   3  10
BRANCH   1  15
ATOM     15  C   UNL     1      11.326  22.455  25.942  1.00  0.00     0.011 C 
BRANCH  15  16
ATOM     16  C   UNL     1      10.617  21.877  27.163  1.00  0.00     0.001 CG0
ATOM     17  G   UNL     1       9.255  21.282  26.818  1.00  0.00     0.000 G0
ENDBRANCH  15  16
ENDBRANCH   1  15
TORSDOF 0
ENDMDL
MODEL 5
REMARK VINA RESULT:    -3.412     12.568     14.545
REMARK INTER + INTRA:          -3.580
REMARK INTER:                  -4.220
REMARK INTRA:                   0.641
REMARK UNBOUND:                 0.630
REMARK SMILES C=C1[C@@H]2CC[C@H]3[C@@H]2C(C)(C)CCC[C@@]13C
REMARK SMILES IDX 14 1 6 2 7 3 3 4 2 5 1 6 4 7 5 8 15 9 8 10 9 11 10 12 11 13
REMARK SMILES IDX 13 15 12 16
REMARK H PARENT
REMARK Flexibility Score: 80.00
ROOT
ATOM      1  C   UNL     1      15.136  17.646  37.423  1.00  0.00    -0.008 C 
ATOM      2  C   UNL     1      14.836  16.866  36.082  1.00  0.00     0.003 C 
ATOM      3  C   UNL     1      13.309  16.971  35.903  1.00  0.00     0.006 C 
ATOM      4  C   UNL     1      13.008  16.453  37.311  1.00  0.00     0.019 C 
ATOM      5  C   UNL     1      13.855  17.353  38.164  1.00  0.00    -0.068 C 
ATOM      6  C   UNL     1      13.551  17.744  39.408  1.00  0.00     0.009 C 
ATOM      7  C   UNL     1      13.721  15.080  37.275  1.00  0.00     0.008 C 
ATOM      8  C   UNL     1      14.929  15.337  36.341  1.00  0.00     0.005 C 
ATOM      9  C   UNL     1      16.359  17.092  38.203  1.00  0.00     0.016 C 
ENDROOT
BRANCH   3  10
ATOM     10  C   UNL     1      12.660  18.335  35.409  1.00  0.00    -0.032 C 
ATOM     11  C   UNL     1      12.234  18.149  33.925  1.00  0.00     0.011 C 
ATOM     12  C   UNL     1      11.362  18.664  36.189  1.00  0.00     0.011 C 
BRANCH  10  13
ATOM     13  C   UNL     1      13.622  19.557  35.408  1.00  0.00     0.007 CG0
ATOM     14  G   UNL     1      14.165  19.976  36.772  1.00  0.00     0.000 G0
ENDBRANCH  10  13
ENDBRANCH   3  10
BRANCH   1  15
ATOM     15  C   UNL     1      15.380  19.162  37.195  1.00  0.00     0.011 C 
BRANCH  15  16
ATOM     16  C   UNL     1      14.161  19.978  36.775  1.00  0.00     0.001 CG0
ATOM     17  G   UNL     1      13.625  19.562  35.407  1.00  0.00     0.000 G0
ENDBRANCH  15  16
ENDBRANCH   1  15
TORSDOF 0
ENDMDL
MODEL 6
REMARK VINA RESULT:    -3.383      1.549      3.768
REMARK INTER + INTRA:          -3.544
REMARK INTER:                  -4.184
REMARK INTRA:                   0.640
REMARK UNBOUND:                 0.630
REMARK SMILES C=C1[C@@H]2CC[C@H]3[C@@H]2C(C)(C)CCC[C@@]13C
REMARK SMILES IDX 14 1 6 2 7 3 3 4 2 5 1 6 4 7 5 8 15 9 8 10 9 11 10 12 11 13
REMARK SMILES IDX 13 15 12 16
REMARK H PARENT
REMARK Flexibility Score: 80.00
ROOT
ATOM      1  C   UNL     1       6.946  20.681  24.422  1.00  0.00    -0.008 C 
ATOM      2  C   UNL     1       7.558  19.233  24.584  1.00  0.00     0.003 C 
ATOM      3  C   UNL     1       9.084  19.452  24.581  1.00  0.00     0.006 C 
ATOM      4  C   UNL     1       9.065  20.261  23.283  1.00  0.00     0.019 C 
ATOM      5  C   UNL     1       8.029  21.308  23.580  1.00  0.00    -0.068 C 
ATOM      6  C   UNL     1       8.035  22.555  23.096  1.00  0.00     0.009 C 
ATOM      7  C   UNL     1       8.404  19.249  22.317  1.00  0.00     0.008 C 
ATOM      8  C   UNL     1       7.436  18.467  23.238  1.00  0.00     0.005 C 
ATOM      9  C   UNL     1       5.588  20.699  23.670  1.00  0.00     0.016 C 
ENDROOT
BRANCH   3  10
ATOM     10  C   UNL     1       9.803  20.042  25.869  1.00  0.00    -0.032 C 
ATOM     11  C   UNL     1      10.556  18.876  26.570  1.00  0.00     0.011 C 
ATOM     12  C   UNL     1      10.886  21.084  25.490  1.00  0.00     0.011 C 
BRANCH  10  13
ATOM     13  C   UNL     1       8.844  20.618  26.949  1.00  0.00     0.007 CG0
ATOM     14  G   UNL     1       7.999  21.814  26.519  1.00  0.00     0.000 G0
ENDBRANCH  10  13
ENDBRANCH   3  10
BRANCH   1  15
ATOM     15  C   UNL     1       6.733  21.398  25.782  1.00  0.00     0.011 C 
BRANCH  15  16
ATOM     16  C   UNL     1       8.000  21.813  26.524  1.00  0.00     0.001 CG0
ATOM     17  G   UNL     1       8.847  20.615  26.945  1.00  0.00     0.000 G0
ENDBRANCH  15  16
ENDBRANCH   1  15
TORSDOF 0
ENDMDL
MODEL 7
REMARK VINA RESULT:    -3.347      2.817      4.825
REMARK INTER + INTRA:          -3.500
REMARK INTER:                  -4.138
REMARK INTRA:                   0.638
REMARK UNBOUND:                 0.630
REMARK SMILES C=C1[C@@H]2CC[C@H]3[C@@H]2C(C)(C)CCC[C@@]13C
REMARK SMILES IDX 14 1 6 2 7 3 3 4 2 5 1 6 4 7 5 8 15 9 8 10 9 11 10 12 11 13
REMARK SMILES IDX 13 15 12 16
REMARK H PARENT
REMARK Flexibility Score: 80.00
ROOT
ATOM      1  C   UNL     1      10.128  21.253  26.442  1.00  0.00    -0.008 C 
ATOM      2  C   UNL     1      11.664  20.893  26.518  1.00  0.00     0.003 C 
ATOM      3  C   UNL     1      11.828  19.682  25.576  1.00  0.00     0.006 C 
ATOM      4  C   UNL     1      10.702  18.888  26.241  1.00  0.00     0.019 C 
ATOM      5  C   UNL     1       9.567  19.871  26.215  1.00  0.00    -0.068 C 
ATOM      6  C   UNL     1       8.273  19.549  26.103  1.00  0.00     0.009 C 
ATOM      7  C   UNL     1      11.205  18.832  27.702  1.00  0.00     0.008 C 
ATOM      8  C   UNL     1      11.961  20.175  27.863  1.00  0.00     0.005 C 
ATOM      9  C   UNL     1       9.568  21.863  27.756  1.00  0.00     0.016 C 
ENDROOT
BRANCH   3  10
ATOM     10  C   UNL     1      11.822  19.896  24.002  1.00  0.00    -0.032 C 
ATOM     11  C   UNL     1      13.284  19.744  23.495  1.00  0.00     0.011 C 
ATOM     12  C   UNL     1      11.002  18.797  23.281  1.00  0.00     0.011 C 
BRANCH  10  13
ATOM     13  C   UNL     1      11.372  21.309  23.534  1.00  0.00     0.007 CG0
ATOM     14  G   UNL     1       9.936  21.697  23.875  1.00  0.00     0.000 G0
ENDBRANCH  10  13
ENDBRANCH   3  10
BRANCH   1  15
ATOM     15  C   UNL     1       9.800  22.244  25.294  1.00  0.00     0.011 C 
BRANCH  15  16
ATOM     16  C   UNL     1       9.935  21.694  23.877  1.00  0.00     0.001 CG0
ATOM     17  G   UNL     1      11.371  21.303  23.539  1.00  0.00     0.000 G0
ENDBRANCH  15  16
ENDBRANCH   1  15
TORSDOF 0
ENDMDL
MODEL 8
REMARK VINA RESULT:    -3.344      2.893      4.660
REMARK INTER + INTRA:          -3.497
REMARK INTER:                  -4.136
REMARK INTRA:                   0.640
REMARK UNBOUND:                 0.630
REMARK SMILES C=C1[C@@H]2CC[C@H]3[C@@H]2C(C)(C)CCC[C@@]13C
REMARK SMILES IDX 14 1 6 2 7 3 3 4 2 5 1 6 4 7 5 8 15 9 8 10 9 11 10 12 11 13
REMARK SMILES IDX 13 15 12 16
REMARK H PARENT
REMARK Flexibility Score: 80.00
ROOT
ATOM      1  C   UNL     1      12.324  20.210  25.722  1.00  0.00    -0.008 C 
ATOM      2  C   UNL     1      11.220  19.082  25.647  1.00  0.00     0.003 C 
ATOM      3  C   UNL     1       9.988  19.781  25.038  1.00  0.00     0.006 C 
ATOM      4  C   UNL     1      10.013  20.925  26.053  1.00  0.00     0.019 C 
ATOM      5  C   UNL     1      11.433  21.405  25.952  1.00  0.00    -0.068 C 
ATOM      6  C   UNL     1      11.832  22.670  26.131  1.00  0.00     0.009 C 
ATOM      7  C   UNL     1       9.906  20.141  27.382  1.00  0.00     0.008 C 
ATOM      8  C   UNL     1      10.652  18.820  27.069  1.00  0.00     0.005 C 
ATOM      9  C   UNL     1      13.315  20.030  26.903  1.00  0.00     0.016 C 
ENDROOT
BRANCH   3  10
ATOM     10  C   UNL     1       9.949  20.105  23.483  1.00  0.00    -0.032 C 
ATOM     11  C   UNL     1       8.983  19.090  22.809  1.00  0.00     0.011 C 
ATOM     12  C   UNL     1       9.354  21.510  23.209  1.00  0.00     0.011 C 
BRANCH  10  13
ATOM     13  C   UNL     1      11.306  19.932  22.742  1.00  0.00     0.007 CG0
ATOM     14  G   UNL     1      12.435  20.852  23.200  1.00  0.00     0.000 G0
ENDBRANCH  10  13
ENDBRANCH   3  10
BRANCH   1  15
ATOM     15  C   UNL     1      13.166  20.314  24.422  1.00  0.00     0.011 C 
BRANCH  15  16
ATOM     16  C   UNL     1      12.435  20.850  23.195  1.00  0.00     0.001 CG0
ATOM     17  G   UNL     1      11.308  19.929  22.738  1.00  0.00     0.000 G0
ENDBRANCH  15  16
ENDBRANCH   1  15
TORSDOF 0
ENDMDL
MODEL 9
REMARK VINA RESULT:    -3.313      2.651      5.131
REMARK INTER + INTRA:          -3.458
REMARK INTER:                  -4.096
REMARK INTRA:                   0.638
REMARK UNBOUND:                 0.630
REMARK SMILES C=C1[C@@H]2CC[C@H]3[C@@H]2C(C)(C)CCC[C@@]13C
REMARK SMILES IDX 14 1 6 2 7 3 3 4 2 5 1 6 4 7 5 8 15 9 8 10 9 11 10 12 11 13
REMARK SMILES IDX 13 15 12 16
REMARK H PARENT
REMARK Flexibility Score: 80.00
ROOT
ATOM      1  C   UNL     1       9.841  19.795  24.487  1.00  0.00    -0.008 C 
ATOM      2  C   UNL     1      11.200  19.005  24.642  1.00  0.00     0.003 C 
ATOM      3  C   UNL     1      12.166  20.013  25.295  1.00  0.00     0.006 C 
ATOM      4  C   UNL     1      11.892  21.101  24.254  1.00  0.00     0.019 C 
ATOM      5  C   UNL     1      10.392  21.183  24.275  1.00  0.00    -0.068 C 
ATOM      6  C   UNL     1       9.679  22.293  24.048  1.00  0.00     0.009 C 
ATOM      7  C   UNL     1      12.275  20.362  22.951  1.00  0.00     0.008 C 
ATOM      8  C   UNL     1      11.893  18.892  23.256  1.00  0.00     0.005 C 
ATOM      9  C   UNL     1       8.998  19.347  23.263  1.00  0.00     0.016 C 
ENDROOT
BRANCH   3  10
ATOM     10  C   UNL     1      12.034  20.349  26.842  1.00  0.00    -0.032 C 
ATOM     11  C   UNL     1      13.202  19.641  27.585  1.00  0.00     0.011 C 
ATOM     12  C   UNL     1      12.210  21.865  27.113  1.00  0.00     0.011 C 
BRANCH  10  13
ATOM     13  C   UNL     1      10.739  19.820  27.520  1.00  0.00     0.007 CG0
ATOM     14  G   UNL     1       9.428  20.399  26.994  1.00  0.00     0.000 G0
ENDBRANCH  10  13
ENDBRANCH   3  10
BRANCH   1  15
ATOM     15  C   UNL     1       8.934  19.680  25.741  1.00  0.00     0.011 C 
BRANCH  15  16
ATOM     16  C   UNL     1       9.432  20.396  26.994  1.00  0.00     0.001 CG0
ATOM     17  G   UNL     1      10.746  19.817  27.511  1.00  0.00     0.000 G0
ENDBRANCH  15  16
ENDBRANCH   1  15
TORSDOF 0
ENDMDL
