MODEL 1
REMARK VINA RESULT:    -3.226      0.000      0.000
REMARK INTER + INTRA:          -4.686
REMARK INTER:                  -4.357
REMARK INTRA:                  -0.329
REMARK UNBOUND:                -0.329
REMARK SMILES CCCCCCCC(=O)[O-]
REMARK SMILES IDX 5 1 6 2 7 3 8 4 9 5 10 6 4 7 3 8 2 9 1 10
REMARK H PARENT
REMARK Flexibility Score: inf
ROOT
ATOM      1  C   UNL     1     -16.586   6.651   0.371  1.00  0.00     0.000 C 
ENDROOT
BRANCH   1   2
ATOM      2  C   UNL     1     -15.445   7.607   0.751  1.00  0.00     0.006 C 
BRANCH   2   3
ATOM      3  C   UNL     1     -14.086   7.129   0.221  1.00  0.00     0.053 C 
BRANCH   3   4
ATOM      4  C   UNL     1     -13.044   8.200   0.321  1.00  0.00     0.041 C 
ATOM      5  O   UNL     1     -13.192   9.155   1.127  1.00  0.00    -0.550 OA
ATOM      6  O   UNL     1     -11.922   8.160  -0.500  1.00  0.00    -0.550 OA
ENDBRANCH   3   4
ENDBRANCH   2   3
ENDBRANCH   1   2
BRANCH   1   7
ATOM      7  C   UNL     1     -16.035   5.335  -0.190  1.00  0.00     0.000 C 
BRANCH   7   8
ATOM      8  C   UNL     1     -17.054   4.666  -1.124  1.00  0.00    -0.000 C 
BRANCH   8   9
ATOM      9  C   UNL     1     -16.388   3.929  -2.297  1.00  0.00    -0.003 C 
ATOM     10  C   UNL     1     -14.866   4.073  -2.296  1.00  0.00     0.004 C 
ENDBRANCH   8   9
ENDBRANCH   7   8
ENDBRANCH   1   7
TORSDOF 6
ENDMDL
MODEL 2
REMARK VINA RESULT:    -3.205      9.446     11.771
REMARK INTER + INTRA:          -4.659
REMARK INTER:                  -4.369
REMARK INTRA:                  -0.290
REMARK UNBOUND:                -0.329
REMARK SMILES CCCCCCCC(=O)[O-]
REMARK SMILES IDX 5 1 6 2 7 3 8 4 9 5 10 6 4 7 3 8 2 9 1 10
REMARK H PARENT
REMARK Flexibility Score: inf
ROOT
ATOM      1  C   UNL     1     -14.678  13.110   6.859  1.00  0.00     0.000 C 
ENDROOT
BRANCH   1   2
ATOM      2  C   UNL     1     -15.880  12.353   7.443  1.00  0.00     0.006 C 
BRANCH   2   3
ATOM      3  C   UNL     1     -15.809  10.845   7.161  1.00  0.00     0.053 C 
BRANCH   3   4
ATOM      4  C   UNL     1     -15.762  10.045   8.426  1.00  0.00     0.041 C 
ATOM      5  O   UNL     1     -15.167   8.936   8.452  1.00  0.00    -0.550 OA
ATOM      6  O   UNL     1     -16.403  10.509   9.569  1.00  0.00    -0.550 OA
ENDBRANCH   3   4
ENDBRANCH   2   3
ENDBRANCH   1   2
BRANCH   1   7
ATOM      7  C   UNL     1     -13.719  13.558   7.968  1.00  0.00     0.000 C 
BRANCH   7   8
ATOM      8  C   UNL     1     -14.380  13.435   9.349  1.00  0.00    -0.000 C 
BRANCH   8   9
ATOM      9  C   UNL     1     -13.876  14.493  10.342  1.00  0.00    -0.003 C 
ATOM     10  C   UNL     1     -13.451  13.892  11.681  1.00  0.00     0.004 C 
ENDBRANCH   8   9
ENDBRANCH   7   8
ENDBRANCH   1   7
TORSDOF 6
ENDMDL
MODEL 3
REMARK VINA RESULT:    -3.115     10.239     11.864
REMARK INTER + INTRA:          -4.537
REMARK INTER:                  -4.232
REMARK INTRA:                  -0.305
REMARK UNBOUND:                -0.329
REMARK SMILES CCCCCCCC(=O)[O-]
REMARK SMILES IDX 5 1 6 2 7 3 8 4 9 5 10 6 4 7 3 8 2 9 1 10
REMARK H PARENT
REMARK Flexibility Score: inf
ROOT
ATOM      1  C   UNL     1     -14.080  13.274   7.981  1.00  0.00     0.000 C 
ENDROOT
BRANCH   1   2
ATOM      2  C   UNL     1     -14.500  13.306   9.458  1.00  0.00     0.006 C 
BRANCH   2   3
ATOM      3  C   UNL     1     -13.767  14.400  10.246  1.00  0.00     0.053 C 
BRANCH   3   4
ATOM      4  C   UNL     1     -13.865  14.180  11.724  1.00  0.00     0.041 C 
ATOM      5  O   UNL     1     -14.952  14.386  12.325  1.00  0.00    -0.550 OA
ATOM      6  O   UNL     1     -12.747  13.776  12.445  1.00  0.00    -0.550 OA
ENDBRANCH   3   4
ENDBRANCH   2   3
ENDBRANCH   1   2
BRANCH   1   7
ATOM      7  C   UNL     1     -15.273  12.933   7.079  1.00  0.00     0.000 C 
BRANCH   7   8
ATOM      8  C   UNL     1     -16.133  11.824   7.701  1.00  0.00    -0.000 C 
BRANCH   8   9
ATOM      9  C   UNL     1     -15.768  10.427   7.173  1.00  0.00    -0.003 C 
ATOM     10  C   UNL     1     -15.370   9.460   8.288  1.00  0.00     0.004 C 
ENDBRANCH   8   9
ENDBRANCH   7   8
ENDBRANCH   1   7
TORSDOF 6
ENDMDL
MODEL 4
REMARK VINA RESULT:    -3.095     10.424     12.102
REMARK INTER + INTRA:          -4.510
REMARK INTER:                  -4.067
REMARK INTRA:                  -0.443
REMARK UNBOUND:                -0.329
REMARK SMILES CCCCCCCC(=O)[O-]
REMARK SMILES IDX 5 1 6 2 7 3 8 4 9 5 10 6 4 7 3 8 2 9 1 10
REMARK H PARENT
REMARK Flexibility Score: inf
ROOT
ATOM      1  C   UNL     1     -16.434  12.131   9.563  1.00  0.00     0.000 C 
ENDROOT
BRANCH   1   2
ATOM      2  C   UNL     1     -16.020  13.369  10.374  1.00  0.00     0.006 C 
BRANCH   2   3
ATOM      3  C   UNL     1     -15.003  13.031  11.473  1.00  0.00     0.053 C 
BRANCH   3   4
ATOM      4  C   UNL     1     -13.778  13.887  11.379  1.00  0.00     0.041 C 
ATOM      5  O   UNL     1     -12.846  13.754  12.214  1.00  0.00    -0.550 OA
ATOM      6  O   UNL     1     -13.679  14.855  10.386  1.00  0.00    -0.550 OA
ENDBRANCH   3   4
ENDBRANCH   2   3
ENDBRANCH   1   2
BRANCH   1   7
ATOM      7  C   UNL     1     -15.238  11.549   8.801  1.00  0.00     0.000 C 
BRANCH   7   8
ATOM      8  C   UNL     1     -15.397  11.758   7.288  1.00  0.00    -0.000 C 
BRANCH   8   9
ATOM      9  C   UNL     1     -14.974  13.166   6.837  1.00  0.00    -0.003 C 
ATOM     10  C   UNL     1     -13.535  13.502   7.224  1.00  0.00     0.004 C 
ENDBRANCH   8   9
ENDBRANCH   7   8
ENDBRANCH   1   7
TORSDOF 6
ENDMDL
MODEL 5
REMARK VINA RESULT:    -2.955     10.373     12.555
REMARK INTER + INTRA:          -4.321
REMARK INTER:                  -3.830
REMARK INTRA:                  -0.491
REMARK UNBOUND:                -0.329
REMARK SMILES CCCCCCCC(=O)[O-]
REMARK SMILES IDX 5 1 6 2 7 3 8 4 9 5 10 6 4 7 3 8 2 9 1 10
REMARK H PARENT
REMARK Flexibility Score: inf
ROOT
ATOM      1  C   UNL     1     -16.303  12.964   9.911  1.00  0.00     0.000 C 
ENDROOT
BRANCH   1   2
ATOM      2  C   UNL     1     -15.328  11.923   9.339  1.00  0.00     0.006 C 
BRANCH   2   3
ATOM      3  C   UNL     1     -15.570  11.659   7.846  1.00  0.00     0.053 C 
BRANCH   3   4
ATOM      4  C   UNL     1     -15.346  12.888   7.021  1.00  0.00     0.041 C 
ATOM      5  O   UNL     1     -14.189  13.369   6.903  1.00  0.00    -0.550 OA
ATOM      6  O   UNL     1     -16.420  13.521   6.407  1.00  0.00    -0.550 OA
ENDBRANCH   3   4
ENDBRANCH   2   3
ENDBRANCH   1   2
BRANCH   1   7
ATOM      7  C   UNL     1     -15.580  13.936  10.850  1.00  0.00     0.000 C 
BRANCH   7   8
ATOM      8  C   UNL     1     -14.070  13.948  10.571  1.00  0.00    -0.000 C 
BRANCH   8   9
ATOM      9  C   UNL     1     -13.231  13.993  11.858  1.00  0.00    -0.003 C 
ATOM     10  C   UNL     1     -13.695  12.977  12.901  1.00  0.00     0.004 C 
ENDBRANCH   8   9
ENDBRANCH   7   8
ENDBRANCH   1   7
TORSDOF 6
ENDMDL
MODEL 6
REMARK VINA RESULT:    -2.937      2.686      4.590
REMARK INTER + INTRA:          -4.297
REMARK INTER:                  -4.073
REMARK INTRA:                  -0.223
REMARK UNBOUND:                -0.329
REMARK SMILES CCCCCCCC(=O)[O-]
REMARK SMILES IDX 5 1 6 2 7 3 8 4 9 5 10 6 4 7 3 8 2 9 1 10
REMARK H PARENT
REMARK Flexibility Score: inf
ROOT
ATOM      1  C   UNL     1     -15.720   7.500   0.741  1.00  0.00     0.000 C 
ENDROOT
BRANCH   1   2
ATOM      2  C   UNL     1     -16.659   6.518   0.023  1.00  0.00     0.006 C 
BRANCH   2   3
ATOM      3  C   UNL     1     -16.099   5.089   0.001  1.00  0.00     0.053 C 
BRANCH   3   4
ATOM      4  C   UNL     1     -15.882   4.599  -1.398  1.00  0.00     0.041 C 
ATOM      5  O   UNL     1     -16.857   4.203  -2.088  1.00  0.00    -0.550 OA
ATOM      6  O   UNL     1     -14.599   4.550  -1.928  1.00  0.00    -0.550 OA
ENDBRANCH   3   4
ENDBRANCH   2   3
ENDBRANCH   1   2
BRANCH   1   7
ATOM      7  C   UNL     1     -14.258   7.238   0.360  1.00  0.00     0.000 C 
BRANCH   7   8
ATOM      8  C   UNL     1     -13.377   8.449   0.701  1.00  0.00    -0.000 C 
BRANCH   8   9
ATOM      9  C   UNL     1     -12.264   8.680  -0.333  1.00  0.00    -0.003 C 
ATOM     10  C   UNL     1     -11.882   7.405  -1.084  1.00  0.00     0.004 C 
ENDBRANCH   8   9
ENDBRANCH   7   8
ENDBRANCH   1   7
TORSDOF 6
ENDMDL
MODEL 7
REMARK VINA RESULT:    -2.828     11.544     13.680
REMARK INTER + INTRA:          -4.150
REMARK INTER:                  -3.771
REMARK INTRA:                  -0.378
REMARK UNBOUND:                -0.329
REMARK SMILES CCCCCCCC(=O)[O-]
REMARK SMILES IDX 5 1 6 2 7 3 8 4 9 5 10 6 4 7 3 8 2 9 1 10
REMARK H PARENT
REMARK Flexibility Score: inf
ROOT
ATOM      1  C   UNL     1     -13.733  13.545  11.313  1.00  0.00     0.000 C 
ENDROOT
BRANCH   1   2
ATOM      2  C   UNL     1     -14.258  14.059   9.964  1.00  0.00     0.006 C 
BRANCH   2   3
ATOM      3  C   UNL     1     -15.004  12.971   9.179  1.00  0.00     0.053 C 
BRANCH   3   4
ATOM      4  C   UNL     1     -14.540  12.895   7.757  1.00  0.00     0.041 C 
ATOM      5  O   UNL     1     -15.141  12.158   6.933  1.00  0.00    -0.550 OA
ATOM      6  O   UNL     1     -13.423  13.615   7.349  1.00  0.00    -0.550 OA
ENDBRANCH   3   4
ENDBRANCH   2   3
ENDBRANCH   1   2
BRANCH   1   7
ATOM      7  C   UNL     1     -14.306  14.367  12.474  1.00  0.00     0.000 C 
BRANCH   7   8
ATOM      8  C   UNL     1     -15.825  14.175  12.586  1.00  0.00    -0.000 C 
BRANCH   8   9
ATOM      9  C   UNL     1     -16.567  15.489  12.877  1.00  0.00    -0.003 C 
ATOM     10  C   UNL     1     -17.125  16.144  11.614  1.00  0.00     0.004 C 
ENDBRANCH   8   9
ENDBRANCH   7   8
ENDBRANCH   1   7
TORSDOF 6
ENDMDL
MODEL 8
REMARK VINA RESULT:    -2.804      9.559     10.292
REMARK INTER + INTRA:          -4.117
REMARK INTER:                  -3.815
REMARK INTRA:                  -0.302
REMARK UNBOUND:                -0.329
REMARK SMILES CCCCCCCC(=O)[O-]
REMARK SMILES IDX 5 1 6 2 7 3 8 4 9 5 10 6 4 7 3 8 2 9 1 10
REMARK H PARENT
REMARK Flexibility Score: inf
ROOT
ATOM      1  C   UNL     1     -16.499  11.098   9.652  1.00  0.00     0.000 C 
ENDROOT
BRANCH   1   2
ATOM      2  C   UNL     1     -16.049  12.529   9.322  1.00  0.00     0.006 C 
BRANCH   2   3
ATOM      3  C   UNL     1     -14.565  12.596   8.934  1.00  0.00     0.053 C 
BRANCH   3   4
ATOM      4  C   UNL     1     -14.375  13.171   7.565  1.00  0.00     0.041 C 
ATOM      5  O   UNL     1     -13.270  13.681   7.239  1.00  0.00    -0.550 OA
ATOM      6  O   UNL     1     -15.427  13.174   6.657  1.00  0.00    -0.550 OA
ENDBRANCH   3   4
ENDBRANCH   2   3
ENDBRANCH   1   2
BRANCH   1   7
ATOM      7  C   UNL     1     -16.513  10.223   8.394  1.00  0.00     0.000 C 
BRANCH   7   8
ATOM      8  C   UNL     1     -15.478   9.093   8.498  1.00  0.00    -0.000 C 
BRANCH   8   9
ATOM      9  C   UNL     1     -16.078   7.791   9.051  1.00  0.00    -0.003 C 
ATOM     10  C   UNL     1     -15.300   7.243  10.247  1.00  0.00     0.004 C 
ENDBRANCH   8   9
ENDBRANCH   7   8
ENDBRANCH   1   7
TORSDOF 6
ENDMDL
MODEL 9
REMARK VINA RESULT:    -2.748      9.465     10.298
REMARK INTER + INTRA:          -4.041
REMARK INTER:                  -3.827
REMARK INTRA:                  -0.214
REMARK UNBOUND:                -0.329
REMARK SMILES CCCCCCCC(=O)[O-]
REMARK SMILES IDX 5 1 6 2 7 3 8 4 9 5 10 6 4 7 3 8 2 9 1 10
REMARK H PARENT
REMARK Flexibility Score: inf
ROOT
ATOM      1  C   UNL     1     -15.368   9.674   8.213  1.00  0.00     0.000 C 
ENDROOT
BRANCH   1   2
ATOM      2  C   UNL     1     -15.555  11.127   8.672  1.00  0.00     0.006 C 
BRANCH   2   3
ATOM      3  C   UNL     1     -15.271  12.133   7.547  1.00  0.00     0.053 C 
BRANCH   3   4
ATOM      4  C   UNL     1     -14.248  13.148   7.956  1.00  0.00     0.041 C 
ATOM      5  O   UNL     1     -13.459  13.631   7.102  1.00  0.00    -0.550 OA
ATOM      6  O   UNL     1     -14.145  13.537   9.286  1.00  0.00    -0.550 OA
ENDBRANCH   3   4
ENDBRANCH   2   3
ENDBRANCH   1   2
BRANCH   1   7
ATOM      7  C   UNL     1     -16.642   8.854   8.449  1.00  0.00     0.000 C 
BRANCH   7   8
ATOM      8  C   UNL     1     -16.319   7.525   9.147  1.00  0.00    -0.000 C 
BRANCH   8   9
ATOM      9  C   UNL     1     -15.698   7.723  10.539  1.00  0.00    -0.003 C 
ATOM     10  C   UNL     1     -14.846   6.534  10.980  1.00  0.00     0.004 C 
ENDBRANCH   8   9
ENDBRANCH   7   8
ENDBRANCH   1   7
TORSDOF 6
ENDMDL
