MODEL 1
REMARK VINA RESULT:    -5.077      0.000      0.000
REMARK INTER + INTRA:          -7.298
REMARK INTER:                  -7.748
REMARK INTRA:                   0.450
REMARK UNBOUND:                 0.450
REMARK SMILES CC1=CCC[C@@H](C)C(=O)C[C@H](C(C)C)C(=O)C1
REMARK SMILES IDX 8 1 9 2 6 3 7 4 5 5 4 6 3 7 2 8 1 9 10 11 11 12 15 13 16 14
REMARK SMILES IDX 17 15 12 17 13 18 14 19
REMARK H PARENT
REMARK Flexibility Score: 70.00
ROOT
ATOM      1  C   UNL     1      -3.921 -13.176  31.585  1.00  0.00     0.136 C 
ATOM      2  O   UNL     1      -4.127 -12.214  32.312  1.00  0.00    -0.299 OA
ENDROOT
BRANCH   1   3
ATOM      3  C   UNL     1      -5.107 -14.077  31.167  1.00  0.00     0.053 C 
ATOM      4  C   UNL     1      -5.390 -15.155  32.219  1.00  0.00     0.016 C 
BRANCH   3   5
ATOM      5  C   UNL     1      -4.930 -14.719  29.748  1.00  0.00     0.015 C 
BRANCH   5   6
ATOM      6  C   UNL     1      -5.292 -13.652  28.739  1.00  0.00     0.028 C 
BRANCH   6   7
ATOM      7  C   UNL     1      -4.513 -13.280  27.540  1.00  0.00    -0.028 C 
ATOM      8  C   UNL     1      -3.948 -12.040  27.522  1.00  0.00    -0.070 CG0
ATOM      9  C   UNL     1      -3.285 -11.585  26.249  1.00  0.00     0.039 C 
ATOM     10  G   UNL     1      -3.851 -11.145  28.786  1.00  0.00     0.000 G0
ENDBRANCH   6   7
ENDBRANCH   5   6
ENDBRANCH   3   5
ENDBRANCH   1   3
BRANCH   1  11
ATOM     11  C   UNL     1      -2.477 -13.489  31.171  1.00  0.00     0.087 C 
BRANCH  11  12
ATOM     12  C   UNL     1      -1.967 -12.717  29.884  1.00  0.00     0.066 C 
BRANCH  12  13
ATOM     13  C   UNL     1      -2.622 -11.330  29.679  1.00  0.00     0.140 C 
ATOM     14  O   UNL     1      -2.155 -10.354  30.247  1.00  0.00    -0.299 OA
BRANCH  13  15
ATOM     15  C   UNL     1      -3.853 -11.131  28.786  1.00  0.00     0.106 CG0
ATOM     16  G   UNL     1      -3.954 -12.052  27.541  1.00  0.00     0.000 G0
ENDBRANCH  13  15
ENDBRANCH  12  13
BRANCH  12  17
ATOM     17  C   UNL     1      -0.411 -12.617  29.861  1.00  0.00    -0.006 C 
ATOM     18  C   UNL     1       0.257 -13.625  28.909  1.00  0.00     0.008 C 
ATOM     19  C   UNL     1       0.186 -12.748  31.271  1.00  0.00     0.008 C 
ENDBRANCH  12  17
ENDBRANCH  11  12
ENDBRANCH   1  11
TORSDOF 1
ENDMDL
MODEL 2
REMARK VINA RESULT:    -4.915      1.726      3.844
REMARK INTER + INTRA:          -7.051
REMARK INTER:                  -7.387
REMARK INTRA:                   0.336
REMARK UNBOUND:                 0.450
REMARK SMILES CC1=CCC[C@@H](C)C(=O)C[C@H](C(C)C)C(=O)C1
REMARK SMILES IDX 8 1 9 2 6 3 7 4 5 5 4 6 3 7 2 8 1 9 10 11 11 12 15 13 16 14
REMARK SMILES IDX 17 15 12 17 13 18 14 19
REMARK H PARENT
REMARK Flexibility Score: 70.00
ROOT
ATOM      1  C   UNL     1      -3.759 -11.364  28.881  1.00  0.00     0.136 C 
ATOM      2  O   UNL     1      -4.794 -10.754  29.111  1.00  0.00    -0.299 OA
ENDROOT
BRANCH   1   3
ATOM      3  C   UNL     1      -3.792 -12.581  27.928  1.00  0.00     0.053 C 
ATOM      4  C   UNL     1      -3.605 -12.156  26.468  1.00  0.00     0.016 C 
BRANCH   3   5
ATOM      5  C   UNL     1      -5.079 -13.463  28.089  1.00  0.00     0.015 C 
BRANCH   5   6
ATOM      6  C   UNL     1      -4.799 -14.442  29.206  1.00  0.00     0.028 C 
BRANCH   6   7
ATOM      7  C   UNL     1      -5.595 -14.615  30.439  1.00  0.00    -0.028 C 
ATOM      8  C   UNL     1      -4.935 -14.514  31.627  1.00  0.00    -0.070 CG0
ATOM      9  C   UNL     1      -5.693 -14.841  32.886  1.00  0.00     0.039 C 
ATOM     10  G   UNL     1      -3.490 -13.957  31.739  1.00  0.00     0.000 G0
ENDBRANCH   6   7
ENDBRANCH   5   6
ENDBRANCH   3   5
ENDBRANCH   1   3
BRANCH   1  11
ATOM     11  C   UNL     1      -2.476 -10.934  29.606  1.00  0.00     0.087 C 
BRANCH  11  12
ATOM     12  C   UNL     1      -2.109 -11.793  30.886  1.00  0.00     0.066 C 
BRANCH  12  13
ATOM     13  C   UNL     1      -3.331 -12.433  31.588  1.00  0.00     0.140 C 
ATOM     14  O   UNL     1      -4.203 -11.714  32.053  1.00  0.00    -0.299 OA
BRANCH  13  15
ATOM     15  C   UNL     1      -3.487 -13.951  31.735  1.00  0.00     0.106 CG0
ATOM     16  G   UNL     1      -4.935 -14.504  31.644  1.00  0.00     0.000 G0
ENDBRANCH  13  15
ENDBRANCH  12  13
BRANCH  12  17
ATOM     17  C   UNL     1      -1.020 -12.860  30.562  1.00  0.00    -0.006 C 
ATOM     18  C   UNL     1       0.160 -12.857  31.550  1.00  0.00     0.008 C 
ATOM     19  C   UNL     1      -0.502 -12.722  29.121  1.00  0.00     0.008 C 
ENDBRANCH  12  17
ENDBRANCH  11  12
ENDBRANCH   1  11
TORSDOF 1
ENDMDL
MODEL 3
REMARK VINA RESULT:    -4.882      1.667      4.649
REMARK INTER + INTRA:          -7.000
REMARK INTER:                  -7.573
REMARK INTRA:                   0.573
REMARK UNBOUND:                 0.450
REMARK SMILES CC1=CCC[C@@H](C)C(=O)C[C@H](C(C)C)C(=O)C1
REMARK SMILES IDX 8 1 9 2 6 3 7 4 5 5 4 6 3 7 2 8 1 9 10 11 11 12 15 13 16 14
REMARK SMILES IDX 17 15 12 17 13 18 14 19
REMARK H PARENT
REMARK Flexibility Score: 70.00
ROOT
ATOM      1  C   UNL     1      -4.059 -11.761  28.409  1.00  0.00     0.136 C 
ATOM      2  O   UNL     1      -4.126 -10.592  28.763  1.00  0.00    -0.299 OA
ENDROOT
BRANCH   1   3
ATOM      3  C   UNL     1      -2.953 -12.189  27.416  1.00  0.00     0.053 C 
ATOM      4  C   UNL     1      -3.194 -11.602  26.021  1.00  0.00     0.016 C 
BRANCH   3   5
ATOM      5  C   UNL     1      -2.754 -13.743  27.337  1.00  0.00     0.015 C 
BRANCH   5   6
ATOM      6  C   UNL     1      -1.773 -14.111  28.426  1.00  0.00     0.028 C 
BRANCH   6   7
ATOM      7  C   UNL     1      -0.854 -13.190  29.126  1.00  0.00    -0.028 C 
ATOM      8  C   UNL     1      -1.156 -12.868  30.416  1.00  0.00    -0.070 CG0
ATOM      9  C   UNL     1      -0.323 -11.813  31.093  1.00  0.00     0.039 C 
ATOM     10  G   UNL     1      -2.227 -13.630  31.242  1.00  0.00     0.000 G0
ENDBRANCH   6   7
ENDBRANCH   5   6
ENDBRANCH   3   5
ENDBRANCH   1   3
BRANCH   1  11
ATOM     11  C   UNL     1      -5.121 -12.746  28.916  1.00  0.00     0.087 C 
BRANCH  11  12
ATOM     12  C   UNL     1      -4.604 -13.799  29.980  1.00  0.00     0.066 C 
BRANCH  12  13
ATOM     13  C   UNL     1      -3.692 -13.196  31.076  1.00  0.00     0.140 C 
ATOM     14  O   UNL     1      -4.136 -12.335  31.822  1.00  0.00    -0.299 OA
BRANCH  13  15
ATOM     15  C   UNL     1      -2.234 -13.634  31.259  1.00  0.00     0.106 CG0
ATOM     16  G   UNL     1      -1.176 -12.868  30.418  1.00  0.00     0.000 G0
ENDBRANCH  13  15
ENDBRANCH  12  13
BRANCH  12  17
ATOM     17  C   UNL     1      -5.785 -14.601  30.607  1.00  0.00    -0.006 C 
ATOM     18  C   UNL     1      -5.392 -15.397  31.864  1.00  0.00     0.008 C 
ATOM     19  C   UNL     1      -6.446 -15.533  29.578  1.00  0.00     0.008 C 
ENDBRANCH  12  17
ENDBRANCH  11  12
ENDBRANCH   1  11
TORSDOF 1
ENDMDL
MODEL 4
REMARK VINA RESULT:    -4.766      2.071      4.038
REMARK INTER + INTRA:          -6.823
REMARK INTER:                  -7.051
REMARK INTRA:                   0.228
REMARK UNBOUND:                 0.450
REMARK SMILES CC1=CCC[C@@H](C)C(=O)C[C@H](C(C)C)C(=O)C1
REMARK SMILES IDX 8 1 9 2 6 3 7 4 5 5 4 6 3 7 2 8 1 9 10 11 11 12 15 13 16 14
REMARK SMILES IDX 17 15 12 17 13 18 14 19
REMARK H PARENT
REMARK Flexibility Score: 70.00
ROOT
ATOM      1  C   UNL     1      -4.798 -14.258  29.889  1.00  0.00     0.136 C 
ATOM      2  O   UNL     1      -5.933 -14.694  30.022  1.00  0.00    -0.299 OA
ENDROOT
BRANCH   1   3
ATOM      3  C   UNL     1      -4.118 -13.539  31.076  1.00  0.00     0.053 C 
ATOM      4  C   UNL     1      -4.417 -14.242  32.405  1.00  0.00     0.016 C 
BRANCH   3   5
ATOM      5  C   UNL     1      -4.470 -12.013  31.165  1.00  0.00     0.015 C 
BRANCH   5   6
ATOM      6  C   UNL     1      -3.171 -11.256  31.012  1.00  0.00     0.028 C 
BRANCH   6   7
ATOM      7  C   UNL     1      -1.870 -11.617  31.614  1.00  0.00    -0.028 C 
ATOM      8  C   UNL     1      -0.918 -12.127  30.783  1.00  0.00    -0.070 CG0
ATOM      9  C   UNL     1       0.353 -12.645  31.400  1.00  0.00     0.039 C 
ATOM     10  G   UNL     1      -1.039 -12.073  29.236  1.00  0.00     0.000 G0
ENDBRANCH   6   7
ENDBRANCH   5   6
ENDBRANCH   3   5
ENDBRANCH   1   3
BRANCH   1  11
ATOM     11  C   UNL     1      -4.118 -14.384  28.518  1.00  0.00     0.087 C 
BRANCH  11  12
ATOM     12  C   UNL     1      -3.219 -13.149  28.100  1.00  0.00     0.066 C 
BRANCH  12  13
ATOM     13  C   UNL     1      -1.744 -13.257  28.557  1.00  0.00     0.140 C 
ATOM     14  O   UNL     1      -1.137 -14.304  28.387  1.00  0.00    -0.299 OA
BRANCH  13  15
ATOM     15  C   UNL     1      -1.009 -12.091  29.229  1.00  0.00     0.106 CG0
ATOM     16  G   UNL     1      -0.929 -12.133  30.779  1.00  0.00     0.000 G0
ENDBRANCH  13  15
ENDBRANCH  12  13
BRANCH  12  17
ATOM     17  C   UNL     1      -3.318 -12.866  26.570  1.00  0.00    -0.006 C 
ATOM     18  C   UNL     1      -3.383 -11.368  26.223  1.00  0.00     0.008 C 
ATOM     19  C   UNL     1      -4.504 -13.608  25.932  1.00  0.00     0.008 C 
ENDBRANCH  12  17
ENDBRANCH  11  12
ENDBRANCH   1  11
TORSDOF 1
ENDMDL
MODEL 5
REMARK VINA RESULT:    -4.453      1.933      4.834
REMARK INTER + INTRA:          -6.346
REMARK INTER:                  -8.075
REMARK INTRA:                   1.730
REMARK UNBOUND:                 0.450
REMARK SMILES CC1=CCC[C@@H](C)C(=O)C[C@H](C(C)C)C(=O)C1
REMARK SMILES IDX 8 1 9 2 6 3 7 4 5 5 4 6 3 7 2 8 1 9 10 11 11 12 15 13 16 14
REMARK SMILES IDX 17 15 12 17 13 18 14 19
REMARK H PARENT
REMARK Flexibility Score: 70.00
ROOT
ATOM      1  C   UNL     1      -2.050 -12.820  28.079  1.00  0.00     0.136 C 
ATOM      2  O   UNL     1      -2.270 -11.992  27.206  1.00  0.00    -0.299 OA
ENDROOT
BRANCH   1   3
ATOM      3  C   UNL     1      -0.789 -12.674  28.962  1.00  0.00     0.053 C 
ATOM      4  C   UNL     1      -0.242 -14.040  29.390  1.00  0.00     0.016 C 
BRANCH   3   5
ATOM      5  C   UNL     1      -1.005 -11.748  30.208  1.00  0.00     0.015 C 
BRANCH   5   6
ATOM      6  C   UNL     1      -0.950 -12.639  31.428  1.00  0.00     0.028 C 
BRANCH   6   7
ATOM      7  C   UNL     1      -1.997 -13.582  31.873  1.00  0.00    -0.028 C 
ATOM      8  C   UNL     1      -3.293 -13.187  31.732  1.00  0.00    -0.070 CG0
ATOM      9  C   UNL     1      -4.367 -14.064  32.320  1.00  0.00     0.039 C 
ATOM     10  G   UNL     1      -3.707 -11.952  30.887  1.00  0.00     0.000 G0
ENDBRANCH   6   7
ENDBRANCH   5   6
ENDBRANCH   3   5
ENDBRANCH   1   3
BRANCH   1  11
ATOM     11  C   UNL     1      -3.006 -14.013  28.218  1.00  0.00     0.087 C 
BRANCH  11  12
ATOM     12  C   UNL     1      -4.393 -13.684  28.909  1.00  0.00     0.066 C 
BRANCH  12  13
ATOM     13  C   UNL     1      -4.455 -12.282  29.563  1.00  0.00     0.140 C 
ATOM     14  O   UNL     1      -5.092 -11.392  29.020  1.00  0.00    -0.299 OA
BRANCH  13  15
ATOM     15  C   UNL     1      -3.735 -11.961  30.878  1.00  0.00     0.106 CG0
ATOM     16  G   UNL     1      -3.292 -13.179  31.734  1.00  0.00     0.000 G0
ENDBRANCH  13  15
ENDBRANCH  12  13
BRANCH  12  17
ATOM     17  C   UNL     1      -5.584 -13.903  27.927  1.00  0.00    -0.006 C 
ATOM     18  C   UNL     1      -6.679 -14.829  28.483  1.00  0.00     0.008 C 
ATOM     19  C   UNL     1      -5.103 -14.416  26.560  1.00  0.00     0.008 C 
ENDBRANCH  12  17
ENDBRANCH  11  12
ENDBRANCH   1  11
TORSDOF 1
ENDMDL
MODEL 6
REMARK VINA RESULT:    -4.327      1.434      3.514
REMARK INTER + INTRA:          -6.153
REMARK INTER:                  -6.616
REMARK INTRA:                   0.463
REMARK UNBOUND:                 0.450
REMARK SMILES CC1=CCC[C@@H](C)C(=O)C[C@H](C(C)C)C(=O)C1
REMARK SMILES IDX 8 1 9 2 6 3 7 4 5 5 4 6 3 7 2 8 1 9 10 11 11 12 15 13 16 14
REMARK SMILES IDX 17 15 12 17 13 18 14 19
REMARK H PARENT
REMARK Flexibility Score: 70.00
ROOT
ATOM      1  C   UNL     1      -1.966 -11.644  30.927  1.00  0.00     0.136 C 
ATOM      2  O   UNL     1      -1.703 -10.669  30.235  1.00  0.00    -0.299 OA
ENDROOT
BRANCH   1   3
ATOM      3  C   UNL     1      -0.961 -12.817  30.997  1.00  0.00     0.053 C 
ATOM      4  C   UNL     1       0.200 -12.506  31.948  1.00  0.00     0.016 C 
BRANCH   3   5
ATOM      5  C   UNL     1      -0.423 -13.260  29.592  1.00  0.00     0.015 C 
BRANCH   5   6
ATOM      6  C   UNL     1      -1.632 -13.593  28.748  1.00  0.00     0.028 C 
BRANCH   6   7
ATOM      7  C   UNL     1      -2.016 -12.949  27.475  1.00  0.00    -0.028 C 
ATOM      8  C   UNL     1      -3.347 -12.860  27.197  1.00  0.00    -0.070 CG0
ATOM      9  C   UNL     1      -3.753 -12.351  25.840  1.00  0.00     0.039 C 
ATOM     10  G   UNL     1      -4.446 -13.137  28.259  1.00  0.00     0.000 G0
ENDBRANCH   6   7
ENDBRANCH   5   6
ENDBRANCH   3   5
ENDBRANCH   1   3
BRANCH   1  11
ATOM     11  C   UNL     1      -3.320 -11.690  31.648  1.00  0.00     0.087 C 
BRANCH  11  12
ATOM     12  C   UNL     1      -4.469 -12.451  30.866  1.00  0.00     0.066 C 
BRANCH  12  13
ATOM     13  C   UNL     1      -4.572 -12.073  29.369  1.00  0.00     0.140 C 
ATOM     14  O   UNL     1      -4.766 -10.908  29.054  1.00  0.00    -0.299 OA
BRANCH  13  15
ATOM     15  C   UNL     1      -4.449 -13.117  28.252  1.00  0.00     0.106 CG0
ATOM     16  G   UNL     1      -3.332 -12.870  27.202  1.00  0.00     0.000 G0
ENDBRANCH  13  15
ENDBRANCH  12  13
BRANCH  12  17
ATOM     17  C   UNL     1      -4.358 -13.995  31.054  1.00  0.00    -0.006 C 
ATOM     18  C   UNL     1      -5.624 -14.760  30.631  1.00  0.00     0.008 C 
ATOM     19  C   UNL     1      -3.975 -14.363  32.496  1.00  0.00     0.008 C 
ENDBRANCH  12  17
ENDBRANCH  11  12
ENDBRANCH   1  11
TORSDOF 1
ENDMDL
MODEL 7
REMARK VINA RESULT:    -4.250      1.950      4.136
REMARK INTER + INTRA:          -6.036
REMARK INTER:                  -7.217
REMARK INTRA:                   1.181
REMARK UNBOUND:                 0.450
REMARK SMILES CC1=CCC[C@@H](C)C(=O)C[C@H](C(C)C)C(=O)C1
REMARK SMILES IDX 8 1 9 2 6 3 7 4 5 5 4 6 3 7 2 8 1 9 10 11 11 12 15 13 16 14
REMARK SMILES IDX 17 15 12 17 13 18 14 19
REMARK H PARENT
REMARK Flexibility Score: 70.00
ROOT
ATOM      1  C   UNL     1      -0.932 -13.405  29.380  1.00  0.00     0.136 C 
ATOM      2  O   UNL     1      -0.139 -14.315  29.178  1.00  0.00    -0.299 OA
ENDROOT
BRANCH   1   3
ATOM      3  C   UNL     1      -0.983 -12.740  30.775  1.00  0.00     0.053 C 
ATOM      4  C   UNL     1       0.371 -12.824  31.487  1.00  0.00     0.016 C 
BRANCH   3   5
ATOM      5  C   UNL     1      -2.127 -13.300  31.690  1.00  0.00     0.015 C 
BRANCH   5   6
ATOM      6  C   UNL     1      -3.195 -12.232  31.756  1.00  0.00     0.028 C 
BRANCH   6   7
ATOM      7  C   UNL     1      -3.256 -11.004  30.938  1.00  0.00    -0.028 C 
ATOM      8  C   UNL     1      -3.954 -11.065  29.770  1.00  0.00    -0.070 CG0
ATOM      9  C   UNL     1      -3.899  -9.875  28.850  1.00  0.00     0.039 C 
ATOM     10  G   UNL     1      -4.897 -12.248  29.418  1.00  0.00     0.000 G0
ENDBRANCH   6   7
ENDBRANCH   5   6
ENDBRANCH   3   5
ENDBRANCH   1   3
BRANCH   1  11
ATOM     11  C   UNL     1      -1.894 -13.005  28.253  1.00  0.00     0.087 C 
BRANCH  11  12
ATOM     12  C   UNL     1      -3.195 -13.903  28.133  1.00  0.00     0.066 C 
BRANCH  12  13
ATOM     13  C   UNL     1      -4.265 -13.613  29.214  1.00  0.00     0.140 C 
ATOM     14  O   UNL     1      -4.627 -14.511  29.959  1.00  0.00    -0.299 OA
BRANCH  13  15
ATOM     15  C   UNL     1      -4.902 -12.228  29.382  1.00  0.00     0.106 CG0
ATOM     16  G   UNL     1      -3.944 -11.075  29.783  1.00  0.00     0.000 G0
ENDBRANCH  13  15
ENDBRANCH  12  13
BRANCH  12  17
ATOM     17  C   UNL     1      -3.804 -13.832  26.700  1.00  0.00    -0.006 C 
ATOM     18  C   UNL     1      -3.693 -12.441  26.051  1.00  0.00     0.008 C 
ATOM     19  C   UNL     1      -5.266 -14.307  26.682  1.00  0.00     0.008 C 
ENDBRANCH  12  17
ENDBRANCH  11  12
ENDBRANCH   1  11
TORSDOF 1
ENDMDL
MODEL 8
REMARK VINA RESULT:    -4.159      2.423      4.155
REMARK INTER + INTRA:          -5.897
REMARK INTER:                  -6.574
REMARK INTRA:                   0.677
REMARK UNBOUND:                 0.450
REMARK SMILES CC1=CCC[C@@H](C)C(=O)C[C@H](C(C)C)C(=O)C1
REMARK SMILES IDX 8 1 9 2 6 3 7 4 5 5 4 6 3 7 2 8 1 9 10 11 11 12 15 13 16 14
REMARK SMILES IDX 17 15 12 17 13 18 14 19
REMARK H PARENT
REMARK Flexibility Score: 70.00
ROOT
ATOM      1  C   UNL     1      -4.875 -14.420  27.860  1.00  0.00     0.136 C 
ATOM      2  O   UNL     1      -5.789 -14.334  27.051  1.00  0.00    -0.299 OA
ENDROOT
BRANCH   1   3
ATOM      3  C   UNL     1      -5.195 -14.777  29.330  1.00  0.00     0.053 C 
ATOM      4  C   UNL     1      -6.585 -15.409  29.464  1.00  0.00     0.016 C 
BRANCH   3   5
ATOM      5  C   UNL     1      -5.040 -13.565  30.313  1.00  0.00     0.015 C 
BRANCH   5   6
ATOM      6  C   UNL     1      -3.828 -13.853  31.171  1.00  0.00     0.028 C 
BRANCH   6   7
ATOM      7  C   UNL     1      -2.873 -12.857  31.700  1.00  0.00    -0.028 C 
ATOM      8  C   UNL     1      -1.566 -12.992  31.339  1.00  0.00    -0.070 CG0
ATOM      9  C   UNL     1      -0.557 -12.085  31.990  1.00  0.00     0.039 C 
ATOM     10  G   UNL     1      -1.105 -13.943  30.201  1.00  0.00     0.000 G0
ENDBRANCH   6   7
ENDBRANCH   5   6
ENDBRANCH   3   5
ENDBRANCH   1   3
BRANCH   1  11
ATOM     11  C   UNL     1      -3.448 -14.102  27.393  1.00  0.00     0.087 C 
BRANCH  11  12
ATOM     12  C   UNL     1      -2.691 -13.007  28.252  1.00  0.00     0.066 C 
BRANCH  12  13
ATOM     13  C   UNL     1      -1.303 -13.457  28.769  1.00  0.00     0.140 C 
ATOM     14  O   UNL     1      -0.345 -13.444  28.010  1.00  0.00    -0.299 OA
BRANCH  13  15
ATOM     15  C   UNL     1      -1.082 -13.932  30.210  1.00  0.00     0.106 CG0
ATOM     16  G   UNL     1      -1.592 -12.987  31.331  1.00  0.00     0.000 G0
ENDBRANCH  13  15
ENDBRANCH  12  13
BRANCH  12  17
ATOM     17  C   UNL     1      -2.598 -11.650  27.490  1.00  0.00    -0.006 C 
ATOM     18  C   UNL     1      -3.051 -10.440  28.326  1.00  0.00     0.008 C 
ATOM     19  C   UNL     1      -3.371 -11.693  26.162  1.00  0.00     0.008 C 
ENDBRANCH  12  17
ENDBRANCH  11  12
ENDBRANCH   1  11
TORSDOF 1
ENDMDL
MODEL 9
REMARK VINA RESULT:    -3.924      1.744      4.567
REMARK INTER + INTRA:          -5.539
REMARK INTER:                  -7.129
REMARK INTRA:                   1.590
REMARK UNBOUND:                 0.450
REMARK SMILES CC1=CCC[C@@H](C)C(=O)C[C@H](C(C)C)C(=O)C1
REMARK SMILES IDX 8 1 9 2 6 3 7 4 5 5 4 6 3 7 2 8 1 9 10 11 11 12 15 13 16 14
REMARK SMILES IDX 17 15 12 17 13 18 14 19
REMARK H PARENT
REMARK Flexibility Score: 70.00
ROOT
ATOM      1  C   UNL     1      -1.427 -11.496  29.819  1.00  0.00     0.136 C 
ATOM      2  O   UNL     1      -1.150 -10.602  30.607  1.00  0.00    -0.299 OA
ENDROOT
BRANCH   1   3
ATOM      3  C   UNL     1      -0.511 -12.739  29.730  1.00  0.00     0.053 C 
ATOM      4  C   UNL     1      -0.843 -13.594  28.502  1.00  0.00     0.016 C 
BRANCH   3   5
ATOM      5  C   UNL     1      -0.518 -13.612  31.033  1.00  0.00     0.015 C 
BRANCH   5   6
ATOM      6  C   UNL     1      -1.801 -13.291  31.766  1.00  0.00     0.028 C 
BRANCH   6   7
ATOM      7  C   UNL     1      -2.846 -14.255  32.166  1.00  0.00    -0.028 C 
ATOM      8  C   UNL     1      -4.130 -13.966  31.813  1.00  0.00    -0.070 CG0
ATOM      9  C   UNL     1      -5.225 -14.852  32.344  1.00  0.00     0.039 C 
ATOM     10  G   UNL     1      -4.489 -12.852  30.793  1.00  0.00     0.000 G0
ENDBRANCH   6   7
ENDBRANCH   5   6
ENDBRANCH   3   5
ENDBRANCH   1   3
BRANCH   1  11
ATOM     11  C   UNL     1      -2.642 -11.313  28.899  1.00  0.00     0.087 C 
BRANCH  11  12
ATOM     12  C   UNL     1      -3.293 -12.659  28.375  1.00  0.00     0.066 C 
BRANCH  12  13
ATOM     13  C   UNL     1      -4.389 -13.235  29.305  1.00  0.00     0.140 C 
ATOM     14  O   UNL     1      -5.214 -14.014  28.852  1.00  0.00    -0.299 OA
BRANCH  13  15
ATOM     15  C   UNL     1      -4.487 -12.854  30.787  1.00  0.00     0.106 CG0
ATOM     16  G   UNL     1      -4.134 -13.970  31.808  1.00  0.00     0.000 G0
ENDBRANCH  13  15
ENDBRANCH  12  13
BRANCH  12  17
ATOM     17  C   UNL     1      -3.814 -12.508  26.914  1.00  0.00    -0.006 C 
ATOM     18  C   UNL     1      -3.790 -13.821  26.112  1.00  0.00     0.008 C 
ATOM     19  C   UNL     1      -3.053 -11.411  26.152  1.00  0.00     0.008 C 
ENDBRANCH  12  17
ENDBRANCH  11  12
ENDBRANCH   1  11
TORSDOF 1
ENDMDL
