MODEL 1
REMARK VINA RESULT:    -4.967      0.000      0.000
REMARK INTER + INTRA:          -8.407
REMARK INTER:                  -7.725
REMARK INTRA:                  -0.681
REMARK UNBOUND:                -0.681
REMARK SMILES COc1cc(CNC(=O)CCCCC=CC(C)C)ccc1O
REMARK SMILES IDX 11 1 12 2 13 3 14 4 15 5 16 6 17 7 18 8 10 9 8 10 9 11 7 12
REMARK SMILES IDX 6 14 5 15 4 16 19 17 3 18 20 19 21 20 2 21 1 22 22 23
REMARK H PARENT 7 13 22 24
REMARK Flexibility Score: inf
ROOT
ATOM      1  C   UNL     1       0.639  17.131  60.371  1.00  0.00     0.010 C 
ENDROOT
BRANCH   1   2
ATOM      2  C   UNL     1       1.546  18.215  59.759  1.00  0.00     0.005 C 
BRANCH   2   3
ATOM      3  C   UNL     1       3.035  17.944  60.002  1.00  0.00     0.027 C 
BRANCH   3   4
ATOM      4  C   UNL     1       3.868  18.602  58.937  1.00  0.00    -0.031 C 
ATOM      5  C   UNL     1       3.338  18.954  57.753  1.00  0.00    -0.028 C 
BRANCH   5   6
ATOM      6  C   UNL     1       4.145  19.618  56.661  1.00  0.00     0.005 C 
ATOM      7  C   UNL     1       5.651  19.537  56.945  1.00  0.00     0.012 C 
ATOM      8  C   UNL     1       3.701  21.068  56.440  1.00  0.00     0.012 C 
ENDBRANCH   5   6
ENDBRANCH   3   4
ENDBRANCH   2   3
ENDBRANCH   1   2
BRANCH   1   9
ATOM      9  C   UNL     1      -0.377  16.530  59.383  1.00  0.00     0.100 C 
BRANCH   9  10
ATOM     10  C   UNL     1      -1.028  15.299  59.941  1.00  0.00     0.220 C 
ATOM     11  O   UNL     1      -1.025  15.111  61.189  1.00  0.00    -0.275 OA
ATOM     12  N   UNL     1      -1.689  14.371  59.069  1.00  0.00    -0.352 N 
ATOM     13  H   UNL     1      -1.566  14.466  58.035  1.00  0.00     0.163 HD
BRANCH  12  14
ATOM     14  C   UNL     1      -2.586  13.331  59.568  1.00  0.00     0.151 C 
BRANCH  14  15
ATOM     15  C   UNL     1      -1.849  12.022  59.669  1.00  0.00    -0.025 A 
ATOM     16  C   UNL     1      -1.511  11.491  60.925  1.00  0.00     0.056 A 
ATOM     17  C   UNL     1      -1.554  11.293  58.510  1.00  0.00     0.009 A 
ATOM     18  C   UNL     1      -0.873  10.237  61.023  1.00  0.00     0.160 A 
ATOM     19  C   UNL     1      -0.913  10.056  58.600  1.00  0.00     0.050 A 
ATOM     20  C   UNL     1      -0.572   9.524  59.848  1.00  0.00     0.157 A 
BRANCH  18  21
ATOM     21  O   UNL     1      -0.530   9.674  62.263  1.00  0.00    -0.493 OA
ATOM     22  C   UNL     1       0.705   9.896  62.938  1.00  0.00     0.278 C 
ENDBRANCH  18  21
BRANCH  20  23
ATOM     23  O   UNL     1       0.062   8.282  59.900  1.00  0.00    -0.504 OA
ATOM     24  H   UNL     1       0.040   7.698  60.728  1.00  0.00     0.293 HD
ENDBRANCH  20  23
ENDBRANCH  14  15
ENDBRANCH  12  14
ENDBRANCH   9  10
ENDBRANCH   1   9
TORSDOF 10
ENDMDL
MODEL 2
REMARK VINA RESULT:    -4.419      1.049      1.339
REMARK INTER + INTRA:          -7.554
REMARK INTER:                  -6.960
REMARK INTRA:                  -0.594
REMARK UNBOUND:                -0.681
REMARK SMILES COc1cc(CNC(=O)CCCCC=CC(C)C)ccc1O
REMARK SMILES IDX 11 1 12 2 13 3 14 4 15 5 16 6 17 7 18 8 10 9 8 10 9 11 7 12
REMARK SMILES IDX 6 14 5 15 4 16 19 17 3 18 20 19 21 20 2 21 1 22 22 23
REMARK H PARENT 7 13 22 24
REMARK Flexibility Score: inf
ROOT
ATOM      1  C   UNL     1       0.053  16.398  60.576  1.00  0.00     0.010 C 
ENDROOT
BRANCH   1   2
ATOM      2  C   UNL     1       1.399  17.128  60.414  1.00  0.00     0.005 C 
BRANCH   2   3
ATOM      3  C   UNL     1       1.259  18.463  59.673  1.00  0.00     0.027 C 
BRANCH   3   4
ATOM      4  C   UNL     1       2.538  18.800  58.957  1.00  0.00    -0.031 C 
ATOM      5  C   UNL     1       2.673  19.949  58.272  1.00  0.00    -0.028 C 
BRANCH   5   6
ATOM      6  C   UNL     1       3.943  20.321  57.542  1.00  0.00     0.005 C 
ATOM      7  C   UNL     1       3.675  21.346  56.432  1.00  0.00     0.012 C 
ATOM      8  C   UNL     1       4.655  19.081  56.991  1.00  0.00     0.012 C 
ENDBRANCH   5   6
ENDBRANCH   3   4
ENDBRANCH   2   3
ENDBRANCH   1   2
BRANCH   1   9
ATOM      9  C   UNL     1      -1.072  16.948  59.680  1.00  0.00     0.100 C 
BRANCH   9  10
ATOM     10  C   UNL     1      -2.104  15.900  59.383  1.00  0.00     0.220 C 
ATOM     11  O   UNL     1      -3.066  16.181  58.617  1.00  0.00    -0.275 OA
ATOM     12  N   UNL     1      -1.971  14.579  59.926  1.00  0.00    -0.352 N 
ATOM     13  H   UNL     1      -1.251  14.401  60.664  1.00  0.00     0.163 HD
BRANCH  12  14
ATOM     14  C   UNL     1      -2.761  13.450  59.442  1.00  0.00     0.151 C 
BRANCH  14  15
ATOM     15  C   UNL     1      -1.971  12.176  59.570  1.00  0.00    -0.025 A 
ATOM     16  C   UNL     1      -1.590  11.698  60.834  1.00  0.00     0.056 A 
ATOM     17  C   UNL     1      -1.667  11.422  58.428  1.00  0.00     0.009 A 
ATOM     18  C   UNL     1      -0.899  10.475  60.959  1.00  0.00     0.160 A 
ATOM     19  C   UNL     1      -0.975  10.215  58.544  1.00  0.00     0.050 A 
ATOM     20  C   UNL     1      -0.591   9.737  59.801  1.00  0.00     0.157 A 
BRANCH  18  21
ATOM     21  O   UNL     1      -0.512   9.965  62.209  1.00  0.00    -0.493 OA
ATOM     22  C   UNL     1       0.755  10.196  62.820  1.00  0.00     0.278 C 
ENDBRANCH  18  21
BRANCH  20  23
ATOM     23  O   UNL     1       0.093   8.524  59.879  1.00  0.00    -0.504 OA
ATOM     24  H   UNL     1      -0.099   7.840  60.602  1.00  0.00     0.293 HD
ENDBRANCH  20  23
ENDBRANCH  14  15
ENDBRANCH  12  14
ENDBRANCH   9  10
ENDBRANCH   1   9
TORSDOF 10
ENDMDL
MODEL 3
REMARK VINA RESULT:    -4.384      1.485      2.234
REMARK INTER + INTRA:          -7.500
REMARK INTER:                  -6.956
REMARK INTRA:                  -0.544
REMARK UNBOUND:                -0.681
REMARK SMILES COc1cc(CNC(=O)CCCCC=CC(C)C)ccc1O
REMARK SMILES IDX 11 1 12 2 13 3 14 4 15 5 16 6 17 7 18 8 10 9 8 10 9 11 7 12
REMARK SMILES IDX 6 14 5 15 4 16 19 17 3 18 20 19 21 20 2 21 1 22 22 23
REMARK H PARENT 7 13 22 24
REMARK Flexibility Score: inf
ROOT
ATOM      1  C   UNL     1      -0.069  17.799  60.529  1.00  0.00     0.010 C 
ENDROOT
BRANCH   1   2
ATOM      2  C   UNL     1       0.737  18.772  59.648  1.00  0.00     0.005 C 
BRANCH   2   3
ATOM      3  C   UNL     1       2.107  18.210  59.251  1.00  0.00     0.027 C 
BRANCH   3   4
ATOM      4  C   UNL     1       2.836  19.183  58.367  1.00  0.00    -0.031 C 
ATOM      5  C   UNL     1       3.808  18.777  57.532  1.00  0.00    -0.028 C 
BRANCH   5   6
ATOM      6  C   UNL     1       4.560  19.727  56.629  1.00  0.00     0.005 C 
ATOM      7  C   UNL     1       5.915  20.123  57.231  1.00  0.00     0.012 C 
ATOM      8  C   UNL     1       3.719  20.964  56.294  1.00  0.00     0.012 C 
ENDBRANCH   5   6
ENDBRANCH   3   4
ENDBRANCH   2   3
ENDBRANCH   1   2
BRANCH   1   9
ATOM      9  C   UNL     1       0.215  16.312  60.244  1.00  0.00     0.100 C 
BRANCH   9  10
ATOM     10  C   UNL     1      -1.046  15.557  59.942  1.00  0.00     0.220 C 
ATOM     11  O   UNL     1      -2.078  16.193  59.592  1.00  0.00    -0.275 OA
ATOM     12  N   UNL     1      -1.064  14.124  60.005  1.00  0.00    -0.352 N 
ATOM     13  H   UNL     1      -0.250  13.621  60.427  1.00  0.00     0.163 HD
BRANCH  12  14
ATOM     14  C   UNL     1      -2.153  13.329  59.441  1.00  0.00     0.151 C 
BRANCH  14  15
ATOM     15  C   UNL     1      -1.928  11.870  59.733  1.00  0.00    -0.025 A 
ATOM     16  C   UNL     1      -2.741  10.892  59.137  1.00  0.00     0.056 A 
ATOM     17  C   UNL     1      -0.860  11.475  60.550  1.00  0.00     0.009 A 
ATOM     18  C   UNL     1      -2.495   9.521  59.364  1.00  0.00     0.160 A 
ATOM     19  C   UNL     1      -0.618  10.120  60.786  1.00  0.00     0.050 A 
ATOM     20  C   UNL     1      -1.427   9.143  60.198  1.00  0.00     0.157 A 
BRANCH  18  21
ATOM     21  O   UNL     1      -3.284   8.519  58.777  1.00  0.00    -0.493 OA
ATOM     22  C   UNL     1      -4.591   8.725  58.246  1.00  0.00     0.278 C 
ENDBRANCH  18  21
BRANCH  20  23
ATOM     23  O   UNL     1      -1.150   7.799  60.451  1.00  0.00    -0.504 OA
ATOM     24  H   UNL     1      -0.970   7.451  61.385  1.00  0.00     0.293 HD
ENDBRANCH  20  23
ENDBRANCH  14  15
ENDBRANCH  12  14
ENDBRANCH   9  10
ENDBRANCH   1   9
TORSDOF 10
ENDMDL
MODEL 4
REMARK VINA RESULT:    -4.369     10.070     11.611
REMARK INTER + INTRA:          -7.477
REMARK INTER:                  -5.764
REMARK INTRA:                  -1.713
REMARK UNBOUND:                -0.681
REMARK SMILES COc1cc(CNC(=O)CCCCC=CC(C)C)ccc1O
REMARK SMILES IDX 11 1 12 2 13 3 14 4 15 5 16 6 17 7 18 8 10 9 8 10 9 11 7 12
REMARK SMILES IDX 6 14 5 15 4 16 19 17 3 18 20 19 21 20 2 21 1 22 22 23
REMARK H PARENT 7 13 22 24
REMARK Flexibility Score: inf
ROOT
ATOM      1  C   UNL     1       8.961  13.500  60.744  1.00  0.00     0.010 C 
ENDROOT
BRANCH   1   2
ATOM      2  C   UNL     1      10.072  12.722  60.016  1.00  0.00     0.005 C 
BRANCH   2   3
ATOM      3  C   UNL     1       9.811  11.212  59.983  1.00  0.00     0.027 C 
BRANCH   3   4
ATOM      4  C   UNL     1      10.169  10.647  58.637  1.00  0.00    -0.031 C 
ATOM      5  C   UNL     1      10.327   9.325  58.453  1.00  0.00    -0.028 C 
BRANCH   5   6
ATOM      6  C   UNL     1      10.685   8.722  57.114  1.00  0.00     0.005 C 
ATOM      7  C   UNL     1      11.312   7.331  57.272  1.00  0.00     0.012 C 
ATOM      8  C   UNL     1      11.598   9.653  56.309  1.00  0.00     0.012 C 
ENDBRANCH   5   6
ENDBRANCH   3   4
ENDBRANCH   2   3
ENDBRANCH   1   2
BRANCH   1   9
ATOM      9  C   UNL     1       9.420  14.178  62.048  1.00  0.00     0.100 C 
BRANCH   9  10
ATOM     10  C   UNL     1       9.576  13.185  63.162  1.00  0.00     0.220 C 
ATOM     11  O   UNL     1       8.570  12.871  63.855  1.00  0.00    -0.275 OA
ATOM     12  N   UNL     1      10.846  12.562  63.403  1.00  0.00    -0.352 N 
ATOM     13  H   UNL     1      11.696  12.930  62.916  1.00  0.00     0.163 HD
BRANCH  12  14
ATOM     14  C   UNL     1      10.992  11.387  64.259  1.00  0.00     0.151 C 
BRANCH  14  15
ATOM     15  C   UNL     1      10.830  10.133  63.442  1.00  0.00    -0.025 A 
ATOM     16  C   UNL     1       9.589   9.479  63.379  1.00  0.00     0.056 A 
ATOM     17  C   UNL     1      11.903   9.648  62.683  1.00  0.00     0.009 A 
ATOM     18  C   UNL     1       9.421   8.338  62.568  1.00  0.00     0.160 A 
ATOM     19  C   UNL     1      11.746   8.513  61.886  1.00  0.00     0.050 A 
ATOM     20  C   UNL     1      10.513   7.857  61.823  1.00  0.00     0.157 A 
BRANCH  18  21
ATOM     21  O   UNL     1       8.191   7.667  62.477  1.00  0.00    -0.493 OA
ATOM     22  C   UNL     1       7.760   6.641  63.369  1.00  0.00     0.278 C 
ENDBRANCH  18  21
BRANCH  20  23
ATOM     23  O   UNL     1      10.391   6.729  61.010  1.00  0.00    -0.504 OA
ATOM     24  H   UNL     1      11.127   6.436  60.378  1.00  0.00     0.293 HD
ENDBRANCH  20  23
ENDBRANCH  14  15
ENDBRANCH  12  14
ENDBRANCH   9  10
ENDBRANCH   1   9
TORSDOF 10
ENDMDL
MODEL 5
REMARK VINA RESULT:    -4.311      2.072      2.532
REMARK INTER + INTRA:          -7.387
REMARK INTER:                  -6.722
REMARK INTRA:                  -0.665
REMARK UNBOUND:                -0.681
REMARK SMILES COc1cc(CNC(=O)CCCCC=CC(C)C)ccc1O
REMARK SMILES IDX 11 1 12 2 13 3 14 4 15 5 16 6 17 7 18 8 10 9 8 10 9 11 7 12
REMARK SMILES IDX 6 14 5 15 4 16 19 17 3 18 20 19 21 20 2 21 1 22 22 23
REMARK H PARENT 7 13 22 24
REMARK Flexibility Score: inf
ROOT
ATOM      1  C   UNL     1       0.487  18.024  60.602  1.00  0.00     0.010 C 
ENDROOT
BRANCH   1   2
ATOM      2  C   UNL     1       1.674  18.823  60.033  1.00  0.00     0.005 C 
BRANCH   2   3
ATOM      3  C   UNL     1       2.952  17.984  59.927  1.00  0.00     0.027 C 
BRANCH   3   4
ATOM      4  C   UNL     1       3.726  18.362  58.695  1.00  0.00    -0.031 C 
ATOM      5  C   UNL     1       3.331  19.374  57.904  1.00  0.00    -0.028 C 
BRANCH   5   6
ATOM      6  C   UNL     1       4.085  19.781  56.658  1.00  0.00     0.005 C 
ATOM      7  C   UNL     1       5.600  19.621  56.840  1.00  0.00     0.012 C 
ATOM      8  C   UNL     1       3.727  21.209  56.230  1.00  0.00     0.012 C 
ENDBRANCH   5   6
ENDBRANCH   3   4
ENDBRANCH   2   3
ENDBRANCH   1   2
BRANCH   1   9
ATOM      9  C   UNL     1       0.107  16.786  59.770  1.00  0.00     0.100 C 
BRANCH   9  10
ATOM     10  C   UNL     1       0.023  15.553  60.621  1.00  0.00     0.220 C 
ATOM     11  O   UNL     1       0.631  15.522  61.726  1.00  0.00    -0.275 OA
ATOM     12  N   UNL     1      -0.781  14.439  60.205  1.00  0.00    -0.352 N 
ATOM     13  H   UNL     1      -1.165  14.422  59.232  1.00  0.00     0.163 HD
BRANCH  12  14
ATOM     14  C   UNL     1      -1.141  13.351  61.111  1.00  0.00     0.151 C 
BRANCH  14  15
ATOM     15  C   UNL     1      -1.855  12.265  60.353  1.00  0.00    -0.025 A 
ATOM     16  C   UNL     1      -3.238  12.080  60.507  1.00  0.00     0.056 A 
ATOM     17  C   UNL     1      -1.152  11.473  59.435  1.00  0.00     0.009 A 
ATOM     18  C   UNL     1      -3.919  11.101  59.754  1.00  0.00     0.160 A 
ATOM     19  C   UNL     1      -1.818  10.496  58.693  1.00  0.00     0.050 A 
ATOM     20  C   UNL     1      -3.195  10.306  58.846  1.00  0.00     0.157 A 
BRANCH  18  21
ATOM     21  O   UNL     1      -5.302  10.898  59.878  1.00  0.00    -0.493 OA
ATOM     22  C   UNL     1      -6.078  11.281  61.011  1.00  0.00     0.278 C 
ENDBRANCH  18  21
BRANCH  20  23
ATOM     23  O   UNL     1      -3.828   9.324  58.083  1.00  0.00    -0.504 OA
ATOM     24  H   UNL     1      -4.122   8.439  58.479  1.00  0.00     0.293 HD
ENDBRANCH  20  23
ENDBRANCH  14  15
ENDBRANCH  12  14
ENDBRANCH   9  10
ENDBRANCH   1   9
TORSDOF 10
ENDMDL
MODEL 6
REMARK VINA RESULT:    -4.282      4.148      6.998
REMARK INTER + INTRA:          -7.342
REMARK INTER:                  -6.429
REMARK INTRA:                  -0.913
REMARK UNBOUND:                -0.681
REMARK SMILES COc1cc(CNC(=O)CCCCC=CC(C)C)ccc1O
REMARK SMILES IDX 11 1 12 2 13 3 14 4 15 5 16 6 17 7 18 8 10 9 8 10 9 11 7 12
REMARK SMILES IDX 6 14 5 15 4 16 19 17 3 18 20 19 21 20 2 21 1 22 22 23
REMARK H PARENT 7 13 22 24
REMARK Flexibility Score: inf
ROOT
ATOM      1  C   UNL     1       4.405  19.862  56.634  1.00  0.00     0.010 C 
ENDROOT
BRANCH   1   2
ATOM      2  C   UNL     1       5.856  20.376  56.664  1.00  0.00     0.005 C 
BRANCH   2   3
ATOM      3  C   UNL     1       6.015  21.646  57.507  1.00  0.00     0.027 C 
BRANCH   3   4
ATOM      4  C   UNL     1       6.769  21.345  58.773  1.00  0.00    -0.031 C 
ATOM      5  C   UNL     1       6.825  20.098  59.273  1.00  0.00    -0.028 C 
BRANCH   5   6
ATOM      6  C   UNL     1       7.574  19.759  60.541  1.00  0.00     0.005 C 
ATOM      7  C   UNL     1       9.051  19.453  60.258  1.00  0.00     0.012 C 
ATOM      8  C   UNL     1       6.904  18.605  61.294  1.00  0.00     0.012 C 
ENDBRANCH   5   6
ENDBRANCH   3   4
ENDBRANCH   2   3
ENDBRANCH   1   2
BRANCH   1   9
ATOM      9  C   UNL     1       4.199  18.518  57.356  1.00  0.00     0.100 C 
BRANCH   9  10
ATOM     10  C   UNL     1       3.279  18.658  58.533  1.00  0.00     0.220 C 
ATOM     11  O   UNL     1       3.468  17.941  59.553  1.00  0.00    -0.275 OA
ATOM     12  N   UNL     1       2.224  19.631  58.515  1.00  0.00    -0.352 N 
ATOM     13  H   UNL     1       1.994  20.118  57.618  1.00  0.00     0.163 HD
BRANCH  12  14
ATOM     14  C   UNL     1       1.497  20.020  59.721  1.00  0.00     0.151 C 
BRANCH  14  15
ATOM     15  C   UNL     1       0.068  19.556  59.632  1.00  0.00    -0.025 A 
ATOM     16  C   UNL     1      -0.254  18.203  59.826  1.00  0.00     0.056 A 
ATOM     17  C   UNL     1      -0.958  20.486  59.420  1.00  0.00     0.009 A 
ATOM     18  C   UNL     1      -1.599  17.777  59.800  1.00  0.00     0.160 A 
ATOM     19  C   UNL     1      -2.290  20.069  59.384  1.00  0.00     0.050 A 
ATOM     20  C   UNL     1      -2.616  18.722  59.574  1.00  0.00     0.157 A 
BRANCH  18  21
ATOM     21  O   UNL     1      -1.955  16.433  60.000  1.00  0.00    -0.493 OA
ATOM     22  C   UNL     1      -1.439  15.339  59.247  1.00  0.00     0.278 C 
ENDBRANCH  18  21
BRANCH  20  23
ATOM     23  O   UNL     1      -3.958  18.343  59.537  1.00  0.00    -0.504 OA
ATOM     24  H   UNL     1      -4.710  18.997  59.720  1.00  0.00     0.293 HD
ENDBRANCH  20  23
ENDBRANCH  14  15
ENDBRANCH  12  14
ENDBRANCH   9  10
ENDBRANCH   1   9
TORSDOF 10
ENDMDL
MODEL 7
REMARK VINA RESULT:    -4.174     13.641     15.549
REMARK INTER + INTRA:          -7.173
REMARK INTER:                  -5.142
REMARK INTRA:                  -2.031
REMARK UNBOUND:                -0.681
REMARK SMILES COc1cc(CNC(=O)CCCCC=CC(C)C)ccc1O
REMARK SMILES IDX 11 1 12 2 13 3 14 4 15 5 16 6 17 7 18 8 10 9 8 10 9 11 7 12
REMARK SMILES IDX 6 14 5 15 4 16 19 17 3 18 20 19 21 20 2 21 1 22 22 23
REMARK H PARENT 7 13 22 24
REMARK Flexibility Score: inf
ROOT
ATOM      1  C   UNL     1       0.719  13.439  74.942  1.00  0.00     0.010 C 
ENDROOT
BRANCH   1   2
ATOM      2  C   UNL     1       0.750  11.927  74.648  1.00  0.00     0.005 C 
BRANCH   2   3
ATOM      3  C   UNL     1       1.005  11.620  73.168  1.00  0.00     0.027 C 
BRANCH   3   4
ATOM      4  C   UNL     1       2.357  10.988  72.989  1.00  0.00    -0.031 C 
ATOM      5  C   UNL     1       2.901  10.834  71.770  1.00  0.00    -0.028 C 
BRANCH   5   6
ATOM      6  C   UNL     1       4.258  10.205  71.553  1.00  0.00     0.005 C 
ATOM      7  C   UNL     1       4.859   9.695  72.870  1.00  0.00     0.012 C 
ATOM      8  C   UNL     1       5.216  11.170  70.845  1.00  0.00     0.012 C 
ENDBRANCH   5   6
ENDBRANCH   3   4
ENDBRANCH   2   3
ENDBRANCH   1   2
BRANCH   1   9
ATOM      9  C   UNL     1       0.450  14.314  73.704  1.00  0.00     0.100 C 
BRANCH   9  10
ATOM     10  C   UNL     1       1.661  15.110  73.317  1.00  0.00     0.220 C 
ATOM     11  O   UNL     1       1.881  16.215  73.884  1.00  0.00    -0.275 OA
ATOM     12  N   UNL     1       2.586  14.596  72.347  1.00  0.00    -0.352 N 
ATOM     13  H   UNL     1       2.322  13.752  71.788  1.00  0.00     0.163 HD
BRANCH  12  14
ATOM     14  C   UNL     1       3.915  15.170  72.151  1.00  0.00     0.151 C 
BRANCH  14  15
ATOM     15  C   UNL     1       4.949  14.315  72.832  1.00  0.00    -0.025 A 
ATOM     16  C   UNL     1       6.266  14.268  72.347  1.00  0.00     0.056 A 
ATOM     17  C   UNL     1       4.619  13.610  73.997  1.00  0.00     0.009 A 
ATOM     18  C   UNL     1       7.250  13.513  73.018  1.00  0.00     0.160 A 
ATOM     19  C   UNL     1       5.586  12.853  74.661  1.00  0.00     0.050 A 
ATOM     20  C   UNL     1       6.898  12.801  74.179  1.00  0.00     0.157 A 
BRANCH  18  21
ATOM     21  O   UNL     1       8.578  13.453  72.563  1.00  0.00    -0.493 OA
ATOM     22  C   UNL     1       9.006  12.736  71.408  1.00  0.00     0.278 C 
ENDBRANCH  18  21
BRANCH  20  23
ATOM     23  O   UNL     1       7.840  12.039  74.872  1.00  0.00    -0.504 OA
ATOM     24  H   UNL     1       8.026  12.177  75.858  1.00  0.00     0.293 HD
ENDBRANCH  20  23
ENDBRANCH  14  15
ENDBRANCH  12  14
ENDBRANCH   9  10
ENDBRANCH   1   9
TORSDOF 10
ENDMDL
MODEL 8
REMARK VINA RESULT:    -4.171      1.989      2.564
REMARK INTER + INTRA:          -7.169
REMARK INTER:                  -6.324
REMARK INTRA:                  -0.846
REMARK UNBOUND:                -0.681
REMARK SMILES COc1cc(CNC(=O)CCCCC=CC(C)C)ccc1O
REMARK SMILES IDX 11 1 12 2 13 3 14 4 15 5 16 6 17 7 18 8 10 9 8 10 9 11 7 12
REMARK SMILES IDX 6 14 5 15 4 16 19 17 3 18 20 19 21 20 2 21 1 22 22 23
REMARK H PARENT 7 13 22 24
REMARK Flexibility Score: inf
ROOT
ATOM      1  C   UNL     1       1.029  18.480  59.245  1.00  0.00     0.010 C 
ENDROOT
BRANCH   1   2
ATOM      2  C   UNL     1       1.942  17.780  60.269  1.00  0.00     0.005 C 
BRANCH   2   3
ATOM      3  C   UNL     1       3.431  17.975  59.960  1.00  0.00     0.027 C 
BRANCH   3   4
ATOM      4  C   UNL     1       3.613  19.022  58.896  1.00  0.00    -0.031 C 
ATOM      5  C   UNL     1       4.205  18.733  57.725  1.00  0.00    -0.028 C 
BRANCH   5   6
ATOM      6  C   UNL     1       4.403  19.759  56.633  1.00  0.00     0.005 C 
ATOM      7  C   UNL     1       5.883  20.131  56.471  1.00  0.00     0.012 C 
ATOM      8  C   UNL     1       3.543  21.005  56.874  1.00  0.00     0.012 C 
ENDBRANCH   5   6
ENDBRANCH   3   4
ENDBRANCH   2   3
ENDBRANCH   1   2
BRANCH   1   9
ATOM      9  C   UNL     1      -0.241  19.100  59.856  1.00  0.00     0.100 C 
BRANCH   9  10
ATOM     10  C   UNL     1      -1.332  18.081  60.012  1.00  0.00     0.220 C 
ATOM     11  O   UNL     1      -2.246  18.279  60.859  1.00  0.00    -0.275 OA
ATOM     12  N   UNL     1      -1.362  16.918  59.172  1.00  0.00    -0.352 N 
ATOM     13  H   UNL     1      -0.531  16.698  58.575  1.00  0.00     0.163 HD
BRANCH  12  14
ATOM     14  C   UNL     1      -2.538  16.058  59.067  1.00  0.00     0.151 C 
BRANCH  14  15
ATOM     15  C   UNL     1      -2.254  14.720  59.695  1.00  0.00    -0.025 A 
ATOM     16  C   UNL     1      -1.258  14.591  60.676  1.00  0.00     0.056 A 
ATOM     17  C   UNL     1      -3.031  13.606  59.351  1.00  0.00     0.009 A 
ATOM     18  C   UNL     1      -1.031  13.350  61.307  1.00  0.00     0.160 A 
ATOM     19  C   UNL     1      -2.805  12.373  59.965  1.00  0.00     0.050 A 
ATOM     20  C   UNL     1      -1.812  12.239  60.940  1.00  0.00     0.157 A 
BRANCH  18  21
ATOM     21  O   UNL     1      -0.049  13.190  62.298  1.00  0.00    -0.493 OA
ATOM     22  C   UNL     1       1.199  13.879  62.319  1.00  0.00     0.278 C 
ENDBRANCH  18  21
BRANCH  20  23
ATOM     23  O   UNL     1      -1.618  10.992  61.537  1.00  0.00    -0.504 OA
ATOM     24  H   UNL     1      -1.710  10.126  61.020  1.00  0.00     0.293 HD
ENDBRANCH  20  23
ENDBRANCH  14  15
ENDBRANCH  12  14
ENDBRANCH   9  10
ENDBRANCH   1   9
TORSDOF 10
ENDMDL
MODEL 9
REMARK VINA RESULT:    -4.166     13.852     15.595
REMARK INTER + INTRA:          -7.161
REMARK INTER:                  -5.670
REMARK INTRA:                  -1.491
REMARK UNBOUND:                -0.681
REMARK SMILES COc1cc(CNC(=O)CCCCC=CC(C)C)ccc1O
REMARK SMILES IDX 11 1 12 2 13 3 14 4 15 5 16 6 17 7 18 8 10 9 8 10 9 11 7 12
REMARK SMILES IDX 6 14 5 15 4 16 19 17 3 18 20 19 21 20 2 21 1 22 22 23
REMARK H PARENT 7 13 22 24
REMARK Flexibility Score: inf
ROOT
ATOM      1  C   UNL     1       7.676  11.132  72.440  1.00  0.00     0.010 C 
ENDROOT
BRANCH   1   2
ATOM      2  C   UNL     1       7.737  12.470  73.201  1.00  0.00     0.005 C 
BRANCH   2   3
ATOM      3  C   UNL     1       7.156  12.369  74.616  1.00  0.00     0.027 C 
BRANCH   3   4
ATOM      4  C   UNL     1       5.708  12.773  74.618  1.00  0.00    -0.031 C 
ATOM      5  C   UNL     1       5.247  13.725  73.789  1.00  0.00    -0.028 C 
BRANCH   5   6
ATOM      6  C   UNL     1       3.798  14.155  73.763  1.00  0.00     0.005 C 
ATOM      7  C   UNL     1       3.301  14.375  72.327  1.00  0.00     0.012 C 
ATOM      8  C   UNL     1       3.569  15.402  74.624  1.00  0.00     0.012 C 
ENDBRANCH   5   6
ENDBRANCH   3   4
ENDBRANCH   2   3
ENDBRANCH   1   2
BRANCH   1   9
ATOM      9  C   UNL     1       7.852   9.892  73.335  1.00  0.00     0.100 C 
BRANCH   9  10
ATOM     10  C   UNL     1       6.749   8.897  73.123  1.00  0.00     0.220 C 
ATOM     11  O   UNL     1       7.036   7.676  72.988  1.00  0.00    -0.275 OA
ATOM     12  N   UNL     1       5.379   9.324  73.123  1.00  0.00    -0.352 N 
ATOM     13  H   UNL     1       5.164  10.348  73.098  1.00  0.00     0.163 HD
BRANCH  12  14
ATOM     14  C   UNL     1       4.265   8.384  73.223  1.00  0.00     0.151 C 
BRANCH  14  15
ATOM     15  C   UNL     1       2.979   9.132  73.448  1.00  0.00    -0.025 A 
ATOM     16  C   UNL     1       1.747   8.459  73.408  1.00  0.00     0.056 A 
ATOM     17  C   UNL     1       3.009  10.497  73.765  1.00  0.00     0.009 A 
ATOM     18  C   UNL     1       0.546   9.148  73.676  1.00  0.00     0.160 A 
ATOM     19  C   UNL     1       1.822  11.187  74.021  1.00  0.00     0.050 A 
ATOM     20  C   UNL     1       0.593  10.521  73.980  1.00  0.00     0.157 A 
BRANCH  18  21
ATOM     21  O   UNL     1      -0.700   8.502  73.653  1.00  0.00    -0.493 OA
ATOM     22  C   UNL     1      -1.575   8.471  72.529  1.00  0.00     0.278 C 
ENDBRANCH  18  21
BRANCH  20  23
ATOM     23  O   UNL     1      -0.572  11.241  74.248  1.00  0.00    -0.504 OA
ATOM     24  H   UNL     1      -1.393  11.179  73.658  1.00  0.00     0.293 HD
ENDBRANCH  20  23
ENDBRANCH  14  15
ENDBRANCH  12  14
ENDBRANCH   9  10
ENDBRANCH   1   9
TORSDOF 10
ENDMDL
