MODEL 1
REMARK VINA RESULT:    -4.074      0.000      0.000
REMARK INTER + INTRA:          -6.297
REMARK INTER:                  -5.979
REMARK INTRA:                  -0.318
REMARK UNBOUND:                -0.318
REMARK SMILES O=C([O-])CCCCCCCC(=O)[O-]
REMARK SMILES IDX 7 1 6 2 5 3 4 4 2 5 1 6 3 7 8 8 9 9 10 10 11 11 12 12 13 13
REMARK H PARENT
REMARK Flexibility Score: inf
ROOT
ATOM      1  C   UNL     1      12.594 -12.156 -43.169  1.00  0.00     0.000 C 
ENDROOT
BRANCH   1   2
ATOM      2  C   UNL     1      13.911 -11.572 -43.704  1.00  0.00     0.000 C 
BRANCH   2   3
ATOM      3  C   UNL     1      15.123 -12.466 -43.399  1.00  0.00     0.006 C 
BRANCH   3   4
ATOM      4  C   UNL     1      16.282 -11.642 -42.832  1.00  0.00     0.053 C 
BRANCH   4   5
ATOM      5  C   UNL     1      17.548 -11.940 -43.572  1.00  0.00     0.041 C 
ATOM      6  O   UNL     1      17.543 -12.752 -44.535  1.00  0.00    -0.550 OA
ATOM      7  O   UNL     1      18.743 -11.357 -43.170  1.00  0.00    -0.550 OA
ENDBRANCH   4   5
ENDBRANCH   3   4
ENDBRANCH   2   3
ENDBRANCH   1   2
BRANCH   1   8
ATOM      8  C   UNL     1      11.453 -11.128 -43.154  1.00  0.00     0.000 C 
BRANCH   8   9
ATOM      9  C   UNL     1      11.376 -10.375 -44.491  1.00  0.00     0.006 C 
BRANCH   9  10
ATOM     10  C   UNL     1      11.340  -8.853 -44.301  1.00  0.00     0.053 C 
BRANCH  10  11
ATOM     11  C   UNL     1       9.993  -8.381 -43.848  1.00  0.00     0.041 C 
ATOM     12  O   UNL     1       8.952  -8.789 -44.427  1.00  0.00    -0.550 OA
ATOM     13  O   UNL     1       9.888  -7.466 -42.808  1.00  0.00    -0.550 OA
ENDBRANCH  10  11
ENDBRANCH   9  10
ENDBRANCH   8   9
ENDBRANCH   1   8
TORSDOF 8
ENDMDL
MODEL 2
REMARK VINA RESULT:    -4.024      4.190      6.193
REMARK INTER + INTRA:          -6.224
REMARK INTER:                  -5.671
REMARK INTRA:                  -0.553
REMARK UNBOUND:                -0.318
REMARK SMILES O=C([O-])CCCCCCCC(=O)[O-]
REMARK SMILES IDX 7 1 6 2 5 3 4 4 2 5 1 6 3 7 8 8 9 9 10 10 11 11 12 12 13 13
REMARK H PARENT
REMARK Flexibility Score: inf
ROOT
ATOM      1  C   UNL     1      11.956 -12.024 -44.621  1.00  0.00     0.000 C 
ENDROOT
BRANCH   1   2
ATOM      2  C   UNL     1      10.803 -12.331 -45.590  1.00  0.00     0.000 C 
BRANCH   2   3
ATOM      3  C   UNL     1       9.489 -11.646 -45.184  1.00  0.00     0.006 C 
BRANCH   3   4
ATOM      4  C   UNL     1       8.648 -11.301 -46.416  1.00  0.00     0.053 C 
BRANCH   4   5
ATOM      5  C   UNL     1       7.641 -12.377 -46.681  1.00  0.00     0.041 C 
ATOM      6  O   UNL     1       7.764 -13.126 -47.685  1.00  0.00    -0.550 OA
ATOM      7  O   UNL     1       6.542 -12.521 -45.844  1.00  0.00    -0.550 OA
ENDBRANCH   4   5
ENDBRANCH   3   4
ENDBRANCH   2   3
ENDBRANCH   1   2
BRANCH   1   8
ATOM      8  C   UNL     1      11.706 -10.759 -43.786  1.00  0.00     0.000 C 
BRANCH   8   9
ATOM      9  C   UNL     1      12.454  -9.556 -44.379  1.00  0.00     0.006 C 
BRANCH   9  10
ATOM     10  C   UNL     1      11.506  -8.411 -44.759  1.00  0.00     0.053 C 
BRANCH  10  11
ATOM     11  C   UNL     1      10.392  -8.259 -43.769  1.00  0.00     0.041 C 
ATOM     12  O   UNL     1       9.196  -8.405 -44.134  1.00  0.00    -0.550 OA
ATOM     13  O   UNL     1      10.673  -7.925 -42.450  1.00  0.00    -0.550 OA
ENDBRANCH  10  11
ENDBRANCH   9  10
ENDBRANCH   8   9
ENDBRANCH   1   8
TORSDOF 8
ENDMDL
MODEL 3
REMARK VINA RESULT:    -4.018     13.311     15.307
REMARK INTER + INTRA:          -6.215
REMARK INTER:                  -5.877
REMARK INTRA:                  -0.337
REMARK UNBOUND:                -0.318
REMARK SMILES O=C([O-])CCCCCCCC(=O)[O-]
REMARK SMILES IDX 7 1 6 2 5 3 4 4 2 5 1 6 3 7 8 8 9 9 10 10 11 11 12 12 13 13
REMARK H PARENT
REMARK Flexibility Score: inf
ROOT
ATOM      1  C   UNL     1       6.774 -19.845 -36.977  1.00  0.00     0.000 C 
ENDROOT
BRANCH   1   2
ATOM      2  C   UNL     1       5.714 -18.769 -36.691  1.00  0.00     0.000 C 
BRANCH   2   3
ATOM      3  C   UNL     1       6.121 -17.828 -35.546  1.00  0.00     0.006 C 
BRANCH   3   4
ATOM      4  C   UNL     1       4.929 -16.987 -35.080  1.00  0.00     0.053 C 
BRANCH   4   5
ATOM      5  C   UNL     1       5.104 -16.578 -33.651  1.00  0.00     0.041 C 
ATOM      6  O   UNL     1       5.392 -15.387 -33.363  1.00  0.00    -0.550 OA
ATOM      7  O   UNL     1       4.996 -17.524 -32.639  1.00  0.00    -0.550 OA
ENDBRANCH   4   5
ENDBRANCH   3   4
ENDBRANCH   2   3
ENDBRANCH   1   2
BRANCH   1   8
ATOM      8  C   UNL     1       6.205 -21.271 -36.901  1.00  0.00     0.000 C 
BRANCH   8   9
ATOM      9  C   UNL     1       7.232 -22.237 -36.293  1.00  0.00     0.006 C 
BRANCH   9  10
ATOM     10  C   UNL     1       8.216 -21.525 -35.355  1.00  0.00     0.053 C 
BRANCH  10  11
ATOM     11  C   UNL     1       9.543 -22.218 -35.311  1.00  0.00     0.041 C 
ATOM     12  O   UNL     1       9.720 -23.199 -34.542  1.00  0.00    -0.550 OA
ATOM     13  O   UNL     1      10.595 -21.760 -36.095  1.00  0.00    -0.550 OA
ENDBRANCH  10  11
ENDBRANCH   9  10
ENDBRANCH   8   9
ENDBRANCH   1   8
TORSDOF 8
ENDMDL
MODEL 4
REMARK VINA RESULT:    -3.997     13.455     14.284
REMARK INTER + INTRA:          -6.185
REMARK INTER:                  -5.905
REMARK INTRA:                  -0.280
REMARK UNBOUND:                -0.318
REMARK SMILES O=C([O-])CCCCCCCC(=O)[O-]
REMARK SMILES IDX 7 1 6 2 5 3 4 4 2 5 1 6 3 7 8 8 9 9 10 10 11 11 12 12 13 13
REMARK H PARENT
REMARK Flexibility Score: inf
ROOT
ATOM      1  C   UNL     1       6.271 -19.880 -36.742  1.00  0.00     0.000 C 
ENDROOT
BRANCH   1   2
ATOM      2  C   UNL     1       7.794 -20.075 -36.832  1.00  0.00     0.000 C 
BRANCH   2   3
ATOM      3  C   UNL     1       8.365 -20.839 -35.627  1.00  0.00     0.006 C 
BRANCH   3   4
ATOM      4  C   UNL     1       7.875 -22.290 -35.617  1.00  0.00     0.053 C 
BRANCH   4   5
ATOM      5  C   UNL     1       9.001 -23.220 -35.293  1.00  0.00     0.041 C 
ATOM      6  O   UNL     1       9.001 -24.396 -35.742  1.00  0.00    -0.550 OA
ATOM      7  O   UNL     1      10.028 -22.803 -34.455  1.00  0.00    -0.550 OA
ENDBRANCH   4   5
ENDBRANCH   3   4
ENDBRANCH   2   3
ENDBRANCH   1   2
BRANCH   1   8
ATOM      8  C   UNL     1       5.870 -18.403 -36.617  1.00  0.00     0.000 C 
BRANCH   8   9
ATOM      9  C   UNL     1       5.991 -17.924 -35.162  1.00  0.00     0.006 C 
BRANCH   9  10
ATOM     10  C   UNL     1       4.934 -16.869 -34.807  1.00  0.00     0.053 C 
BRANCH  10  11
ATOM     11  C   UNL     1       5.074 -16.396 -33.393  1.00  0.00     0.041 C 
ATOM     12  O   UNL     1       5.371 -15.196 -33.154  1.00  0.00    -0.550 OA
ATOM     13  O   UNL     1       4.908 -17.287 -32.340  1.00  0.00    -0.550 OA
ENDBRANCH  10  11
ENDBRANCH   9  10
ENDBRANCH   8   9
ENDBRANCH   1   8
TORSDOF 8
ENDMDL
MODEL 5
REMARK VINA RESULT:    -3.993      4.369      6.488
REMARK INTER + INTRA:          -6.178
REMARK INTER:                  -5.756
REMARK INTRA:                  -0.423
REMARK UNBOUND:                -0.318
REMARK SMILES O=C([O-])CCCCCCCC(=O)[O-]
REMARK SMILES IDX 7 1 6 2 5 3 4 4 2 5 1 6 3 7 8 8 9 9 10 10 11 11 12 12 13 13
REMARK H PARENT
REMARK Flexibility Score: inf
ROOT
ATOM      1  C   UNL     1       9.726 -10.920 -45.653  1.00  0.00     0.000 C 
ENDROOT
BRANCH   1   2
ATOM      2  C   UNL     1      10.406 -11.175 -44.298  1.00  0.00     0.000 C 
BRANCH   2   3
ATOM      3  C   UNL     1      11.581 -10.221 -44.037  1.00  0.00     0.006 C 
BRANCH   3   4
ATOM      4  C   UNL     1      11.197  -8.775 -44.366  1.00  0.00     0.053 C 
BRANCH   4   5
ATOM      5  C   UNL     1      10.431  -8.166 -43.234  1.00  0.00     0.041 C 
ATOM      6  O   UNL     1      10.652  -8.532 -42.050  1.00  0.00    -0.550 OA
ATOM      7  O   UNL     1       9.440  -7.227 -43.490  1.00  0.00    -0.550 OA
ENDBRANCH   4   5
ENDBRANCH   3   4
ENDBRANCH   2   3
ENDBRANCH   1   2
BRANCH   1   8
ATOM      8  C   UNL     1       8.303 -10.360 -45.506  1.00  0.00     0.000 C 
BRANCH   8   9
ATOM      9  C   UNL     1       7.257 -11.411 -45.906  1.00  0.00     0.006 C 
BRANCH   9  10
ATOM     10  C   UNL     1       7.830 -12.466 -46.862  1.00  0.00     0.053 C 
BRANCH  10  11
ATOM     11  C   UNL     1       7.520 -13.858 -46.404  1.00  0.00     0.041 C 
ATOM     12  O   UNL     1       7.564 -14.145 -45.179  1.00  0.00    -0.550 OA
ATOM     13  O   UNL     1       7.216 -14.846 -47.332  1.00  0.00    -0.550 OA
ENDBRANCH  10  11
ENDBRANCH   9  10
ENDBRANCH   8   9
ENDBRANCH   1   8
TORSDOF 8
ENDMDL
MODEL 6
REMARK VINA RESULT:    -3.974      1.139      6.833
REMARK INTER + INTRA:          -6.151
REMARK INTER:                  -5.844
REMARK INTRA:                  -0.307
REMARK UNBOUND:                -0.318
REMARK SMILES O=C([O-])CCCCCCCC(=O)[O-]
REMARK SMILES IDX 7 1 6 2 5 3 4 4 2 5 1 6 3 7 8 8 9 9 10 10 11 11 12 12 13 13
REMARK H PARENT
REMARK Flexibility Score: inf
ROOT
ATOM      1  C   UNL     1      12.765 -12.560 -43.570  1.00  0.00     0.000 C 
ENDROOT
BRANCH   1   2
ATOM      2  C   UNL     1      12.548 -11.061 -43.831  1.00  0.00     0.000 C 
BRANCH   2   3
ATOM      3  C   UNL     1      11.065 -10.662 -43.792  1.00  0.00     0.006 C 
BRANCH   3   4
ATOM      4  C   UNL     1      10.859  -9.401 -42.948  1.00  0.00     0.053 C 
BRANCH   4   5
ATOM      5  C   UNL     1      10.604  -8.218 -43.827  1.00  0.00     0.041 C 
ATOM      6  O   UNL     1       9.687  -7.403 -43.543  1.00  0.00    -0.550 OA
ATOM      7  O   UNL     1      11.347  -8.040 -44.987  1.00  0.00    -0.550 OA
ENDBRANCH   4   5
ENDBRANCH   3   4
ENDBRANCH   2   3
ENDBRANCH   1   2
BRANCH   1   8
ATOM      8  C   UNL     1      14.205 -13.009 -43.859  1.00  0.00     0.000 C 
BRANCH   8   9
ATOM      9  C   UNL     1      15.154 -11.803 -43.918  1.00  0.00     0.006 C 
BRANCH   9  10
ATOM     10  C   UNL     1      16.176 -11.811 -42.772  1.00  0.00     0.053 C 
BRANCH  10  11
ATOM     11  C   UNL     1      17.570 -12.031 -43.273  1.00  0.00     0.041 C 
ATOM     12  O   UNL     1      18.508 -12.244 -42.460  1.00  0.00    -0.550 OA
ATOM     13  O   UNL     1      17.840 -11.968 -44.634  1.00  0.00    -0.550 OA
ENDBRANCH  10  11
ENDBRANCH   9  10
ENDBRANCH   8   9
ENDBRANCH   1   8
TORSDOF 8
ENDMDL
MODEL 7
REMARK VINA RESULT:    -3.970      1.314      1.740
REMARK INTER + INTRA:          -6.145
REMARK INTER:                  -5.655
REMARK INTRA:                  -0.491
REMARK UNBOUND:                -0.318
REMARK SMILES O=C([O-])CCCCCCCC(=O)[O-]
REMARK SMILES IDX 7 1 6 2 5 3 4 4 2 5 1 6 3 7 8 8 9 9 10 10 11 11 12 12 13 13
REMARK H PARENT
REMARK Flexibility Score: inf
ROOT
ATOM      1  C   UNL     1      11.351 -12.328 -44.469  1.00  0.00     0.000 C 
ENDROOT
BRANCH   1   2
ATOM      2  C   UNL     1      12.359 -12.434 -43.313  1.00  0.00     0.000 C 
BRANCH   2   3
ATOM      3  C   UNL     1      13.776 -12.780 -43.794  1.00  0.00     0.006 C 
BRANCH   3   4
ATOM      4  C   UNL     1      14.559 -11.513 -44.151  1.00  0.00     0.053 C 
BRANCH   4   5
ATOM      5  C   UNL     1      15.967 -11.610 -43.656  1.00  0.00     0.041 C 
ATOM      6  O   UNL     1      16.920 -11.712 -44.472  1.00  0.00    -0.550 OA
ATOM      7  O   UNL     1      16.224 -11.634 -42.290  1.00  0.00    -0.550 OA
ENDBRANCH   4   5
ENDBRANCH   3   4
ENDBRANCH   2   3
ENDBRANCH   1   2
BRANCH   1   8
ATOM      8  C   UNL     1      10.261 -11.276 -44.210  1.00  0.00     0.000 C 
BRANCH   8   9
ATOM      9  C   UNL     1      10.590  -9.960 -44.930  1.00  0.00     0.006 C 
BRANCH   9  10
ATOM     10  C   UNL     1      11.429  -9.015 -44.058  1.00  0.00     0.053 C 
BRANCH  10  11
ATOM     11  C   UNL     1      10.589  -8.303 -43.043  1.00  0.00     0.041 C 
ATOM     12  O   UNL     1      10.638  -8.642 -41.831  1.00  0.00    -0.550 OA
ATOM     13  O   UNL     1       9.728  -7.287 -43.439  1.00  0.00    -0.550 OA
ENDBRANCH  10  11
ENDBRANCH   9  10
ENDBRANCH   8   9
ENDBRANCH   1   8
TORSDOF 8
ENDMDL
MODEL 8
REMARK VINA RESULT:    -3.933      3.725      5.181
REMARK INTER + INTRA:          -6.091
REMARK INTER:                  -5.469
REMARK INTRA:                  -0.622
REMARK UNBOUND:                -0.318
REMARK SMILES O=C([O-])CCCCCCCC(=O)[O-]
REMARK SMILES IDX 7 1 6 2 5 3 4 4 2 5 1 6 3 7 8 8 9 9 10 10 11 11 12 12 13 13
REMARK H PARENT
REMARK Flexibility Score: inf
ROOT
ATOM      1  C   UNL     1      11.737 -12.953 -43.811  1.00  0.00     0.000 C 
ENDROOT
BRANCH   1   2
ATOM      2  C   UNL     1      12.561 -11.785 -43.245  1.00  0.00     0.000 C 
BRANCH   2   3
ATOM      3  C   UNL     1      12.272 -10.456 -43.960  1.00  0.00     0.006 C 
BRANCH   3   4
ATOM      4  C   UNL     1      11.077  -9.741 -43.324  1.00  0.00     0.053 C 
BRANCH   4   5
ATOM      5  C   UNL     1      10.774  -8.473 -44.058  1.00  0.00     0.041 C 
ATOM      6  O   UNL     1      11.494  -8.114 -45.027  1.00  0.00    -0.550 OA
ATOM      7  O   UNL     1       9.726  -7.662 -43.642  1.00  0.00    -0.550 OA
ENDBRANCH   4   5
ENDBRANCH   3   4
ENDBRANCH   2   3
ENDBRANCH   1   2
BRANCH   1   8
ATOM      8  C   UNL     1      11.908 -13.119 -45.329  1.00  0.00     0.000 C 
BRANCH   8   9
ATOM      9  C   UNL     1      10.560 -12.978 -46.050  1.00  0.00     0.006 C 
BRANCH   9  10
ATOM     10  C   UNL     1       9.450 -12.475 -45.115  1.00  0.00     0.053 C 
BRANCH  10  11
ATOM     11  C   UNL     1       8.432 -11.658 -45.850  1.00  0.00     0.041 C 
ATOM     12  O   UNL     1       7.850 -12.132 -46.860  1.00  0.00    -0.550 OA
ATOM     13  O   UNL     1       8.151 -10.362 -45.438  1.00  0.00    -0.550 OA
ENDBRANCH  10  11
ENDBRANCH   9  10
ENDBRANCH   8   9
ENDBRANCH   1   8
TORSDOF 8
ENDMDL
MODEL 9
REMARK VINA RESULT:    -3.820     12.407     13.325
REMARK INTER + INTRA:          -5.924
REMARK INTER:                  -5.451
REMARK INTRA:                  -0.473
REMARK UNBOUND:                -0.318
REMARK SMILES O=C([O-])CCCCCCCC(=O)[O-]
REMARK SMILES IDX 7 1 6 2 5 3 4 4 2 5 1 6 3 7 8 8 9 9 10 10 11 11 12 12 13 13
REMARK H PARENT
REMARK Flexibility Score: inf
ROOT
ATOM      1  C   UNL     1       6.830 -21.075 -36.741  1.00  0.00     0.000 C 
ENDROOT
BRANCH   1   2
ATOM      2  C   UNL     1       7.444 -22.323 -36.087  1.00  0.00     0.000 C 
BRANCH   2   3
ATOM      3  C   UNL     1       8.346 -21.982 -34.890  1.00  0.00     0.006 C 
BRANCH   3   4
ATOM      4  C   UNL     1       9.731 -22.614 -35.051  1.00  0.00     0.053 C 
BRANCH   4   5
ATOM      5  C   UNL     1      10.471 -21.974 -36.183  1.00  0.00     0.041 C 
ATOM      6  O   UNL     1      11.039 -22.686 -37.052  1.00  0.00    -0.550 OA
ATOM      7  O   UNL     1      10.573 -20.590 -36.253  1.00  0.00    -0.550 OA
ENDBRANCH   4   5
ENDBRANCH   3   4
ENDBRANCH   2   3
ENDBRANCH   1   2
BRANCH   1   8
ATOM      8  C   UNL     1       7.187 -19.780 -35.995  1.00  0.00     0.000 C 
BRANCH   8   9
ATOM      9  C   UNL     1       6.356 -18.600 -36.519  1.00  0.00     0.006 C 
BRANCH   9  10
ATOM     10  C   UNL     1       5.764 -17.755 -35.383  1.00  0.00     0.053 C 
BRANCH  10  11
ATOM     11  C   UNL     1       5.989 -16.291 -35.603  1.00  0.00     0.041 C 
ATOM     12  O   UNL     1       5.559 -15.452 -34.768  1.00  0.00    -0.550 OA
ATOM     13  O   UNL     1       6.645 -15.850 -36.746  1.00  0.00    -0.550 OA
ENDBRANCH  10  11
ENDBRANCH   9  10
ENDBRANCH   8   9
ENDBRANCH   1   8
TORSDOF 8
ENDMDL
