MODEL 1
REMARK VINA RESULT:    -4.876      0.000      0.000
REMARK INTER + INTRA:          -6.305
REMARK INTER:                  -6.016
REMARK INTRA:                  -0.289
REMARK UNBOUND:                -0.289
REMARK SMILES CCOC(=O)c1ccc(O)c(O)c1
REMARK SMILES IDX 4 1 5 2 3 3 2 4 1 5 6 6 13 7 7 8 11 9 8 10 9 11 12 12 10 14
REMARK H PARENT 12 13 10 15
REMARK Flexibility Score: inf
ROOT
ATOM      1  C   UNL     1      27.061  10.571 -31.797  1.00  0.00     0.338 C 
ATOM      2  O   UNL     1      27.134  10.456 -30.543  1.00  0.00    -0.246 OA
ENDROOT
BRANCH   1   3
ATOM      3  O   UNL     1      25.810  10.652 -32.421  1.00  0.00    -0.462 OA
BRANCH   3   4
ATOM      4  C   UNL     1      24.855  11.658 -32.099  1.00  0.00     0.230 C 
ATOM      5  C   UNL     1      25.485  13.031 -32.270  1.00  0.00     0.049 C 
ENDBRANCH   3   4
ENDBRANCH   1   3
BRANCH   1   6
ATOM      6  C   UNL     1      28.294  10.621 -32.614  1.00  0.00     0.064 A 
ATOM      7  C   UNL     1      28.760   9.475 -33.283  1.00  0.00     0.065 A 
ATOM      8  C   UNL     1      29.018  11.820 -32.730  1.00  0.00     0.020 A 
ATOM      9  C   UNL     1      29.930   9.527 -34.056  1.00  0.00     0.158 A 
ATOM     10  C   UNL     1      30.183  11.872 -33.500  1.00  0.00     0.051 A 
ATOM     11  C   UNL     1      30.642  10.727 -34.164  1.00  0.00     0.157 A 
BRANCH   9  12
ATOM     12  O   UNL     1      30.389   8.389 -34.718  1.00  0.00    -0.504 OA
ATOM     13  H   UNL     1      29.748   7.712 -35.115  1.00  0.00     0.293 HD
ENDBRANCH   9  12
BRANCH  11  14
ATOM     14  O   UNL     1      31.803  10.775 -34.933  1.00  0.00    -0.504 OA
ATOM     15  H   UNL     1      31.915  10.202 -35.761  1.00  0.00     0.293 HD
ENDBRANCH  11  14
ENDBRANCH   1   6
TORSDOF 5
ENDMDL
MODEL 2
REMARK VINA RESULT:    -4.874      9.898     11.503
REMARK INTER + INTRA:          -6.303
REMARK INTER:                  -6.167
REMARK INTRA:                  -0.136
REMARK UNBOUND:                -0.289
REMARK SMILES CCOC(=O)c1ccc(O)c(O)c1
REMARK SMILES IDX 4 1 5 2 3 3 2 4 1 5 6 6 13 7 7 8 11 9 8 10 9 11 12 12 10 14
REMARK H PARENT 12 13 10 15
REMARK Flexibility Score: inf
ROOT
ATOM      1  C   UNL     1      31.311   5.724 -25.191  1.00  0.00     0.338 C 
ATOM      2  O   UNL     1      30.679   4.661 -25.441  1.00  0.00    -0.246 OA
ENDROOT
BRANCH   1   3
ATOM      3  O   UNL     1      32.064   6.344 -26.194  1.00  0.00    -0.462 OA
BRANCH   3   4
ATOM      4  C   UNL     1      31.686   6.316 -27.567  1.00  0.00     0.230 C 
ATOM      5  C   UNL     1      32.830   6.842 -28.420  1.00  0.00     0.049 C 
ENDBRANCH   3   4
ENDBRANCH   1   3
BRANCH   1   6
ATOM      6  C   UNL     1      31.258   6.319 -23.837  1.00  0.00     0.064 A 
ATOM      7  C   UNL     1      30.179   6.050 -22.976  1.00  0.00     0.065 A 
ATOM      8  C   UNL     1      32.289   7.164 -23.394  1.00  0.00     0.020 A 
ATOM      9  C   UNL     1      30.132   6.617 -21.693  1.00  0.00     0.158 A 
ATOM     10  C   UNL     1      32.243   7.728 -22.115  1.00  0.00     0.051 A 
ATOM     11  C   UNL     1      31.165   7.456 -21.263  1.00  0.00     0.157 A 
BRANCH   9  12
ATOM     12  O   UNL     1      29.061   6.348 -20.842  1.00  0.00    -0.504 OA
ATOM     13  H   UNL     1      28.143   6.745 -21.004  1.00  0.00     0.293 HD
ENDBRANCH   9  12
BRANCH  11  14
ATOM     14  O   UNL     1      31.116   8.017 -19.988  1.00  0.00    -0.504 OA
ATOM     15  H   UNL     1      30.647   7.549 -19.221  1.00  0.00     0.293 HD
ENDBRANCH  11  14
ENDBRANCH   1   6
TORSDOF 5
ENDMDL
MODEL 3
REMARK VINA RESULT:    -4.859      1.458      2.327
REMARK INTER + INTRA:          -6.284
REMARK INTER:                  -6.008
REMARK INTRA:                  -0.276
REMARK UNBOUND:                -0.289
REMARK SMILES CCOC(=O)c1ccc(O)c(O)c1
REMARK SMILES IDX 4 1 5 2 3 3 2 4 1 5 6 6 13 7 7 8 11 9 8 10 9 11 12 12 10 14
REMARK H PARENT 12 13 10 15
REMARK Flexibility Score: inf
ROOT
ATOM      1  C   UNL     1      26.851   9.938 -31.923  1.00  0.00     0.338 C 
ATOM      2  O   UNL     1      25.784  10.514 -32.274  1.00  0.00    -0.246 OA
ENDROOT
BRANCH   1   3
ATOM      3  O   UNL     1      26.849   9.066 -30.828  1.00  0.00    -0.462 OA
BRANCH   3   4
ATOM      4  C   UNL     1      25.960   7.958 -30.729  1.00  0.00     0.230 C 
ATOM      5  C   UNL     1      26.568   6.754 -31.432  1.00  0.00     0.049 C 
ENDBRANCH   3   4
ENDBRANCH   1   3
BRANCH   1   6
ATOM      6  C   UNL     1      28.106  10.180 -32.668  1.00  0.00     0.064 A 
ATOM      7  C   UNL     1      28.755   9.130 -33.343  1.00  0.00     0.065 A 
ATOM      8  C   UNL     1      28.667  11.467 -32.710  1.00  0.00     0.020 A 
ATOM      9  C   UNL     1      29.945   9.364 -34.048  1.00  0.00     0.158 A 
ATOM     10  C   UNL     1      29.853  11.700 -33.414  1.00  0.00     0.051 A 
ATOM     11  C   UNL     1      30.494  10.650 -34.083  1.00  0.00     0.157 A 
BRANCH   9  12
ATOM     12  O   UNL     1      30.586   8.321 -34.716  1.00  0.00    -0.504 OA
ATOM     13  H   UNL     1      30.664   8.307 -35.726  1.00  0.00     0.293 HD
ENDBRANCH   9  12
BRANCH  11  14
ATOM     14  O   UNL     1      31.676  10.879 -34.785  1.00  0.00    -0.504 OA
ATOM     15  H   UNL     1      32.542  10.419 -34.530  1.00  0.00     0.293 HD
ENDBRANCH  11  14
ENDBRANCH   1   6
TORSDOF 5
ENDMDL
MODEL 4
REMARK VINA RESULT:    -4.772      1.419      4.904
REMARK INTER + INTRA:          -6.177
REMARK INTER:                  -5.877
REMARK INTRA:                  -0.300
REMARK UNBOUND:                -0.289
REMARK SMILES CCOC(=O)c1ccc(O)c(O)c1
REMARK SMILES IDX 4 1 5 2 3 3 2 4 1 5 6 6 13 7 7 8 11 9 8 10 9 11 12 12 10 14
REMARK H PARENT 12 13 10 15
REMARK Flexibility Score: inf
ROOT
ATOM      1  C   UNL     1      30.018  10.586 -33.734  1.00  0.00     0.338 C 
ATOM      2  O   UNL     1      30.925  11.434 -33.958  1.00  0.00    -0.246 OA
ENDROOT
BRANCH   1   3
ATOM      3  O   UNL     1      30.239   9.233 -34.016  1.00  0.00    -0.462 OA
BRANCH   3   4
ATOM      4  C   UNL     1      30.752   8.782 -35.266  1.00  0.00     0.230 C 
ATOM      5  C   UNL     1      29.766   9.122 -36.373  1.00  0.00     0.049 C 
ENDBRANCH   3   4
ENDBRANCH   1   3
BRANCH   1   6
ATOM      6  C   UNL     1      28.719  11.017 -33.172  1.00  0.00     0.064 A 
ATOM      7  C   UNL     1      27.614  10.146 -33.166  1.00  0.00     0.065 A 
ATOM      8  C   UNL     1      28.572  12.307 -32.636  1.00  0.00     0.020 A 
ATOM      9  C   UNL     1      26.384  10.559 -32.632  1.00  0.00     0.158 A 
ATOM     10  C   UNL     1      27.346  12.719 -32.104  1.00  0.00     0.051 A 
ATOM     11  C   UNL     1      26.251  11.846 -32.101  1.00  0.00     0.157 A 
BRANCH   9  12
ATOM     12  O   UNL     1      25.291   9.693 -32.628  1.00  0.00    -0.504 OA
ATOM     13  H   UNL     1      24.973   9.245 -31.776  1.00  0.00     0.293 HD
ENDBRANCH   9  12
BRANCH  11  14
ATOM     14  O   UNL     1      25.027  12.253 -31.571  1.00  0.00    -0.504 OA
ATOM     15  H   UNL     1      24.970  12.752 -30.691  1.00  0.00     0.293 HD
ENDBRANCH  11  14
ENDBRANCH   1   6
TORSDOF 5
ENDMDL
MODEL 5
REMARK VINA RESULT:    -4.737      1.406      2.075
REMARK INTER + INTRA:          -6.134
REMARK INTER:                  -5.849
REMARK INTRA:                  -0.285
REMARK UNBOUND:                -0.289
REMARK SMILES CCOC(=O)c1ccc(O)c(O)c1
REMARK SMILES IDX 4 1 5 2 3 3 2 4 1 5 6 6 13 7 7 8 11 9 8 10 9 11 12 12 10 14
REMARK H PARENT 12 13 10 15
REMARK Flexibility Score: inf
ROOT
ATOM      1  C   UNL     1      27.322  10.471 -32.079  1.00  0.00     0.338 C 
ATOM      2  O   UNL     1      26.785   9.466 -31.538  1.00  0.00    -0.246 OA
ENDROOT
BRANCH   1   3
ATOM      3  O   UNL     1      27.149  11.743 -31.522  1.00  0.00    -0.462 OA
BRANCH   3   4
ATOM      4  C   UNL     1      26.492  12.801 -32.211  1.00  0.00     0.230 C 
ATOM      5  C   UNL     1      24.986  12.622 -32.101  1.00  0.00     0.049 C 
ENDBRANCH   3   4
ENDBRANCH   1   3
BRANCH   1   6
ATOM      6  C   UNL     1      28.138  10.308 -33.303  1.00  0.00     0.064 A 
ATOM      7  C   UNL     1      29.462  10.782 -33.352  1.00  0.00     0.065 A 
ATOM      8  C   UNL     1      27.598   9.677 -34.436  1.00  0.00     0.020 A 
ATOM      9  C   UNL     1      30.232  10.626 -34.515  1.00  0.00     0.158 A 
ATOM     10  C   UNL     1      28.365   9.521 -35.594  1.00  0.00     0.051 A 
ATOM     11  C   UNL     1      29.682   9.995 -35.636  1.00  0.00     0.157 A 
BRANCH   9  12
ATOM     12  O   UNL     1      31.543  11.096 -34.560  1.00  0.00    -0.504 OA
ATOM     13  H   UNL     1      32.308  10.507 -34.870  1.00  0.00     0.293 HD
ENDBRANCH   9  12
BRANCH  11  14
ATOM     14  O   UNL     1      30.450   9.842 -36.789  1.00  0.00    -0.504 OA
ATOM     15  H   UNL     1      30.269   9.097 -37.452  1.00  0.00     0.293 HD
ENDBRANCH  11  14
ENDBRANCH   1   6
TORSDOF 5
ENDMDL
MODEL 6
REMARK VINA RESULT:    -4.679     10.347     11.867
REMARK INTER + INTRA:          -6.062
REMARK INTER:                  -5.807
REMARK INTRA:                  -0.255
REMARK UNBOUND:                -0.289
REMARK SMILES CCOC(=O)c1ccc(O)c(O)c1
REMARK SMILES IDX 4 1 5 2 3 3 2 4 1 5 6 6 13 7 7 8 11 9 8 10 9 11 12 12 10 14
REMARK H PARENT 12 13 10 15
REMARK Flexibility Score: inf
ROOT
ATOM      1  C   UNL     1      31.301   5.685 -24.980  1.00  0.00     0.338 C 
ATOM      2  O   UNL     1      31.800   6.312 -25.955  1.00  0.00    -0.246 OA
ENDROOT
BRANCH   1   3
ATOM      3  O   UNL     1      30.798   4.392 -25.162  1.00  0.00    -0.462 OA
BRANCH   3   4
ATOM      4  C   UNL     1      29.634   4.122 -25.936  1.00  0.00     0.230 C 
ATOM      5  C   UNL     1      28.546   3.554 -25.038  1.00  0.00     0.049 C 
ENDBRANCH   3   4
ENDBRANCH   1   3
BRANCH   1   6
ATOM      6  C   UNL     1      31.248   6.313 -23.641  1.00  0.00     0.064 A 
ATOM      7  C   UNL     1      30.200   6.017 -22.750  1.00  0.00     0.065 A 
ATOM      8  C   UNL     1      32.247   7.216 -23.242  1.00  0.00     0.020 A 
ATOM      9  C   UNL     1      30.153   6.615 -21.482  1.00  0.00     0.158 A 
ATOM     10  C   UNL     1      32.201   7.811 -21.977  1.00  0.00     0.051 A 
ATOM     11  C   UNL     1      31.154   7.513 -21.096  1.00  0.00     0.157 A 
BRANCH   9  12
ATOM     12  O   UNL     1      29.113   6.321 -20.601  1.00  0.00    -0.504 OA
ATOM     13  H   UNL     1      28.194   6.053 -20.936  1.00  0.00     0.293 HD
ENDBRANCH   9  12
BRANCH  11  14
ATOM     14  O   UNL     1      31.105   8.104 -19.835  1.00  0.00    -0.504 OA
ATOM     15  H   UNL     1      31.861   7.997 -19.169  1.00  0.00     0.293 HD
ENDBRANCH  11  14
ENDBRANCH   1   6
TORSDOF 5
ENDMDL
MODEL 7
REMARK VINA RESULT:    -4.594      1.557      5.287
REMARK INTER + INTRA:          -5.958
REMARK INTER:                  -5.643
REMARK INTRA:                  -0.315
REMARK UNBOUND:                -0.289
REMARK SMILES CCOC(=O)c1ccc(O)c(O)c1
REMARK SMILES IDX 4 1 5 2 3 3 2 4 1 5 6 6 13 7 7 8 11 9 8 10 9 11 12 12 10 14
REMARK H PARENT 12 13 10 15
REMARK Flexibility Score: inf
ROOT
ATOM      1  C   UNL     1      29.791  10.287 -33.699  1.00  0.00     0.338 C 
ATOM      2  O   UNL     1      30.365  11.410 -33.720  1.00  0.00    -0.246 OA
ENDROOT
BRANCH   1   3
ATOM      3  O   UNL     1      30.472   9.144 -34.134  1.00  0.00    -0.462 OA
BRANCH   3   4
ATOM      4  C   UNL     1      30.956   8.998 -35.465  1.00  0.00     0.230 C 
ATOM      5  C   UNL     1      29.795   9.094 -36.443  1.00  0.00     0.049 C 
ENDBRANCH   3   4
ENDBRANCH   1   3
BRANCH   1   6
ATOM      6  C   UNL     1      28.398  10.172 -33.214  1.00  0.00     0.064 A 
ATOM      7  C   UNL     1      27.754  11.269 -32.611  1.00  0.00     0.065 A 
ATOM      8  C   UNL     1      27.698   8.961 -33.349  1.00  0.00     0.020 A 
ATOM      9  C   UNL     1      26.433  11.156 -32.153  1.00  0.00     0.158 A 
ATOM     10  C   UNL     1      26.381   8.850 -32.892  1.00  0.00     0.051 A 
ATOM     11  C   UNL     1      25.747   9.945 -32.293  1.00  0.00     0.157 A 
BRANCH   9  12
ATOM     12  O   UNL     1      25.798  12.245 -31.556  1.00  0.00    -0.504 OA
ATOM     13  H   UNL     1      24.883  12.556 -31.859  1.00  0.00     0.293 HD
ENDBRANCH   9  12
BRANCH  11  14
ATOM     14  O   UNL     1      24.434   9.837 -31.836  1.00  0.00    -0.504 OA
ATOM     15  H   UNL     1      23.785   9.173 -32.242  1.00  0.00     0.293 HD
ENDBRANCH  11  14
ENDBRANCH   1   6
TORSDOF 5
ENDMDL
MODEL 8
REMARK VINA RESULT:    -4.565      2.028      5.180
REMARK INTER + INTRA:          -5.921
REMARK INTER:                  -5.649
REMARK INTRA:                  -0.272
REMARK UNBOUND:                -0.289
REMARK SMILES CCOC(=O)c1ccc(O)c(O)c1
REMARK SMILES IDX 4 1 5 2 3 3 2 4 1 5 6 6 13 7 7 8 11 9 8 10 9 11 12 12 10 14
REMARK H PARENT 12 13 10 15
REMARK Flexibility Score: inf
ROOT
ATOM      1  C   UNL     1      28.451   9.772 -34.555  1.00  0.00     0.338 C 
ATOM      2  O   UNL     1      28.016  10.112 -35.690  1.00  0.00    -0.246 OA
ENDROOT
BRANCH   1   3
ATOM      3  O   UNL     1      29.827   9.774 -34.303  1.00  0.00    -0.462 OA
BRANCH   3   4
ATOM      4  C   UNL     1      30.640  10.930 -34.481  1.00  0.00     0.230 C 
ATOM      5  C   UNL     1      30.273  11.974 -33.438  1.00  0.00     0.049 C 
ENDBRANCH   3   4
ENDBRANCH   1   3
BRANCH   1   6
ATOM      6  C   UNL     1      27.507   9.372 -33.487  1.00  0.00     0.064 A 
ATOM      7  C   UNL     1      27.747   9.728 -32.147  1.00  0.00     0.065 A 
ATOM      8  C   UNL     1      26.356   8.630 -33.800  1.00  0.00     0.020 A 
ATOM      9  C   UNL     1      26.850   9.347 -31.138  1.00  0.00     0.158 A 
ATOM     10  C   UNL     1      25.462   8.251 -32.794  1.00  0.00     0.051 A 
ATOM     11  C   UNL     1      25.707   8.607 -31.462  1.00  0.00     0.157 A 
BRANCH   9  12
ATOM     12  O   UNL     1      27.090   9.700 -29.811  1.00  0.00    -0.504 OA
ATOM     13  H   UNL     1      26.867  10.624 -29.459  1.00  0.00     0.293 HD
ENDBRANCH   9  12
BRANCH  11  14
ATOM     14  O   UNL     1      24.818   8.231 -30.457  1.00  0.00    -0.504 OA
ATOM     15  H   UNL     1      24.970   7.400 -29.898  1.00  0.00     0.293 HD
ENDBRANCH  11  14
ENDBRANCH   1   6
TORSDOF 5
ENDMDL
MODEL 9
REMARK VINA RESULT:    -4.545     11.573     13.129
REMARK INTER + INTRA:          -5.896
REMARK INTER:                  -5.593
REMARK INTRA:                  -0.303
REMARK UNBOUND:                -0.289
REMARK SMILES CCOC(=O)c1ccc(O)c(O)c1
REMARK SMILES IDX 4 1 5 2 3 3 2 4 1 5 6 6 13 7 7 8 11 9 8 10 9 11 12 12 10 14
REMARK H PARENT 12 13 10 15
REMARK Flexibility Score: inf
ROOT
ATOM      1  C   UNL     1      33.627   8.107 -21.401  1.00  0.00     0.338 C 
ATOM      2  O   UNL     1      33.535   9.205 -20.786  1.00  0.00    -0.246 OA
ENDROOT
BRANCH   1   3
ATOM      3  O   UNL     1      34.878   7.503 -21.571  1.00  0.00    -0.462 OA
BRANCH   3   4
ATOM      4  C   UNL     1      35.153   6.172 -21.145  1.00  0.00     0.230 C 
ATOM      5  C   UNL     1      35.553   5.327 -22.344  1.00  0.00     0.049 C 
ENDBRANCH   3   4
ENDBRANCH   1   3
BRANCH   1   6
ATOM      6  C   UNL     1      32.415   7.455 -21.944  1.00  0.00     0.064 A 
ATOM      7  C   UNL     1      31.303   7.204 -21.119  1.00  0.00     0.065 A 
ATOM      8  C   UNL     1      32.360   7.076 -23.296  1.00  0.00     0.020 A 
ATOM      9  C   UNL     1      30.156   6.585 -21.638  1.00  0.00     0.158 A 
ATOM     10  C   UNL     1      31.216   6.460 -23.813  1.00  0.00     0.051 A 
ATOM     11  C   UNL     1      30.113   6.213 -22.986  1.00  0.00     0.157 A 
BRANCH   9  12
ATOM     12  O   UNL     1      29.056   6.338 -20.818  1.00  0.00    -0.504 OA
ATOM     13  H   UNL     1      28.652   7.065 -20.239  1.00  0.00     0.293 HD
ENDBRANCH   9  12
BRANCH  11  14
ATOM     14  O   UNL     1      28.972   5.599 -23.498  1.00  0.00    -0.504 OA
ATOM     15  H   UNL     1      28.042   5.905 -23.235  1.00  0.00     0.293 HD
ENDBRANCH  11  14
ENDBRANCH   1   6
TORSDOF 5
ENDMDL
