MODEL 1
REMARK VINA RESULT:    -3.065      0.000      0.000
REMARK INTER + INTRA:          -6.126
REMARK INTER:                  -4.678
REMARK INTRA:                  -1.449
REMARK UNBOUND:                -1.449
REMARK SMILES CCCCCCCCCC=CC(=O)[O-]
REMARK SMILES IDX 7 1 8 2 9 3 10 4 11 5 12 6 13 7 14 8 6 9 5 10 4 11 3 12 2 13
REMARK SMILES IDX 1 14
REMARK H PARENT
REMARK Flexibility Score: inf
ROOT
ATOM      1  C   UNL     1     -34.996  -5.475 -29.730  1.00  0.00     0.000 C 
ENDROOT
BRANCH   1   2
ATOM      2  C   UNL     1     -35.542  -6.149 -30.998  1.00  0.00     0.004 C 
BRANCH   2   3
ATOM      3  C   UNL     1     -34.509  -7.061 -31.675  1.00  0.00     0.027 C 
BRANCH   3   4
ATOM      4  C   UNL     1     -33.468  -7.522 -30.696  1.00  0.00    -0.025 C 
ATOM      5  C   UNL     1     -32.969  -8.762 -30.739  1.00  0.00     0.020 C 
BRANCH   5   6
ATOM      6  C   UNL     1     -31.959  -9.231 -29.778  1.00  0.00     0.064 C 
ATOM      7  O   UNL     1     -32.328  -9.720 -28.679  1.00  0.00    -0.545 OA
ATOM      8  O   UNL     1     -30.602  -9.142 -30.065  1.00  0.00    -0.545 OA
ENDBRANCH   5   6
ENDBRANCH   3   4
ENDBRANCH   2   3
ENDBRANCH   1   2
BRANCH   1   9
ATOM      9  C   UNL     1     -34.783  -3.965 -29.909  1.00  0.00     0.000 C 
BRANCH   9  10
ATOM     10  C   UNL     1     -33.299  -3.600 -29.781  1.00  0.00     0.000 C 
BRANCH  10  11
ATOM     11  C   UNL     1     -32.734  -3.107 -31.118  1.00  0.00    -0.000 C 
BRANCH  11  12
ATOM     12  C   UNL     1     -31.987  -4.234 -31.848  1.00  0.00    -0.000 C 
BRANCH  12  13
ATOM     13  C   UNL     1     -32.450  -4.404 -33.303  1.00  0.00    -0.003 C 
ATOM     14  C   UNL     1     -33.870  -3.889 -33.535  1.00  0.00     0.004 C 
ENDBRANCH  12  13
ENDBRANCH  11  12
ENDBRANCH  10  11
ENDBRANCH   9  10
ENDBRANCH   1   9
TORSDOF 9
ENDMDL
MODEL 2
REMARK VINA RESULT:    -2.996     13.820     14.941
REMARK INTER + INTRA:          -6.021
REMARK INTER:                  -4.989
REMARK INTRA:                  -1.032
REMARK UNBOUND:                -1.449
REMARK SMILES CCCCCCCCCC=CC(=O)[O-]
REMARK SMILES IDX 7 1 8 2 9 3 10 4 11 5 12 6 13 7 14 8 6 9 5 10 4 11 3 12 2 13
REMARK SMILES IDX 1 14
REMARK H PARENT
REMARK Flexibility Score: inf
ROOT
ATOM      1  C   UNL     1     -20.432  -4.304 -31.657  1.00  0.00     0.000 C 
ENDROOT
BRANCH   1   2
ATOM      2  C   UNL     1     -20.069  -4.422 -33.145  1.00  0.00     0.004 C 
BRANCH   2   3
ATOM      3  C   UNL     1     -18.816  -3.613 -33.514  1.00  0.00     0.027 C 
BRANCH   3   4
ATOM      4  C   UNL     1     -18.256  -4.054 -34.835  1.00  0.00    -0.025 C 
ATOM      5  C   UNL     1     -18.943  -3.898 -35.972  1.00  0.00     0.020 C 
BRANCH   5   6
ATOM      6  C   UNL     1     -18.412  -4.337 -37.272  1.00  0.00     0.064 C 
ATOM      7  O   UNL     1     -18.480  -3.565 -38.263  1.00  0.00    -0.545 OA
ATOM      8  O   UNL     1     -17.836  -5.593 -37.423  1.00  0.00    -0.545 OA
ENDBRANCH   5   6
ENDBRANCH   3   4
ENDBRANCH   2   3
ENDBRANCH   1   2
BRANCH   1   9
ATOM      9  C   UNL     1     -19.499  -3.352 -30.895  1.00  0.00     0.000 C 
BRANCH   9  10
ATOM     10  C   UNL     1     -20.300  -2.281 -30.144  1.00  0.00     0.000 C 
BRANCH  10  11
ATOM     11  C   UNL     1     -20.905  -1.261 -31.115  1.00  0.00    -0.000 C 
BRANCH  11  12
ATOM     12  C   UNL     1     -19.808  -0.414 -31.777  1.00  0.00    -0.000 C 
BRANCH  12  13
ATOM     13  C   UNL     1     -20.346   0.468 -32.913  1.00  0.00    -0.003 C 
ATOM     14  C   UNL     1     -20.436  -0.275 -34.246  1.00  0.00     0.004 C 
ENDBRANCH  12  13
ENDBRANCH  11  12
ENDBRANCH  10  11
ENDBRANCH   9  10
ENDBRANCH   1   9
TORSDOF 9
ENDMDL
MODEL 3
REMARK VINA RESULT:    -2.952     12.896     14.422
REMARK INTER + INTRA:          -5.953
REMARK INTER:                  -5.269
REMARK INTRA:                  -0.684
REMARK UNBOUND:                -1.449
REMARK SMILES CCCCCCCCCC=CC(=O)[O-]
REMARK SMILES IDX 7 1 8 2 9 3 10 4 11 5 12 6 13 7 14 8 6 9 5 10 4 11 3 12 2 13
REMARK SMILES IDX 1 14
REMARK H PARENT
REMARK Flexibility Score: inf
ROOT
ATOM      1  C   UNL     1     -26.646   5.506 -36.465  1.00  0.00     0.000 C 
ENDROOT
BRANCH   1   2
ATOM      2  C   UNL     1     -26.567   5.506 -34.930  1.00  0.00     0.004 C 
BRANCH   2   3
ATOM      3  C   UNL     1     -25.363   4.714 -34.399  1.00  0.00     0.027 C 
BRANCH   3   4
ATOM      4  C   UNL     1     -25.196   4.908 -32.920  1.00  0.00    -0.025 C 
ATOM      5  C   UNL     1     -24.179   5.617 -32.419  1.00  0.00     0.020 C 
BRANCH   5   6
ATOM      6  C   UNL     1     -23.996   5.804 -30.971  1.00  0.00     0.064 C 
ATOM      7  O   UNL     1     -23.298   4.983 -30.323  1.00  0.00    -0.545 OA
ATOM      8  O   UNL     1     -24.584   6.874 -30.307  1.00  0.00    -0.545 OA
ENDBRANCH   5   6
ENDBRANCH   3   4
ENDBRANCH   2   3
ENDBRANCH   1   2
BRANCH   1   9
ATOM      9  C   UNL     1     -26.925   4.110 -37.042  1.00  0.00     0.000 C 
BRANCH   9  10
ATOM     10  C   UNL     1     -28.264   3.563 -36.532  1.00  0.00     0.000 C 
BRANCH  10  11
ATOM     11  C   UNL     1     -29.278   3.433 -37.675  1.00  0.00    -0.000 C 
BRANCH  11  12
ATOM     12  C   UNL     1     -28.622   3.744 -39.029  1.00  0.00    -0.000 C 
BRANCH  12  13
ATOM     13  C   UNL     1     -29.323   4.890 -39.775  1.00  0.00    -0.003 C 
ATOM     14  C   UNL     1     -29.251   6.218 -39.021  1.00  0.00     0.004 C 
ENDBRANCH  12  13
ENDBRANCH  11  12
ENDBRANCH  10  11
ENDBRANCH   9  10
ENDBRANCH   1   9
TORSDOF 9
ENDMDL
MODEL 4
REMARK VINA RESULT:    -2.922      1.282      2.897
REMARK INTER + INTRA:          -5.908
REMARK INTER:                  -4.469
REMARK INTRA:                  -1.439
REMARK UNBOUND:                -1.449
REMARK SMILES CCCCCCCCCC=CC(=O)[O-]
REMARK SMILES IDX 7 1 8 2 9 3 10 4 11 5 12 6 13 7 14 8 6 9 5 10 4 11 3 12 2 13
REMARK SMILES IDX 1 14
REMARK H PARENT
REMARK Flexibility Score: inf
ROOT
ATOM      1  C   UNL     1     -34.228  -3.872 -33.274  1.00  0.00     0.000 C 
ENDROOT
BRANCH   1   2
ATOM      2  C   UNL     1     -34.429  -5.390 -33.148  1.00  0.00     0.004 C 
BRANCH   2   3
ATOM      3  C   UNL     1     -34.977  -5.802 -31.774  1.00  0.00     0.027 C 
BRANCH   3   4
ATOM      4  C   UNL     1     -34.663  -7.240 -31.475  1.00  0.00    -0.025 C 
ATOM      5  C   UNL     1     -33.432  -7.627 -31.124  1.00  0.00     0.020 C 
BRANCH   5   6
ATOM      6  C   UNL     1     -33.107  -9.033 -30.840  1.00  0.00     0.064 C 
ATOM      7  O   UNL     1     -33.244  -9.897 -31.745  1.00  0.00    -0.545 OA
ATOM      8  O   UNL     1     -32.650  -9.424 -29.587  1.00  0.00    -0.545 OA
ENDBRANCH   5   6
ENDBRANCH   3   4
ENDBRANCH   2   3
ENDBRANCH   1   2
BRANCH   1   9
ATOM      9  C   UNL     1     -32.778  -3.494 -33.610  1.00  0.00     0.000 C 
BRANCH   9  10
ATOM     10  C   UNL     1     -31.823  -4.655 -33.306  1.00  0.00     0.000 C 
BRANCH  10  11
ATOM     11  C   UNL     1     -30.782  -4.253 -32.255  1.00  0.00    -0.000 C 
BRANCH  11  12
ATOM     12  C   UNL     1     -31.225  -4.687 -30.849  1.00  0.00    -0.000 C 
BRANCH  12  13
ATOM     13  C   UNL     1     -31.994  -3.585 -30.105  1.00  0.00    -0.003 C 
ATOM     14  C   UNL     1     -33.087  -4.139 -29.192  1.00  0.00     0.004 C 
ENDBRANCH  12  13
ENDBRANCH  11  12
ENDBRANCH  10  11
ENDBRANCH   9  10
ENDBRANCH   1   9
TORSDOF 9
ENDMDL
MODEL 5
REMARK VINA RESULT:    -2.922     12.937     15.011
REMARK INTER + INTRA:          -5.907
REMARK INTER:                  -4.434
REMARK INTRA:                  -1.473
REMARK UNBOUND:                -1.449
REMARK SMILES CCCCCCCCCC=CC(=O)[O-]
REMARK SMILES IDX 7 1 8 2 9 3 10 4 11 5 12 6 13 7 14 8 6 9 5 10 4 11 3 12 2 13
REMARK SMILES IDX 1 14
REMARK H PARENT
REMARK Flexibility Score: inf
ROOT
ATOM      1  C   UNL     1     -26.203   7.987 -29.172  1.00  0.00     0.000 C 
ENDROOT
BRANCH   1   2
ATOM      2  C   UNL     1     -24.788   8.067 -28.579  1.00  0.00     0.004 C 
BRANCH   2   3
ATOM      3  C   UNL     1     -23.915   6.863 -28.965  1.00  0.00     0.027 C 
BRANCH   3   4
ATOM      4  C   UNL     1     -24.033   6.555 -30.429  1.00  0.00    -0.025 C 
ATOM      5  C   UNL     1     -24.086   5.296 -30.876  1.00  0.00     0.020 C 
BRANCH   5   6
ATOM      6  C   UNL     1     -24.188   4.979 -32.308  1.00  0.00     0.064 C 
ATOM      7  O   UNL     1     -25.053   5.561 -33.013  1.00  0.00    -0.545 OA
ATOM      8  O   UNL     1     -23.344   4.046 -32.898  1.00  0.00    -0.545 OA
ENDBRANCH   5   6
ENDBRANCH   3   4
ENDBRANCH   2   3
ENDBRANCH   1   2
BRANCH   1   9
ATOM      9  C   UNL     1     -27.298   8.071 -28.099  1.00  0.00     0.000 C 
BRANCH   9  10
ATOM     10  C   UNL     1     -28.403   7.039 -28.359  1.00  0.00     0.000 C 
BRANCH  10  11
ATOM     11  C   UNL     1     -27.868   5.848 -29.161  1.00  0.00    -0.000 C 
BRANCH  11  12
ATOM     12  C   UNL     1     -27.808   4.583 -28.292  1.00  0.00    -0.000 C 
BRANCH  12  13
ATOM     13  C   UNL     1     -26.376   4.224 -27.868  1.00  0.00    -0.003 C 
ATOM     14  C   UNL     1     -26.002   4.798 -26.501  1.00  0.00     0.004 C 
ENDBRANCH  12  13
ENDBRANCH  11  12
ENDBRANCH  10  11
ENDBRANCH   9  10
ENDBRANCH   1   9
TORSDOF 9
ENDMDL
MODEL 6
REMARK VINA RESULT:    -2.874     10.600     12.672
REMARK INTER + INTRA:          -5.834
REMARK INTER:                  -4.372
REMARK INTRA:                  -1.462
REMARK UNBOUND:                -1.449
REMARK SMILES CCCCCCCCCC=CC(=O)[O-]
REMARK SMILES IDX 7 1 8 2 9 3 10 4 11 5 12 6 13 7 14 8 6 9 5 10 4 11 3 12 2 13
REMARK SMILES IDX 1 14
REMARK H PARENT
REMARK Flexibility Score: inf
ROOT
ATOM      1  C   UNL     1     -32.428   3.011 -37.815  1.00  0.00     0.000 C 
ENDROOT
BRANCH   1   2
ATOM      2  C   UNL     1     -31.210   3.947 -37.874  1.00  0.00     0.004 C 
BRANCH   2   3
ATOM      3  C   UNL     1     -30.238   3.582 -39.005  1.00  0.00     0.027 C 
BRANCH   3   4
ATOM      4  C   UNL     1     -28.815   3.839 -38.600  1.00  0.00    -0.025 C 
ATOM      5  C   UNL     1     -28.514   4.416 -37.432  1.00  0.00     0.020 C 
BRANCH   5   6
ATOM      6  C   UNL     1     -27.126   4.685 -37.028  1.00  0.00     0.064 C 
ATOM      7  O   UNL     1     -26.292   3.743 -37.005  1.00  0.00    -0.545 OA
ATOM      8  O   UNL     1     -26.719   5.965 -36.671  1.00  0.00    -0.545 OA
ENDBRANCH   5   6
ENDBRANCH   3   4
ENDBRANCH   2   3
ENDBRANCH   1   2
BRANCH   1   9
ATOM      9  C   UNL     1     -32.578   2.158 -39.082  1.00  0.00     0.000 C 
BRANCH   9  10
ATOM     10  C   UNL     1     -33.170   0.781 -38.751  1.00  0.00     0.000 C 
BRANCH  10  11
ATOM     11  C   UNL     1     -32.098  -0.158 -38.187  1.00  0.00    -0.000 C 
BRANCH  11  12
ATOM     12  C   UNL     1     -30.855  -0.180 -39.090  1.00  0.00    -0.000 C 
BRANCH  12  13
ATOM     13  C   UNL     1     -29.553   0.056 -38.309  1.00  0.00    -0.003 C 
ATOM     14  C   UNL     1     -29.801   0.506 -36.869  1.00  0.00     0.004 C 
ENDBRANCH  12  13
ENDBRANCH  11  12
ENDBRANCH  10  11
ENDBRANCH   9  10
ENDBRANCH   1   9
TORSDOF 9
ENDMDL
MODEL 7
REMARK VINA RESULT:    -2.858      3.721      6.765
REMARK INTER + INTRA:          -5.811
REMARK INTER:                  -4.996
REMARK INTRA:                  -0.815
REMARK UNBOUND:                -1.449
REMARK SMILES CCCCCCCCCC=CC(=O)[O-]
REMARK SMILES IDX 7 1 8 2 9 3 10 4 11 5 12 6 13 7 14 8 6 9 5 10 4 11 3 12 2 13
REMARK SMILES IDX 1 14
REMARK H PARENT
REMARK Flexibility Score: inf
ROOT
ATOM      1  C   UNL     1     -31.060  -9.316 -28.420  1.00  0.00     0.000 C 
ENDROOT
BRANCH   1   2
ATOM      2  C   UNL     1     -32.391  -8.924 -29.080  1.00  0.00     0.004 C 
BRANCH   2   3
ATOM      3  C   UNL     1     -32.460  -9.330 -30.559  1.00  0.00     0.027 C 
BRANCH   3   4
ATOM      4  C   UNL     1     -33.495  -8.529 -31.293  1.00  0.00    -0.025 C 
ATOM      5  C   UNL     1     -33.904  -7.337 -30.844  1.00  0.00     0.020 C 
BRANCH   5   6
ATOM      6  C   UNL     1     -34.927  -6.547 -31.546  1.00  0.00     0.064 C 
ATOM      7  O   UNL     1     -36.115  -6.562 -31.133  1.00  0.00    -0.545 OA
ATOM      8  O   UNL     1     -34.601  -5.782 -32.660  1.00  0.00    -0.545 OA
ENDBRANCH   5   6
ENDBRANCH   3   4
ENDBRANCH   2   3
ENDBRANCH   1   2
BRANCH   1   9
ATOM      9  C   UNL     1     -31.217 -10.456 -27.404  1.00  0.00     0.000 C 
BRANCH   9  10
ATOM     10  C   UNL     1     -32.678 -10.596 -26.956  1.00  0.00     0.000 C 
BRANCH  10  11
ATOM     11  C   UNL     1     -32.768 -11.175 -25.540  1.00  0.00    -0.000 C 
BRANCH  11  12
ATOM     12  C   UNL     1     -32.464 -10.100 -24.486  1.00  0.00    -0.000 C 
BRANCH  12  13
ATOM     13  C   UNL     1     -33.145  -8.759 -24.797  1.00  0.00    -0.003 C 
ATOM     14  C   UNL     1     -32.177  -7.577 -24.740  1.00  0.00     0.004 C 
ENDBRANCH  12  13
ENDBRANCH  11  12
ENDBRANCH  10  11
ENDBRANCH   9  10
ENDBRANCH   1   9
TORSDOF 9
ENDMDL
MODEL 8
REMARK VINA RESULT:    -2.831     10.874     12.845
REMARK INTER + INTRA:          -5.770
REMARK INTER:                  -4.395
REMARK INTRA:                  -1.375
REMARK UNBOUND:                -1.449
REMARK SMILES CCCCCCCCCC=CC(=O)[O-]
REMARK SMILES IDX 7 1 8 2 9 3 10 4 11 5 12 6 13 7 14 8 6 9 5 10 4 11 3 12 2 13
REMARK SMILES IDX 1 14
REMARK H PARENT
REMARK Flexibility Score: inf
ROOT
ATOM      1  C   UNL     1     -33.207   1.001 -38.921  1.00  0.00     0.000 C 
ENDROOT
BRANCH   1   2
ATOM      2  C   UNL     1     -32.831   2.452 -38.585  1.00  0.00     0.004 C 
BRANCH   2   3
ATOM      3  C   UNL     1     -32.431   3.262 -39.827  1.00  0.00     0.027 C 
BRANCH   3   4
ATOM      4  C   UNL     1     -31.033   3.795 -39.700  1.00  0.00    -0.025 C 
ATOM      5  C   UNL     1     -30.745   4.812 -38.882  1.00  0.00     0.020 C 
BRANCH   5   6
ATOM      6  C   UNL     1     -29.382   5.352 -38.757  1.00  0.00     0.064 C 
ATOM      7  O   UNL     1     -29.192   6.590 -38.874  1.00  0.00    -0.545 OA
ATOM      8  O   UNL     1     -28.300   4.516 -38.513  1.00  0.00    -0.545 OA
ENDBRANCH   5   6
ENDBRANCH   3   4
ENDBRANCH   2   3
ENDBRANCH   1   2
BRANCH   1   9
ATOM      9  C   UNL     1     -32.334  -0.022 -38.180  1.00  0.00     0.000 C 
BRANCH   9  10
ATOM     10  C   UNL     1     -31.218  -0.553 -39.088  1.00  0.00     0.000 C 
BRANCH  10  11
ATOM     11  C   UNL     1     -29.894   0.172 -38.816  1.00  0.00    -0.000 C 
BRANCH  11  12
ATOM     12  C   UNL     1     -29.693   0.403 -37.311  1.00  0.00    -0.000 C 
BRANCH  12  13
ATOM     13  C   UNL     1     -29.184   1.817 -36.993  1.00  0.00    -0.003 C 
ATOM     14  C   UNL     1     -30.170   2.624 -36.148  1.00  0.00     0.004 C 
ENDBRANCH  12  13
ENDBRANCH  11  12
ENDBRANCH  10  11
ENDBRANCH   9  10
ENDBRANCH   1   9
TORSDOF 9
ENDMDL
MODEL 9
REMARK VINA RESULT:    -2.790     13.240     15.506
REMARK INTER + INTRA:          -5.706
REMARK INTER:                  -4.190
REMARK INTRA:                  -1.516
REMARK UNBOUND:                -1.449
REMARK SMILES CCCCCCCCCC=CC(=O)[O-]
REMARK SMILES IDX 7 1 8 2 9 3 10 4 11 5 12 6 13 7 14 8 6 9 5 10 4 11 3 12 2 13
REMARK SMILES IDX 1 14
REMARK H PARENT
REMARK Flexibility Score: inf
ROOT
ATOM      1  C   UNL     1     -24.307   6.920 -26.220  1.00  0.00     0.000 C 
ENDROOT
BRANCH   1   2
ATOM      2  C   UNL     1     -23.785   6.557 -27.618  1.00  0.00     0.004 C 
BRANCH   2   3
ATOM      3  C   UNL     1     -24.125   7.621 -28.672  1.00  0.00     0.027 C 
BRANCH   3   4
ATOM      4  C   UNL     1     -24.218   7.016 -30.043  1.00  0.00    -0.025 C 
ATOM      5  C   UNL     1     -23.985   5.715 -30.250  1.00  0.00     0.020 C 
BRANCH   5   6
ATOM      6  C   UNL     1     -24.060   5.112 -31.589  1.00  0.00     0.064 C 
ATOM      7  O   UNL     1     -24.411   5.819 -32.570  1.00  0.00    -0.545 OA
ATOM      8  O   UNL     1     -23.747   3.773 -31.790  1.00  0.00    -0.545 OA
ENDBRANCH   5   6
ENDBRANCH   3   4
ENDBRANCH   2   3
ENDBRANCH   1   2
BRANCH   1   9
ATOM      9  C   UNL     1     -25.259   8.125 -26.240  1.00  0.00     0.000 C 
BRANCH   9  10
ATOM     10  C   UNL     1     -26.710   7.682 -26.014  1.00  0.00     0.000 C 
BRANCH  10  11
ATOM     11  C   UNL     1     -27.551   7.880 -27.280  1.00  0.00    -0.000 C 
BRANCH  11  12
ATOM     12  C   UNL     1     -28.234   6.568 -27.696  1.00  0.00    -0.000 C 
BRANCH  12  13
ATOM     13  C   UNL     1     -27.353   5.708 -28.615  1.00  0.00    -0.003 C 
ATOM     14  C   UNL     1     -26.797   4.470 -27.912  1.00  0.00     0.004 C 
ENDBRANCH  12  13
ENDBRANCH  11  12
ENDBRANCH  10  11
ENDBRANCH   9  10
ENDBRANCH   1   9
TORSDOF 9
ENDMDL
