MODEL 1
REMARK VINA RESULT:    -6.804      0.000      0.000
REMARK INTER + INTRA:          -8.595
REMARK INTER:                  -8.396
REMARK INTRA:                  -0.199
REMARK UNBOUND:                -0.199
REMARK SMILES O=c1c(O)c(-c2cc(O)c(O)c(O)c2)oc2cc(O)cc(O)c12
REMARK SMILES IDX 5 1 3 2 2 3 1 4 23 5 21 6 20 7 18 8 17 9 16 10 15 11 6 12
REMARK SMILES IDX 7 13 8 14 14 15 10 16 12 17 9 18 11 20 13 22 4 24 22 26
REMARK SMILES IDX 19 28
REMARK H PARENT 9 19 11 21 13 23 4 25 22 27 19 29
REMARK Flexibility Score: inf
ROOT
ATOM      1  C   UNL     1       7.314  -5.622   6.111  1.00  0.00     0.180 A 
ATOM      2  C   UNL     1       8.050  -6.621   6.778  1.00  0.00     0.208 A 
ATOM      3  C   UNL     1       7.387  -7.781   7.206  1.00  0.00     0.238 A 
ATOM      4  O   UNL     1       8.035  -8.677   7.813  1.00  0.00    -0.285 OA
ATOM      5  C   UNL     1       6.011  -7.934   6.943  1.00  0.00     0.111 A 
ATOM      6  C   UNL     1       5.268  -9.074   7.337  1.00  0.00     0.134 A 
ATOM      7  C   UNL     1       3.902  -9.155   7.031  1.00  0.00     0.093 A 
ATOM      8  C   UNL     1       3.264  -8.118   6.339  1.00  0.00     0.123 A 
ATOM      9  C   UNL     1       3.991  -6.993   5.950  1.00  0.00     0.094 A 
ATOM     10  C   UNL     1       5.354  -6.892   6.247  1.00  0.00     0.146 A 
ATOM     11  O   UNL     1       6.019  -5.807   5.869  1.00  0.00    -0.452 OA
ENDROOT
BRANCH   1  12
ATOM     12  C   UNL     1       7.938  -4.362   5.647  1.00  0.00     0.029 A 
ATOM     13  C   UNL     1       7.908  -4.040   4.282  1.00  0.00     0.062 A 
ATOM     14  C   UNL     1       8.469  -2.848   3.811  1.00  0.00     0.162 A 
ATOM     15  C   UNL     1       8.510  -3.454   6.550  1.00  0.00     0.062 A 
ATOM     16  C   UNL     1       9.064  -1.946   4.725  1.00  0.00     0.200 A 
ATOM     17  C   UNL     1       9.075  -2.257   6.093  1.00  0.00     0.162 A 
BRANCH  14  18
ATOM     18  O   UNL     1       8.412  -2.600   2.437  1.00  0.00    -0.504 OA
ATOM     19  H   UNL     1       8.179  -1.706   2.033  1.00  0.00     0.293 HD
ENDBRANCH  14  18
BRANCH  16  20
ATOM     20  O   UNL     1       9.648  -0.743   4.320  1.00  0.00    -0.502 OA
ATOM     21  H   UNL     1      10.600  -0.656   3.997  1.00  0.00     0.293 HD
ENDBRANCH  16  20
BRANCH  17  22
ATOM     22  O   UNL     1       9.648  -1.362   6.996  1.00  0.00    -0.504 OA
ATOM     23  H   UNL     1       9.532  -1.472   7.996  1.00  0.00     0.293 HD
ENDBRANCH  17  22
ENDBRANCH   1  12
BRANCH   2  24
ATOM     24  O   UNL     1       9.425  -6.467   6.981  1.00  0.00    -0.502 OA
ATOM     25  H   UNL     1      10.107  -7.097   6.576  1.00  0.00     0.293 HD
ENDBRANCH   2  24
BRANCH   6  26
ATOM     26  O   UNL     1       5.877 -10.124   8.027  1.00  0.00    -0.507 OA
ATOM     27  H   UNL     1       6.734 -10.552   7.699  1.00  0.00     0.293 HD
ENDBRANCH   6  26
BRANCH   8  28
ATOM     28  O   UNL     1       1.908  -8.199   6.034  1.00  0.00    -0.508 OA
ATOM     29  H   UNL     1       1.249  -8.651   6.659  1.00  0.00     0.293 HD
ENDBRANCH   8  28
TORSDOF 7
ENDMDL
MODEL 2
REMARK VINA RESULT:    -6.790      0.183      1.762
REMARK INTER + INTRA:          -8.576
REMARK INTER:                  -8.355
REMARK INTRA:                  -0.222
REMARK UNBOUND:                -0.199
REMARK SMILES O=c1c(O)c(-c2cc(O)c(O)c(O)c2)oc2cc(O)cc(O)c12
REMARK SMILES IDX 5 1 3 2 2 3 1 4 23 5 21 6 20 7 18 8 17 9 16 10 15 11 6 12
REMARK SMILES IDX 7 13 8 14 14 15 10 16 12 17 9 18 11 20 13 22 4 24 22 26
REMARK SMILES IDX 19 28
REMARK H PARENT 9 19 11 21 13 23 4 25 22 27 19 29
REMARK Flexibility Score: inf
ROOT
ATOM      1  C   UNL     1       7.398  -5.586   6.067  1.00  0.00     0.180 A 
ATOM      2  C   UNL     1       8.147  -6.589   6.714  1.00  0.00     0.208 A 
ATOM      3  C   UNL     1       7.495  -7.759   7.132  1.00  0.00     0.238 A 
ATOM      4  O   UNL     1       8.153  -8.659   7.723  1.00  0.00    -0.285 OA
ATOM      5  C   UNL     1       6.117  -7.917   6.879  1.00  0.00     0.111 A 
ATOM      6  C   UNL     1       5.385  -9.067   7.263  1.00  0.00     0.134 A 
ATOM      7  C   UNL     1       4.017  -9.153   6.966  1.00  0.00     0.093 A 
ATOM      8  C   UNL     1       3.367  -8.113   6.293  1.00  0.00     0.123 A 
ATOM      9  C   UNL     1       4.083  -6.977   5.913  1.00  0.00     0.094 A 
ATOM     10  C   UNL     1       5.448  -6.871   6.201  1.00  0.00     0.146 A 
ATOM     11  O   UNL     1       6.103  -5.777   5.832  1.00  0.00    -0.452 OA
ENDROOT
BRANCH   1  12
ATOM     12  C   UNL     1       8.011  -4.316   5.614  1.00  0.00     0.029 A 
ATOM     13  C   UNL     1       8.495  -3.407   6.565  1.00  0.00     0.062 A 
ATOM     14  C   UNL     1       9.099  -2.207   6.172  1.00  0.00     0.162 A 
ATOM     15  C   UNL     1       8.171  -4.028   4.251  1.00  0.00     0.062 A 
ATOM     16  C   UNL     1       9.237  -1.912   4.795  1.00  0.00     0.200 A 
ATOM     17  C   UNL     1       8.774  -2.832   3.843  1.00  0.00     0.162 A 
BRANCH  14  18
ATOM     18  O   UNL     1       9.546  -1.345   7.176  1.00  0.00    -0.504 OA
ATOM     19  H   UNL     1       9.316  -0.364   7.224  1.00  0.00     0.293 HD
ENDBRANCH  14  18
BRANCH  16  20
ATOM     20  O   UNL     1       9.824  -0.730   4.336  1.00  0.00    -0.502 OA
ATOM     21  H   UNL     1       9.760   0.156   4.813  1.00  0.00     0.293 HD
ENDBRANCH  16  20
BRANCH  17  22
ATOM     22  O   UNL     1       8.923  -2.549   2.486  1.00  0.00    -0.504 OA
ATOM     23  H   UNL     1       8.725  -1.628   2.112  1.00  0.00     0.293 HD
ENDBRANCH  17  22
ENDBRANCH   1  12
BRANCH   2  24
ATOM     24  O   UNL     1       9.521  -6.428   6.909  1.00  0.00    -0.502 OA
ATOM     25  H   UNL     1      10.189  -7.157   6.686  1.00  0.00     0.293 HD
ENDBRANCH   2  24
BRANCH   6  26
ATOM     26  O   UNL     1       6.006 -10.122   7.935  1.00  0.00    -0.507 OA
ATOM     27  H   UNL     1       6.962 -10.392   7.736  1.00  0.00     0.293 HD
ENDBRANCH   6  26
BRANCH   8  28
ATOM     28  O   UNL     1       2.009  -8.199   5.998  1.00  0.00    -0.508 OA
ATOM     29  H   UNL     1       1.379  -7.421   6.163  1.00  0.00     0.293 HD
ENDBRANCH   8  28
TORSDOF 7
ENDMDL
MODEL 3
REMARK VINA RESULT:    -6.693      1.363      6.991
REMARK INTER + INTRA:          -8.457
REMARK INTER:                  -8.199
REMARK INTRA:                  -0.258
REMARK UNBOUND:                -0.199
REMARK SMILES O=c1c(O)c(-c2cc(O)c(O)c(O)c2)oc2cc(O)cc(O)c12
REMARK SMILES IDX 5 1 3 2 2 3 1 4 23 5 21 6 20 7 18 8 17 9 16 10 15 11 6 12
REMARK SMILES IDX 7 13 8 14 14 15 10 16 12 17 9 18 11 20 13 22 4 24 22 26
REMARK SMILES IDX 19 28
REMARK H PARENT 9 19 11 21 13 23 4 25 22 27 19 29
REMARK Flexibility Score: inf
ROOT
ATOM      1  C   UNL     1       7.511  -5.361   5.974  1.00  0.00     0.180 A 
ATOM      2  C   UNL     1       8.081  -4.704   7.083  1.00  0.00     0.208 A 
ATOM      3  C   UNL     1       8.896  -3.583   6.862  1.00  0.00     0.238 A 
ATOM      4  O   UNL     1       9.420  -2.994   7.847  1.00  0.00    -0.285 OA
ATOM      5  C   UNL     1       9.109  -3.125   5.546  1.00  0.00     0.111 A 
ATOM      6  C   UNL     1       9.913  -2.000   5.237  1.00  0.00     0.134 A 
ATOM      7  C   UNL     1      10.068  -1.602   3.902  1.00  0.00     0.093 A 
ATOM      8  C   UNL     1       9.437  -2.305   2.869  1.00  0.00     0.123 A 
ATOM      9  C   UNL     1       8.645  -3.414   3.168  1.00  0.00     0.094 A 
ATOM     10  C   UNL     1       8.478  -3.829   4.493  1.00  0.00     0.146 A 
ATOM     11  O   UNL     1       7.723  -4.891   4.748  1.00  0.00    -0.452 OA
ENDROOT
BRANCH   1  12
ATOM     12  C   UNL     1       6.656  -6.560   6.125  1.00  0.00     0.029 A 
ATOM     13  C   UNL     1       5.302  -6.491   5.769  1.00  0.00     0.062 A 
ATOM     14  C   UNL     1       4.470  -7.612   5.878  1.00  0.00     0.162 A 
ATOM     15  C   UNL     1       7.185  -7.784   6.562  1.00  0.00     0.062 A 
ATOM     16  C   UNL     1       5.006  -8.837   6.341  1.00  0.00     0.200 A 
ATOM     17  C   UNL     1       6.366  -8.913   6.675  1.00  0.00     0.162 A 
BRANCH  14  18
ATOM     18  O   UNL     1       3.129  -7.464   5.516  1.00  0.00    -0.504 OA
ATOM     19  H   UNL     1       2.512  -6.768   5.905  1.00  0.00     0.293 HD
ENDBRANCH  14  18
BRANCH  16  20
ATOM     20  O   UNL     1       4.230  -9.991   6.479  1.00  0.00    -0.502 OA
ATOM     21  H   UNL     1       3.468 -10.085   7.134  1.00  0.00     0.293 HD
ENDBRANCH  16  20
BRANCH  17  22
ATOM     22  O   UNL     1       6.897 -10.124   7.118  1.00  0.00    -0.504 OA
ATOM     23  H   UNL     1       6.480 -10.637   7.885  1.00  0.00     0.293 HD
ENDBRANCH  17  22
ENDBRANCH   1  12
BRANCH   2  24
ATOM     24  O   UNL     1       7.813  -5.149   8.381  1.00  0.00    -0.502 OA
ATOM     25  H   UNL     1       7.229  -5.955   8.567  1.00  0.00     0.293 HD
ENDBRANCH   2  24
BRANCH   6  26
ATOM     26  O   UNL     1      10.554  -1.278   6.245  1.00  0.00    -0.507 OA
ATOM     27  H   UNL     1      10.756  -0.290   6.148  1.00  0.00     0.293 HD
ENDBRANCH   6  26
BRANCH   8  28
ATOM     28  O   UNL     1       9.592  -1.909   1.544  1.00  0.00    -0.508 OA
ATOM     29  H   UNL     1      10.390  -2.201   0.992  1.00  0.00     0.293 HD
ENDBRANCH   8  28
TORSDOF 7
ENDMDL
MODEL 4
REMARK VINA RESULT:    -6.649      2.154      7.442
REMARK INTER + INTRA:          -8.403
REMARK INTER:                  -8.054
REMARK INTRA:                  -0.349
REMARK UNBOUND:                -0.199
REMARK SMILES O=c1c(O)c(-c2cc(O)c(O)c(O)c2)oc2cc(O)cc(O)c12
REMARK SMILES IDX 5 1 3 2 2 3 1 4 23 5 21 6 20 7 18 8 17 9 16 10 15 11 6 12
REMARK SMILES IDX 7 13 8 14 14 15 10 16 12 17 9 18 11 20 13 22 4 24 22 26
REMARK SMILES IDX 19 28
REMARK H PARENT 9 19 11 21 13 23 4 25 22 27 19 29
REMARK Flexibility Score: inf
ROOT
ATOM      1  C   UNL     1       8.007  -4.519   5.368  1.00  0.00     0.180 A 
ATOM      2  C   UNL     1       7.993  -3.423   4.483  1.00  0.00     0.208 A 
ATOM      3  C   UNL     1       9.058  -2.509   4.517  1.00  0.00     0.238 A 
ATOM      4  O   UNL     1       9.049  -1.519   3.736  1.00  0.00    -0.285 OA
ATOM      5  C   UNL     1      10.125  -2.715   5.415  1.00  0.00     0.111 A 
ATOM      6  C   UNL     1      11.237  -1.844   5.509  1.00  0.00     0.134 A 
ATOM      7  C   UNL     1      12.264  -2.124   6.423  1.00  0.00     0.093 A 
ATOM      8  C   UNL     1      12.200  -3.256   7.243  1.00  0.00     0.123 A 
ATOM      9  C   UNL     1      11.105  -4.117   7.154  1.00  0.00     0.094 A 
ATOM     10  C   UNL     1      10.070  -3.856   6.251  1.00  0.00     0.146 A 
ATOM     11  O   UNL     1       9.038  -4.689   6.192  1.00  0.00    -0.452 OA
ENDROOT
BRANCH   1  12
ATOM     12  C   UNL     1       6.912  -5.514   5.406  1.00  0.00     0.029 A 
ATOM     13  C   UNL     1       5.757  -5.241   6.153  1.00  0.00     0.062 A 
ATOM     14  C   UNL     1       4.694  -6.150   6.194  1.00  0.00     0.162 A 
ATOM     15  C   UNL     1       6.978  -6.702   4.662  1.00  0.00     0.062 A 
ATOM     16  C   UNL     1       4.777  -7.356   5.458  1.00  0.00     0.200 A 
ATOM     17  C   UNL     1       5.922  -7.619   4.692  1.00  0.00     0.162 A 
BRANCH  14  18
ATOM     18  O   UNL     1       3.582  -5.815   6.970  1.00  0.00    -0.504 OA
ATOM     19  H   UNL     1       3.388  -4.885   7.309  1.00  0.00     0.293 HD
ENDBRANCH  14  18
BRANCH  16  20
ATOM     20  O   UNL     1       3.754  -8.308   5.461  1.00  0.00    -0.502 OA
ATOM     21  H   UNL     1       2.955  -8.279   6.075  1.00  0.00     0.293 HD
ENDBRANCH  16  20
BRANCH  17  22
ATOM     22  O   UNL     1       5.998  -8.801   3.955  1.00  0.00    -0.504 OA
ATOM     23  H   UNL     1       5.331  -9.552   4.088  1.00  0.00     0.293 HD
ENDBRANCH  17  22
ENDBRANCH   1  12
BRANCH   2  24
ATOM     24  O   UNL     1       6.947  -3.269   3.568  1.00  0.00    -0.502 OA
ATOM     25  H   UNL     1       6.528  -2.368   3.371  1.00  0.00     0.293 HD
ENDBRANCH   2  24
BRANCH   6  26
ATOM     26  O   UNL     1      11.330  -0.708   4.704  1.00  0.00    -0.507 OA
ATOM     27  H   UNL     1      11.595   0.194   5.082  1.00  0.00     0.293 HD
ENDBRANCH   6  26
BRANCH   8  28
ATOM     28  O   UNL     1      13.220  -3.533   8.150  1.00  0.00    -0.508 OA
ATOM     29  H   UNL     1      14.013  -4.111   7.896  1.00  0.00     0.293 HD
ENDBRANCH   8  28
TORSDOF 7
ENDMDL
MODEL 5
REMARK VINA RESULT:    -6.531      1.971      2.198
REMARK INTER + INTRA:          -8.258
REMARK INTER:                  -8.008
REMARK INTRA:                  -0.250
REMARK UNBOUND:                -0.199
REMARK SMILES O=c1c(O)c(-c2cc(O)c(O)c(O)c2)oc2cc(O)cc(O)c12
REMARK SMILES IDX 5 1 3 2 2 3 1 4 23 5 21 6 20 7 18 8 17 9 16 10 15 11 6 12
REMARK SMILES IDX 7 13 8 14 14 15 10 16 12 17 9 18 11 20 13 22 4 24 22 26
REMARK SMILES IDX 19 28
REMARK H PARENT 9 19 11 21 13 23 4 25 22 27 19 29
REMARK Flexibility Score: inf
ROOT
ATOM      1  C   UNL     1       8.110  -5.391   6.343  1.00  0.00     0.180 A 
ATOM      2  C   UNL     1       7.713  -5.644   7.671  1.00  0.00     0.208 A 
ATOM      3  C   UNL     1       6.931  -6.778   7.941  1.00  0.00     0.238 A 
ATOM      4  O   UNL     1       6.561  -7.008   9.125  1.00  0.00    -0.285 OA
ATOM      5  C   UNL     1       6.579  -7.647   6.889  1.00  0.00     0.111 A 
ATOM      6  C   UNL     1       5.797  -8.813   7.077  1.00  0.00     0.134 A 
ATOM      7  C   UNL     1       5.496  -9.633   5.979  1.00  0.00     0.093 A 
ATOM      8  C   UNL     1       5.960  -9.310   4.699  1.00  0.00     0.123 A 
ATOM      9  C   UNL     1       6.730  -8.162   4.509  1.00  0.00     0.094 A 
ATOM     10  C   UNL     1       7.041  -7.330   5.589  1.00  0.00     0.146 A 
ATOM     11  O   UNL     1       7.770  -6.241   5.378  1.00  0.00    -0.452 OA
ENDROOT
BRANCH   1  12
ATOM     12  C   UNL     1       8.919  -4.206   5.976  1.00  0.00     0.029 A 
ATOM     13  C   UNL     1       8.316  -3.149   5.278  1.00  0.00     0.062 A 
ATOM     14  C   UNL     1       9.046  -2.005   4.934  1.00  0.00     0.162 A 
ATOM     15  C   UNL     1      10.262  -4.090   6.364  1.00  0.00     0.062 A 
ATOM     16  C   UNL     1      10.406  -1.905   5.308  1.00  0.00     0.200 A 
ATOM     17  C   UNL     1      11.003  -2.951   6.028  1.00  0.00     0.162 A 
BRANCH  14  18
ATOM     18  O   UNL     1       8.382  -1.000   4.227  1.00  0.00    -0.504 OA
ATOM     19  H   UNL     1       7.687  -0.390   4.630  1.00  0.00     0.293 HD
ENDBRANCH  14  18
BRANCH  16  20
ATOM     20  O   UNL     1      11.192  -0.794   4.991  1.00  0.00    -0.502 OA
ATOM     21  H   UNL     1      12.200  -0.780   5.042  1.00  0.00     0.293 HD
ENDBRANCH  16  20
BRANCH  17  22
ATOM     22  O   UNL     1      12.340  -2.846   6.410  1.00  0.00    -0.504 OA
ATOM     23  H   UNL     1      12.952  -2.145   6.010  1.00  0.00     0.293 HD
ENDBRANCH  17  22
ENDBRANCH   1  12
BRANCH   2  24
ATOM     24  O   UNL     1       8.118  -4.793   8.703  1.00  0.00    -0.502 OA
ATOM     25  H   UNL     1       9.054  -4.817   9.090  1.00  0.00     0.293 HD
ENDBRANCH   2  24
BRANCH   6  26
ATOM     26  O   UNL     1       5.320  -9.162   8.341  1.00  0.00    -0.507 OA
ATOM     27  H   UNL     1       4.955  -8.470   8.984  1.00  0.00     0.293 HD
ENDBRANCH   6  26
BRANCH   8  28
ATOM     28  O   UNL     1       5.662 -10.125   3.610  1.00  0.00    -0.508 OA
ATOM     29  H   UNL     1       5.036  -9.818   2.874  1.00  0.00     0.293 HD
ENDBRANCH   8  28
TORSDOF 7
ENDMDL
MODEL 6
REMARK VINA RESULT:    -6.406      1.889      7.553
REMARK INTER + INTRA:          -8.103
REMARK INTER:                  -7.873
REMARK INTRA:                  -0.230
REMARK UNBOUND:                -0.199
REMARK SMILES O=c1c(O)c(-c2cc(O)c(O)c(O)c2)oc2cc(O)cc(O)c12
REMARK SMILES IDX 5 1 3 2 2 3 1 4 23 5 21 6 20 7 18 8 17 9 16 10 15 11 6 12
REMARK SMILES IDX 7 13 8 14 14 15 10 16 12 17 9 18 11 20 13 22 4 24 22 26
REMARK SMILES IDX 19 28
REMARK H PARENT 9 19 11 21 13 23 4 25 22 27 19 29
REMARK Flexibility Score: inf
ROOT
ATOM      1  C   UNL     1       8.226  -5.090   6.589  1.00  0.00     0.180 A 
ATOM      2  C   UNL     1       7.642  -4.398   5.509  1.00  0.00     0.208 A 
ATOM      3  C   UNL     1       8.242  -3.211   5.059  1.00  0.00     0.238 A 
ATOM      4  O   UNL     1       7.722  -2.578   4.101  1.00  0.00    -0.285 OA
ATOM      5  C   UNL     1       9.422  -2.750   5.678  1.00  0.00     0.111 A 
ATOM      6  C   UNL     1      10.091  -1.566   5.283  1.00  0.00     0.134 A 
ATOM      7  C   UNL     1      11.266  -1.178   5.943  1.00  0.00     0.093 A 
ATOM      8  C   UNL     1      11.784  -1.949   6.990  1.00  0.00     0.123 A 
ATOM      9  C   UNL     1      11.127  -3.116   7.383  1.00  0.00     0.094 A 
ATOM     10  C   UNL     1       9.954  -3.520   6.739  1.00  0.00     0.146 A 
ATOM     11  O   UNL     1       9.347  -4.631   7.138  1.00  0.00    -0.452 OA
ENDROOT
BRANCH   1  12
ATOM     12  C   UNL     1       7.641  -6.337   7.132  1.00  0.00     0.029 A 
ATOM     13  C   UNL     1       8.376  -7.530   7.064  1.00  0.00     0.062 A 
ATOM     14  C   UNL     1       7.863  -8.722   7.586  1.00  0.00     0.162 A 
ATOM     15  C   UNL     1       6.390  -6.342   7.767  1.00  0.00     0.062 A 
ATOM     16  C   UNL     1       6.591  -8.724   8.206  1.00  0.00     0.200 A 
ATOM     17  C   UNL     1       5.865  -7.527   8.295  1.00  0.00     0.162 A 
BRANCH  14  18
ATOM     18  O   UNL     1       8.647  -9.873   7.471  1.00  0.00    -0.504 OA
ATOM     19  H   UNL     1       9.468  -9.942   6.889  1.00  0.00     0.293 HD
ENDBRANCH  14  18
BRANCH  16  20
ATOM     20  O   UNL     1       6.018  -9.881   8.741  1.00  0.00    -0.502 OA
ATOM     21  H   UNL     1       6.242 -10.816   8.437  1.00  0.00     0.293 HD
ENDBRANCH  16  20
BRANCH  17  22
ATOM     22  O   UNL     1       4.617  -7.525   8.918  1.00  0.00    -0.504 OA
ATOM     23  H   UNL     1       3.761  -7.642   8.390  1.00  0.00     0.293 HD
ENDBRANCH  17  22
ENDBRANCH   1  12
BRANCH   2  24
ATOM     24  O   UNL     1       6.500  -4.904   4.881  1.00  0.00    -0.502 OA
ATOM     25  H   UNL     1       5.994  -4.383   4.175  1.00  0.00     0.293 HD
ENDBRANCH   2  24
BRANCH   6  26
ATOM     26  O   UNL     1       9.600  -0.776   4.242  1.00  0.00    -0.507 OA
ATOM     27  H   UNL     1       9.898  -0.912   3.283  1.00  0.00     0.293 HD
ENDBRANCH   6  26
BRANCH   8  28
ATOM     28  O   UNL     1      12.951  -1.564   7.645  1.00  0.00    -0.508 OA
ATOM     29  H   UNL     1      13.028  -1.596   8.655  1.00  0.00     0.293 HD
ENDBRANCH   8  28
TORSDOF 7
ENDMDL
MODEL 7
REMARK VINA RESULT:    -6.126      1.367      7.061
REMARK INTER + INTRA:          -7.757
REMARK INTER:                  -7.525
REMARK INTRA:                  -0.232
REMARK UNBOUND:                -0.199
REMARK SMILES O=c1c(O)c(-c2cc(O)c(O)c(O)c2)oc2cc(O)cc(O)c12
REMARK SMILES IDX 5 1 3 2 2 3 1 4 23 5 21 6 20 7 18 8 17 9 16 10 15 11 6 12
REMARK SMILES IDX 7 13 8 14 14 15 10 16 12 17 9 18 11 20 13 22 4 24 22 26
REMARK SMILES IDX 19 28
REMARK H PARENT 9 19 11 21 13 23 4 25 22 27 19 29
REMARK Flexibility Score: inf
ROOT
ATOM      1  C   UNL     1       7.433  -5.396   5.956  1.00  0.00     0.180 A 
ATOM      2  C   UNL     1       8.013  -4.781   7.083  1.00  0.00     0.208 A 
ATOM      3  C   UNL     1       8.849  -3.670   6.895  1.00  0.00     0.238 A 
ATOM      4  O   UNL     1       9.382  -3.119   7.897  1.00  0.00    -0.285 OA
ATOM      5  C   UNL     1       9.074  -3.180   5.593  1.00  0.00     0.111 A 
ATOM      6  C   UNL     1       9.899  -2.062   5.317  1.00  0.00     0.134 A 
ATOM      7  C   UNL     1      10.066  -1.630   3.993  1.00  0.00     0.093 A 
ATOM      8  C   UNL     1       9.424  -2.292   2.941  1.00  0.00     0.123 A 
ATOM      9  C   UNL     1       8.610  -3.394   3.207  1.00  0.00     0.094 A 
ATOM     10  C   UNL     1       8.432  -3.842   4.520  1.00  0.00     0.146 A 
ATOM     11  O   UNL     1       7.657  -4.897   4.743  1.00  0.00    -0.452 OA
ENDROOT
BRANCH   1  12
ATOM     12  C   UNL     1       6.556  -6.583   6.071  1.00  0.00     0.029 A 
ATOM     13  C   UNL     1       7.101  -7.804   6.495  1.00  0.00     0.062 A 
ATOM     14  C   UNL     1       6.297  -8.941   6.636  1.00  0.00     0.162 A 
ATOM     15  C   UNL     1       5.178  -6.501   5.822  1.00  0.00     0.062 A 
ATOM     16  C   UNL     1       4.912  -8.856   6.361  1.00  0.00     0.200 A 
ATOM     17  C   UNL     1       4.362  -7.630   5.960  1.00  0.00     0.162 A 
BRANCH  14  18
ATOM     18  O   UNL     1       6.912 -10.125   7.050  1.00  0.00    -0.504 OA
ATOM     19  H   UNL     1       7.702 -10.163   7.677  1.00  0.00     0.293 HD
ENDBRANCH  14  18
BRANCH  16  20
ATOM     20  O   UNL     1       4.055  -9.954   6.475  1.00  0.00    -0.502 OA
ATOM     21  H   UNL     1       3.051  -9.884   6.550  1.00  0.00     0.293 HD
ENDBRANCH  16  20
BRANCH  17  22
ATOM     22  O   UNL     1       2.994  -7.542   5.703  1.00  0.00    -0.504 OA
ATOM     23  H   UNL     1       2.514  -8.236   5.143  1.00  0.00     0.293 HD
ENDBRANCH  17  22
ENDBRANCH   1  12
BRANCH   2  24
ATOM     24  O   UNL     1       7.734  -5.257   8.367  1.00  0.00    -0.502 OA
ATOM     25  H   UNL     1       7.194  -4.723   9.038  1.00  0.00     0.293 HD
ENDBRANCH   2  24
BRANCH   6  26
ATOM     26  O   UNL     1      10.552  -1.380   6.346  1.00  0.00    -0.507 OA
ATOM     27  H   UNL     1      11.479  -0.991   6.224  1.00  0.00     0.293 HD
ENDBRANCH   6  26
BRANCH   8  28
ATOM     28  O   UNL     1       9.589  -1.862   1.627  1.00  0.00    -0.508 OA
ATOM     29  H   UNL     1       9.085  -2.293   0.860  1.00  0.00     0.293 HD
ENDBRANCH   8  28
TORSDOF 7
ENDMDL
MODEL 8
REMARK VINA RESULT:    -6.014      1.993      3.665
REMARK INTER + INTRA:          -7.619
REMARK INTER:                  -7.261
REMARK INTRA:                  -0.358
REMARK UNBOUND:                -0.199
REMARK SMILES O=c1c(O)c(-c2cc(O)c(O)c(O)c2)oc2cc(O)cc(O)c12
REMARK SMILES IDX 5 1 3 2 2 3 1 4 23 5 21 6 20 7 18 8 17 9 16 10 15 11 6 12
REMARK SMILES IDX 7 13 8 14 14 15 10 16 12 17 9 18 11 20 13 22 4 24 22 26
REMARK SMILES IDX 19 28
REMARK H PARENT 9 19 11 21 13 23 4 25 22 27 19 29
REMARK Flexibility Score: inf
ROOT
ATOM      1  C   UNL     1       8.960  -4.448   6.267  1.00  0.00     0.180 A 
ATOM      2  C   UNL     1       7.751  -4.303   5.559  1.00  0.00     0.208 A 
ATOM      3  C   UNL     1       6.862  -5.387   5.504  1.00  0.00     0.238 A 
ATOM      4  O   UNL     1       5.782  -5.270   4.863  1.00  0.00    -0.285 OA
ATOM      5  C   UNL     1       7.183  -6.586   6.173  1.00  0.00     0.111 A 
ATOM      6  C   UNL     1       6.339  -7.723   6.171  1.00  0.00     0.134 A 
ATOM      7  C   UNL     1       6.726  -8.877   6.868  1.00  0.00     0.093 A 
ATOM      8  C   UNL     1       7.938  -8.915   7.567  1.00  0.00     0.123 A 
ATOM      9  C   UNL     1       8.773  -7.797   7.571  1.00  0.00     0.094 A 
ATOM     10  C   UNL     1       8.407  -6.637   6.881  1.00  0.00     0.146 A 
ATOM     11  O   UNL     1       9.223  -5.590   6.898  1.00  0.00    -0.452 OA
ENDROOT
BRANCH   1  12
ATOM     12  C   UNL     1       9.957  -3.357   6.354  1.00  0.00     0.029 A 
ATOM     13  C   UNL     1      10.920  -3.221   5.343  1.00  0.00     0.062 A 
ATOM     14  C   UNL     1      11.864  -2.188   5.382  1.00  0.00     0.162 A 
ATOM     15  C   UNL     1       9.926  -2.420   7.397  1.00  0.00     0.062 A 
ATOM     16  C   UNL     1      11.840  -1.259   6.449  1.00  0.00     0.200 A 
ATOM     17  C   UNL     1      10.863  -1.381   7.448  1.00  0.00     0.162 A 
BRANCH  14  18
ATOM     18  O   UNL     1      12.799  -2.123   4.347  1.00  0.00    -0.504 OA
ATOM     19  H   UNL     1      12.716  -1.515   3.546  1.00  0.00     0.293 HD
ENDBRANCH  14  18
BRANCH  16  20
ATOM     20  O   UNL     1      12.757  -0.210   6.552  1.00  0.00    -0.502 OA
ATOM     21  H   UNL     1      13.015   0.234   7.420  1.00  0.00     0.293 HD
ENDBRANCH  16  20
BRANCH  17  22
ATOM     22  O   UNL     1      10.829  -0.457   8.492  1.00  0.00    -0.504 OA
ATOM     23  H   UNL     1      10.125   0.270   8.534  1.00  0.00     0.293 HD
ENDBRANCH  17  22
ENDBRANCH   1  12
BRANCH   2  24
ATOM     24  O   UNL     1       7.435  -3.087   4.946  1.00  0.00    -0.502 OA
ATOM     25  H   UNL     1       6.758  -3.018   4.195  1.00  0.00     0.293 HD
ENDBRANCH   2  24
BRANCH   6  26
ATOM     26  O   UNL     1       5.124  -7.716   5.484  1.00  0.00    -0.507 OA
ATOM     27  H   UNL     1       5.035  -8.104   4.553  1.00  0.00     0.293 HD
ENDBRANCH   6  26
BRANCH   8  28
ATOM     28  O   UNL     1       8.321 -10.060   8.260  1.00  0.00    -0.508 OA
ATOM     29  H   UNL     1       8.795 -10.006   9.155  1.00  0.00     0.293 HD
ENDBRANCH   8  28
TORSDOF 7
ENDMDL
MODEL 9
REMARK VINA RESULT:    -5.547      2.414      3.183
REMARK INTER + INTRA:          -7.043
REMARK INTER:                  -6.679
REMARK INTRA:                  -0.364
REMARK UNBOUND:                -0.199
REMARK SMILES O=c1c(O)c(-c2cc(O)c(O)c(O)c2)oc2cc(O)cc(O)c12
REMARK SMILES IDX 5 1 3 2 2 3 1 4 23 5 21 6 20 7 18 8 17 9 16 10 15 11 6 12
REMARK SMILES IDX 7 13 8 14 14 15 10 16 12 17 9 18 11 20 13 22 4 24 22 26
REMARK SMILES IDX 19 28
REMARK H PARENT 9 19 11 21 13 23 4 25 22 27 19 29
REMARK Flexibility Score: inf
ROOT
ATOM      1  C   UNL     1       8.276  -5.567   6.756  1.00  0.00     0.180 A 
ATOM      2  C   UNL     1       7.493  -6.063   7.816  1.00  0.00     0.208 A 
ATOM      3  C   UNL     1       6.511  -7.028   7.541  1.00  0.00     0.238 A 
ATOM      4  O   UNL     1       5.797  -7.471   8.481  1.00  0.00    -0.285 OA
ATOM      5  C   UNL     1       6.345  -7.495   6.221  1.00  0.00     0.111 A 
ATOM      6  C   UNL     1       5.382  -8.469   5.860  1.00  0.00     0.134 A 
ATOM      7  C   UNL     1       5.284  -8.888   4.525  1.00  0.00     0.093 A 
ATOM      8  C   UNL     1       6.128  -8.353   3.546  1.00  0.00     0.123 A 
ATOM      9  C   UNL     1       7.078  -7.393   3.897  1.00  0.00     0.094 A 
ATOM     10  C   UNL     1       7.191  -6.960   5.222  1.00  0.00     0.146 A 
ATOM     11  O   UNL     1       8.100  -6.041   5.526  1.00  0.00    -0.452 OA
ENDROOT
BRANCH   1  12
ATOM     12  C   UNL     1       9.317  -4.535   6.964  1.00  0.00     0.029 A 
ATOM     13  C   UNL     1      10.652  -4.928   7.141  1.00  0.00     0.062 A 
ATOM     14  C   UNL     1      11.665  -3.978   7.319  1.00  0.00     0.162 A 
ATOM     15  C   UNL     1       9.008  -3.167   6.930  1.00  0.00     0.062 A 
ATOM     16  C   UNL     1      11.342  -2.601   7.305  1.00  0.00     0.200 A 
ATOM     17  C   UNL     1      10.011  -2.206   7.105  1.00  0.00     0.162 A 
BRANCH  14  18
ATOM     18  O   UNL     1      12.969  -4.445   7.501  1.00  0.00    -0.504 OA
ATOM     19  H   UNL     1      13.524  -4.265   8.324  1.00  0.00     0.293 HD
ENDBRANCH  14  18
BRANCH  16  20
ATOM     20  O   UNL     1      12.303  -1.602   7.483  1.00  0.00    -0.502 OA
ATOM     21  H   UNL     1      12.123  -0.616   7.368  1.00  0.00     0.293 HD
ENDBRANCH  16  20
BRANCH  17  22
ATOM     22  O   UNL     1       9.694  -0.848   7.077  1.00  0.00    -0.504 OA
ATOM     23  H   UNL     1       8.785  -0.510   7.371  1.00  0.00     0.293 HD
ENDBRANCH  17  22
ENDBRANCH   1  12
BRANCH   2  24
ATOM     24  O   UNL     1       7.712  -5.620   9.124  1.00  0.00    -0.502 OA
ATOM     25  H   UNL     1       7.713  -6.250   9.917  1.00  0.00     0.293 HD
ENDBRANCH   2  24
BRANCH   6  26
ATOM     26  O   UNL     1       4.526  -9.021   6.814  1.00  0.00    -0.507 OA
ATOM     27  H   UNL     1       3.669  -9.494   6.552  1.00  0.00     0.293 HD
ENDBRANCH   6  26
BRANCH   8  28
ATOM     28  O   UNL     1       6.031  -8.771   2.221  1.00  0.00    -0.508 OA
ATOM     29  H   UNL     1       6.222  -9.729   1.951  1.00  0.00     0.293 HD
ENDBRANCH   8  28
TORSDOF 7
ENDMDL
