MODEL 1
REMARK VINA RESULT:    -4.688      0.000      0.000
REMARK INTER + INTRA:         -10.154
REMARK INTER:                  -8.524
REMARK INTRA:                  -1.630
REMARK UNBOUND:                -1.630
REMARK SMILES CCCCCCCCCCCCCCCC(=O)[O-]
REMARK SMILES IDX 9 1 10 2 11 3 12 4 13 5 14 6 15 7 16 8 17 9 18 10 8 11 7 12
REMARK SMILES IDX 6 13 5 14 4 15 3 16 2 17 1 18
REMARK H PARENT
REMARK Flexibility Score: inf
ROOT
ATOM      1  C   UNL     1      40.470  56.622  47.421  1.00  0.00     0.000 C 
ENDROOT
BRANCH   1   2
ATOM      2  C   UNL     1      40.405  56.856  45.901  1.00  0.00     0.000 C 
BRANCH   2   3
ATOM      3  C   UNL     1      41.492  57.822  45.397  1.00  0.00     0.000 C 
BRANCH   3   4
ATOM      4  C   UNL     1      42.723  57.147  44.767  1.00  0.00     0.000 C 
BRANCH   4   5
ATOM      5  C   UNL     1      44.039  57.872  45.098  1.00  0.00     0.000 C 
BRANCH   5   6
ATOM      6  C   UNL     1      44.096  58.352  46.558  1.00  0.00     0.006 C 
BRANCH   6   7
ATOM      7  C   UNL     1      44.294  57.201  47.552  1.00  0.00     0.053 C 
BRANCH   7   8
ATOM      8  C   UNL     1      45.314  57.571  48.582  1.00  0.00     0.041 C 
ATOM      9  O   UNL     1      44.969  58.187  49.624  1.00  0.00    -0.550 OA
ATOM     10  O   UNL     1      46.640  57.191  48.415  1.00  0.00    -0.550 OA
ENDBRANCH   7   8
ENDBRANCH   6   7
ENDBRANCH   5   6
ENDBRANCH   4   5
ENDBRANCH   3   4
ENDBRANCH   2   3
ENDBRANCH   1   2
BRANCH   1  11
ATOM     11  C   UNL     1      39.643  57.649  48.210  1.00  0.00     0.000 C 
BRANCH  11  12
ATOM     12  C   UNL     1      40.304  58.036  49.546  1.00  0.00    -0.000 C 
BRANCH  12  13
ATOM     13  C   UNL     1      41.661  58.734  49.357  1.00  0.00    -0.000 C 
BRANCH  13  14
ATOM     14  C   UNL     1      41.576  59.941  48.406  1.00  0.00    -0.000 C 
BRANCH  14  15
ATOM     15  C   UNL     1      41.922  61.271  49.097  1.00  0.00    -0.000 C 
BRANCH  15  16
ATOM     16  C   UNL     1      43.328  61.340  49.728  1.00  0.00    -0.000 C 
BRANCH  16  17
ATOM     17  C   UNL     1      44.494  61.189  48.735  1.00  0.00    -0.003 C 
ATOM     18  C   UNL     1      45.708  62.038  49.109  1.00  0.00     0.004 C 
ENDBRANCH  16  17
ENDBRANCH  15  16
ENDBRANCH  14  15
ENDBRANCH  13  14
ENDBRANCH  12  13
ENDBRANCH  11  12
ENDBRANCH   1  11
TORSDOF 14
ENDMDL
MODEL 2
REMARK VINA RESULT:    -4.687      2.417      5.560
REMARK INTER + INTRA:         -10.152
REMARK INTER:                  -8.297
REMARK INTRA:                  -1.856
REMARK UNBOUND:                -1.630
REMARK SMILES CCCCCCCCCCCCCCCC(=O)[O-]
REMARK SMILES IDX 9 1 10 2 11 3 12 4 13 5 14 6 15 7 16 8 17 9 18 10 8 11 7 12
REMARK SMILES IDX 6 13 5 14 4 15 3 16 2 17 1 18
REMARK H PARENT
REMARK Flexibility Score: inf
ROOT
ATOM      1  C   UNL     1      44.447  60.957  49.009  1.00  0.00     0.000 C 
ENDROOT
BRANCH   1   2
ATOM      2  C   UNL     1      43.275  61.523  49.829  1.00  0.00     0.000 C 
BRANCH   2   3
ATOM      3  C   UNL     1      41.920  61.384  49.112  1.00  0.00     0.000 C 
BRANCH   3   4
ATOM      4  C   UNL     1      41.765  60.117  48.251  1.00  0.00     0.000 C 
BRANCH   4   5
ATOM      5  C   UNL     1      41.469  58.859  49.084  1.00  0.00     0.000 C 
BRANCH   5   6
ATOM      6  C   UNL     1      40.322  58.019  48.497  1.00  0.00     0.006 C 
BRANCH   6   7
ATOM      7  C   UNL     1      40.773  56.614  48.075  1.00  0.00     0.053 C 
BRANCH   7   8
ATOM      8  C   UNL     1      40.046  56.182  46.842  1.00  0.00     0.041 C 
ATOM      9  O   UNL     1      39.877  56.987  45.889  1.00  0.00    -0.550 OA
ATOM     10  O   UNL     1      39.596  54.872  46.724  1.00  0.00    -0.550 OA
ENDBRANCH   7   8
ENDBRANCH   6   7
ENDBRANCH   5   6
ENDBRANCH   4   5
ENDBRANCH   3   4
ENDBRANCH   2   3
ENDBRANCH   1   2
BRANCH   1  11
ATOM     11  C   UNL     1      45.370  60.057  49.845  1.00  0.00     0.000 C 
BRANCH  11  12
ATOM     12  C   UNL     1      45.046  58.561  49.675  1.00  0.00    -0.000 C 
BRANCH  12  13
ATOM     13  C   UNL     1      46.069  57.828  48.794  1.00  0.00    -0.000 C 
BRANCH  13  14
ATOM     14  C   UNL     1      45.453  56.634  48.044  1.00  0.00    -0.000 C 
BRANCH  14  15
ATOM     15  C   UNL     1      44.095  56.968  47.404  1.00  0.00    -0.000 C 
BRANCH  15  16
ATOM     16  C   UNL     1      44.124  58.083  46.339  1.00  0.00    -0.000 C 
BRANCH  16  17
ATOM     17  C   UNL     1      42.929  58.088  45.369  1.00  0.00    -0.003 C 
ATOM     18  C   UNL     1      43.002  56.971  44.328  1.00  0.00     0.004 C 
ENDBRANCH  16  17
ENDBRANCH  15  16
ENDBRANCH  14  15
ENDBRANCH  13  14
ENDBRANCH  12  13
ENDBRANCH  11  12
ENDBRANCH   1  11
TORSDOF 14
ENDMDL
MODEL 3
REMARK VINA RESULT:    -4.672      1.995      5.092
REMARK INTER + INTRA:         -10.125
REMARK INTER:                  -8.373
REMARK INTRA:                  -1.752
REMARK UNBOUND:                -1.630
REMARK SMILES CCCCCCCCCCCCCCCC(=O)[O-]
REMARK SMILES IDX 9 1 10 2 11 3 12 4 13 5 14 6 15 7 16 8 17 9 18 10 8 11 7 12
REMARK SMILES IDX 6 13 5 14 4 15 3 16 2 17 1 18
REMARK H PARENT
REMARK Flexibility Score: inf
ROOT
ATOM      1  C   UNL     1      44.344  60.628  48.857  1.00  0.00     0.000 C 
ENDROOT
BRANCH   1   2
ATOM      2  C   UNL     1      45.254  59.878  49.846  1.00  0.00     0.000 C 
BRANCH   2   3
ATOM      3  C   UNL     1      45.145  58.348  49.718  1.00  0.00     0.000 C 
BRANCH   3   4
ATOM      4  C   UNL     1      46.021  57.721  48.619  1.00  0.00     0.000 C 
BRANCH   4   5
ATOM      5  C   UNL     1      45.324  56.564  47.884  1.00  0.00     0.000 C 
BRANCH   5   6
ATOM      6  C   UNL     1      43.913  56.938  47.399  1.00  0.00     0.006 C 
BRANCH   6   7
ATOM      7  C   UNL     1      43.931  57.979  46.272  1.00  0.00     0.053 C 
BRANCH   7   8
ATOM      8  C   UNL     1      42.853  57.688  45.277  1.00  0.00     0.041 C 
ATOM      9  O   UNL     1      43.007  56.777  44.421  1.00  0.00    -0.550 OA
ATOM     10  O   UNL     1      41.654  58.389  45.326  1.00  0.00    -0.550 OA
ENDBRANCH   7   8
ENDBRANCH   6   7
ENDBRANCH   5   6
ENDBRANCH   4   5
ENDBRANCH   3   4
ENDBRANCH   2   3
ENDBRANCH   1   2
BRANCH   1  11
ATOM     11  C   UNL     1      43.328  61.537  49.565  1.00  0.00     0.000 C 
BRANCH  11  12
ATOM     12  C   UNL     1      41.874  61.094  49.324  1.00  0.00    -0.000 C 
BRANCH  12  13
ATOM     13  C   UNL     1      41.776  59.785  48.523  1.00  0.00    -0.000 C 
BRANCH  13  14
ATOM     14  C   UNL     1      41.528  58.561  49.422  1.00  0.00    -0.000 C 
BRANCH  14  15
ATOM     15  C   UNL     1      40.076  58.057  49.357  1.00  0.00    -0.000 C 
BRANCH  15  16
ATOM     16  C   UNL     1      39.643  57.468  47.999  1.00  0.00    -0.000 C 
BRANCH  16  17
ATOM     17  C   UNL     1      40.432  56.226  47.548  1.00  0.00    -0.003 C 
ATOM     18  C   UNL     1      39.554  55.175  46.871  1.00  0.00     0.004 C 
ENDBRANCH  16  17
ENDBRANCH  15  16
ENDBRANCH  14  15
ENDBRANCH  13  14
ENDBRANCH  12  13
ENDBRANCH  11  12
ENDBRANCH   1  11
TORSDOF 14
ENDMDL
MODEL 4
REMARK VINA RESULT:    -4.508      1.617      4.258
REMARK INTER + INTRA:          -9.828
REMARK INTER:                  -8.301
REMARK INTRA:                  -1.527
REMARK UNBOUND:                -1.630
REMARK SMILES CCCCCCCCCCCCCCCC(=O)[O-]
REMARK SMILES IDX 9 1 10 2 11 3 12 4 13 5 14 6 15 7 16 8 17 9 18 10 8 11 7 12
REMARK SMILES IDX 6 13 5 14 4 15 3 16 2 17 1 18
REMARK H PARENT
REMARK Flexibility Score: inf
ROOT
ATOM      1  C   UNL     1      41.356  57.934  45.433  1.00  0.00     0.000 C 
ENDROOT
BRANCH   1   2
ATOM      2  C   UNL     1      40.360  56.996  46.137  1.00  0.00     0.000 C 
BRANCH   2   3
ATOM      3  C   UNL     1      40.651  56.831  47.640  1.00  0.00     0.000 C 
BRANCH   3   4
ATOM      4  C   UNL     1      40.294  58.049  48.511  1.00  0.00     0.000 C 
BRANCH   4   5
ATOM      5  C   UNL     1      41.530  58.732  49.120  1.00  0.00     0.000 C 
BRANCH   5   6
ATOM      6  C   UNL     1      41.912  60.026  48.381  1.00  0.00     0.006 C 
BRANCH   6   7
ATOM      7  C   UNL     1      41.967  61.245  49.311  1.00  0.00     0.053 C 
BRANCH   7   8
ATOM      8  C   UNL     1      43.373  61.739  49.439  1.00  0.00     0.041 C 
ATOM      9  O   UNL     1      43.617  62.801  50.070  1.00  0.00    -0.550 OA
ATOM     10  O   UNL     1      44.421  61.000  48.905  1.00  0.00    -0.550 OA
ENDBRANCH   7   8
ENDBRANCH   6   7
ENDBRANCH   5   6
ENDBRANCH   4   5
ENDBRANCH   3   4
ENDBRANCH   2   3
ENDBRANCH   1   2
BRANCH   1  11
ATOM     11  C   UNL     1      42.564  57.182  44.854  1.00  0.00     0.000 C 
BRANCH  11  12
ATOM     12  C   UNL     1      43.892  57.917  45.107  1.00  0.00    -0.000 C 
BRANCH  12  13
ATOM     13  C   UNL     1      44.147  58.188  46.599  1.00  0.00    -0.000 C 
BRANCH  13  14
ATOM     14  C   UNL     1      44.192  56.896  47.433  1.00  0.00    -0.000 C 
BRANCH  14  15
ATOM     15  C   UNL     1      45.590  56.604  48.006  1.00  0.00    -0.000 C 
BRANCH  15  16
ATOM     16  C   UNL     1      46.170  57.702  48.921  1.00  0.00    -0.000 C 
BRANCH  16  17
ATOM     17  C   UNL     1      45.195  58.247  49.980  1.00  0.00    -0.003 C 
ATOM     18  C   UNL     1      45.899  58.704  51.257  1.00  0.00     0.004 C 
ENDBRANCH  16  17
ENDBRANCH  15  16
ENDBRANCH  14  15
ENDBRANCH  13  14
ENDBRANCH  12  13
ENDBRANCH  11  12
ENDBRANCH   1  11
TORSDOF 14
ENDMDL
MODEL 5
REMARK VINA RESULT:    -4.496      1.503      5.280
REMARK INTER + INTRA:          -9.806
REMARK INTER:                  -8.002
REMARK INTRA:                  -1.804
REMARK UNBOUND:                -1.630
REMARK SMILES CCCCCCCCCCCCCCCC(=O)[O-]
REMARK SMILES IDX 9 1 10 2 11 3 12 4 13 5 14 6 15 7 16 8 17 9 18 10 8 11 7 12
REMARK SMILES IDX 6 13 5 14 4 15 3 16 2 17 1 18
REMARK H PARENT
REMARK Flexibility Score: inf
ROOT
ATOM      1  C   UNL     1      44.213  57.619  48.935  1.00  0.00     0.000 C 
ENDROOT
BRANCH   1   2
ATOM      2  C   UNL     1      42.713  57.280  48.989  1.00  0.00     0.000 C 
BRANCH   2   3
ATOM      3  C   UNL     1      41.861  58.422  49.571  1.00  0.00     0.000 C 
BRANCH   3   4
ATOM      4  C   UNL     1      41.276  59.395  48.531  1.00  0.00     0.000 C 
BRANCH   4   5
ATOM      5  C   UNL     1      41.924  60.789  48.583  1.00  0.00     0.000 C 
BRANCH   5   6
ATOM      6  C   UNL     1      42.890  60.945  49.770  1.00  0.00     0.006 C 
BRANCH   6   7
ATOM      7  C   UNL     1      43.802  62.171  49.633  1.00  0.00     0.053 C 
BRANCH   7   8
ATOM      8  C   UNL     1      45.174  61.755  49.206  1.00  0.00     0.041 C 
ATOM      9  O   UNL     1      45.598  60.600  49.471  1.00  0.00    -0.550 OA
ATOM     10  O   UNL     1      45.967  62.626  48.469  1.00  0.00    -0.550 OA
ENDBRANCH   7   8
ENDBRANCH   6   7
ENDBRANCH   5   6
ENDBRANCH   4   5
ENDBRANCH   3   4
ENDBRANCH   2   3
ENDBRANCH   1   2
BRANCH   1  11
ATOM     11  C   UNL     1      44.791  57.504  47.517  1.00  0.00     0.000 C 
BRANCH  11  12
ATOM     12  C   UNL     1      44.065  58.414  46.509  1.00  0.00    -0.000 C 
BRANCH  12  13
ATOM     13  C   UNL     1      43.988  57.799  45.102  1.00  0.00    -0.000 C 
BRANCH  13  14
ATOM     14  C   UNL     1      42.608  57.190  44.800  1.00  0.00    -0.000 C 
BRANCH  14  15
ATOM     15  C   UNL     1      41.461  57.928  45.514  1.00  0.00    -0.000 C 
BRANCH  15  16
ATOM     16  C   UNL     1      40.197  57.083  45.776  1.00  0.00    -0.000 C 
BRANCH  16  17
ATOM     17  C   UNL     1      40.231  56.247  47.067  1.00  0.00    -0.003 C 
ATOM     18  C   UNL     1      39.633  54.852  46.889  1.00  0.00     0.004 C 
ENDBRANCH  16  17
ENDBRANCH  15  16
ENDBRANCH  14  15
ENDBRANCH  13  14
ENDBRANCH  12  13
ENDBRANCH  11  12
ENDBRANCH   1  11
TORSDOF 14
ENDMDL
MODEL 6
REMARK VINA RESULT:    -4.429      1.872      4.444
REMARK INTER + INTRA:          -9.684
REMARK INTER:                  -7.624
REMARK INTRA:                  -2.060
REMARK UNBOUND:                -1.630
REMARK SMILES CCCCCCCCCCCCCCCC(=O)[O-]
REMARK SMILES IDX 9 1 10 2 11 3 12 4 13 5 14 6 15 7 16 8 17 9 18 10 8 11 7 12
REMARK SMILES IDX 6 13 5 14 4 15 3 16 2 17 1 18
REMARK H PARENT
REMARK Flexibility Score: inf
ROOT
ATOM      1  C   UNL     1      44.039  58.106  46.584  1.00  0.00     0.000 C 
ENDROOT
BRANCH   1   2
ATOM      2  C   UNL     1      44.144  56.906  47.542  1.00  0.00     0.000 C 
BRANCH   2   3
ATOM      3  C   UNL     1      45.592  56.610  47.975  1.00  0.00     0.000 C 
BRANCH   3   4
ATOM      4  C   UNL     1      46.238  57.683  48.870  1.00  0.00     0.000 C 
BRANCH   4   5
ATOM      5  C   UNL     1      45.276  58.229  49.939  1.00  0.00     0.000 C 
BRANCH   5   6
ATOM      6  C   UNL     1      45.378  59.755  50.099  1.00  0.00     0.006 C 
BRANCH   6   7
ATOM      7  C   UNL     1      45.242  60.501  48.766  1.00  0.00     0.053 C 
BRANCH   7   8
ATOM      8  C   UNL     1      45.091  61.970  49.003  1.00  0.00     0.041 C 
ATOM      9  O   UNL     1      44.105  62.411  49.650  1.00  0.00    -0.550 OA
ATOM     10  O   UNL     1      46.068  62.850  48.554  1.00  0.00    -0.550 OA
ENDBRANCH   7   8
ENDBRANCH   6   7
ENDBRANCH   5   6
ENDBRANCH   4   5
ENDBRANCH   3   4
ENDBRANCH   2   3
ENDBRANCH   1   2
BRANCH   1  11
ATOM     11  C   UNL     1      43.735  57.679  45.140  1.00  0.00     0.000 C 
BRANCH  11  12
ATOM     12  C   UNL     1      42.397  56.927  45.017  1.00  0.00    -0.000 C 
BRANCH  12  13
ATOM     13  C   UNL     1      41.218  57.709  45.617  1.00  0.00    -0.000 C 
BRANCH  13  14
ATOM     14  C   UNL     1      40.563  56.974  46.799  1.00  0.00    -0.000 C 
BRANCH  14  15
ATOM     15  C   UNL     1      40.146  57.923  47.936  1.00  0.00    -0.000 C 
BRANCH  15  16
ATOM     16  C   UNL     1      41.102  57.964  49.145  1.00  0.00    -0.000 C 
BRANCH  16  17
ATOM     17  C   UNL     1      41.867  59.288  49.324  1.00  0.00    -0.003 C 
ATOM     18  C   UNL     1      41.635  60.270  48.176  1.00  0.00     0.004 C 
ENDBRANCH  16  17
ENDBRANCH  15  16
ENDBRANCH  14  15
ENDBRANCH  13  14
ENDBRANCH  12  13
ENDBRANCH  11  12
ENDBRANCH   1  11
TORSDOF 14
ENDMDL
MODEL 7
REMARK VINA RESULT:    -4.427      1.045      4.159
REMARK INTER + INTRA:          -9.681
REMARK INTER:                  -8.096
REMARK INTRA:                  -1.585
REMARK UNBOUND:                -1.630
REMARK SMILES CCCCCCCCCCCCCCCC(=O)[O-]
REMARK SMILES IDX 9 1 10 2 11 3 12 4 13 5 14 6 15 7 16 8 17 9 18 10 8 11 7 12
REMARK SMILES IDX 6 13 5 14 4 15 3 16 2 17 1 18
REMARK H PARENT
REMARK Flexibility Score: inf
ROOT
ATOM      1  C   UNL     1      40.105  58.057  48.297  1.00  0.00     0.000 C 
ENDROOT
BRANCH   1   2
ATOM      2  C   UNL     1      41.224  58.744  49.100  1.00  0.00     0.000 C 
BRANCH   2   3
ATOM      3  C   UNL     1      41.800  59.981  48.386  1.00  0.00     0.000 C 
BRANCH   3   4
ATOM      4  C   UNL     1      41.952  61.232  49.269  1.00  0.00     0.000 C 
BRANCH   4   5
ATOM      5  C   UNL     1      43.407  61.492  49.693  1.00  0.00     0.000 C 
BRANCH   5   6
ATOM      6  C   UNL     1      44.413  60.637  48.903  1.00  0.00     0.006 C 
BRANCH   6   7
ATOM      7  C   UNL     1      45.624  60.218  49.746  1.00  0.00     0.053 C 
BRANCH   7   8
ATOM      8  C   UNL     1      45.319  58.969  50.510  1.00  0.00     0.041 C 
ATOM      9  O   UNL     1      46.043  58.626  51.482  1.00  0.00    -0.550 OA
ATOM     10  O   UNL     1      44.204  58.208  50.182  1.00  0.00    -0.550 OA
ENDBRANCH   7   8
ENDBRANCH   6   7
ENDBRANCH   5   6
ENDBRANCH   4   5
ENDBRANCH   3   4
ENDBRANCH   2   3
ENDBRANCH   1   2
BRANCH   1  11
ATOM     11  C   UNL     1      40.565  56.739  47.656  1.00  0.00     0.000 C 
BRANCH  11  12
ATOM     12  C   UNL     1      40.402  56.741  46.125  1.00  0.00    -0.000 C 
BRANCH  12  13
ATOM     13  C   UNL     1      41.305  57.775  45.432  1.00  0.00    -0.000 C 
BRANCH  13  14
ATOM     14  C   UNL     1      42.524  57.130  44.751  1.00  0.00    -0.000 C 
BRANCH  14  15
ATOM     15  C   UNL     1      43.841  57.860  45.070  1.00  0.00    -0.000 C 
BRANCH  15  16
ATOM     16  C   UNL     1      44.145  58.045  46.571  1.00  0.00    -0.000 C 
BRANCH  16  17
ATOM     17  C   UNL     1      44.258  56.738  47.377  1.00  0.00    -0.003 C 
ATOM     18  C   UNL     1      45.668  56.486  47.910  1.00  0.00     0.004 C 
ENDBRANCH  16  17
ENDBRANCH  15  16
ENDBRANCH  14  15
ENDBRANCH  13  14
ENDBRANCH  12  13
ENDBRANCH  11  12
ENDBRANCH   1  11
TORSDOF 14
ENDMDL
MODEL 8
REMARK VINA RESULT:    -4.424      1.091      4.094
REMARK INTER + INTRA:          -9.675
REMARK INTER:                  -8.276
REMARK INTRA:                  -1.399
REMARK UNBOUND:                -1.630
REMARK SMILES CCCCCCCCCCCCCCCC(=O)[O-]
REMARK SMILES IDX 9 1 10 2 11 3 12 4 13 5 14 6 15 7 16 8 17 9 18 10 8 11 7 12
REMARK SMILES IDX 6 13 5 14 4 15 3 16 2 17 1 18
REMARK H PARENT
REMARK Flexibility Score: inf
ROOT
ATOM      1  C   UNL     1      40.517  56.875  47.213  1.00  0.00     0.000 C 
ENDROOT
BRANCH   1   2
ATOM      2  C   UNL     1      39.555  57.502  48.237  1.00  0.00     0.000 C 
BRANCH   2   3
ATOM      3  C   UNL     1      40.268  57.976  49.517  1.00  0.00     0.000 C 
BRANCH   3   4
ATOM      4  C   UNL     1      41.617  58.681  49.289  1.00  0.00     0.000 C 
BRANCH   4   5
ATOM      5  C   UNL     1      41.540  59.794  48.230  1.00  0.00     0.000 C 
BRANCH   5   6
ATOM      6  C   UNL     1      42.024  61.152  48.765  1.00  0.00     0.006 C 
BRANCH   6   7
ATOM      7  C   UNL     1      42.925  61.015  49.999  1.00  0.00     0.053 C 
BRANCH   7   8
ATOM      8  C   UNL     1      44.339  60.757  49.585  1.00  0.00     0.041 C 
ATOM      9  O   UNL     1      44.942  61.575  48.843  1.00  0.00    -0.550 OA
ATOM     10  O   UNL     1      45.009  59.637  50.061  1.00  0.00    -0.550 OA
ENDBRANCH   7   8
ENDBRANCH   6   7
ENDBRANCH   5   6
ENDBRANCH   4   5
ENDBRANCH   3   4
ENDBRANCH   2   3
ENDBRANCH   1   2
BRANCH   1  11
ATOM     11  C   UNL     1      40.156  57.240  45.765  1.00  0.00     0.000 C 
BRANCH  11  12
ATOM     12  C   UNL     1      41.317  57.926  45.023  1.00  0.00    -0.000 C 
BRANCH  12  13
ATOM     13  C   UNL     1      42.646  57.167  45.169  1.00  0.00    -0.000 C 
BRANCH  13  14
ATOM     14  C   UNL     1      43.851  58.112  45.315  1.00  0.00    -0.000 C 
BRANCH  14  15
ATOM     15  C   UNL     1      44.262  58.332  46.782  1.00  0.00    -0.000 C 
BRANCH  15  16
ATOM     16  C   UNL     1      44.196  57.080  47.680  1.00  0.00    -0.000 C 
BRANCH  16  17
ATOM     17  C   UNL     1      45.550  56.394  47.939  1.00  0.00    -0.003 C 
ATOM     18  C   UNL     1      46.533  57.284  48.696  1.00  0.00     0.004 C 
ENDBRANCH  16  17
ENDBRANCH  15  16
ENDBRANCH  14  15
ENDBRANCH  13  14
ENDBRANCH  12  13
ENDBRANCH  11  12
ENDBRANCH   1  11
TORSDOF 14
ENDMDL
MODEL 9
REMARK VINA RESULT:    -4.415      2.011      4.840
REMARK INTER + INTRA:          -9.659
REMARK INTER:                  -7.372
REMARK INTRA:                  -2.287
REMARK UNBOUND:                -1.630
REMARK SMILES CCCCCCCCCCCCCCCC(=O)[O-]
REMARK SMILES IDX 9 1 10 2 11 3 12 4 13 5 14 6 15 7 16 8 17 9 18 10 8 11 7 12
REMARK SMILES IDX 6 13 5 14 4 15 3 16 2 17 1 18
REMARK H PARENT
REMARK Flexibility Score: inf
ROOT
ATOM      1  C   UNL     1      44.107  57.801  46.100  1.00  0.00     0.000 C 
ENDROOT
BRANCH   1   2
ATOM      2  C   UNL     1      44.032  56.927  47.364  1.00  0.00     0.000 C 
BRANCH   2   3
ATOM      3  C   UNL     1      45.412  56.667  47.995  1.00  0.00     0.000 C 
BRANCH   3   4
ATOM      4  C   UNL     1      46.014  57.860  48.760  1.00  0.00     0.000 C 
BRANCH   4   5
ATOM      5  C   UNL     1      45.193  58.253  50.000  1.00  0.00     0.000 C 
BRANCH   5   6
ATOM      6  C   UNL     1      45.022  59.776  50.135  1.00  0.00     0.006 C 
BRANCH   6   7
ATOM      7  C   UNL     1      45.835  60.558  49.095  1.00  0.00     0.053 C 
BRANCH   7   8
ATOM      8  C   UNL     1      45.359  61.974  49.020  1.00  0.00     0.041 C 
ATOM      9  O   UNL     1      46.066  62.852  48.461  1.00  0.00    -0.550 OA
ATOM     10  O   UNL     1      44.110  62.315  49.524  1.00  0.00    -0.550 OA
ENDBRANCH   7   8
ENDBRANCH   6   7
ENDBRANCH   5   6
ENDBRANCH   4   5
ENDBRANCH   3   4
ENDBRANCH   2   3
ENDBRANCH   1   2
BRANCH   1  11
ATOM     11  C   UNL     1      42.926  58.777  45.989  1.00  0.00     0.000 C 
BRANCH  11  12
ATOM     12  C   UNL     1      42.975  59.885  47.056  1.00  0.00    -0.000 C 
BRANCH  12  13
ATOM     13  C   UNL     1      41.669  59.996  47.858  1.00  0.00    -0.000 C 
BRANCH  13  14
ATOM     14  C   UNL     1      41.744  59.267  49.211  1.00  0.00    -0.000 C 
BRANCH  14  15
ATOM     15  C   UNL     1      41.084  57.877  49.177  1.00  0.00    -0.000 C 
BRANCH  15  16
ATOM     16  C   UNL     1      40.040  57.670  48.061  1.00  0.00    -0.000 C 
BRANCH  16  17
ATOM     17  C   UNL     1      40.428  56.632  46.993  1.00  0.00    -0.003 C 
ATOM     18  C   UNL     1      39.632  55.333  47.109  1.00  0.00     0.004 C 
ENDBRANCH  16  17
ENDBRANCH  15  16
ENDBRANCH  14  15
ENDBRANCH  13  14
ENDBRANCH  12  13
ENDBRANCH  11  12
ENDBRANCH   1  11
TORSDOF 14
ENDMDL
