MODEL 1
REMARK VINA RESULT:    -3.389      0.000      0.000
REMARK INTER + INTRA:          -5.279
REMARK INTER:                  -4.775
REMARK INTRA:                  -0.504
REMARK UNBOUND:                -0.504
REMARK SMILES C=CCCCCCCC(=O)[O-]
REMARK SMILES IDX 6 1 7 2 8 3 9 4 10 5 11 6 5 7 4 8 3 9 2 10 1 11
REMARK H PARENT
REMARK Flexibility Score: inf
ROOT
ATOM      1  C   UNL     1      42.410 185.898  33.768  1.00  0.00     0.000 C 
ENDROOT
BRANCH   1   2
ATOM      2  C   UNL     1      41.911 184.490  34.138  1.00  0.00     0.006 C 
BRANCH   2   3
ATOM      3  C   UNL     1      42.511 183.405  33.235  1.00  0.00     0.053 C 
BRANCH   3   4
ATOM      4  C   UNL     1      43.986 183.589  33.053  1.00  0.00     0.041 C 
ATOM      5  O   UNL     1      44.460 183.811  31.907  1.00  0.00    -0.550 OA
ATOM      6  O   UNL     1      44.841 183.485  34.143  1.00  0.00    -0.550 OA
ENDBRANCH   3   4
ENDBRANCH   2   3
ENDBRANCH   1   2
BRANCH   1   7
ATOM      7  C   UNL     1      41.376 186.680  32.932  1.00  0.00     0.000 C 
BRANCH   7   8
ATOM      8  C   UNL     1      41.542 186.494  31.411  1.00  0.00     0.004 C 
BRANCH   8   9
ATOM      9  C   UNL     1      40.525 185.534  30.773  1.00  0.00     0.027 C 
BRANCH   9  10
ATOM     10  C   UNL     1      39.252 186.228  30.368  1.00  0.00    -0.035 C 
ATOM     11  C   UNL     1      38.136 186.085  31.089  1.00  0.00     0.004 C 
ENDBRANCH   9  10
ENDBRANCH   8   9
ENDBRANCH   7   8
ENDBRANCH   1   7
TORSDOF 7
ENDMDL
MODEL 2
REMARK VINA RESULT:    -3.328      3.057      5.178
REMARK INTER + INTRA:          -5.193
REMARK INTER:                  -4.666
REMARK INTRA:                  -0.527
REMARK UNBOUND:                -0.504
REMARK SMILES C=CCCCCCCC(=O)[O-]
REMARK SMILES IDX 6 1 7 2 8 3 9 4 10 5 11 6 5 7 4 8 3 9 2 10 1 11
REMARK H PARENT
REMARK Flexibility Score: inf
ROOT
ATOM      1  C   UNL     1      41.222 186.669  32.865  1.00  0.00     0.000 C 
ENDROOT
BRANCH   1   2
ATOM      2  C   UNL     1      41.497 186.553  31.356  1.00  0.00     0.006 C 
BRANCH   2   3
ATOM      3  C   UNL     1      40.504 185.617  30.655  1.00  0.00     0.053 C 
BRANCH   3   4
ATOM      4  C   UNL     1      39.122 186.197  30.626  1.00  0.00     0.041 C 
ATOM      5  O   UNL     1      38.875 187.206  29.915  1.00  0.00    -0.550 OA
ATOM      6  O   UNL     1      38.117 185.641  31.407  1.00  0.00    -0.550 OA
ENDBRANCH   3   4
ENDBRANCH   2   3
ENDBRANCH   1   2
BRANCH   1   7
ATOM      7  C   UNL     1      42.389 186.122  33.712  1.00  0.00     0.000 C 
BRANCH   7   8
ATOM      8  C   UNL     1      42.183 184.670  34.186  1.00  0.00     0.004 C 
BRANCH   8   9
ATOM      9  C   UNL     1      42.603 183.601  33.164  1.00  0.00     0.027 C 
BRANCH   9  10
ATOM     10  C   UNL     1      44.071 183.661  32.838  1.00  0.00    -0.035 C 
ATOM     11  C   UNL     1      44.991 183.515  33.795  1.00  0.00     0.004 C 
ENDBRANCH   9  10
ENDBRANCH   8   9
ENDBRANCH   7   8
ENDBRANCH   1   7
TORSDOF 7
ENDMDL
MODEL 3
REMARK VINA RESULT:    -3.273     22.471     23.696
REMARK INTER + INTRA:          -5.115
REMARK INTER:                  -4.236
REMARK INTRA:                  -0.879
REMARK UNBOUND:                -0.504
REMARK SMILES C=CCCCCCCC(=O)[O-]
REMARK SMILES IDX 6 1 7 2 8 3 9 4 10 5 11 6 5 7 4 8 3 9 2 10 1 11
REMARK H PARENT
REMARK Flexibility Score: inf
ROOT
ATOM      1  C   UNL     1      34.860 171.123  16.408  1.00  0.00     0.000 C 
ENDROOT
BRANCH   1   2
ATOM      2  C   UNL     1      34.115 171.023  15.065  1.00  0.00     0.006 C 
BRANCH   2   3
ATOM      3  C   UNL     1      32.752 171.725  15.103  1.00  0.00     0.053 C 
BRANCH   3   4
ATOM      4  C   UNL     1      31.628 170.744  15.243  1.00  0.00     0.041 C 
ATOM      5  O   UNL     1      31.782 169.549  14.876  1.00  0.00    -0.550 OA
ATOM      6  O   UNL     1      30.401 171.157  15.748  1.00  0.00    -0.550 OA
ENDBRANCH   3   4
ENDBRANCH   2   3
ENDBRANCH   1   2
BRANCH   1   7
ATOM      7  C   UNL     1      35.255 169.736  16.958  1.00  0.00     0.000 C 
BRANCH   7   8
ATOM      8  C   UNL     1      34.060 168.919  17.490  1.00  0.00     0.004 C 
BRANCH   8   9
ATOM      9  C   UNL     1      33.530 169.382  18.856  1.00  0.00     0.027 C 
BRANCH   9  10
ATOM     10  C   UNL     1      32.139 169.952  18.771  1.00  0.00    -0.035 C 
ATOM     11  C   UNL     1      31.917 171.250  18.993  1.00  0.00     0.004 C 
ENDBRANCH   9  10
ENDBRANCH   8   9
ENDBRANCH   7   8
ENDBRANCH   1   7
TORSDOF 7
ENDMDL
MODEL 4
REMARK VINA RESULT:    -3.223      2.797      4.501
REMARK INTER + INTRA:          -5.046
REMARK INTER:                  -4.238
REMARK INTRA:                  -0.809
REMARK UNBOUND:                -0.504
REMARK SMILES C=CCCCCCCC(=O)[O-]
REMARK SMILES IDX 6 1 7 2 8 3 9 4 10 5 11 6 5 7 4 8 3 9 2 10 1 11
REMARK H PARENT
REMARK Flexibility Score: inf
ROOT
ATOM      1  C   UNL     1      40.742 186.766  34.120  1.00  0.00     0.000 C 
ENDROOT
BRANCH   1   2
ATOM      2  C   UNL     1      39.552 187.048  33.186  1.00  0.00     0.006 C 
BRANCH   2   3
ATOM      3  C   UNL     1      39.211 185.843  32.300  1.00  0.00     0.053 C 
BRANCH   3   4
ATOM      4  C   UNL     1      39.402 186.153  30.847  1.00  0.00     0.041 C 
ATOM      5  O   UNL     1      40.383 185.673  30.221  1.00  0.00    -0.550 OA
ATOM      6  O   UNL     1      38.514 186.997  30.191  1.00  0.00    -0.550 OA
ENDBRANCH   3   4
ENDBRANCH   2   3
ENDBRANCH   1   2
BRANCH   1   7
ATOM      7  C   UNL     1      42.052 186.537  33.337  1.00  0.00     0.000 C 
BRANCH   7   8
ATOM      8  C   UNL     1      42.713 185.173  33.622  1.00  0.00     0.004 C 
BRANCH   8   9
ATOM      9  C   UNL     1      42.642 184.176  32.454  1.00  0.00     0.027 C 
BRANCH   9  10
ATOM     10  C   UNL     1      41.714 183.024  32.736  1.00  0.00    -0.035 C 
ATOM     11  C   UNL     1      40.988 182.988  33.857  1.00  0.00     0.004 C 
ENDBRANCH   9  10
ENDBRANCH   8   9
ENDBRANCH   7   8
ENDBRANCH   1   7
TORSDOF 7
ENDMDL
MODEL 5
REMARK VINA RESULT:    -3.219      1.390      1.990
REMARK INTER + INTRA:          -5.040
REMARK INTER:                  -4.454
REMARK INTRA:                  -0.585
REMARK UNBOUND:                -0.504
REMARK SMILES C=CCCCCCCC(=O)[O-]
REMARK SMILES IDX 6 1 7 2 8 3 9 4 10 5 11 6 5 7 4 8 3 9 2 10 1 11
REMARK H PARENT
REMARK Flexibility Score: inf
ROOT
ATOM      1  C   UNL     1      41.645 186.949  32.464  1.00  0.00     0.000 C 
ENDROOT
BRANCH   1   2
ATOM      2  C   UNL     1      42.335 186.307  33.681  1.00  0.00     0.006 C 
BRANCH   2   3
ATOM      3  C   UNL     1      42.073 184.799  33.767  1.00  0.00     0.053 C 
BRANCH   3   4
ATOM      4  C   UNL     1      42.509 184.089  32.522  1.00  0.00     0.041 C 
ATOM      5  O   UNL     1      41.654 183.571  31.756  1.00  0.00    -0.550 OA
ATOM      6  O   UNL     1      43.861 183.972  32.222  1.00  0.00    -0.550 OA
ENDBRANCH   3   4
ENDBRANCH   2   3
ENDBRANCH   1   2
BRANCH   1   7
ATOM      7  C   UNL     1      40.508 187.906  32.879  1.00  0.00     0.000 C 
BRANCH   7   8
ATOM      8  C   UNL     1      39.105 187.271  32.800  1.00  0.00     0.004 C 
BRANCH   8   9
ATOM      9  C   UNL     1      39.037 185.981  31.968  1.00  0.00     0.027 C 
BRANCH   9  10
ATOM     10  C   UNL     1      38.271 186.162  30.684  1.00  0.00    -0.035 C 
ATOM     11  C   UNL     1      38.516 187.202  29.883  1.00  0.00     0.004 C 
ENDBRANCH   9  10
ENDBRANCH   8   9
ENDBRANCH   7   8
ENDBRANCH   1   7
TORSDOF 7
ENDMDL
MODEL 6
REMARK VINA RESULT:    -3.218      2.014      3.172
REMARK INTER + INTRA:          -5.039
REMARK INTER:                  -4.242
REMARK INTRA:                  -0.797
REMARK UNBOUND:                -0.504
REMARK SMILES C=CCCCCCCC(=O)[O-]
REMARK SMILES IDX 6 1 7 2 8 3 9 4 10 5 11 6 5 7 4 8 3 9 2 10 1 11
REMARK H PARENT
REMARK Flexibility Score: inf
ROOT
ATOM      1  C   UNL     1      40.385 185.729  30.478  1.00  0.00     0.000 C 
ENDROOT
BRANCH   1   2
ATOM      2  C   UNL     1      41.462 186.109  31.508  1.00  0.00     0.006 C 
BRANCH   2   3
ATOM      3  C   UNL     1      42.049 184.881  32.215  1.00  0.00     0.053 C 
BRANCH   3   4
ATOM      4  C   UNL     1      42.679 185.245  33.525  1.00  0.00     0.041 C 
ATOM      5  O   UNL     1      42.362 186.317  34.104  1.00  0.00    -0.550 OA
ATOM      6  O   UNL     1      43.639 184.415  34.091  1.00  0.00    -0.550 OA
ENDBRANCH   3   4
ENDBRANCH   2   3
ENDBRANCH   1   2
BRANCH   1   7
ATOM      7  C   UNL     1      39.096 186.560  30.652  1.00  0.00     0.000 C 
BRANCH   7   8
ATOM      8  C   UNL     1      38.077 185.926  31.620  1.00  0.00     0.004 C 
BRANCH   8   9
ATOM      9  C   UNL     1      38.100 186.513  33.041  1.00  0.00     0.027 C 
BRANCH   9  10
ATOM     10  C   UNL     1      38.726 185.577  34.041  1.00  0.00    -0.035 C 
ATOM     11  C   UNL     1      38.775 184.262  33.810  1.00  0.00     0.004 C 
ENDBRANCH   9  10
ENDBRANCH   8   9
ENDBRANCH   7   8
ENDBRANCH   1   7
TORSDOF 7
ENDMDL
MODEL 7
REMARK VINA RESULT:    -3.185     21.728     23.117
REMARK INTER + INTRA:          -4.992
REMARK INTER:                  -4.279
REMARK INTRA:                  -0.714
REMARK UNBOUND:                -0.504
REMARK SMILES C=CCCCCCCC(=O)[O-]
REMARK SMILES IDX 6 1 7 2 8 3 9 4 10 5 11 6 5 7 4 8 3 9 2 10 1 11
REMARK H PARENT
REMARK Flexibility Score: inf
ROOT
ATOM      1  C   UNL     1      31.123 170.807  16.059  1.00  0.00     0.000 C 
ENDROOT
BRANCH   1   2
ATOM      2  C   UNL     1      31.317 170.146  17.435  1.00  0.00     0.006 C 
BRANCH   2   3
ATOM      3  C   UNL     1      31.858 171.129  18.480  1.00  0.00     0.053 C 
BRANCH   3   4
ATOM      4  C   UNL     1      32.279 170.427  19.735  1.00  0.00     0.041 C 
ATOM      5  O   UNL     1      33.237 169.610  19.712  1.00  0.00    -0.550 OA
ATOM      6  O   UNL     1      31.594 170.652  20.923  1.00  0.00    -0.550 OA
ENDBRANCH   3   4
ENDBRANCH   2   3
ENDBRANCH   1   2
BRANCH   1   7
ATOM      7  C   UNL     1      32.254 170.442  15.075  1.00  0.00     0.000 C 
BRANCH   7   8
ATOM      8  C   UNL     1      33.289 171.569  14.877  1.00  0.00     0.004 C 
BRANCH   8   9
ATOM      9  C   UNL     1      34.742 171.153  15.154  1.00  0.00     0.027 C 
BRANCH   9  10
ATOM     10  C   UNL     1      34.953 170.706  16.576  1.00  0.00    -0.035 C 
ATOM     11  C   UNL     1      35.296 169.445  16.853  1.00  0.00     0.004 C 
ENDBRANCH   9  10
ENDBRANCH   8   9
ENDBRANCH   7   8
ENDBRANCH   1   7
TORSDOF 7
ENDMDL
MODEL 8
REMARK VINA RESULT:    -3.166      1.742      3.094
REMARK INTER + INTRA:          -4.966
REMARK INTER:                  -4.230
REMARK INTRA:                  -0.736
REMARK UNBOUND:                -0.504
REMARK SMILES C=CCCCCCCC(=O)[O-]
REMARK SMILES IDX 6 1 7 2 8 3 9 4 10 5 11 6 5 7 4 8 3 9 2 10 1 11
REMARK H PARENT
REMARK Flexibility Score: inf
ROOT
ATOM      1  C   UNL     1      40.520 185.676  30.629  1.00  0.00     0.000 C 
ENDROOT
BRANCH   1   2
ATOM      2  C   UNL     1      41.626 186.281  31.511  1.00  0.00     0.006 C 
BRANCH   2   3
ATOM      3  C   UNL     1      41.856 185.470  32.792  1.00  0.00     0.053 C 
BRANCH   3   4
ATOM      4  C   UNL     1      42.438 184.122  32.497  1.00  0.00     0.041 C 
ATOM      5  O   UNL     1      43.636 184.017  32.125  1.00  0.00    -0.550 OA
ATOM      6  O   UNL     1      41.649 182.983  32.604  1.00  0.00    -0.550 OA
ENDBRANCH   3   4
ENDBRANCH   2   3
ENDBRANCH   1   2
BRANCH   1   7
ATOM      7  C   UNL     1      39.241 186.540  30.628  1.00  0.00     0.000 C 
BRANCH   7   8
ATOM      8  C   UNL     1      38.234 186.156  31.731  1.00  0.00     0.004 C 
BRANCH   8   9
ATOM      9  C   UNL     1      38.034 187.230  32.811  1.00  0.00     0.027 C 
BRANCH   9  10
ATOM     10  C   UNL     1      38.846 188.471  32.549  1.00  0.00    -0.035 C 
ATOM     11  C   UNL     1      39.762 188.888  33.427  1.00  0.00     0.004 C 
ENDBRANCH   9  10
ENDBRANCH   8   9
ENDBRANCH   7   8
ENDBRANCH   1   7
TORSDOF 7
ENDMDL
MODEL 9
REMARK VINA RESULT:    -3.148     21.446     22.691
REMARK INTER + INTRA:          -4.940
REMARK INTER:                  -4.297
REMARK INTRA:                  -0.643
REMARK UNBOUND:                -0.504
REMARK SMILES C=CCCCCCCC(=O)[O-]
REMARK SMILES IDX 6 1 7 2 8 3 9 4 10 5 11 6 5 7 4 8 3 9 2 10 1 11
REMARK H PARENT
REMARK Flexibility Score: inf
ROOT
ATOM      1  C   UNL     1      33.553 169.509  18.739  1.00  0.00     0.000 C 
ENDROOT
BRANCH   1   2
ATOM      2  C   UNL     1      32.099 169.982  18.570  1.00  0.00     0.006 C 
BRANCH   2   3
ATOM      3  C   UNL     1      31.898 171.426  19.049  1.00  0.00     0.053 C 
BRANCH   3   4
ATOM      4  C   UNL     1      30.895 171.506  20.159  1.00  0.00     0.041 C 
ATOM      5  O   UNL     1      31.101 170.899  21.243  1.00  0.00    -0.550 OA
ATOM      6  O   UNL     1      29.720 172.227  19.986  1.00  0.00    -0.550 OA
ENDBRANCH   3   4
ENDBRANCH   2   3
ENDBRANCH   1   2
BRANCH   1   7
ATOM      7  C   UNL     1      34.111 168.875  17.448  1.00  0.00     0.000 C 
BRANCH   7   8
ATOM      8  C   UNL     1      35.261 169.681  16.810  1.00  0.00     0.004 C 
BRANCH   8   9
ATOM      9  C   UNL     1      34.870 171.096  16.355  1.00  0.00     0.027 C 
BRANCH   9  10
ATOM     10  C   UNL     1      34.174 171.100  15.019  1.00  0.00    -0.035 C 
ATOM     11  C   UNL     1      32.898 171.480  14.914  1.00  0.00     0.004 C 
ENDBRANCH   9  10
ENDBRANCH   8   9
ENDBRANCH   7   8
ENDBRANCH   1   7
TORSDOF 7
ENDMDL
