MODEL 1
REMARK VINA RESULT:    -5.601      0.000      0.000
REMARK INTER + INTRA:          -6.216
REMARK INTER:                  -6.256
REMARK INTRA:                   0.040
REMARK UNBOUND:                 0.040
REMARK SMILES O=C([O-])c1ccccc1C(=O)[O-]
REMARK SMILES IDX 4 1 9 2 5 3 8 4 6 5 7 6 2 7 1 8 3 9 10 10 11 11 12 12
REMARK H PARENT
REMARK Flexibility Score: inf
ROOT
ATOM      1  C   UNL     1      21.685 -46.260  67.902  1.00  0.00     0.006 A 
ATOM      2  C   UNL     1      22.734 -45.485  68.474  1.00  0.00     0.006 A 
ATOM      3  C   UNL     1      20.449 -46.335  68.569  1.00  0.00     0.010 A 
ATOM      4  C   UNL     1      22.527 -44.870  69.722  1.00  0.00     0.010 A 
ATOM      5  C   UNL     1      20.260 -45.698  69.796  1.00  0.00     0.001 A 
ATOM      6  C   UNL     1      21.300 -44.978  70.377  1.00  0.00     0.001 A 
ENDROOT
BRANCH   1   7
ATOM      7  C   UNL     1      21.851 -47.054  66.662  1.00  0.00     0.072 C 
ATOM      8  O   UNL     1      21.622 -46.542  65.534  1.00  0.00    -0.545 OA
ATOM      9  O   UNL     1      22.328 -48.358  66.727  1.00  0.00    -0.545 OA
ENDBRANCH   1   7
BRANCH   2  10
ATOM     10  C   UNL     1      24.021 -45.235  67.784  1.00  0.00     0.072 C 
ATOM     11  O   UNL     1      24.724 -46.190  67.362  1.00  0.00    -0.545 OA
ATOM     12  O   UNL     1      24.435 -43.931  67.535  1.00  0.00    -0.545 OA
ENDBRANCH   2  10
TORSDOF 2
ENDMDL
MODEL 2
REMARK VINA RESULT:    -5.577      2.576      4.056
REMARK INTER + INTRA:          -6.189
REMARK INTER:                  -6.033
REMARK INTRA:                  -0.157
REMARK UNBOUND:                 0.040
REMARK SMILES O=C([O-])c1ccccc1C(=O)[O-]
REMARK SMILES IDX 4 1 9 2 5 3 8 4 6 5 7 6 2 7 1 8 3 9 10 10 11 11 12 12
REMARK H PARENT
REMARK Flexibility Score: inf
ROOT
ATOM      1  C   UNL     1      20.424 -47.833  67.996  1.00  0.00     0.006 A 
ATOM      2  C   UNL     1      20.954 -49.023  67.421  1.00  0.00     0.006 A 
ATOM      3  C   UNL     1      19.559 -47.933  69.101  1.00  0.00     0.010 A 
ATOM      4  C   UNL     1      20.546 -50.269  67.931  1.00  0.00     0.010 A 
ATOM      5  C   UNL     1      19.186 -49.180  69.604  1.00  0.00     0.001 A 
ATOM      6  C   UNL     1      19.669 -50.345  69.014  1.00  0.00     0.001 A 
ENDROOT
BRANCH   1   7
ATOM      7  C   UNL     1      20.687 -46.483  67.444  1.00  0.00     0.072 C 
ATOM      8  O   UNL     1      21.583 -45.748  67.938  1.00  0.00    -0.545 OA
ATOM      9  O   UNL     1      19.990 -46.039  66.327  1.00  0.00    -0.545 OA
ENDBRANCH   1   7
BRANCH   2  10
ATOM     10  C   UNL     1      21.975 -49.016  66.347  1.00  0.00     0.072 C 
ATOM     11  O   UNL     1      23.153 -49.395  66.575  1.00  0.00    -0.545 OA
ATOM     12  O   UNL     1      21.621 -48.652  65.053  1.00  0.00    -0.545 OA
ENDBRANCH   2  10
TORSDOF 2
ENDMDL
MODEL 3
REMARK VINA RESULT:    -5.576      2.617      3.772
REMARK INTER + INTRA:          -6.188
REMARK INTER:                  -6.042
REMARK INTRA:                  -0.146
REMARK UNBOUND:                 0.040
REMARK SMILES O=C([O-])c1ccccc1C(=O)[O-]
REMARK SMILES IDX 4 1 9 2 5 3 8 4 6 5 7 6 2 7 1 8 3 9 10 10 11 11 12 12
REMARK H PARENT
REMARK Flexibility Score: inf
ROOT
ATOM      1  C   UNL     1      20.942 -49.055  67.429  1.00  0.00     0.006 A 
ATOM      2  C   UNL     1      20.395 -47.869  67.996  1.00  0.00     0.006 A 
ATOM      3  C   UNL     1      20.548 -50.304  67.943  1.00  0.00     0.010 A 
ATOM      4  C   UNL     1      19.526 -47.976  69.096  1.00  0.00     0.010 A 
ATOM      5  C   UNL     1      19.667 -50.386  69.021  1.00  0.00     0.001 A 
ATOM      6  C   UNL     1      19.166 -49.225  69.605  1.00  0.00     0.001 A 
ENDROOT
BRANCH   1   7
ATOM      7  C   UNL     1      21.967 -49.041  66.358  1.00  0.00     0.072 C 
ATOM      8  O   UNL     1      23.144 -49.423  66.589  1.00  0.00    -0.545 OA
ATOM      9  O   UNL     1      21.619 -48.669  65.065  1.00  0.00    -0.545 OA
ENDBRANCH   1   7
BRANCH   2  10
ATOM     10  C   UNL     1      20.642 -46.519  67.437  1.00  0.00     0.072 C 
ATOM     11  O   UNL     1      21.519 -45.766  67.935  1.00  0.00    -0.545 OA
ATOM     12  O   UNL     1      19.949 -46.095  66.309  1.00  0.00    -0.545 OA
ENDBRANCH   2  10
TORSDOF 2
ENDMDL
MODEL 4
REMARK VINA RESULT:    -5.542      0.140      3.018
REMARK INTER + INTRA:          -6.150
REMARK INTER:                  -6.158
REMARK INTRA:                   0.008
REMARK UNBOUND:                 0.040
REMARK SMILES O=C([O-])c1ccccc1C(=O)[O-]
REMARK SMILES IDX 4 1 9 2 5 3 8 4 6 5 7 6 2 7 1 8 3 9 10 10 11 11 12 12
REMARK H PARENT
REMARK Flexibility Score: inf
ROOT
ATOM      1  C   UNL     1      22.622 -45.484  68.506  1.00  0.00     0.006 A 
ATOM      2  C   UNL     1      21.624 -46.296  67.897  1.00  0.00     0.006 A 
ATOM      3  C   UNL     1      22.360 -44.904  69.760  1.00  0.00     0.010 A 
ATOM      4  C   UNL     1      20.379 -46.443  68.534  1.00  0.00     0.010 A 
ATOM      5  C   UNL     1      21.125 -45.081  70.384  1.00  0.00     0.001 A 
ATOM      6  C   UNL     1      20.133 -45.839  69.768  1.00  0.00     0.001 A 
ENDROOT
BRANCH   1   7
ATOM      7  C   UNL     1      23.912 -45.161  67.851  1.00  0.00     0.072 C 
ATOM      8  O   UNL     1      24.297 -43.967  67.743  1.00  0.00    -0.545 OA
ATOM      9  O   UNL     1      24.744 -46.182  67.408  1.00  0.00    -0.545 OA
ENDBRANCH   1   7
BRANCH   2  10
ATOM     10  C   UNL     1      21.855 -47.058  66.647  1.00  0.00     0.072 C 
ATOM     11  O   UNL     1      21.651 -46.531  65.522  1.00  0.00    -0.545 OA
ATOM     12  O   UNL     1      22.367 -48.349  66.704  1.00  0.00    -0.545 OA
ENDBRANCH   2  10
TORSDOF 2
ENDMDL
MODEL 5
REMARK VINA RESULT:    -5.376      7.857      9.039
REMARK INTER + INTRA:          -5.964
REMARK INTER:                  -5.783
REMARK INTRA:                  -0.181
REMARK UNBOUND:                 0.040
REMARK SMILES O=C([O-])c1ccccc1C(=O)[O-]
REMARK SMILES IDX 4 1 9 2 5 3 8 4 6 5 7 6 2 7 1 8 3 9 10 10 11 11 12 12
REMARK H PARENT
REMARK Flexibility Score: inf
ROOT
ATOM      1  C   UNL     1      14.293 -48.173  71.602  1.00  0.00     0.006 A 
ATOM      2  C   UNL     1      15.067 -48.740  72.655  1.00  0.00     0.006 A 
ATOM      3  C   UNL     1      12.891 -48.273  71.655  1.00  0.00     0.010 A 
ATOM      4  C   UNL     1      14.413 -49.441  73.683  1.00  0.00     0.010 A 
ATOM      5  C   UNL     1      12.263 -48.955  72.697  1.00  0.00     0.001 A 
ATOM      6  C   UNL     1      13.022 -49.548  73.702  1.00  0.00     0.001 A 
ENDROOT
BRANCH   1   7
ATOM      7  C   UNL     1      14.897 -47.535  70.409  1.00  0.00     0.072 C 
ATOM      8  O   UNL     1      15.057 -46.287  70.358  1.00  0.00    -0.545 OA
ATOM      9  O   UNL     1      15.356 -48.318  69.357  1.00  0.00    -0.545 OA
ENDBRANCH   1   7
BRANCH   2  10
ATOM     10  C   UNL     1      16.536 -48.569  72.759  1.00  0.00     0.072 C 
ATOM     11  O   UNL     1      17.313 -49.543  72.584  1.00  0.00    -0.545 OA
ATOM     12  O   UNL     1      17.074 -47.308  72.988  1.00  0.00    -0.545 OA
ENDBRANCH   2  10
TORSDOF 2
ENDMDL
MODEL 6
REMARK VINA RESULT:    -5.360      7.879      9.305
REMARK INTER + INTRA:          -5.947
REMARK INTER:                  -5.776
REMARK INTRA:                  -0.171
REMARK UNBOUND:                 0.040
REMARK SMILES O=C([O-])c1ccccc1C(=O)[O-]
REMARK SMILES IDX 4 1 9 2 5 3 8 4 6 5 7 6 2 7 1 8 3 9 10 10 11 11 12 12
REMARK H PARENT
REMARK Flexibility Score: inf
ROOT
ATOM      1  C   UNL     1      15.112 -48.750  72.700  1.00  0.00     0.006 A 
ATOM      2  C   UNL     1      14.285 -48.180  71.691  1.00  0.00     0.006 A 
ATOM      3  C   UNL     1      14.513 -49.481  73.743  1.00  0.00     0.010 A 
ATOM      4  C   UNL     1      12.889 -48.307  71.799  1.00  0.00     0.010 A 
ATOM      5  C   UNL     1      13.126 -49.612  73.817  1.00  0.00     0.001 A 
ATOM      6  C   UNL     1      12.315 -49.017  72.854  1.00  0.00     0.001 A 
ENDROOT
BRANCH   1   7
ATOM      7  C   UNL     1      16.580 -48.555  72.748  1.00  0.00     0.072 C 
ATOM      8  O   UNL     1      17.364 -49.518  72.540  1.00  0.00    -0.545 OA
ATOM      9  O   UNL     1      17.109 -47.286  72.954  1.00  0.00    -0.545 OA
ENDBRANCH   1   7
BRANCH   2  10
ATOM     10  C   UNL     1      14.828 -47.512  70.484  1.00  0.00     0.072 C 
ATOM     11  O   UNL     1      15.166 -48.182  69.474  1.00  0.00    -0.545 OA
ATOM     12  O   UNL     1      14.907 -46.125  70.433  1.00  0.00    -0.545 OA
ENDBRANCH   2  10
TORSDOF 2
ENDMDL
MODEL 7
REMARK VINA RESULT:    -5.336      2.836      4.392
REMARK INTER + INTRA:          -5.920
REMARK INTER:                  -5.724
REMARK INTRA:                  -0.196
REMARK UNBOUND:                 0.040
REMARK SMILES O=C([O-])c1ccccc1C(=O)[O-]
REMARK SMILES IDX 4 1 9 2 5 3 8 4 6 5 7 6 2 7 1 8 3 9 10 10 11 11 12 12
REMARK H PARENT
REMARK Flexibility Score: inf
ROOT
ATOM      1  C   UNL     1      21.078 -48.209  67.343  1.00  0.00     0.006 A 
ATOM      2  C   UNL     1      19.990 -48.117  68.256  1.00  0.00     0.006 A 
ATOM      3  C   UNL     1      21.656 -49.467  67.092  1.00  0.00     0.010 A 
ATOM      4  C   UNL     1      19.565 -49.275  68.932  1.00  0.00     0.010 A 
ATOM      5  C   UNL     1      21.204 -50.606  67.758  1.00  0.00     0.001 A 
ATOM      6  C   UNL     1      20.169 -50.508  68.685  1.00  0.00     0.001 A 
ENDROOT
BRANCH   1   7
ATOM      7  C   UNL     1      21.684 -47.027  66.685  1.00  0.00     0.072 C 
ATOM      8  O   UNL     1      21.497 -46.806  65.459  1.00  0.00    -0.545 OA
ATOM      9  O   UNL     1      22.411 -46.109  67.434  1.00  0.00    -0.545 OA
ENDBRANCH   1   7
BRANCH   2  10
ATOM     10  C   UNL     1      19.229 -46.866  68.482  1.00  0.00     0.072 C 
ATOM     11  O   UNL     1      18.254 -46.562  67.746  1.00  0.00    -0.545 OA
ATOM     12  O   UNL     1      19.545 -46.044  69.557  1.00  0.00    -0.545 OA
ENDBRANCH   2  10
TORSDOF 2
ENDMDL
MODEL 8
REMARK VINA RESULT:    -5.244      2.100      4.008
REMARK INTER + INTRA:          -5.817
REMARK INTER:                  -5.735
REMARK INTRA:                  -0.082
REMARK UNBOUND:                 0.040
REMARK SMILES O=C([O-])c1ccccc1C(=O)[O-]
REMARK SMILES IDX 4 1 9 2 5 3 8 4 6 5 7 6 2 7 1 8 3 9 10 10 11 11 12 12
REMARK H PARENT
REMARK Flexibility Score: inf
ROOT
ATOM      1  C   UNL     1      20.882 -47.205  67.817  1.00  0.00     0.006 A 
ATOM      2  C   UNL     1      20.002 -48.240  68.244  1.00  0.00     0.006 A 
ATOM      3  C   UNL     1      20.878 -45.977  68.503  1.00  0.00     0.010 A 
ATOM      4  C   UNL     1      19.107 -47.984  69.297  1.00  0.00     0.010 A 
ATOM      5  C   UNL     1      19.995 -45.754  69.559  1.00  0.00     0.001 A 
ATOM      6  C   UNL     1      19.103 -46.750  69.948  1.00  0.00     0.001 A 
ENDROOT
BRANCH   1   7
ATOM      7  C   UNL     1      21.766 -47.332  66.634  1.00  0.00     0.072 C 
ATOM      8  O   UNL     1      22.706 -48.170  66.619  1.00  0.00    -0.545 OA
ATOM      9  O   UNL     1      21.521 -46.572  65.496  1.00  0.00    -0.545 OA
ENDBRANCH   1   7
BRANCH   2  10
ATOM     10  C   UNL     1      20.030 -49.609  67.675  1.00  0.00     0.072 C 
ATOM     11  O   UNL     1      19.319 -49.908  66.681  1.00  0.00    -0.545 OA
ATOM     12  O   UNL     1      20.896 -50.562  68.198  1.00  0.00    -0.545 OA
ENDBRANCH   2  10
TORSDOF 2
ENDMDL
MODEL 9
REMARK VINA RESULT:    -5.210      2.081      2.949
REMARK INTER + INTRA:          -5.778
REMARK INTER:                  -5.695
REMARK INTRA:                  -0.084
REMARK UNBOUND:                 0.040
REMARK SMILES O=C([O-])c1ccccc1C(=O)[O-]
REMARK SMILES IDX 4 1 9 2 5 3 8 4 6 5 7 6 2 7 1 8 3 9 10 10 11 11 12 12
REMARK H PARENT
REMARK Flexibility Score: inf
ROOT
ATOM      1  C   UNL     1      20.002 -48.225  68.185  1.00  0.00     0.006 A 
ATOM      2  C   UNL     1      20.900 -47.192  67.790  1.00  0.00     0.006 A 
ATOM      3  C   UNL     1      19.081 -47.972  69.218  1.00  0.00     0.010 A 
ATOM      4  C   UNL     1      20.885 -45.971  68.486  1.00  0.00     0.010 A 
ATOM      5  C   UNL     1      19.070 -46.744  69.880  1.00  0.00     0.001 A 
ATOM      6  C   UNL     1      19.978 -45.750  69.523  1.00  0.00     0.001 A 
ENDROOT
BRANCH   1   7
ATOM      7  C   UNL     1      20.032 -49.588  67.605  1.00  0.00     0.072 C 
ATOM      8  O   UNL     1      19.372 -49.861  66.568  1.00  0.00    -0.545 OA
ATOM      9  O   UNL     1      20.848 -50.565  68.164  1.00  0.00    -0.545 OA
ENDBRANCH   1   7
BRANCH   2  10
ATOM     10  C   UNL     1      21.810 -47.316  66.627  1.00  0.00     0.072 C 
ATOM     11  O   UNL     1      22.749 -48.153  66.629  1.00  0.00    -0.545 OA
ATOM     12  O   UNL     1      21.592 -46.548  65.489  1.00  0.00    -0.545 OA
ENDBRANCH   2  10
TORSDOF 2
ENDMDL
