MODEL 1
REMARK VINA RESULT:     0.000      0.000      0.000
REMARK INTER + INTRA:          -3.726
REMARK INTER:                   0.000
REMARK INTRA:                  -3.726
REMARK UNBOUND:                -3.726
REMARK SMILES CCCCCCCCCCCCCCCCCC(=O)[O-]
REMARK SMILES IDX 10 1 11 2 12 3 13 4 14 5 15 6 16 7 17 8 18 9 19 10 20 11
REMARK SMILES IDX 9 12 8 13 7 14 6 15 5 16 4 17 3 18 2 19 1 20
REMARK H PARENT
REMARK Flexibility Score: inf
ROOT
ATOM      1  C   UNL     1     175.450 191.678 196.243  1.00  0.00     0.000 C 
ENDROOT
BRANCH   1   2
ATOM      2  C   UNL     1     175.999 193.120 196.209  1.00  0.00     0.000 C 
BRANCH   2   3
ATOM      3  C   UNL     1     177.484 193.225 196.596  1.00  0.00     0.000 C 
BRANCH   3   4
ATOM      4  C   UNL     1     177.746 194.294 197.669  1.00  0.00     0.000 C 
BRANCH   4   5
ATOM      5  C   UNL     1     178.624 193.781 198.827  1.00  0.00     0.000 C 
BRANCH   5   6
ATOM      6  C   UNL     1     178.869 192.261 198.843  1.00  0.00     0.000 C 
BRANCH   6   7
ATOM      7  C   UNL     1     179.358 191.747 200.208  1.00  0.00     0.006 C 
BRANCH   7   8
ATOM      8  C   UNL     1     179.243 192.814 201.304  1.00  0.00     0.053 C 
BRANCH   8   9
ATOM      9  C   UNL     1     178.711 192.242 202.583  1.00  0.00     0.041 C 
ATOM     10  O   UNL     1     178.494 191.006 202.682  1.00  0.00    -0.550 OA
ATOM     11  O   UNL     1     178.432 193.079 203.656  1.00  0.00    -0.550 OA
ENDBRANCH   8   9
ENDBRANCH   7   8
ENDBRANCH   6   7
ENDBRANCH   5   6
ENDBRANCH   4   5
ENDBRANCH   3   4
ENDBRANCH   2   3
ENDBRANCH   1   2
BRANCH   1  12
ATOM     12  C   UNL     1     176.570 190.637 196.419  1.00  0.00     0.000 C 
BRANCH  12  13
ATOM     13  C   UNL     1     176.360 189.744 197.652  1.00  0.00    -0.000 C 
BRANCH  13  14
ATOM     14  C   UNL     1     175.338 190.335 198.641  1.00  0.00    -0.000 C 
BRANCH  14  15
ATOM     15  C   UNL     1     175.883 190.423 200.075  1.00  0.00    -0.000 C 
BRANCH  15  16
ATOM     16  C   UNL     1     175.577 191.776 200.740  1.00  0.00    -0.000 C 
BRANCH  16  17
ATOM     17  C   UNL     1     174.977 192.803 199.761  1.00  0.00    -0.000 C 
BRANCH  17  18
ATOM     18  C   UNL     1     175.106 194.274 200.198  1.00  0.00    -0.000 C 
BRANCH  18  19
ATOM     19  C   UNL     1     175.858 194.442 201.525  1.00  0.00    -0.003 C 
ATOM     20  C   UNL     1     176.784 195.655 201.483  1.00  0.00     0.004 C 
ENDBRANCH  18  19
ENDBRANCH  17  18
ENDBRANCH  16  17
ENDBRANCH  15  16
ENDBRANCH  14  15
ENDBRANCH  13  14
ENDBRANCH  12  13
ENDBRANCH   1  12
TORSDOF 16
ENDMDL
MODEL 2
REMARK VINA RESULT:     0.040      6.296      7.881
REMARK INTER + INTRA:          -3.650
REMARK INTER:                   0.000
REMARK INTRA:                  -3.650
REMARK UNBOUND:                -3.726
REMARK SMILES CCCCCCCCCCCCCCCCCC(=O)[O-]
REMARK SMILES IDX 10 1 11 2 12 3 13 4 14 5 15 6 16 7 17 8 18 9 19 10 20 11
REMARK SMILES IDX 9 12 8 13 7 14 6 15 5 16 4 17 3 18 2 19 1 20
REMARK H PARENT
REMARK Flexibility Score: inf
ROOT
ATOM      1  C   UNL     1     173.431 196.226 192.546  1.00  0.00     0.000 C 
ENDROOT
BRANCH   1   2
ATOM      2  C   UNL     1     174.046 194.863 192.164  1.00  0.00     0.000 C 
BRANCH   2   3
ATOM      3  C   UNL     1     175.568 194.792 192.377  1.00  0.00     0.000 C 
BRANCH   3   4
ATOM      4  C   UNL     1     175.960 193.969 193.615  1.00  0.00     0.000 C 
BRANCH   4   5
ATOM      5  C   UNL     1     177.170 194.553 194.368  1.00  0.00     0.000 C 
BRANCH   5   6
ATOM      6  C   UNL     1     177.644 195.935 193.880  1.00  0.00     0.000 C 
BRANCH   6   7
ATOM      7  C   UNL     1     178.315 196.765 194.988  1.00  0.00     0.006 C 
BRANCH   7   8
ATOM      8  C   UNL     1     178.023 198.264 194.845  1.00  0.00     0.053 C 
BRANCH   8   9
ATOM      9  C   UNL     1     178.506 198.802 193.532  1.00  0.00     0.041 C 
ATOM     10  O   UNL     1     177.690 199.291 192.708  1.00  0.00    -0.550 OA
ATOM     11  O   UNL     1     179.856 198.739 193.209  1.00  0.00    -0.550 OA
ENDBRANCH   8   9
ENDBRANCH   7   8
ENDBRANCH   6   7
ENDBRANCH   5   6
ENDBRANCH   4   5
ENDBRANCH   3   4
ENDBRANCH   2   3
ENDBRANCH   1   2
BRANCH   1  12
ATOM     12  C   UNL     1     174.477 197.354 192.546  1.00  0.00     0.000 C 
BRANCH  12  13
ATOM     13  C   UNL     1     174.504 198.136 193.869  1.00  0.00    -0.000 C 
BRANCH  13  14
ATOM     14  C   UNL     1     173.770 197.400 195.005  1.00  0.00    -0.000 C 
BRANCH  14  15
ATOM     15  C   UNL     1     174.727 196.870 196.084  1.00  0.00    -0.000 C 
BRANCH  15  16
ATOM     16  C   UNL     1     174.332 195.471 196.587  1.00  0.00    -0.000 C 
BRANCH  16  17
ATOM     17  C   UNL     1     172.888 195.086 196.215  1.00  0.00    -0.000 C 
BRANCH  17  18
ATOM     18  C   UNL     1     172.739 193.740 195.480  1.00  0.00    -0.000 C 
BRANCH  18  19
ATOM     19  C   UNL     1     171.482 193.673 194.602  1.00  0.00    -0.003 C 
ATOM     20  C   UNL     1     170.666 194.958 194.712  1.00  0.00     0.004 C 
ENDBRANCH  18  19
ENDBRANCH  17  18
ENDBRANCH  16  17
ENDBRANCH  15  16
ENDBRANCH  14  15
ENDBRANCH  13  14
ENDBRANCH  12  13
ENDBRANCH   1  12
TORSDOF 16
ENDMDL
MODEL 3
REMARK VINA RESULT:     0.040      4.486      6.615
REMARK INTER + INTRA:          -3.649
REMARK INTER:                   0.000
REMARK INTRA:                  -3.649
REMARK UNBOUND:                -3.726
REMARK SMILES CCCCCCCCCCCCCCCCCC(=O)[O-]
REMARK SMILES IDX 10 1 11 2 12 3 13 4 14 5 15 6 16 7 17 8 18 9 19 10 20 11
REMARK SMILES IDX 9 12 8 13 7 14 6 15 5 16 4 17 3 18 2 19 1 20
REMARK H PARENT
REMARK Flexibility Score: inf
ROOT
ATOM      1  C   UNL     1     175.706 191.049 196.271  1.00  0.00     0.000 C 
ENDROOT
BRANCH   1   2
ATOM      2  C   UNL     1     176.115 190.446 197.632  1.00  0.00     0.000 C 
BRANCH   2   3
ATOM      3  C   UNL     1     177.637 190.389 197.849  1.00  0.00     0.000 C 
BRANCH   3   4
ATOM      4  C   UNL     1     178.095 189.084 198.521  1.00  0.00     0.000 C 
BRANCH   4   5
ATOM      5  C   UNL     1     176.921 188.215 199.010  1.00  0.00     0.000 C 
BRANCH   5   6
ATOM      6  C   UNL     1     177.092 186.699 198.800  1.00  0.00     0.000 C 
BRANCH   6   7
ATOM      7  C   UNL     1     175.769 185.923 198.920  1.00  0.00     0.006 C 
BRANCH   7   8
ATOM      8  C   UNL     1     174.588 186.842 199.261  1.00  0.00     0.053 C 
BRANCH   8   9
ATOM      9  C   UNL     1     173.315 186.370 198.626  1.00  0.00     0.041 C 
ATOM     10  O   UNL     1     173.345 185.490 197.725  1.00  0.00    -0.550 OA
ATOM     11  O   UNL     1     172.100 186.920 199.012  1.00  0.00    -0.550 OA
ENDBRANCH   8   9
ENDBRANCH   7   8
ENDBRANCH   6   7
ENDBRANCH   5   6
ENDBRANCH   4   5
ENDBRANCH   3   4
ENDBRANCH   2   3
ENDBRANCH   1   2
BRANCH   1  12
ATOM     12  C   UNL     1     175.170 189.980 195.303  1.00  0.00     0.000 C 
BRANCH  12  13
ATOM     13  C   UNL     1     174.681 188.716 196.027  1.00  0.00    -0.000 C 
BRANCH  13  14
ATOM     14  C   UNL     1     175.385 187.440 195.527  1.00  0.00    -0.000 C 
BRANCH  14  15
ATOM     15  C   UNL     1     176.609 187.744 194.648  1.00  0.00    -0.000 C 
BRANCH  15  16
ATOM     16  C   UNL     1     177.921 187.237 195.271  1.00  0.00    -0.000 C 
BRANCH  16  17
ATOM     17  C   UNL     1     179.092 188.221 195.087  1.00  0.00    -0.000 C 
BRANCH  17  18
ATOM     18  C   UNL     1     178.739 189.526 194.350  1.00  0.00    -0.000 C 
BRANCH  18  19
ATOM     19  C   UNL     1     179.642 190.702 194.749  1.00  0.00    -0.003 C 
ATOM     20  C   UNL     1     178.889 192.027 194.659  1.00  0.00     0.004 C 
ENDBRANCH  18  19
ENDBRANCH  17  18
ENDBRANCH  16  17
ENDBRANCH  15  16
ENDBRANCH  14  15
ENDBRANCH  13  14
ENDBRANCH  12  13
ENDBRANCH   1  12
TORSDOF 16
ENDMDL
MODEL 4
REMARK VINA RESULT:     0.045      9.975     12.316
REMARK INTER + INTRA:          -3.640
REMARK INTER:                   0.000
REMARK INTRA:                  -3.640
REMARK UNBOUND:                -3.726
REMARK SMILES CCCCCCCCCCCCCCCCCC(=O)[O-]
REMARK SMILES IDX 10 1 11 2 12 3 13 4 14 5 15 6 16 7 17 8 18 9 19 10 20 11
REMARK SMILES IDX 9 12 8 13 7 14 6 15 5 16 4 17 3 18 2 19 1 20
REMARK H PARENT
REMARK Flexibility Score: inf
ROOT
ATOM      1  C   UNL     1     173.258 183.576 196.128  1.00  0.00     0.000 C 
ENDROOT
BRANCH   1   2
ATOM      2  C   UNL     1     173.549 184.790 195.219  1.00  0.00     0.000 C 
BRANCH   2   3
ATOM      3  C   UNL     1     172.546 185.944 195.391  1.00  0.00     0.000 C 
BRANCH   3   4
ATOM      4  C   UNL     1     172.556 186.924 194.206  1.00  0.00     0.000 C 
BRANCH   4   5
ATOM      5  C   UNL     1     173.524 186.502 193.085  1.00  0.00     0.000 C 
BRANCH   5   6
ATOM      6  C   UNL     1     173.057 186.828 191.655  1.00  0.00     0.000 C 
BRANCH   6   7
ATOM      7  C   UNL     1     173.603 185.845 190.606  1.00  0.00     0.006 C 
BRANCH   7   8
ATOM      8  C   UNL     1     174.487 184.760 191.235  1.00  0.00     0.053 C 
BRANCH   8   9
ATOM      9  C   UNL     1     174.322 183.440 190.544  1.00  0.00     0.041 C 
ATOM     10  O   UNL     1     173.354 183.251 189.761  1.00  0.00    -0.550 OA
ATOM     11  O   UNL     1     175.224 182.411 190.785  1.00  0.00    -0.550 OA
ENDBRANCH   8   9
ENDBRANCH   7   8
ENDBRANCH   6   7
ENDBRANCH   5   6
ENDBRANCH   4   5
ENDBRANCH   3   4
ENDBRANCH   2   3
ENDBRANCH   1   2
BRANCH   1  12
ATOM     12  C   UNL     1     173.207 182.259 195.334  1.00  0.00     0.000 C 
BRANCH  12  13
ATOM     13  C   UNL     1     173.113 182.485 193.817  1.00  0.00    -0.000 C 
BRANCH  13  14
ATOM     14  C   UNL     1     172.132 181.513 193.136  1.00  0.00    -0.000 C 
BRANCH  14  15
ATOM     15  C   UNL     1     170.965 182.236 192.445  1.00  0.00    -0.000 C 
BRANCH  15  16
ATOM     16  C   UNL     1     171.105 183.766 192.498  1.00  0.00    -0.000 C 
BRANCH  16  17
ATOM     17  C   UNL     1     169.924 184.453 193.209  1.00  0.00    -0.000 C 
BRANCH  17  18
ATOM     18  C   UNL     1     169.116 183.548 194.157  1.00  0.00    -0.000 C 
BRANCH  18  19
ATOM     19  C   UNL     1     169.570 183.655 195.619  1.00  0.00    -0.003 C 
ATOM     20  C   UNL     1     169.655 182.276 196.270  1.00  0.00     0.004 C 
ENDBRANCH  18  19
ENDBRANCH  17  18
ENDBRANCH  16  17
ENDBRANCH  15  16
ENDBRANCH  14  15
ENDBRANCH  13  14
ENDBRANCH  12  13
ENDBRANCH   1  12
TORSDOF 16
ENDMDL
MODEL 5
REMARK VINA RESULT:     0.047      9.283     12.177
REMARK INTER + INTRA:          -3.636
REMARK INTER:                   0.000
REMARK INTRA:                  -3.636
REMARK UNBOUND:                -3.726
REMARK SMILES CCCCCCCCCCCCCCCCCC(=O)[O-]
REMARK SMILES IDX 10 1 11 2 12 3 13 4 14 5 15 6 16 7 17 8 18 9 19 10 20 11
REMARK SMILES IDX 9 12 8 13 7 14 6 15 5 16 4 17 3 18 2 19 1 20
REMARK H PARENT
REMARK Flexibility Score: inf
ROOT
ATOM      1  C   UNL     1     168.569 183.096 195.901  1.00  0.00     0.000 C 
ENDROOT
BRANCH   1   2
ATOM      2  C   UNL     1     170.051 182.827 196.239  1.00  0.00     0.000 C 
BRANCH   2   3
ATOM      3  C   UNL     1     170.935 182.598 195.000  1.00  0.00     0.000 C 
BRANCH   3   4
ATOM      4  C   UNL     1     172.071 183.626 194.880  1.00  0.00     0.000 C 
BRANCH   4   5
ATOM      5  C   UNL     1     172.302 184.422 196.178  1.00  0.00     0.000 C 
BRANCH   5   6
ATOM      6  C   UNL     1     172.588 185.923 195.988  1.00  0.00     0.000 C 
BRANCH   6   7
ATOM      7  C   UNL     1     171.820 186.811 196.981  1.00  0.00     0.006 C 
BRANCH   7   8
ATOM      8  C   UNL     1     171.056 185.986 198.026  1.00  0.00     0.053 C 
BRANCH   8   9
ATOM      9  C   UNL     1     169.877 186.734 198.571  1.00  0.00     0.041 C 
ATOM     10  O   UNL     1     169.335 187.645 197.891  1.00  0.00    -0.550 OA
ATOM     11  O   UNL     1     169.393 186.440 199.839  1.00  0.00    -0.550 OA
ENDBRANCH   8   9
ENDBRANCH   7   8
ENDBRANCH   6   7
ENDBRANCH   5   6
ENDBRANCH   4   5
ENDBRANCH   3   4
ENDBRANCH   2   3
ENDBRANCH   1   2
BRANCH   1  12
ATOM     12  C   UNL     1     168.199 184.580 196.064  1.00  0.00     0.000 C 
BRANCH  12  13
ATOM     13  C   UNL     1     168.079 185.311 194.717  1.00  0.00    -0.000 C 
BRANCH  13  14
ATOM     14  C   UNL     1     169.168 186.383 194.529  1.00  0.00    -0.000 C 
BRANCH  14  15
ATOM     15  C   UNL     1     169.986 186.178 193.244  1.00  0.00    -0.000 C 
BRANCH  15  16
ATOM     16  C   UNL     1     169.308 185.208 192.262  1.00  0.00    -0.000 C 
BRANCH  16  17
ATOM     17  C   UNL     1     170.292 184.206 191.631  1.00  0.00    -0.000 C 
BRANCH  17  18
ATOM     18  C   UNL     1     169.772 182.760 191.519  1.00  0.00    -0.000 C 
BRANCH  18  19
ATOM     19  C   UNL     1     168.410 182.560 192.198  1.00  0.00    -0.003 C 
ATOM     20  C   UNL     1     168.273 181.141 192.746  1.00  0.00     0.004 C 
ENDBRANCH  18  19
ENDBRANCH  17  18
ENDBRANCH  16  17
ENDBRANCH  15  16
ENDBRANCH  14  15
ENDBRANCH  13  14
ENDBRANCH  12  13
ENDBRANCH   1  12
TORSDOF 16
ENDMDL
MODEL 6
REMARK VINA RESULT:     0.054      7.223     10.113
REMARK INTER + INTRA:          -3.622
REMARK INTER:                   0.000
REMARK INTRA:                  -3.622
REMARK UNBOUND:                -3.726
REMARK SMILES CCCCCCCCCCCCCCCCCC(=O)[O-]
REMARK SMILES IDX 10 1 11 2 12 3 13 4 14 5 15 6 16 7 17 8 18 9 19 10 20 11
REMARK SMILES IDX 9 12 8 13 7 14 6 15 5 16 4 17 3 18 2 19 1 20
REMARK H PARENT
REMARK Flexibility Score: inf
ROOT
ATOM      1  C   UNL     1     172.817 187.856 195.301  1.00  0.00     0.000 C 
ENDROOT
BRANCH   1   2
ATOM      2  C   UNL     1     171.900 188.411 194.190  1.00  0.00     0.000 C 
BRANCH   2   3
ATOM      3  C   UNL     1     172.523 188.343 192.785  1.00  0.00     0.000 C 
BRANCH   3   4
ATOM      4  C   UNL     1     171.809 187.342 191.863  1.00  0.00     0.000 C 
BRANCH   4   5
ATOM      5  C   UNL     1     172.521 185.978 191.791  1.00  0.00     0.000 C 
BRANCH   5   6
ATOM      6  C   UNL     1     171.714 184.785 192.338  1.00  0.00     0.000 C 
BRANCH   6   7
ATOM      7  C   UNL     1     170.200 185.049 192.372  1.00  0.00     0.006 C 
BRANCH   7   8
ATOM      8  C   UNL     1     169.624 184.936 193.790  1.00  0.00     0.053 C 
BRANCH   8   9
ATOM      9  C   UNL     1     168.991 186.220 194.236  1.00  0.00     0.041 C 
ATOM     10  O   UNL     1     168.580 187.053 193.387  1.00  0.00    -0.550 OA
ATOM     11  O   UNL     1     168.879 186.505 195.591  1.00  0.00    -0.550 OA
ENDBRANCH   8   9
ENDBRANCH   7   8
ENDBRANCH   6   7
ENDBRANCH   5   6
ENDBRANCH   4   5
ENDBRANCH   3   4
ENDBRANCH   2   3
ENDBRANCH   1   2
BRANCH   1  12
ATOM     12  C   UNL     1     172.474 186.400 195.660  1.00  0.00     0.000 C 
BRANCH  12  13
ATOM     13  C   UNL     1     173.648 185.438 195.417  1.00  0.00    -0.000 C 
BRANCH  13  14
ATOM     14  C   UNL     1     174.970 186.179 195.141  1.00  0.00    -0.000 C 
BRANCH  14  15
ATOM     15  C   UNL     1     175.605 185.779 193.799  1.00  0.00    -0.000 C 
BRANCH  15  16
ATOM     16  C   UNL     1     175.973 186.996 192.935  1.00  0.00    -0.000 C 
BRANCH  16  17
ATOM     17  C   UNL     1     176.472 188.193 193.766  1.00  0.00    -0.000 C 
BRANCH  17  18
ATOM     18  C   UNL     1     175.885 189.559 193.363  1.00  0.00    -0.000 C 
BRANCH  18  19
ATOM     19  C   UNL     1     175.446 190.402 194.569  1.00  0.00    -0.003 C 
ATOM     20  C   UNL     1     175.921 189.777 195.878  1.00  0.00     0.004 C 
ENDBRANCH  18  19
ENDBRANCH  17  18
ENDBRANCH  16  17
ENDBRANCH  15  16
ENDBRANCH  14  15
ENDBRANCH  13  14
ENDBRANCH  12  13
ENDBRANCH   1  12
TORSDOF 16
ENDMDL
MODEL 7
REMARK VINA RESULT:     0.055      6.897      9.448
REMARK INTER + INTRA:          -3.620
REMARK INTER:                   0.000
REMARK INTRA:                  -3.620
REMARK UNBOUND:                -3.726
REMARK SMILES CCCCCCCCCCCCCCCCCC(=O)[O-]
REMARK SMILES IDX 10 1 11 2 12 3 13 4 14 5 15 6 16 7 17 8 18 9 19 10 20 11
REMARK SMILES IDX 9 12 8 13 7 14 6 15 5 16 4 17 3 18 2 19 1 20
REMARK H PARENT
REMARK Flexibility Score: inf
ROOT
ATOM      1  C   UNL     1     176.683 186.858 195.626  1.00  0.00     0.000 C 
ENDROOT
BRANCH   1   2
ATOM      2  C   UNL     1     178.087 186.491 195.098  1.00  0.00     0.000 C 
BRANCH   2   3
ATOM      3  C   UNL     1     179.085 186.117 196.208  1.00  0.00     0.000 C 
BRANCH   3   4
ATOM      4  C   UNL     1     179.507 184.640 196.158  1.00  0.00     0.000 C 
BRANCH   4   5
ATOM      5  C   UNL     1     179.498 183.965 197.542  1.00  0.00     0.000 C 
BRANCH   5   6
ATOM      6  C   UNL     1     179.202 184.900 198.729  1.00  0.00     0.000 C 
BRANCH   6   7
ATOM      7  C   UNL     1     178.392 184.217 199.844  1.00  0.00     0.006 C 
BRANCH   7   8
ATOM      8  C   UNL     1     178.485 182.687 199.773  1.00  0.00     0.053 C 
BRANCH   8   9
ATOM      9  C   UNL     1     177.311 182.028 200.430  1.00  0.00     0.041 C 
ATOM     10  O   UNL     1     176.405 182.726 200.957  1.00  0.00    -0.550 OA
ATOM     11  O   UNL     1     177.230 180.642 200.483  1.00  0.00    -0.550 OA
ENDBRANCH   8   9
ENDBRANCH   7   8
ENDBRANCH   6   7
ENDBRANCH   5   6
ENDBRANCH   4   5
ENDBRANCH   3   4
ENDBRANCH   2   3
ENDBRANCH   1   2
BRANCH   1  12
ATOM     12  C   UNL     1     176.679 187.091 197.147  1.00  0.00     0.000 C 
BRANCH  12  13
ATOM     13  C   UNL     1     175.752 186.119 197.892  1.00  0.00    -0.000 C 
BRANCH  13  14
ATOM     14  C   UNL     1     175.234 184.986 196.986  1.00  0.00    -0.000 C 
BRANCH  14  15
ATOM     15  C   UNL     1     175.610 183.590 197.509  1.00  0.00    -0.000 C 
BRANCH  15  16
ATOM     16  C   UNL     1     176.265 182.713 196.428  1.00  0.00    -0.000 C 
BRANCH  16  17
ATOM     17  C   UNL     1     176.010 183.230 195.000  1.00  0.00    -0.000 C 
BRANCH  17  18
ATOM     18  C   UNL     1     177.139 182.947 193.991  1.00  0.00    -0.000 C 
BRANCH  18  19
ATOM     19  C   UNL     1     177.044 183.813 192.727  1.00  0.00    -0.003 C 
ATOM     20  C   UNL     1     175.770 184.653 192.732  1.00  0.00     0.004 C 
ENDBRANCH  18  19
ENDBRANCH  17  18
ENDBRANCH  16  17
ENDBRANCH  15  16
ENDBRANCH  14  15
ENDBRANCH  13  14
ENDBRANCH  12  13
ENDBRANCH   1  12
TORSDOF 16
ENDMDL
MODEL 8
REMARK VINA RESULT:     0.056      3.720      6.100
REMARK INTER + INTRA:          -3.618
REMARK INTER:                   0.000
REMARK INTRA:                  -3.618
REMARK UNBOUND:                -3.726
REMARK SMILES CCCCCCCCCCCCCCCCCC(=O)[O-]
REMARK SMILES IDX 10 1 11 2 12 3 13 4 14 5 15 6 16 7 17 8 18 9 19 10 20 11
REMARK SMILES IDX 9 12 8 13 7 14 6 15 5 16 4 17 3 18 2 19 1 20
REMARK H PARENT
REMARK Flexibility Score: inf
ROOT
ATOM      1  C   UNL     1     179.963 193.761 198.415  1.00  0.00     0.000 C 
ENDROOT
BRANCH   1   2
ATOM      2  C   UNL     1     181.006 193.915 197.287  1.00  0.00     0.000 C 
BRANCH   2   3
ATOM      3  C   UNL     1     180.407 194.396 195.954  1.00  0.00     0.000 C 
BRANCH   3   4
ATOM      4  C   UNL     1     180.665 193.417 194.797  1.00  0.00     0.000 C 
BRANCH   4   5
ATOM      5  C   UNL     1     179.462 193.282 193.845  1.00  0.00     0.000 C 
BRANCH   5   6
ATOM      6  C   UNL     1     178.279 194.222 194.140  1.00  0.00     0.000 C 
BRANCH   6   7
ATOM      7  C   UNL     1     176.914 193.520 194.039  1.00  0.00     0.006 C 
BRANCH   7   8
ATOM      8  C   UNL     1     175.977 193.907 195.191  1.00  0.00     0.053 C 
BRANCH   8   9
ATOM      9  C   UNL     1     174.808 192.975 195.293  1.00  0.00     0.041 C 
ATOM     10  O   UNL     1     173.703 193.390 195.732  1.00  0.00    -0.550 OA
ATOM     11  O   UNL     1     174.947 191.642 194.927  1.00  0.00    -0.550 OA
ENDBRANCH   8   9
ENDBRANCH   7   8
ENDBRANCH   6   7
ENDBRANCH   5   6
ENDBRANCH   4   5
ENDBRANCH   3   4
ENDBRANCH   2   3
ENDBRANCH   1   2
BRANCH   1  12
ATOM     12  C   UNL     1     178.543 193.551 197.864  1.00  0.00     0.000 C 
BRANCH  12  13
ATOM     13  C   UNL     1     177.773 192.453 198.615  1.00  0.00    -0.000 C 
BRANCH  13  14
ATOM     14  C   UNL     1     177.244 191.354 197.674  1.00  0.00    -0.000 C 
BRANCH  14  15
ATOM     15  C   UNL     1     178.180 191.091 196.483  1.00  0.00    -0.000 C 
BRANCH  15  16
ATOM     16  C   UNL     1     179.108 189.887 196.718  1.00  0.00    -0.000 C 
BRANCH  16  17
ATOM     17  C   UNL     1     180.601 190.265 196.691  1.00  0.00    -0.000 C 
BRANCH  17  18
ATOM     18  C   UNL     1     181.300 190.267 198.063  1.00  0.00    -0.000 C 
BRANCH  18  19
ATOM     19  C   UNL     1     180.395 189.766 199.197  1.00  0.00    -0.003 C 
ATOM     20  C   UNL     1     180.500 190.669 200.423  1.00  0.00     0.004 C 
ENDBRANCH  18  19
ENDBRANCH  17  18
ENDBRANCH  16  17
ENDBRANCH  15  16
ENDBRANCH  14  15
ENDBRANCH  13  14
ENDBRANCH  12  13
ENDBRANCH   1  12
TORSDOF 16
ENDMDL
MODEL 9
REMARK VINA RESULT:     0.057      4.817      7.187
REMARK INTER + INTRA:          -3.616
REMARK INTER:                   0.000
REMARK INTRA:                  -3.616
REMARK UNBOUND:                -3.726
REMARK SMILES CCCCCCCCCCCCCCCCCC(=O)[O-]
REMARK SMILES IDX 10 1 11 2 12 3 13 4 14 5 15 6 16 7 17 8 18 9 19 10 20 11
REMARK SMILES IDX 9 12 8 13 7 14 6 15 5 16 4 17 3 18 2 19 1 20
REMARK H PARENT
REMARK Flexibility Score: inf
ROOT
ATOM      1  C   UNL     1     175.101 190.773 197.085  1.00  0.00     0.000 C 
ENDROOT
BRANCH   1   2
ATOM      2  C   UNL     1     174.031 191.885 197.114  1.00  0.00     0.000 C 
BRANCH   2   3
ATOM      3  C   UNL     1     174.364 193.086 196.212  1.00  0.00     0.000 C 
BRANCH   3   4
ATOM      4  C   UNL     1     173.676 193.010 194.840  1.00  0.00     0.000 C 
BRANCH   4   5
ATOM      5  C   UNL     1     172.356 192.218 194.872  1.00  0.00     0.000 C 
BRANCH   5   6
ATOM      6  C   UNL     1     172.219 191.123 193.798  1.00  0.00     0.000 C 
BRANCH   6   7
ATOM      7  C   UNL     1     171.438 189.893 194.291  1.00  0.00     0.006 C 
BRANCH   7   8
ATOM      8  C   UNL     1     170.982 190.043 195.749  1.00  0.00     0.053 C 
BRANCH   8   9
ATOM      9  C   UNL     1     170.837 188.713 196.425  1.00  0.00     0.041 C 
ATOM     10  O   UNL     1     171.334 187.679 195.903  1.00  0.00    -0.550 OA
ATOM     11  O   UNL     1     170.133 188.612 197.618  1.00  0.00    -0.550 OA
ENDBRANCH   8   9
ENDBRANCH   7   8
ENDBRANCH   6   7
ENDBRANCH   5   6
ENDBRANCH   4   5
ENDBRANCH   3   4
ENDBRANCH   2   3
ENDBRANCH   1   2
BRANCH   1  12
ATOM     12  C   UNL     1     174.479 189.375 196.919  1.00  0.00     0.000 C 
BRANCH  12  13
ATOM     13  C   UNL     1     174.725 188.780 195.524  1.00  0.00    -0.000 C 
BRANCH  13  14
ATOM     14  C   UNL     1     175.893 189.462 194.788  1.00  0.00    -0.000 C 
BRANCH  14  15
ATOM     15  C   UNL     1     175.553 189.814 193.331  1.00  0.00    -0.000 C 
BRANCH  15  16
ATOM     16  C   UNL     1     176.157 191.159 192.893  1.00  0.00    -0.000 C 
BRANCH  16  17
ATOM     17  C   UNL     1     177.145 191.737 193.923  1.00  0.00    -0.000 C 
BRANCH  17  18
ATOM     18  C   UNL     1     177.306 193.268 193.886  1.00  0.00    -0.000 C 
BRANCH  18  19
ATOM     19  C   UNL     1     177.863 193.844 195.195  1.00  0.00    -0.003 C 
ATOM     20  C   UNL     1     178.131 192.738 196.212  1.00  0.00     0.004 C 
ENDBRANCH  18  19
ENDBRANCH  17  18
ENDBRANCH  16  17
ENDBRANCH  15  16
ENDBRANCH  14  15
ENDBRANCH  13  14
ENDBRANCH  12  13
ENDBRANCH   1  12
TORSDOF 16
ENDMDL
