MODEL 1
REMARK VINA RESULT:    -5.337      0.000      0.000
REMARK INTER + INTRA:          -5.806
REMARK INTER:                  -5.806
REMARK INTRA:                   0.000
REMARK UNBOUND:                 0.000
REMARK SMILES Cc1cc(O)c2c(c1)C(=O)c1cc(O)cc(O)c1C2=O
REMARK SMILES IDX 1 1 2 2 8 3 7 4 6 5 4 6 3 7 19 8 20 9 18 10 11 11 9 12 10 13
REMARK SMILES IDX 12 14 13 15 15 16 16 17 5 18 17 20 14 22
REMARK H PARENT 5 19 17 21 14 23
REMARK Flexibility Score: inf
ROOT
ATOM      1  C   UNL     1       1.126  -6.202 -28.001  1.00  0.00     0.044 C 
ATOM      2  C   UNL     1       2.361  -5.891 -28.795  1.00  0.00    -0.047 A 
ATOM      3  C   UNL     1       3.614  -5.890 -28.177  1.00  0.00     0.016 A 
ATOM      4  C   UNL     1       4.782  -5.647 -28.921  1.00  0.00     0.038 A 
ATOM      5  C   UNL     1       4.697  -5.429 -30.316  1.00  0.00     0.076 A 
ATOM      6  C   UNL     1       3.414  -5.372 -30.926  1.00  0.00     0.127 A 
ATOM      7  C   UNL     1       2.271  -5.642 -30.169  1.00  0.00     0.050 A 
ATOM      8  C   UNL     1       5.963  -5.332 -31.096  1.00  0.00     0.201 C 
ATOM      9  O   UNL     1       5.961  -5.553 -32.335  1.00  0.00    -0.288 OA
ATOM     10  C   UNL     1       7.253  -5.089 -30.398  1.00  0.00     0.076 A 
ATOM     11  C   UNL     1       7.317  -5.247 -28.998  1.00  0.00     0.041 A 
ATOM     12  C   UNL     1       6.099  -5.613 -28.241  1.00  0.00     0.194 C 
ATOM     13  O   UNL     1       6.180  -5.880 -27.009  1.00  0.00    -0.289 OA
ATOM     14  C   UNL     1       8.538  -5.058 -28.328  1.00  0.00     0.059 A 
ATOM     15  C   UNL     1       9.691  -4.707 -29.039  1.00  0.00     0.120 A 
ATOM     16  C   UNL     1       9.628  -4.542 -30.422  1.00  0.00     0.093 A 
ATOM     17  C   UNL     1       8.422  -4.727 -31.109  1.00  0.00     0.131 A 
ENDROOT
BRANCH   6  18
ATOM     18  O   UNL     1       3.223  -5.019 -32.264  1.00  0.00    -0.507 OA
ATOM     19  H   UNL     1       2.958  -4.092 -32.568  1.00  0.00     0.293 HD
ENDBRANCH   6  18
BRANCH  17  20
ATOM     20  O   UNL     1       8.386  -4.543 -32.491  1.00  0.00    -0.507 OA
ATOM     21  H   UNL     1       8.663  -5.275 -33.134  1.00  0.00     0.293 HD
ENDBRANCH  17  20
BRANCH  15  22
ATOM     22  O   UNL     1      10.902  -4.518 -28.379  1.00  0.00    -0.508 OA
ATOM     23  H   UNL     1      11.416  -3.647 -28.451  1.00  0.00     0.293 HD
ENDBRANCH  15  22
TORSDOF 3
ENDMDL
MODEL 2
REMARK VINA RESULT:    -5.296      2.776      7.175
REMARK INTER + INTRA:          -5.760
REMARK INTER:                  -5.760
REMARK INTRA:                   0.000
REMARK UNBOUND:                 0.000
REMARK SMILES Cc1cc(O)c2c(c1)C(=O)c1cc(O)cc(O)c1C2=O
REMARK SMILES IDX 1 1 2 2 8 3 7 4 6 5 4 6 3 7 19 8 20 9 18 10 11 11 9 12 10 13
REMARK SMILES IDX 12 14 13 15 15 16 16 17 5 18 17 20 14 22
REMARK H PARENT 5 19 17 21 14 23
REMARK Flexibility Score: inf
ROOT
ATOM      1  C   UNL     1      12.749  -3.035 -32.105  1.00  0.00     0.044 C 
ATOM      2  C   UNL     1      12.120  -3.719 -30.927  1.00  0.00    -0.047 A 
ATOM      3  C   UNL     1      10.775  -4.094 -30.965  1.00  0.00     0.016 A 
ATOM      4  C   UNL     1      10.188  -4.777 -29.887  1.00  0.00     0.038 A 
ATOM      5  C   UNL     1      10.969  -5.118 -28.758  1.00  0.00     0.076 A 
ATOM      6  C   UNL     1      12.321  -4.680 -28.701  1.00  0.00     0.127 A 
ATOM      7  C   UNL     1      12.887  -4.025 -29.798  1.00  0.00     0.050 A 
ATOM      8  C   UNL     1      10.357  -5.977 -27.705  1.00  0.00     0.201 C 
ATOM      9  O   UNL     1      11.090  -6.637 -26.922  1.00  0.00    -0.288 OA
ATOM     10  C   UNL     1       8.882  -6.152 -27.648  1.00  0.00     0.076 A 
ATOM     11  C   UNL     1       8.100  -5.751 -28.753  1.00  0.00     0.041 A 
ATOM     12  C   UNL     1       8.750  -5.134 -29.931  1.00  0.00     0.194 C 
ATOM     13  O   UNL     1       8.072  -4.894 -30.969  1.00  0.00    -0.289 OA
ATOM     14  C   UNL     1       6.708  -5.946 -28.730  1.00  0.00     0.059 A 
ATOM     15  C   UNL     1       6.090  -6.525 -27.617  1.00  0.00     0.120 A 
ATOM     16  C   UNL     1       6.859  -6.912 -26.521  1.00  0.00     0.093 A 
ATOM     17  C   UNL     1       8.248  -6.730 -26.524  1.00  0.00     0.131 A 
ENDROOT
BRANCH   6  18
ATOM     18  O   UNL     1      13.125  -4.840 -27.570  1.00  0.00    -0.507 OA
ATOM     19  H   UNL     1      12.763  -4.925 -26.630  1.00  0.00     0.293 HD
ENDBRANCH   6  18
BRANCH  17  20
ATOM     20  O   UNL     1       8.992  -7.116 -25.408  1.00  0.00    -0.507 OA
ATOM     21  H   UNL     1       9.862  -6.658 -25.163  1.00  0.00     0.293 HD
ENDBRANCH  17  20
BRANCH  15  22
ATOM     22  O   UNL     1       4.711  -6.716 -27.590  1.00  0.00    -0.508 OA
ATOM     23  H   UNL     1       4.281  -7.397 -26.974  1.00  0.00     0.293 HD
ENDBRANCH  15  22
TORSDOF 3
ENDMDL
MODEL 3
REMARK VINA RESULT:    -5.281      1.431      6.661
REMARK INTER + INTRA:          -5.744
REMARK INTER:                  -5.744
REMARK INTRA:                   0.000
REMARK UNBOUND:                 0.000
REMARK SMILES Cc1cc(O)c2c(c1)C(=O)c1cc(O)cc(O)c1C2=O
REMARK SMILES IDX 1 1 2 2 8 3 7 4 6 5 4 6 3 7 19 8 20 9 18 10 11 11 9 12 10 13
REMARK SMILES IDX 12 14 13 15 15 16 16 17 5 18 17 20 14 22
REMARK H PARENT 5 19 17 21 14 23
REMARK Flexibility Score: inf
ROOT
ATOM      1  C   UNL     1      12.696  -4.148 -31.750  1.00  0.00     0.044 C 
ATOM      2  C   UNL     1      11.570  -4.411 -30.793  1.00  0.00    -0.047 A 
ATOM      3  C   UNL     1      10.264  -4.560 -31.266  1.00  0.00     0.016 A 
ATOM      4  C   UNL     1       9.210  -4.854 -30.384  1.00  0.00     0.038 A 
ATOM      5  C   UNL     1       9.472  -5.030 -29.005  1.00  0.00     0.076 A 
ATOM      6  C   UNL     1      10.793  -4.817 -28.524  1.00  0.00     0.127 A 
ATOM      7  C   UNL     1      11.827  -4.551 -29.426  1.00  0.00     0.050 A 
ATOM      8  C   UNL     1       8.361  -5.494 -28.126  1.00  0.00     0.201 C 
ATOM      9  O   UNL     1       8.616  -6.052 -27.026  1.00  0.00    -0.288 OA
ATOM     10  C   UNL     1       6.953  -5.408 -28.593  1.00  0.00     0.076 A 
ATOM     11  C   UNL     1       6.697  -5.169 -29.960  1.00  0.00     0.041 A 
ATOM     12  C   UNL     1       7.825  -4.972 -30.899  1.00  0.00     0.194 C 
ATOM     13  O   UNL     1       7.603  -4.887 -32.139  1.00  0.00    -0.289 OA
ATOM     14  C   UNL     1       5.371  -5.122 -30.424  1.00  0.00     0.059 A 
ATOM     15  C   UNL     1       4.302  -5.303 -29.540  1.00  0.00     0.120 A 
ATOM     16  C   UNL     1       4.553  -5.530 -28.188  1.00  0.00     0.093 A 
ATOM     17  C   UNL     1       5.866  -5.582 -27.705  1.00  0.00     0.131 A 
ENDROOT
BRANCH   6  18
ATOM     18  O   UNL     1      11.119  -4.824 -27.166  1.00  0.00    -0.507 OA
ATOM     19  H   UNL     1      11.524  -5.618 -26.689  1.00  0.00     0.293 HD
ENDBRANCH   6  18
BRANCH  17  20
ATOM     20  O   UNL     1       6.087  -5.798 -26.344  1.00  0.00    -0.507 OA
ATOM     21  H   UNL     1       6.887  -5.402 -25.864  1.00  0.00     0.293 HD
ENDBRANCH  17  20
BRANCH  15  22
ATOM     22  O   UNL     1       2.987  -5.256 -29.997  1.00  0.00    -0.508 OA
ATOM     23  H   UNL     1       2.294  -5.928 -29.689  1.00  0.00     0.293 HD
ENDBRANCH  15  22
TORSDOF 3
ENDMDL
MODEL 4
REMARK VINA RESULT:    -5.017      1.411      6.325
REMARK INTER + INTRA:          -5.457
REMARK INTER:                  -5.457
REMARK INTRA:                   0.000
REMARK UNBOUND:                 0.000
REMARK SMILES Cc1cc(O)c2c(c1)C(=O)c1cc(O)cc(O)c1C2=O
REMARK SMILES IDX 1 1 2 2 8 3 7 4 6 5 4 6 3 7 19 8 20 9 18 10 11 11 9 12 10 13
REMARK SMILES IDX 12 14 13 15 15 16 16 17 5 18 17 20 14 22
REMARK H PARENT 5 19 17 21 14 23
REMARK Flexibility Score: inf
ROOT
ATOM      1  C   UNL     1      10.539  -4.705 -31.860  1.00  0.00     0.044 C 
ATOM      2  C   UNL     1       9.253  -4.777 -31.090  1.00  0.00    -0.047 A 
ATOM      3  C   UNL     1       8.070  -5.158 -31.728  1.00  0.00     0.016 A 
ATOM      4  C   UNL     1       6.870  -5.275 -31.007  1.00  0.00     0.038 A 
ATOM      5  C   UNL     1       6.857  -5.032 -29.613  1.00  0.00     0.076 A 
ATOM      6  C   UNL     1       8.051  -4.585 -28.984  1.00  0.00     0.127 A 
ATOM      7  C   UNL     1       9.237  -4.503 -29.719  1.00  0.00     0.050 A 
ATOM      8  C   UNL     1       5.606  -5.316 -28.856  1.00  0.00     0.201 C 
ATOM      9  O   UNL     1       5.651  -5.518 -27.614  1.00  0.00    -0.288 OA
ATOM     10  C   UNL     1       4.317  -5.479 -29.577  1.00  0.00     0.076 A 
ATOM     11  C   UNL     1       4.331  -5.659 -30.977  1.00  0.00     0.041 A 
ATOM     12  C   UNL     1       5.617  -5.645 -31.709  1.00  0.00     0.194 C 
ATOM     13  O   UNL     1       5.644  -5.933 -32.938  1.00  0.00    -0.289 OA
ATOM     14  C   UNL     1       3.123  -5.853 -31.668  1.00  0.00     0.059 A 
ATOM     15  C   UNL     1       1.905  -5.862 -30.981  1.00  0.00     0.120 A 
ATOM     16  C   UNL     1       1.887  -5.676 -29.599  1.00  0.00     0.093 A 
ATOM     17  C   UNL     1       3.080  -5.482 -28.891  1.00  0.00     0.131 A 
ENDROOT
BRANCH   6  18
ATOM     18  O   UNL     1       8.101  -4.181 -27.648  1.00  0.00    -0.507 OA
ATOM     19  H   UNL     1       8.394  -3.261 -27.349  1.00  0.00     0.293 HD
ENDBRANCH   6  18
BRANCH  17  20
ATOM     20  O   UNL     1       3.031  -5.286 -27.510  1.00  0.00    -0.507 OA
ATOM     21  H   UNL     1       3.116  -4.364 -27.100  1.00  0.00     0.293 HD
ENDBRANCH  17  20
BRANCH  15  22
ATOM     22  O   UNL     1       0.705  -6.052 -31.663  1.00  0.00    -0.508 OA
ATOM     23  H   UNL     1       0.580  -6.820 -32.311  1.00  0.00     0.293 HD
ENDBRANCH  15  22
TORSDOF 3
ENDMDL
MODEL 5
REMARK VINA RESULT:    -4.778      2.655      3.987
REMARK INTER + INTRA:          -5.197
REMARK INTER:                  -5.197
REMARK INTRA:                   0.000
REMARK UNBOUND:                 0.000
REMARK SMILES Cc1cc(O)c2c(c1)C(=O)c1cc(O)cc(O)c1C2=O
REMARK SMILES IDX 1 1 2 2 8 3 7 4 6 5 4 6 3 7 19 8 20 9 18 10 11 11 9 12 10 13
REMARK SMILES IDX 12 14 13 15 15 16 16 17 5 18 17 20 14 22
REMARK H PARENT 5 19 17 21 14 23
REMARK Flexibility Score: inf
ROOT
ATOM      1  C   UNL     1       7.175  -7.121 -25.275  1.00  0.00     0.044 C 
ATOM      2  C   UNL     1       7.434  -6.614 -26.664  1.00  0.00    -0.047 A 
ATOM      3  C   UNL     1       8.684  -6.091 -27.001  1.00  0.00     0.016 A 
ATOM      4  C   UNL     1       8.952  -5.657 -28.311  1.00  0.00     0.038 A 
ATOM      5  C   UNL     1       7.958  -5.775 -29.311  1.00  0.00     0.076 A 
ATOM      6  C   UNL     1       6.669  -6.252 -28.945  1.00  0.00     0.127 A 
ATOM      7  C   UNL     1       6.438  -6.701 -27.642  1.00  0.00     0.050 A 
ATOM      8  C   UNL     1       8.326  -5.452 -30.718  1.00  0.00     0.201 C 
ATOM      9  O   UNL     1       7.649  -5.919 -31.672  1.00  0.00    -0.288 OA
ATOM     10  C   UNL     1       9.561  -4.677 -31.008  1.00  0.00     0.076 A 
ATOM     11  C   UNL     1      10.521  -4.509 -29.988  1.00  0.00     0.041 A 
ATOM     12  C   UNL     1      10.273  -5.071 -28.641  1.00  0.00     0.194 C 
ATOM     13  O   UNL     1      11.183  -5.033 -27.767  1.00  0.00    -0.289 OA
ATOM     14  C   UNL     1      11.711  -3.811 -30.258  1.00  0.00     0.059 A 
ATOM     15  C   UNL     1      11.947  -3.275 -31.528  1.00  0.00     0.120 A 
ATOM     16  C   UNL     1      10.996  -3.432 -32.535  1.00  0.00     0.093 A 
ATOM     17  C   UNL     1       9.805  -4.126 -32.288  1.00  0.00     0.131 A 
ENDROOT
BRANCH   6  18
ATOM     18  O   UNL     1       5.585  -6.266 -29.825  1.00  0.00    -0.507 OA
ATOM     19  H   UNL     1       5.668  -6.116 -30.821  1.00  0.00     0.293 HD
ENDBRANCH   6  18
BRANCH  17  20
ATOM     20  O   UNL     1       8.864  -4.257 -33.311  1.00  0.00    -0.507 OA
ATOM     21  H   UNL     1       8.822  -3.602 -34.083  1.00  0.00     0.293 HD
ENDBRANCH  17  20
BRANCH  15  22
ATOM     22  O   UNL     1      13.125  -2.582 -31.798  1.00  0.00    -0.508 OA
ATOM     23  H   UNL     1      13.585  -2.021 -31.091  1.00  0.00     0.293 HD
ENDBRANCH  15  22
TORSDOF 3
ENDMDL
MODEL 6
REMARK VINA RESULT:    -4.769      3.549      5.907
REMARK INTER + INTRA:          -5.187
REMARK INTER:                  -5.187
REMARK INTRA:                   0.000
REMARK UNBOUND:                 0.000
REMARK SMILES Cc1cc(O)c2c(c1)C(=O)c1cc(O)cc(O)c1C2=O
REMARK SMILES IDX 1 1 2 2 8 3 7 4 6 5 4 6 3 7 19 8 20 9 18 10 11 11 9 12 10 13
REMARK SMILES IDX 12 14 13 15 15 16 16 17 5 18 17 20 14 22
REMARK H PARENT 5 19 17 21 14 23
REMARK Flexibility Score: inf
ROOT
ATOM      1  C   UNL     1      11.286  -3.339 -33.810  1.00  0.00     0.044 C 
ATOM      2  C   UNL     1      10.541  -3.968 -32.668  1.00  0.00    -0.047 A 
ATOM      3  C   UNL     1      11.181  -4.192 -31.448  1.00  0.00     0.016 A 
ATOM      4  C   UNL     1      10.481  -4.736 -30.357  1.00  0.00     0.038 A 
ATOM      5  C   UNL     1       9.104  -5.037 -30.483  1.00  0.00     0.076 A 
ATOM      6  C   UNL     1       8.476  -4.863 -31.746  1.00  0.00     0.127 A 
ATOM      7  C   UNL     1       9.188  -4.296 -32.806  1.00  0.00     0.050 A 
ATOM      8  C   UNL     1       8.358  -5.465 -29.266  1.00  0.00     0.201 C 
ATOM      9  O   UNL     1       7.106  -5.343 -29.216  1.00  0.00    -0.288 OA
ATOM     10  C   UNL     1       9.097  -5.925 -28.061  1.00  0.00     0.076 A 
ATOM     11  C   UNL     1      10.483  -5.678 -27.969  1.00  0.00     0.041 A 
ATOM     12  C   UNL     1      11.187  -5.001 -29.081  1.00  0.00     0.194 C 
ATOM     13  O   UNL     1      12.396  -4.664 -28.948  1.00  0.00    -0.289 OA
ATOM     14  C   UNL     1      11.188  -6.073 -26.819  1.00  0.00     0.059 A 
ATOM     15  C   UNL     1      10.528  -6.717 -25.767  1.00  0.00     0.120 A 
ATOM     16  C   UNL     1       9.160  -6.971 -25.860  1.00  0.00     0.093 A 
ATOM     17  C   UNL     1       8.438  -6.584 -26.996  1.00  0.00     0.131 A 
ENDROOT
BRANCH   6  18
ATOM     18  O   UNL     1       7.164  -5.268 -32.006  1.00  0.00    -0.507 OA
ATOM     19  H   UNL     1       6.780  -5.369 -32.935  1.00  0.00     0.293 HD
ENDBRANCH   6  18
BRANCH  17  20
ATOM     20  O   UNL     1       7.073  -6.861 -27.067  1.00  0.00    -0.507 OA
ATOM     21  H   UNL     1       6.681  -7.714 -26.684  1.00  0.00     0.293 HD
ENDBRANCH  17  20
BRANCH  15  22
ATOM     22  O   UNL     1      11.224  -7.112 -24.627  1.00  0.00    -0.508 OA
ATOM     23  H   UNL     1      11.077  -6.660 -23.733  1.00  0.00     0.293 HD
ENDBRANCH  15  22
TORSDOF 3
ENDMDL
MODEL 7
REMARK VINA RESULT:    -4.766      2.102      4.662
REMARK INTER + INTRA:          -5.183
REMARK INTER:                  -5.183
REMARK INTRA:                   0.000
REMARK UNBOUND:                 0.000
REMARK SMILES Cc1cc(O)c2c(c1)C(=O)c1cc(O)cc(O)c1C2=O
REMARK SMILES IDX 1 1 2 2 8 3 7 4 6 5 4 6 3 7 19 8 20 9 18 10 11 11 9 12 10 13
REMARK SMILES IDX 12 14 13 15 15 16 16 17 5 18 17 20 14 22
REMARK H PARENT 5 19 17 21 14 23
REMARK Flexibility Score: inf
ROOT
ATOM      1  C   UNL     1       4.490  -7.125 -28.002  1.00  0.00     0.044 C 
ATOM      2  C   UNL     1       5.902  -6.645 -28.176  1.00  0.00    -0.047 A 
ATOM      3  C   UNL     1       6.307  -6.069 -29.382  1.00  0.00     0.016 A 
ATOM      4  C   UNL     1       7.613  -5.574 -29.540  1.00  0.00     0.038 A 
ATOM      5  C   UNL     1       8.524  -5.631 -28.459  1.00  0.00     0.076 A 
ATOM      6  C   UNL     1       8.123  -6.273 -27.256  1.00  0.00     0.127 A 
ATOM      7  C   UNL     1       6.811  -6.734 -27.117  1.00  0.00     0.050 A 
ATOM      8  C   UNL     1       9.845  -4.957 -28.610  1.00  0.00     0.201 C 
ATOM      9  O   UNL     1      10.502  -4.619 -27.591  1.00  0.00    -0.288 OA
ATOM     10  C   UNL     1      10.339  -4.575 -29.959  1.00  0.00     0.076 A 
ATOM     11  C   UNL     1       9.440  -4.581 -31.046  1.00  0.00     0.041 A 
ATOM     12  C   UNL     1       8.035  -5.000 -30.840  1.00  0.00     0.194 C 
ATOM     13  O   UNL     1       7.199  -4.883 -31.779  1.00  0.00    -0.289 OA
ATOM     14  C   UNL     1       9.883  -4.186 -32.320  1.00  0.00     0.059 A 
ATOM     15  C   UNL     1      11.210  -3.794 -32.521  1.00  0.00     0.120 A 
ATOM     16  C   UNL     1      12.102  -3.796 -31.450  1.00  0.00     0.093 A 
ATOM     17  C   UNL     1      11.681  -4.185 -30.172  1.00  0.00     0.131 A 
ENDROOT
BRANCH   6  18
ATOM     18  O   UNL     1       8.996  -6.507 -26.191  1.00  0.00    -0.507 OA
ATOM     19  H   UNL     1       9.536  -7.354 -26.083  1.00  0.00     0.293 HD
ENDBRANCH   6  18
BRANCH  17  20
ATOM     20  O   UNL     1      12.599  -4.189 -29.121  1.00  0.00    -0.507 OA
ATOM     21  H   UNL     1      12.731  -5.003 -28.532  1.00  0.00     0.293 HD
ENDBRANCH  17  20
BRANCH  15  22
ATOM     22  O   UNL     1      11.652  -3.403 -33.783  1.00  0.00    -0.508 OA
ATOM     23  H   UNL     1      12.511  -2.879 -33.905  1.00  0.00     0.293 HD
ENDBRANCH  15  22
TORSDOF 3
ENDMDL
MODEL 8
REMARK VINA RESULT:    -4.760      1.383      3.159
REMARK INTER + INTRA:          -5.177
REMARK INTER:                  -5.177
REMARK INTRA:                   0.000
REMARK UNBOUND:                 0.000
REMARK SMILES Cc1cc(O)c2c(c1)C(=O)c1cc(O)cc(O)c1C2=O
REMARK SMILES IDX 1 1 2 2 8 3 7 4 6 5 4 6 3 7 19 8 20 9 18 10 11 11 9 12 10 13
REMARK SMILES IDX 12 14 13 15 15 16 16 17 5 18 17 20 14 22
REMARK H PARENT 5 19 17 21 14 23
REMARK Flexibility Score: inf
ROOT
ATOM      1  C   UNL     1       0.721  -6.399 -31.126  1.00  0.00     0.044 C 
ATOM      2  C   UNL     1       2.061  -6.028 -30.562  1.00  0.00    -0.047 A 
ATOM      3  C   UNL     1       3.180  -5.956 -31.395  1.00  0.00     0.016 A 
ATOM      4  C   UNL     1       4.430  -5.564 -30.887  1.00  0.00     0.038 A 
ATOM      5  C   UNL     1       4.558  -5.210 -29.523  1.00  0.00     0.076 A 
ATOM      6  C   UNL     1       3.428  -5.344 -28.670  1.00  0.00     0.127 A 
ATOM      7  C   UNL     1       2.191  -5.712 -29.206  1.00  0.00     0.050 A 
ATOM      8  C   UNL     1       5.857  -4.650 -29.055  1.00  0.00     0.201 C 
ATOM      9  O   UNL     1       5.905  -3.953 -28.007  1.00  0.00    -0.288 OA
ATOM     10  C   UNL     1       7.082  -4.811 -29.882  1.00  0.00     0.076 A 
ATOM     11  C   UNL     1       6.953  -5.226 -31.225  1.00  0.00     0.041 A 
ATOM     12  C   UNL     1       5.614  -5.528 -31.779  1.00  0.00     0.194 C 
ATOM     13  O   UNL     1       5.484  -5.774 -33.010  1.00  0.00    -0.289 OA
ATOM     14  C   UNL     1       8.099  -5.346 -32.031  1.00  0.00     0.059 A 
ATOM     15  C   UNL     1       9.366  -5.066 -31.510  1.00  0.00     0.120 A 
ATOM     16  C   UNL     1       9.496  -4.665 -30.181  1.00  0.00     0.093 A 
ATOM     17  C   UNL     1       8.368  -4.537 -29.362  1.00  0.00     0.131 A 
ENDROOT
BRANCH   6  18
ATOM     18  O   UNL     1       3.494  -5.160 -27.287  1.00  0.00    -0.507 OA
ATOM     19  H   UNL     1       4.127  -5.664 -26.682  1.00  0.00     0.293 HD
ENDBRANCH   6  18
BRANCH  17  20
ATOM     20  O   UNL     1       8.529  -4.146 -28.032  1.00  0.00    -0.507 OA
ATOM     21  H   UNL     1       8.294  -4.763 -27.263  1.00  0.00     0.293 HD
ENDBRANCH  17  20
BRANCH  15  22
ATOM     22  O   UNL     1      10.503  -5.186 -32.306  1.00  0.00    -0.508 OA
ATOM     23  H   UNL     1      10.721  -4.508 -33.027  1.00  0.00     0.293 HD
ENDBRANCH  15  22
TORSDOF 3
ENDMDL
MODEL 9
REMARK VINA RESULT:    -4.708      1.402      5.512
REMARK INTER + INTRA:          -5.120
REMARK INTER:                  -5.120
REMARK INTRA:                   0.000
REMARK UNBOUND:                 0.000
REMARK SMILES Cc1cc(O)c2c(c1)C(=O)c1cc(O)cc(O)c1C2=O
REMARK SMILES IDX 1 1 2 2 8 3 7 4 6 5 4 6 3 7 19 8 20 9 18 10 11 11 9 12 10 13
REMARK SMILES IDX 12 14 13 15 15 16 16 17 5 18 17 20 14 22
REMARK H PARENT 5 19 17 21 14 23
REMARK Flexibility Score: inf
ROOT
ATOM      1  C   UNL     1      10.854  -4.501 -29.132  1.00  0.00     0.044 C 
ATOM      2  C   UNL     1       9.486  -4.829 -29.656  1.00  0.00    -0.047 A 
ATOM      3  C   UNL     1       8.368  -4.715 -28.827  1.00  0.00     0.016 A 
ATOM      4  C   UNL     1       7.078  -4.974 -29.320  1.00  0.00     0.038 A 
ATOM      5  C   UNL     1       6.900  -5.327 -30.678  1.00  0.00     0.076 A 
ATOM      6  C   UNL     1       8.048  -5.500 -31.499  1.00  0.00     0.127 A 
ATOM      7  C   UNL     1       9.317  -5.211 -30.990  1.00  0.00     0.050 A 
ATOM      8  C   UNL     1       5.510  -5.441 -31.205  1.00  0.00     0.201 C 
ATOM      9  O   UNL     1       5.292  -5.338 -32.440  1.00  0.00    -0.288 OA
ATOM     10  C   UNL     1       4.363  -5.557 -30.266  1.00  0.00     0.076 A 
ATOM     11  C   UNL     1       4.561  -5.264 -28.900  1.00  0.00     0.041 A 
ATOM     12  C   UNL     1       5.907  -4.883 -28.415  1.00  0.00     0.194 C 
ATOM     13  O   UNL     1       6.060  -4.497 -27.223  1.00  0.00    -0.289 OA
ATOM     14  C   UNL     1       3.478  -5.333 -28.007  1.00  0.00     0.059 A 
ATOM     15  C   UNL     1       2.206  -5.697 -28.461  1.00  0.00     0.120 A 
ATOM     16  C   UNL     1       2.010  -5.996 -29.808  1.00  0.00     0.093 A 
ATOM     17  C   UNL     1       3.075  -5.932 -30.715  1.00  0.00     0.131 A 
ENDROOT
BRANCH   6  18
ATOM     18  O   UNL     1       7.982  -5.987 -32.806  1.00  0.00    -0.507 OA
ATOM     19  H   UNL     1       7.126  -6.048 -33.341  1.00  0.00     0.293 HD
ENDBRANCH   6  18
BRANCH  17  20
ATOM     20  O   UNL     1       2.853  -6.248 -32.056  1.00  0.00    -0.507 OA
ATOM     21  H   UNL     1       3.025  -5.579 -32.797  1.00  0.00     0.293 HD
ENDBRANCH  17  20
BRANCH  15  22
ATOM     22  O   UNL     1       1.131  -5.768 -27.578  1.00  0.00    -0.508 OA
ATOM     23  H   UNL     1       0.661  -4.934 -27.246  1.00  0.00     0.293 HD
ENDBRANCH  15  22
TORSDOF 3
ENDMDL
