MODEL 1
REMARK VINA RESULT:    -3.544      0.000      0.000
REMARK INTER + INTRA:          -6.614
REMARK INTER:                  -5.617
REMARK INTRA:                  -0.997
REMARK UNBOUND:                -0.997
REMARK SMILES CCCCCCCCCCCC(=O)[O-]
REMARK SMILES IDX 7 1 8 2 9 3 10 4 11 5 12 6 13 7 14 8 6 9 5 10 4 11 3 12 2 13
REMARK SMILES IDX 1 14
REMARK H PARENT
REMARK Flexibility Score: inf
ROOT
ATOM      1  C   UNL     1      11.111  32.261  -9.856  1.00  0.00     0.000 C 
ENDROOT
BRANCH   1   2
ATOM      2  C   UNL     1      12.253  31.671 -10.695  1.00  0.00     0.000 C 
BRANCH   2   3
ATOM      3  C   UNL     1      13.604  32.274 -10.283  1.00  0.00     0.000 C 
BRANCH   3   4
ATOM      4  C   UNL     1      14.118  31.717  -8.945  1.00  0.00     0.006 C 
BRANCH   4   5
ATOM      5  C   UNL     1      15.228  32.581  -8.332  1.00  0.00     0.053 C 
BRANCH   5   6
ATOM      6  C   UNL     1      16.310  32.829  -9.336  1.00  0.00     0.041 C 
ATOM      7  O   UNL     1      16.664  34.006  -9.609  1.00  0.00    -0.550 OA
ATOM      8  O   UNL     1      16.894  31.762 -10.006  1.00  0.00    -0.550 OA
ENDBRANCH   5   6
ENDBRANCH   4   5
ENDBRANCH   3   4
ENDBRANCH   2   3
ENDBRANCH   1   2
BRANCH   1   9
ATOM      9  C   UNL     1       9.822  31.428  -9.941  1.00  0.00     0.000 C 
BRANCH   9  10
ATOM     10  C   UNL     1       9.963  30.214 -10.876  1.00  0.00    -0.000 C 
BRANCH  10  11
ATOM     11  C   UNL     1       9.444  28.916 -10.238  1.00  0.00    -0.000 C 
BRANCH  11  12
ATOM     12  C   UNL     1       9.510  28.948  -8.700  1.00  0.00    -0.000 C 
BRANCH  12  13
ATOM     13  C   UNL     1      10.702  28.152  -8.145  1.00  0.00    -0.003 C 
ATOM     14  C   UNL     1      11.951  29.014  -7.961  1.00  0.00     0.004 C 
ENDBRANCH  12  13
ENDBRANCH  11  12
ENDBRANCH  10  11
ENDBRANCH   9  10
ENDBRANCH   1   9
TORSDOF 10
ENDMDL
MODEL 2
REMARK VINA RESULT:    -3.490      2.446      5.378
REMARK INTER + INTRA:          -6.527
REMARK INTER:                  -5.458
REMARK INTRA:                  -1.070
REMARK UNBOUND:                -0.997
REMARK SMILES CCCCCCCCCCCC(=O)[O-]
REMARK SMILES IDX 7 1 8 2 9 3 10 4 11 5 12 6 13 7 14 8 6 9 5 10 4 11 3 12 2 13
REMARK SMILES IDX 1 14
REMARK H PARENT
REMARK Flexibility Score: inf
ROOT
ATOM      1  C   UNL     1      10.443  31.507 -10.663  1.00  0.00     0.000 C 
ENDROOT
BRANCH   1   2
ATOM      2  C   UNL     1      10.009  31.952  -9.259  1.00  0.00     0.000 C 
BRANCH   2   3
ATOM      3  C   UNL     1       9.052  30.927  -8.630  1.00  0.00     0.000 C 
BRANCH   3   4
ATOM      4  C   UNL     1       9.420  29.478  -8.987  1.00  0.00     0.006 C 
BRANCH   4   5
ATOM      5  C   UNL     1      10.302  28.813  -7.922  1.00  0.00     0.053 C 
BRANCH   5   6
ATOM      6  C   UNL     1      11.734  28.814  -8.356  1.00  0.00     0.041 C 
ATOM      7  O   UNL     1      12.044  28.444  -9.519  1.00  0.00    -0.550 OA
ATOM      8  O   UNL     1      12.732  29.176  -7.460  1.00  0.00    -0.550 OA
ENDBRANCH   5   6
ENDBRANCH   4   5
ENDBRANCH   3   4
ENDBRANCH   2   3
ENDBRANCH   1   2
BRANCH   1   9
ATOM      9  C   UNL     1      11.942  31.732 -10.918  1.00  0.00     0.000 C 
BRANCH   9  10
ATOM     10  C   UNL     1      12.681  32.263  -9.678  1.00  0.00    -0.000 C 
BRANCH  10  11
ATOM     11  C   UNL     1      14.083  31.654  -9.521  1.00  0.00    -0.000 C 
BRANCH  11  12
ATOM     12  C   UNL     1      14.847  32.236  -8.319  1.00  0.00    -0.000 C 
BRANCH  12  13
ATOM     13  C   UNL     1      16.221  32.800  -8.713  1.00  0.00    -0.003 C 
ATOM     14  C   UNL     1      16.130  33.868  -9.803  1.00  0.00     0.004 C 
ENDBRANCH  12  13
ENDBRANCH  11  12
ENDBRANCH  10  11
ENDBRANCH   9  10
ENDBRANCH   1   9
TORSDOF 10
ENDMDL
MODEL 3
REMARK VINA RESULT:    -2.902      3.221      6.146
REMARK INTER + INTRA:          -5.595
REMARK INTER:                  -4.929
REMARK INTRA:                  -0.666
REMARK UNBOUND:                -0.997
REMARK SMILES CCCCCCCCCCCC(=O)[O-]
REMARK SMILES IDX 7 1 8 2 9 3 10 4 11 5 12 6 13 7 14 8 6 9 5 10 4 11 3 12 2 13
REMARK SMILES IDX 1 14
REMARK H PARENT
REMARK Flexibility Score: inf
ROOT
ATOM      1  C   UNL     1      12.415  29.435  -8.914  1.00  0.00     0.000 C 
ENDROOT
BRANCH   1   2
ATOM      2  C   UNL     1      11.328  28.363  -9.082  1.00  0.00     0.000 C 
BRANCH   2   3
ATOM      3  C   UNL     1      10.307  28.434  -7.937  1.00  0.00     0.000 C 
BRANCH   3   4
ATOM      4  C   UNL     1       8.889  28.767  -8.428  1.00  0.00     0.006 C 
BRANCH   4   5
ATOM      5  C   UNL     1       8.875  29.880  -9.483  1.00  0.00     0.053 C 
BRANCH   5   6
ATOM      6  C   UNL     1       8.960  31.222  -8.827  1.00  0.00     0.041 C 
ATOM      7  O   UNL     1       9.150  32.256  -9.521  1.00  0.00    -0.550 OA
ATOM      8  O   UNL     1       8.879  31.326  -7.445  1.00  0.00    -0.550 OA
ENDBRANCH   5   6
ENDBRANCH   4   5
ENDBRANCH   3   4
ENDBRANCH   2   3
ENDBRANCH   1   2
BRANCH   1   9
ATOM      9  C   UNL     1      12.461  30.420 -10.093  1.00  0.00     0.000 C 
BRANCH   9  10
ATOM     10  C   UNL     1      12.662  31.876  -9.640  1.00  0.00    -0.000 C 
BRANCH  10  11
ATOM     11  C   UNL     1      13.971  32.076  -8.861  1.00  0.00    -0.000 C 
BRANCH  11  12
ATOM     12  C   UNL     1      15.214  31.989  -9.764  1.00  0.00    -0.000 C 
BRANCH  12  13
ATOM     13  C   UNL     1      16.411  32.765  -9.195  1.00  0.00    -0.003 C 
ATOM     14  C   UNL     1      16.443  34.222  -9.658  1.00  0.00     0.004 C 
ENDBRANCH  12  13
ENDBRANCH  11  12
ENDBRANCH  10  11
ENDBRANCH   9  10
ENDBRANCH   1   9
TORSDOF 10
ENDMDL
MODEL 4
REMARK VINA RESULT:    -2.778     18.353     20.184
REMARK INTER + INTRA:          -5.399
REMARK INTER:                  -4.978
REMARK INTRA:                  -0.422
REMARK UNBOUND:                -0.997
REMARK SMILES CCCCCCCCCCCC(=O)[O-]
REMARK SMILES IDX 7 1 8 2 9 3 10 4 11 5 12 6 13 7 14 8 6 9 5 10 4 11 3 12 2 13
REMARK SMILES IDX 1 14
REMARK H PARENT
REMARK Flexibility Score: inf
ROOT
ATOM      1  C   UNL     1      28.318  21.677  -2.504  1.00  0.00     0.000 C 
ENDROOT
BRANCH   1   2
ATOM      2  C   UNL     1      27.148  22.578  -2.081  1.00  0.00     0.000 C 
BRANCH   2   3
ATOM      3  C   UNL     1      27.399  24.034  -2.503  1.00  0.00     0.000 C 
BRANCH   3   4
ATOM      4  C   UNL     1      28.874  24.445  -2.366  1.00  0.00     0.006 C 
BRANCH   4   5
ATOM      5  C   UNL     1      29.043  25.929  -2.014  1.00  0.00     0.053 C 
BRANCH   5   6
ATOM      6  C   UNL     1      29.113  26.109  -0.530  1.00  0.00     0.041 C 
ATOM      7  O   UNL     1      29.116  25.105   0.231  1.00  0.00    -0.550 OA
ATOM      8  O   UNL     1      29.124  27.385   0.016  1.00  0.00    -0.550 OA
ENDBRANCH   5   6
ENDBRANCH   4   5
ENDBRANCH   3   4
ENDBRANCH   2   3
ENDBRANCH   1   2
BRANCH   1   9
ATOM      9  C   UNL     1      27.902  20.207  -2.669  1.00  0.00     0.000 C 
BRANCH   9  10
ATOM     10  C   UNL     1      29.104  19.248  -2.670  1.00  0.00    -0.000 C 
BRANCH  10  11
ATOM     11  C   UNL     1      29.100  18.296  -1.463  1.00  0.00    -0.000 C 
BRANCH  11  12
ATOM     12  C   UNL     1      27.678  17.884  -1.043  1.00  0.00    -0.000 C 
BRANCH  12  13
ATOM     13  C   UNL     1      27.675  16.877   0.118  1.00  0.00    -0.003 C 
ATOM     14  C   UNL     1      26.600  17.183   1.161  1.00  0.00     0.004 C 
ENDBRANCH  12  13
ENDBRANCH  11  12
ENDBRANCH  10  11
ENDBRANCH   9  10
ENDBRANCH   1   9
TORSDOF 10
ENDMDL
MODEL 5
REMARK VINA RESULT:    -2.713     18.662     19.954
REMARK INTER + INTRA:          -5.295
REMARK INTER:                  -4.758
REMARK INTRA:                  -0.538
REMARK UNBOUND:                -0.997
REMARK SMILES CCCCCCCCCCCC(=O)[O-]
REMARK SMILES IDX 7 1 8 2 9 3 10 4 11 5 12 6 13 7 14 8 6 9 5 10 4 11 3 12 2 13
REMARK SMILES IDX 1 14
REMARK H PARENT
REMARK Flexibility Score: inf
ROOT
ATOM      1  C   UNL     1      27.572  23.210  -2.286  1.00  0.00     0.000 C 
ENDROOT
BRANCH   1   2
ATOM      2  C   UNL     1      28.795  23.703  -1.498  1.00  0.00     0.000 C 
BRANCH   2   3
ATOM      3  C   UNL     1      29.125  25.161  -1.854  1.00  0.00     0.000 C 
BRANCH   3   4
ATOM      4  C   UNL     1      28.716  26.148  -0.749  1.00  0.00     0.006 C 
BRANCH   4   5
ATOM      5  C   UNL     1      29.125  25.670   0.651  1.00  0.00     0.053 C 
BRANCH   5   6
ATOM      6  C   UNL     1      27.913  25.394   1.483  1.00  0.00     0.041 C 
ATOM      7  O   UNL     1      26.794  25.214   0.934  1.00  0.00    -0.550 OA
ATOM      8  O   UNL     1      28.008  25.383   2.869  1.00  0.00    -0.550 OA
ENDBRANCH   5   6
ENDBRANCH   4   5
ENDBRANCH   3   4
ENDBRANCH   2   3
ENDBRANCH   1   2
BRANCH   1   9
ATOM      9  C   UNL     1      27.949  22.613  -3.650  1.00  0.00     0.000 C 
BRANCH   9  10
ATOM     10  C   UNL     1      28.943  21.445  -3.532  1.00  0.00    -0.000 C 
BRANCH  10  11
ATOM     11  C   UNL     1      28.252  20.074  -3.597  1.00  0.00    -0.000 C 
BRANCH  11  12
ATOM     12  C   UNL     1      28.930  19.030  -2.693  1.00  0.00    -0.000 C 
BRANCH  12  13
ATOM     13  C   UNL     1      28.045  18.613  -1.507  1.00  0.00    -0.003 C 
ATOM     14  C   UNL     1      28.397  17.227  -0.968  1.00  0.00     0.004 C 
ENDBRANCH  12  13
ENDBRANCH  11  12
ENDBRANCH  10  11
ENDBRANCH   9  10
ENDBRANCH   1   9
TORSDOF 10
ENDMDL
MODEL 6
REMARK VINA RESULT:    -2.708     19.552     21.498
REMARK INTER + INTRA:          -5.289
REMARK INTER:                  -4.978
REMARK INTRA:                  -0.311
REMARK UNBOUND:                -0.997
REMARK SMILES CCCCCCCCCCCC(=O)[O-]
REMARK SMILES IDX 7 1 8 2 9 3 10 4 11 5 12 6 13 7 14 8 6 9 5 10 4 11 3 12 2 13
REMARK SMILES IDX 1 14
REMARK H PARENT
REMARK Flexibility Score: inf
ROOT
ATOM      1  C   UNL     1      29.010  20.859  -2.435  1.00  0.00     0.000 C 
ENDROOT
BRANCH   1   2
ATOM      2  C   UNL     1      28.034  19.872  -3.092  1.00  0.00     0.000 C 
BRANCH   2   3
ATOM      3  C   UNL     1      28.514  18.424  -2.911  1.00  0.00     0.000 C 
BRANCH   3   4
ATOM      4  C   UNL     1      28.768  18.064  -1.438  1.00  0.00     0.006 C 
BRANCH   4   5
ATOM      5  C   UNL     1      27.869  16.921  -0.946  1.00  0.00     0.053 C 
BRANCH   5   6
ATOM      6  C   UNL     1      27.780  16.934   0.548  1.00  0.00     0.041 C 
ATOM      7  O   UNL     1      28.827  16.881   1.246  1.00  0.00    -0.550 OA
ATOM      8  O   UNL     1      26.538  16.953   1.170  1.00  0.00    -0.550 OA
ENDBRANCH   5   6
ENDBRANCH   4   5
ENDBRANCH   3   4
ENDBRANCH   2   3
ENDBRANCH   1   2
BRANCH   1   9
ATOM      9  C   UNL     1      28.898  22.277  -3.016  1.00  0.00     0.000 C 
BRANCH   9  10
ATOM     10  C   UNL     1      29.091  23.371  -1.951  1.00  0.00    -0.000 C 
BRANCH  10  11
ATOM     11  C   UNL     1      28.480  24.717  -2.371  1.00  0.00    -0.000 C 
BRANCH  11  12
ATOM     12  C   UNL     1      28.986  25.887  -1.509  1.00  0.00    -0.000 C 
BRANCH  12  13
ATOM     13  C   UNL     1      28.984  25.556  -0.008  1.00  0.00    -0.003 C 
ATOM     14  C   UNL     1      29.125  26.801   0.869  1.00  0.00     0.004 C 
ENDBRANCH  12  13
ENDBRANCH  11  12
ENDBRANCH  10  11
ENDBRANCH   9  10
ENDBRANCH   1   9
TORSDOF 10
ENDMDL
MODEL 7
REMARK VINA RESULT:    -2.704     18.575     20.416
REMARK INTER + INTRA:          -5.281
REMARK INTER:                  -4.704
REMARK INTRA:                  -0.577
REMARK UNBOUND:                -0.997
REMARK SMILES CCCCCCCCCCCC(=O)[O-]
REMARK SMILES IDX 7 1 8 2 9 3 10 4 11 5 12 6 13 7 14 8 6 9 5 10 4 11 3 12 2 13
REMARK SMILES IDX 1 14
REMARK H PARENT
REMARK Flexibility Score: inf
ROOT
ATOM      1  C   UNL     1      27.430  24.176  -1.287  1.00  0.00     0.000 C 
ENDROOT
BRANCH   1   2
ATOM      2  C   UNL     1      27.141  23.312  -2.523  1.00  0.00     0.000 C 
BRANCH   2   3
ATOM      3  C   UNL     1      28.441  22.954  -3.258  1.00  0.00     0.000 C 
BRANCH   3   4
ATOM      4  C   UNL     1      28.516  21.467  -3.640  1.00  0.00     0.006 C 
BRANCH   4   5
ATOM      5  C   UNL     1      28.399  20.538  -2.424  1.00  0.00     0.053 C 
BRANCH   5   6
ATOM      6  C   UNL     1      28.350  19.108  -2.862  1.00  0.00     0.041 C 
ATOM      7  O   UNL     1      28.191  18.823  -4.078  1.00  0.00    -0.550 OA
ATOM      8  O   UNL     1      28.429  18.090  -1.921  1.00  0.00    -0.550 OA
ENDBRANCH   5   6
ENDBRANCH   4   5
ENDBRANCH   3   4
ENDBRANCH   2   3
ENDBRANCH   1   2
BRANCH   1   9
ATOM      9  C   UNL     1      28.882  24.676  -1.242  1.00  0.00     0.000 C 
BRANCH   9  10
ATOM     10  C   UNL     1      29.125  25.687  -0.108  1.00  0.00    -0.000 C 
BRANCH  10  11
ATOM     11  C   UNL     1      28.132  25.521   1.053  1.00  0.00    -0.000 C 
BRANCH  11  12
ATOM     12  C   UNL     1      28.818  25.075   2.356  1.00  0.00    -0.000 C 
BRANCH  12  13
ATOM     13  C   UNL     1      28.633  26.089   3.496  1.00  0.00    -0.003 C 
ATOM     14  C   UNL     1      29.105  27.493   3.117  1.00  0.00     0.004 C 
ENDBRANCH  12  13
ENDBRANCH  11  12
ENDBRANCH  10  11
ENDBRANCH   9  10
ENDBRANCH   1   9
TORSDOF 10
ENDMDL
MODEL 8
REMARK VINA RESULT:    -2.686      1.029      2.539
REMARK INTER + INTRA:          -5.254
REMARK INTER:                  -4.515
REMARK INTRA:                  -0.738
REMARK UNBOUND:                -0.997
REMARK SMILES CCCCCCCCCCCC(=O)[O-]
REMARK SMILES IDX 7 1 8 2 9 3 10 4 11 5 12 6 13 7 14 8 6 9 5 10 4 11 3 12 2 13
REMARK SMILES IDX 1 14
REMARK H PARENT
REMARK Flexibility Score: inf
ROOT
ATOM      1  C   UNL     1      12.553  30.061  -8.977  1.00  0.00     0.000 C 
ENDROOT
BRANCH   1   2
ATOM      2  C   UNL     1      12.879  30.790 -10.289  1.00  0.00     0.000 C 
BRANCH   2   3
ATOM      3  C   UNL     1      13.763  32.019 -10.029  1.00  0.00     0.000 C 
BRANCH   3   4
ATOM      4  C   UNL     1      14.162  32.159  -8.551  1.00  0.00     0.006 C 
BRANCH   4   5
ATOM      5  C   UNL     1      15.681  32.265  -8.356  1.00  0.00     0.053 C 
BRANCH   5   6
ATOM      6  C   UNL     1      16.342  32.689  -9.629  1.00  0.00     0.041 C 
ATOM      7  O   UNL     1      16.764  31.826 -10.443  1.00  0.00    -0.550 OA
ATOM      8  O   UNL     1      16.537  34.039  -9.895  1.00  0.00    -0.550 OA
ENDBRANCH   5   6
ENDBRANCH   4   5
ENDBRANCH   3   4
ENDBRANCH   2   3
ENDBRANCH   1   2
BRANCH   1   9
ATOM      9  C   UNL     1      11.365  29.097  -9.115  1.00  0.00     0.000 C 
BRANCH   9  10
ATOM     10  C   UNL     1      10.340  29.254  -7.979  1.00  0.00    -0.000 C 
BRANCH  10  11
ATOM     11  C   UNL     1       8.930  29.578  -8.497  1.00  0.00    -0.000 C 
BRANCH  11  12
ATOM     12  C   UNL     1       8.956  30.391  -9.803  1.00  0.00    -0.000 C 
BRANCH  12  13
ATOM     13  C   UNL     1       9.034  31.905  -9.553  1.00  0.00    -0.003 C 
ATOM     14  C   UNL     1       9.762  32.651 -10.672  1.00  0.00     0.004 C 
ENDBRANCH  12  13
ENDBRANCH  11  12
ENDBRANCH  10  11
ENDBRANCH   9  10
ENDBRANCH   1   9
TORSDOF 10
ENDMDL
MODEL 9
REMARK VINA RESULT:    -2.337     13.102     15.132
REMARK INTER + INTRA:          -4.699
REMARK INTER:                  -4.334
REMARK INTRA:                  -0.366
REMARK UNBOUND:                -0.997
REMARK SMILES CCCCCCCCCCCC(=O)[O-]
REMARK SMILES IDX 7 1 8 2 9 3 10 4 11 5 12 6 13 7 14 8 6 9 5 10 4 11 3 12 2 13
REMARK SMILES IDX 1 14
REMARK H PARENT
REMARK Flexibility Score: inf
ROOT
ATOM      1  C   UNL     1      21.123  18.993 -10.999  1.00  0.00     0.000 C 
ENDROOT
BRANCH   1   2
ATOM      2  C   UNL     1      19.698  18.436 -11.125  1.00  0.00     0.000 C 
BRANCH   2   3
ATOM      3  C   UNL     1      18.655  19.535 -10.869  1.00  0.00     0.000 C 
BRANCH   3   4
ATOM      4  C   UNL     1      17.213  19.037 -11.052  1.00  0.00     0.006 C 
BRANCH   4   5
ATOM      5  C   UNL     1      16.816  17.981 -10.011  1.00  0.00     0.053 C 
BRANCH   5   6
ATOM      6  C   UNL     1      15.499  18.327  -9.392  1.00  0.00     0.041 C 
ATOM      7  O   UNL     1      14.961  19.441  -9.628  1.00  0.00    -0.550 OA
ATOM      8  O   UNL     1      14.888  17.440  -8.515  1.00  0.00    -0.550 OA
ENDBRANCH   5   6
ENDBRANCH   4   5
ENDBRANCH   3   4
ENDBRANCH   2   3
ENDBRANCH   1   2
BRANCH   1   9
ATOM      9  C   UNL     1      21.147  20.458 -10.536  1.00  0.00     0.000 C 
BRANCH   9  10
ATOM     10  C   UNL     1      22.333  21.245 -11.121  1.00  0.00    -0.000 C 
BRANCH  10  11
ATOM     11  C   UNL     1      23.247  21.829 -10.032  1.00  0.00    -0.000 C 
BRANCH  11  12
ATOM     12  C   UNL     1      24.686  22.053 -10.530  1.00  0.00    -0.000 C 
BRANCH  12  13
ATOM     13  C   UNL     1      24.937  23.504 -10.970  1.00  0.00    -0.003 C 
ATOM     14  C   UNL     1      26.385  23.943 -10.753  1.00  0.00     0.004 C 
ENDBRANCH  12  13
ENDBRANCH  11  12
ENDBRANCH  10  11
ENDBRANCH   9  10
ENDBRANCH   1   9
TORSDOF 10
ENDMDL
