MODEL 1
REMARK VINA RESULT:    -4.323      0.000      0.000
REMARK INTER + INTRA:          -7.301
REMARK INTER:                  -6.850
REMARK INTRA:                  -0.451
REMARK UNBOUND:                -0.451
REMARK SMILES CCCCCCCCCCCC(=O)[O-]
REMARK SMILES IDX 7 1 8 2 9 3 10 4 11 5 12 6 13 7 14 8 6 9 5 10 4 11 3 12 2 13
REMARK SMILES IDX 1 14
REMARK H PARENT
REMARK Flexibility Score: inf
ROOT
ATOM      1  C   UNL     1     -12.052   3.339 -40.464  1.00  0.00     0.000 C 
ENDROOT
BRANCH   1   2
ATOM      2  C   UNL     1     -13.551   3.623 -40.662  1.00  0.00     0.000 C 
BRANCH   2   3
ATOM      3  C   UNL     1     -13.832   5.098 -40.995  1.00  0.00     0.000 C 
BRANCH   3   4
ATOM      4  C   UNL     1     -15.303   5.352 -41.374  1.00  0.00     0.006 C 
BRANCH   4   5
ATOM      5  C   UNL     1     -16.314   4.467 -40.628  1.00  0.00     0.053 C 
BRANCH   5   6
ATOM      6  C   UNL     1     -17.658   4.470 -41.289  1.00  0.00     0.041 C 
ATOM      7  O   UNL     1     -18.134   3.406 -41.763  1.00  0.00    -0.550 OA
ATOM      8  O   UNL     1     -18.370   5.656 -41.409  1.00  0.00    -0.550 OA
ENDBRANCH   5   6
ENDBRANCH   4   5
ENDBRANCH   3   4
ENDBRANCH   2   3
ENDBRANCH   1   2
BRANCH   1   9
ATOM      9  C   UNL     1     -11.504   2.322 -41.481  1.00  0.00     0.000 C 
BRANCH   9  10
ATOM     10  C   UNL     1     -11.179   0.962 -40.840  1.00  0.00    -0.000 C 
BRANCH  10  11
ATOM     11  C   UNL     1     -12.375  -0.006 -40.866  1.00  0.00    -0.000 C 
BRANCH  11  12
ATOM     12  C   UNL     1     -12.130  -1.267 -40.022  1.00  0.00    -0.000 C 
BRANCH  12  13
ATOM     13  C   UNL     1     -13.431  -1.997 -39.655  1.00  0.00    -0.003 C 
ATOM     14  C   UNL     1     -14.639  -1.325 -40.299  1.00  0.00     0.004 C 
ENDBRANCH  12  13
ENDBRANCH  11  12
ENDBRANCH  10  11
ENDBRANCH   9  10
ENDBRANCH   1   9
TORSDOF 10
ENDMDL
MODEL 2
REMARK VINA RESULT:    -4.299      4.632      5.965
REMARK INTER + INTRA:          -7.263
REMARK INTER:                  -5.706
REMARK INTRA:                  -1.557
REMARK UNBOUND:                -0.451
REMARK SMILES CCCCCCCCCCCC(=O)[O-]
REMARK SMILES IDX 7 1 8 2 9 3 10 4 11 5 12 6 13 7 14 8 6 9 5 10 4 11 3 12 2 13
REMARK SMILES IDX 1 14
REMARK H PARENT
REMARK Flexibility Score: inf
ROOT
ATOM      1  C   UNL     1      -8.333   1.078 -40.583  1.00  0.00     0.000 C 
ENDROOT
BRANCH   1   2
ATOM      2  C   UNL     1      -9.813   1.434 -40.802  1.00  0.00     0.000 C 
BRANCH   2   3
ATOM      3  C   UNL     1     -10.595   0.302 -41.491  1.00  0.00     0.000 C 
BRANCH   3   4
ATOM      4  C   UNL     1     -11.892  -0.065 -40.745  1.00  0.00     0.006 C 
BRANCH   4   5
ATOM      5  C   UNL     1     -11.927  -1.502 -40.201  1.00  0.00     0.053 C 
BRANCH   5   6
ATOM      6  C   UNL     1     -13.313  -1.924 -39.820  1.00  0.00     0.041 C 
ATOM      7  O   UNL     1     -13.489  -2.915 -39.065  1.00  0.00    -0.550 OA
ATOM      8  O   UNL     1     -14.410  -1.242 -40.328  1.00  0.00    -0.550 OA
ENDBRANCH   5   6
ENDBRANCH   4   5
ENDBRANCH   3   4
ENDBRANCH   2   3
ENDBRANCH   1   2
BRANCH   1   9
ATOM      9  C   UNL     1      -8.030  -0.401 -40.883  1.00  0.00     0.000 C 
BRANCH   9  10
ATOM     10  C   UNL     1      -7.501  -1.158 -39.653  1.00  0.00    -0.000 C 
BRANCH  10  11
ATOM     11  C   UNL     1      -8.368  -2.375 -39.288  1.00  0.00    -0.000 C 
BRANCH  11  12
ATOM     12  C   UNL     1      -9.142  -2.175 -37.975  1.00  0.00    -0.000 C 
BRANCH  12  13
ATOM     13  C   UNL     1      -8.908  -0.790 -37.353  1.00  0.00    -0.003 C 
ATOM     14  C   UNL     1     -10.200   0.020 -37.315  1.00  0.00     0.004 C 
ENDBRANCH  12  13
ENDBRANCH  11  12
ENDBRANCH  10  11
ENDBRANCH   9  10
ENDBRANCH   1   9
TORSDOF 10
ENDMDL
MODEL 3
REMARK VINA RESULT:    -4.191      1.229      2.113
REMARK INTER + INTRA:          -7.093
REMARK INTER:                  -6.359
REMARK INTRA:                  -0.734
REMARK UNBOUND:                -0.451
REMARK SMILES CCCCCCCCCCCC(=O)[O-]
REMARK SMILES IDX 7 1 8 2 9 3 10 4 11 5 12 6 13 7 14 8 6 9 5 10 4 11 3 12 2 13
REMARK SMILES IDX 1 14
REMARK H PARENT
REMARK Flexibility Score: inf
ROOT
ATOM      1  C   UNL     1     -11.828   1.592 -41.049  1.00  0.00     0.000 C 
ENDROOT
BRANCH   1   2
ATOM      2  C   UNL     1     -11.142   2.866 -40.528  1.00  0.00     0.000 C 
BRANCH   2   3
ATOM      3  C   UNL     1     -12.146   3.895 -39.981  1.00  0.00     0.000 C 
BRANCH   3   4
ATOM      4  C   UNL     1     -13.455   3.937 -40.791  1.00  0.00     0.006 C 
BRANCH   4   5
ATOM      5  C   UNL     1     -14.171   5.298 -40.771  1.00  0.00     0.053 C 
BRANCH   5   6
ATOM      6  C   UNL     1     -15.649   5.158 -40.969  1.00  0.00     0.041 C 
ATOM      7  O   UNL     1     -16.303   6.074 -41.532  1.00  0.00    -0.550 OA
ATOM      8  O   UNL     1     -16.308   4.028 -40.502  1.00  0.00    -0.550 OA
ENDBRANCH   5   6
ENDBRANCH   4   5
ENDBRANCH   3   4
ENDBRANCH   2   3
ENDBRANCH   1   2
BRANCH   1   9
ATOM      9  C   UNL     1     -10.852   0.411 -41.189  1.00  0.00     0.000 C 
BRANCH   9  10
ATOM     10  C   UNL     1     -10.215   0.008 -39.848  1.00  0.00    -0.000 C 
BRANCH  10  11
ATOM     11  C   UNL     1     -11.108  -0.940 -39.029  1.00  0.00    -0.000 C 
BRANCH  11  12
ATOM     12  C   UNL     1     -11.929  -1.890 -39.915  1.00  0.00    -0.000 C 
BRANCH  12  13
ATOM     13  C   UNL     1     -13.377  -2.053 -39.430  1.00  0.00    -0.003 C 
ATOM     14  C   UNL     1     -14.349  -1.314 -40.343  1.00  0.00     0.004 C 
ENDBRANCH  12  13
ENDBRANCH  11  12
ENDBRANCH  10  11
ENDBRANCH   9  10
ENDBRANCH   1   9
TORSDOF 10
ENDMDL
MODEL 4
REMARK VINA RESULT:    -4.165      4.695      6.074
REMARK INTER + INTRA:          -7.051
REMARK INTER:                  -5.580
REMARK INTRA:                  -1.471
REMARK UNBOUND:                -0.451
REMARK SMILES CCCCCCCCCCCC(=O)[O-]
REMARK SMILES IDX 7 1 8 2 9 3 10 4 11 5 12 6 13 7 14 8 6 9 5 10 4 11 3 12 2 13
REMARK SMILES IDX 1 14
REMARK H PARENT
REMARK Flexibility Score: inf
ROOT
ATOM      1  C   UNL     1      -8.113  -1.837 -39.945  1.00  0.00     0.000 C 
ENDROOT
BRANCH   1   2
ATOM      2  C   UNL     1      -8.029  -0.643 -38.979  1.00  0.00     0.000 C 
BRANCH   2   3
ATOM      3  C   UNL     1      -9.075  -0.722 -37.853  1.00  0.00     0.000 C 
BRANCH   3   4
ATOM      4  C   UNL     1      -9.995   0.511 -37.808  1.00  0.00     0.006 C 
BRANCH   4   5
ATOM      5  C   UNL     1      -9.410   1.765 -38.478  1.00  0.00     0.053 C 
BRANCH   5   6
ATOM      6  C   UNL     1     -10.447   2.826 -38.686  1.00  0.00     0.041 C 
ATOM      7  O   UNL     1     -10.937   3.018 -39.829  1.00  0.00    -0.550 OA
ATOM      8  O   UNL     1     -10.848   3.623 -37.622  1.00  0.00    -0.550 OA
ENDBRANCH   5   6
ENDBRANCH   4   5
ENDBRANCH   3   4
ENDBRANCH   2   3
ENDBRANCH   1   2
BRANCH   1   9
ATOM      9  C   UNL     1      -8.488  -1.412 -41.376  1.00  0.00     0.000 C 
BRANCH   9  10
ATOM     10  C   UNL     1      -9.994  -1.546 -41.657  1.00  0.00    -0.000 C 
BRANCH  10  11
ATOM     11  C   UNL     1     -10.762  -0.236 -41.409  1.00  0.00    -0.000 C 
BRANCH  11  12
ATOM     12  C   UNL     1     -12.096  -0.463 -40.680  1.00  0.00    -0.000 C 
BRANCH  12  13
ATOM     13  C   UNL     1     -12.094  -1.736 -39.820  1.00  0.00    -0.003 C 
ATOM     14  C   UNL     1     -13.516  -2.177 -39.487  1.00  0.00     0.004 C 
ENDBRANCH  12  13
ENDBRANCH  11  12
ENDBRANCH  10  11
ENDBRANCH   9  10
ENDBRANCH   1   9
TORSDOF 10
ENDMDL
MODEL 5
REMARK VINA RESULT:    -4.161      4.519      6.930
REMARK INTER + INTRA:          -7.044
REMARK INTER:                  -5.887
REMARK INTRA:                  -1.157
REMARK UNBOUND:                -0.451
REMARK SMILES CCCCCCCCCCCC(=O)[O-]
REMARK SMILES IDX 7 1 8 2 9 3 10 4 11 5 12 6 13 7 14 8 6 9 5 10 4 11 3 12 2 13
REMARK SMILES IDX 1 14
REMARK H PARENT
REMARK Flexibility Score: inf
ROOT
ATOM      1  C   UNL     1      -9.687  -0.562 -35.755  1.00  0.00     0.000 C 
ENDROOT
BRANCH   1   2
ATOM      2  C   UNL     1      -9.578  -1.093 -37.194  1.00  0.00     0.000 C 
BRANCH   2   3
ATOM      3  C   UNL     1     -10.764  -0.663 -38.074  1.00  0.00     0.000 C 
BRANCH   3   4
ATOM      4  C   UNL     1     -10.976  -1.592 -39.284  1.00  0.00     0.006 C 
BRANCH   4   5
ATOM      5  C   UNL     1     -12.127  -1.172 -40.213  1.00  0.00     0.053 C 
BRANCH   5   6
ATOM      6  C   UNL     1     -13.410  -1.861 -39.862  1.00  0.00     0.041 C 
ATOM      7  O   UNL     1     -13.393  -2.941 -39.216  1.00  0.00    -0.550 OA
ATOM      8  O   UNL     1     -14.622  -1.326 -40.278  1.00  0.00    -0.550 OA
ENDBRANCH   5   6
ENDBRANCH   4   5
ENDBRANCH   3   4
ENDBRANCH   2   3
ENDBRANCH   1   2
BRANCH   1   9
ATOM      9  C   UNL     1     -10.898   0.368 -35.560  1.00  0.00     0.000 C 
BRANCH   9  10
ATOM     10  C   UNL     1     -10.486   1.815 -35.242  1.00  0.00    -0.000 C 
BRANCH  10  11
ATOM     11  C   UNL     1     -10.447   2.710 -36.493  1.00  0.00    -0.000 C 
BRANCH  11  12
ATOM     12  C   UNL     1      -9.047   2.785 -37.121  1.00  0.00    -0.000 C 
BRANCH  12  13
ATOM     13  C   UNL     1      -9.085   2.808 -38.657  1.00  0.00    -0.003 C 
ATOM     14  C   UNL     1     -10.518   2.718 -39.172  1.00  0.00     0.004 C 
ENDBRANCH  12  13
ENDBRANCH  11  12
ENDBRANCH  10  11
ENDBRANCH   9  10
ENDBRANCH   1   9
TORSDOF 10
ENDMDL
MODEL 6
REMARK VINA RESULT:    -4.152      3.975      6.534
REMARK INTER + INTRA:          -7.030
REMARK INTER:                  -5.528
REMARK INTRA:                  -1.502
REMARK UNBOUND:                -0.451
REMARK SMILES CCCCCCCCCCCC(=O)[O-]
REMARK SMILES IDX 7 1 8 2 9 3 10 4 11 5 12 6 13 7 14 8 6 9 5 10 4 11 3 12 2 13
REMARK SMILES IDX 1 14
REMARK H PARENT
REMARK Flexibility Score: inf
ROOT
ATOM      1  C   UNL     1     -16.824   7.011 -44.060  1.00  0.00     0.000 C 
ENDROOT
BRANCH   1   2
ATOM      2  C   UNL     1     -16.641   5.544 -44.484  1.00  0.00     0.000 C 
BRANCH   2   3
ATOM      3  C   UNL     1     -15.234   5.010 -44.164  1.00  0.00     0.000 C 
BRANCH   3   4
ATOM      4  C   UNL     1     -14.529   5.815 -43.057  1.00  0.00     0.006 C 
BRANCH   4   5
ATOM      5  C   UNL     1     -13.036   5.491 -42.888  1.00  0.00     0.053 C 
BRANCH   5   6
ATOM      6  C   UNL     1     -12.817   4.282 -42.031  1.00  0.00     0.041 C 
ATOM      7  O   UNL     1     -12.038   3.370 -42.409  1.00  0.00    -0.550 OA
ATOM      8  O   UNL     1     -13.501   4.150 -40.830  1.00  0.00    -0.550 OA
ENDBRANCH   5   6
ENDBRANCH   4   5
ENDBRANCH   3   4
ENDBRANCH   2   3
ENDBRANCH   1   2
BRANCH   1   9
ATOM      9  C   UNL     1     -18.145   7.247 -43.306  1.00  0.00     0.000 C 
BRANCH   9  10
ATOM     10  C   UNL     1     -17.930   7.532 -41.811  1.00  0.00    -0.000 C 
BRANCH  10  11
ATOM     11  C   UNL     1     -18.303   6.334 -40.920  1.00  0.00    -0.000 C 
BRANCH  11  12
ATOM     12  C   UNL     1     -17.070   5.630 -40.332  1.00  0.00    -0.000 C 
BRANCH  12  13
ATOM     13  C   UNL     1     -16.976   4.153 -40.745  1.00  0.00    -0.003 C 
ATOM     14  C   UNL     1     -18.208   3.725 -41.536  1.00  0.00     0.004 C 
ENDBRANCH  12  13
ENDBRANCH  11  12
ENDBRANCH  10  11
ENDBRANCH   9  10
ENDBRANCH   1   9
TORSDOF 10
ENDMDL
MODEL 7
REMARK VINA RESULT:    -4.143      3.862      6.619
REMARK INTER + INTRA:          -7.016
REMARK INTER:                  -6.503
REMARK INTRA:                  -0.513
REMARK UNBOUND:                -0.451
REMARK SMILES CCCCCCCCCCCC(=O)[O-]
REMARK SMILES IDX 7 1 8 2 9 3 10 4 11 5 12 6 13 7 14 8 6 9 5 10 4 11 3 12 2 13
REMARK SMILES IDX 1 14
REMARK H PARENT
REMARK Flexibility Score: inf
ROOT
ATOM      1  C   UNL     1     -12.989   4.458 -42.273  1.00  0.00     0.000 C 
ENDROOT
BRANCH   1   2
ATOM      2  C   UNL     1     -11.913   3.360 -42.222  1.00  0.00     0.000 C 
BRANCH   2   3
ATOM      3  C   UNL     1     -11.903   2.605 -40.882  1.00  0.00     0.000 C 
BRANCH   3   4
ATOM      4  C   UNL     1     -11.936   1.076 -41.059  1.00  0.00     0.006 C 
BRANCH   4   5
ATOM      5  C   UNL     1     -10.552   0.406 -41.052  1.00  0.00     0.053 C 
BRANCH   5   6
ATOM      6  C   UNL     1     -10.652  -1.088 -41.080  1.00  0.00     0.041 C 
ATOM      7  O   UNL     1      -9.963  -1.754 -41.897  1.00  0.00    -0.550 OA
ATOM      8  O   UNL     1     -11.531  -1.742 -40.227  1.00  0.00    -0.550 OA
ENDBRANCH   5   6
ENDBRANCH   4   5
ENDBRANCH   3   4
ENDBRANCH   2   3
ENDBRANCH   1   2
BRANCH   1   9
ATOM      9  C   UNL     1     -13.960   4.388 -41.081  1.00  0.00     0.000 C 
BRANCH   9  10
ATOM     10  C   UNL     1     -14.977   5.541 -41.079  1.00  0.00    -0.000 C 
BRANCH  10  11
ATOM     11  C   UNL     1     -16.360   5.111 -40.558  1.00  0.00    -0.000 C 
BRANCH  11  12
ATOM     12  C   UNL     1     -17.360   4.842 -41.693  1.00  0.00    -0.000 C 
BRANCH  12  13
ATOM     13  C   UNL     1     -18.175   3.559 -41.475  1.00  0.00    -0.003 C 
ATOM     14  C   UNL     1     -17.556   2.694 -40.382  1.00  0.00     0.004 C 
ENDBRANCH  12  13
ENDBRANCH  11  12
ENDBRANCH  10  11
ENDBRANCH   9  10
ENDBRANCH   1   9
TORSDOF 10
ENDMDL
MODEL 8
REMARK VINA RESULT:    -4.050      4.635      6.696
REMARK INTER + INTRA:          -6.868
REMARK INTER:                  -5.290
REMARK INTRA:                  -1.578
REMARK UNBOUND:                -0.451
REMARK SMILES CCCCCCCCCCCC(=O)[O-]
REMARK SMILES IDX 7 1 8 2 9 3 10 4 11 5 12 6 13 7 14 8 6 9 5 10 4 11 3 12 2 13
REMARK SMILES IDX 1 14
REMARK H PARENT
REMARK Flexibility Score: inf
ROOT
ATOM      1  C   UNL     1      -7.803  -1.204 -38.606  1.00  0.00     0.000 C 
ENDROOT
BRANCH   1   2
ATOM      2  C   UNL     1      -9.023  -1.602 -37.758  1.00  0.00     0.000 C 
BRANCH   2   3
ATOM      3  C   UNL     1     -10.183  -2.144 -38.611  1.00  0.00     0.000 C 
BRANCH   3   4
ATOM      4  C   UNL     1     -11.358  -1.155 -38.714  1.00  0.00     0.006 C 
BRANCH   4   5
ATOM      5  C   UNL     1     -12.138  -1.231 -40.037  1.00  0.00     0.053 C 
BRANCH   5   6
ATOM      6  C   UNL     1     -13.465  -1.905 -39.869  1.00  0.00     0.041 C 
ATOM      7  O   UNL     1     -13.535  -3.039 -39.329  1.00  0.00    -0.550 OA
ATOM      8  O   UNL     1     -14.619  -1.293 -40.339  1.00  0.00    -0.550 OA
ENDBRANCH   5   6
ENDBRANCH   4   5
ENDBRANCH   3   4
ENDBRANCH   2   3
ENDBRANCH   1   2
BRANCH   1   9
ATOM      9  C   UNL     1      -7.889  -1.732 -40.049  1.00  0.00     0.000 C 
BRANCH   9  10
ATOM     10  C   UNL     1      -7.810  -0.609 -41.096  1.00  0.00    -0.000 C 
BRANCH  10  11
ATOM     11  C   UNL     1      -8.020   0.787 -40.484  1.00  0.00    -0.000 C 
BRANCH  11  12
ATOM     12  C   UNL     1      -9.304   1.465 -40.987  1.00  0.00    -0.000 C 
BRANCH  12  13
ATOM     13  C   UNL     1     -10.197   1.969 -39.843  1.00  0.00    -0.003 C 
ATOM     14  C   UNL     1      -9.399   2.130 -38.554  1.00  0.00     0.004 C 
ENDBRANCH  12  13
ENDBRANCH  11  12
ENDBRANCH  10  11
ENDBRANCH   9  10
ENDBRANCH   1   9
TORSDOF 10
ENDMDL
MODEL 9
REMARK VINA RESULT:    -3.991      3.978      6.167
REMARK INTER + INTRA:          -6.775
REMARK INTER:                  -5.148
REMARK INTRA:                  -1.627
REMARK UNBOUND:                -0.451
REMARK SMILES CCCCCCCCCCCC(=O)[O-]
REMARK SMILES IDX 7 1 8 2 9 3 10 4 11 5 12 6 13 7 14 8 6 9 5 10 4 11 3 12 2 13
REMARK SMILES IDX 1 14
REMARK H PARENT
REMARK Flexibility Score: inf
ROOT
ATOM      1  C   UNL     1     -13.777   4.957 -43.231  1.00  0.00     0.000 C 
ENDROOT
BRANCH   1   2
ATOM      2  C   UNL     1     -14.043   5.935 -42.074  1.00  0.00     0.000 C 
BRANCH   2   3
ATOM      3  C   UNL     1     -14.371   5.213 -40.756  1.00  0.00     0.000 C 
BRANCH   3   4
ATOM      4  C   UNL     1     -15.739   4.507 -40.789  1.00  0.00     0.006 C 
BRANCH   4   5
ATOM      5  C   UNL     1     -16.946   5.455 -40.704  1.00  0.00     0.053 C 
BRANCH   5   6
ATOM      6  C   UNL     1     -18.130   4.925 -41.453  1.00  0.00     0.041 C 
ATOM      7  O   UNL     1     -18.130   3.742 -41.882  1.00  0.00    -0.550 OA
ATOM      8  O   UNL     1     -19.218   5.750 -41.706  1.00  0.00    -0.550 OA
ENDBRANCH   5   6
ENDBRANCH   4   5
ENDBRANCH   3   4
ENDBRANCH   2   3
ENDBRANCH   1   2
BRANCH   1   9
ATOM      9  C   UNL     1     -14.518   5.354 -44.521  1.00  0.00     0.000 C 
BRANCH   9  10
ATOM     10  C   UNL     1     -15.984   4.889 -44.527  1.00  0.00    -0.000 C 
BRANCH  10  11
ATOM     11  C   UNL     1     -16.964   6.022 -44.877  1.00  0.00    -0.000 C 
BRANCH  11  12
ATOM     12  C   UNL     1     -16.422   7.409 -44.495  1.00  0.00    -0.000 C 
BRANCH  12  13
ATOM     13  C   UNL     1     -17.303   8.126 -43.460  1.00  0.00    -0.003 C 
ATOM     14  C   UNL     1     -16.459   8.721 -42.338  1.00  0.00     0.004 C 
ENDBRANCH  12  13
ENDBRANCH  11  12
ENDBRANCH  10  11
ENDBRANCH   9  10
ENDBRANCH   1   9
TORSDOF 10
ENDMDL
