MODEL 1
REMARK VINA RESULT:    -7.200      0.000      0.000
REMARK INTER + INTRA:         -14.008
REMARK INTER:                 -13.093
REMARK INTRA:                  -0.915
REMARK UNBOUND:                -0.915
REMARK SMILES CCCCCCCCCCCCCC[C@H](C)C(=O)[O-]
REMARK SMILES IDX 9 1 10 2 11 3 12 4 13 5 14 6 15 7 16 8 17 9 18 10 19 11 8 12
REMARK SMILES IDX 7 13 6 14 5 15 4 16 3 17 2 18 1 19
REMARK H PARENT
REMARK Flexibility Score: inf
ROOT
ATOM      1  C   UNL     1     -21.884 -22.031  31.502  1.00  0.00     0.000 C 
ENDROOT
BRANCH   1   2
ATOM      2  C   UNL     1     -23.100 -22.901  31.846  1.00  0.00     0.000 C 
BRANCH   2   3
ATOM      3  C   UNL     1     -22.987 -24.286  31.193  1.00  0.00     0.000 C 
BRANCH   3   4
ATOM      4  C   UNL     1     -22.732 -24.217  29.678  1.00  0.00     0.000 C 
BRANCH   4   5
ATOM      5  C   UNL     1     -23.477 -25.305  28.877  1.00  0.00     0.001 C 
BRANCH   5   6
ATOM      6  C   UNL     1     -23.887 -26.499  29.763  1.00  0.00     0.009 C 
BRANCH   6   7
ATOM      7  C   UNL     1     -25.398 -26.569  30.072  1.00  0.00     0.032 C 
ATOM      8  C   UNL     1     -25.702 -26.418  31.569  1.00  0.00     0.014 C 
BRANCH   7   9
ATOM      9  C   UNL     1     -26.020 -27.815  29.497  1.00  0.00     0.044 C 
ATOM     10  O   UNL     1     -26.465 -28.706  30.268  1.00  0.00    -0.550 OA
ATOM     11  O   UNL     1     -26.159 -27.974  28.122  1.00  0.00    -0.550 OA
ENDBRANCH   7   9
ENDBRANCH   6   7
ENDBRANCH   5   6
ENDBRANCH   4   5
ENDBRANCH   3   4
ENDBRANCH   2   3
ENDBRANCH   1   2
BRANCH   1  12
ATOM     12  C   UNL     1     -22.320 -20.706  30.865  1.00  0.00     0.000 C 
BRANCH  12  13
ATOM     13  C   UNL     1     -21.954 -20.665  29.376  1.00  0.00    -0.000 C 
BRANCH  13  14
ATOM     14  C   UNL     1     -21.152 -19.403  29.041  1.00  0.00    -0.000 C 
BRANCH  14  15
ATOM     15  C   UNL     1     -20.791 -18.626  30.317  1.00  0.00    -0.000 C 
BRANCH  15  16
ATOM     16  C   UNL     1     -19.274 -18.472  30.510  1.00  0.00    -0.000 C 
BRANCH  16  17
ATOM     17  C   UNL     1     -18.550 -18.078  29.211  1.00  0.00    -0.000 C 
BRANCH  17  18
ATOM     18  C   UNL     1     -18.849 -16.631  28.787  1.00  0.00    -0.003 C 
ATOM     19  C   UNL     1     -17.664 -15.959  28.094  1.00  0.00     0.004 C 
ENDBRANCH  17  18
ENDBRANCH  16  17
ENDBRANCH  15  16
ENDBRANCH  14  15
ENDBRANCH  13  14
ENDBRANCH  12  13
ENDBRANCH   1  12
TORSDOF 14
ENDMDL
MODEL 2
REMARK VINA RESULT:    -7.197      1.212      2.079
REMARK INTER + INTRA:         -14.002
REMARK INTER:                 -13.070
REMARK INTRA:                  -0.932
REMARK UNBOUND:                -0.915
REMARK SMILES CCCCCCCCCCCCCC[C@H](C)C(=O)[O-]
REMARK SMILES IDX 9 1 10 2 11 3 12 4 13 5 14 6 15 7 16 8 17 9 18 10 19 11 8 12
REMARK SMILES IDX 7 13 6 14 5 15 4 16 3 17 2 18 1 19
REMARK H PARENT
REMARK Flexibility Score: inf
ROOT
ATOM      1  C   UNL     1     -22.364 -20.841  29.796  1.00  0.00     0.000 C 
ENDROOT
BRANCH   1   2
ATOM      2  C   UNL     1     -22.363 -21.584  31.138  1.00  0.00     0.000 C 
BRANCH   2   3
ATOM      3  C   UNL     1     -22.015 -23.067  30.946  1.00  0.00     0.000 C 
BRANCH   3   4
ATOM      4  C   UNL     1     -22.005 -23.494  29.467  1.00  0.00     0.000 C 
BRANCH   4   5
ATOM      5  C   UNL     1     -23.157 -24.451  29.096  1.00  0.00     0.001 C 
BRANCH   5   6
ATOM      6  C   UNL     1     -23.750 -25.154  30.334  1.00  0.00     0.009 C 
BRANCH   6   7
ATOM      7  C   UNL     1     -24.231 -26.597  30.073  1.00  0.00     0.032 C 
ATOM      8  C   UNL     1     -24.536 -26.860  28.592  1.00  0.00     0.014 C 
BRANCH   7   9
ATOM      9  C   UNL     1     -25.398 -26.957  30.957  1.00  0.00     0.044 C 
ATOM     10  O   UNL     1     -25.793 -26.145  31.834  1.00  0.00    -0.550 OA
ATOM     11  O   UNL     1     -26.082 -28.156  30.781  1.00  0.00    -0.550 OA
ENDBRANCH   7   9
ENDBRANCH   6   7
ENDBRANCH   5   6
ENDBRANCH   4   5
ENDBRANCH   3   4
ENDBRANCH   2   3
ENDBRANCH   1   2
BRANCH   1  12
ATOM     12  C   UNL     1     -21.335 -19.704  29.799  1.00  0.00     0.000 C 
BRANCH  12  13
ATOM     13  C   UNL     1     -20.974 -19.292  31.231  1.00  0.00    -0.000 C 
BRANCH  13  14
ATOM     14  C   UNL     1     -19.673 -18.481  31.259  1.00  0.00    -0.000 C 
BRANCH  14  15
ATOM     15  C   UNL     1     -19.148 -18.236  29.836  1.00  0.00    -0.000 C 
BRANCH  15  16
ATOM     16  C   UNL     1     -18.653 -16.796  29.625  1.00  0.00    -0.000 C 
BRANCH  16  17
ATOM     17  C   UNL     1     -18.755 -16.345  28.157  1.00  0.00    -0.000 C 
BRANCH  17  18
ATOM     18  C   UNL     1     -17.544 -15.509  27.714  1.00  0.00    -0.003 C 
ATOM     19  C   UNL     1     -17.314 -15.552  26.204  1.00  0.00     0.004 C 
ENDBRANCH  17  18
ENDBRANCH  16  17
ENDBRANCH  15  16
ENDBRANCH  14  15
ENDBRANCH  13  14
ENDBRANCH  12  13
ENDBRANCH   1  12
TORSDOF 14
ENDMDL
MODEL 3
REMARK VINA RESULT:    -7.196      4.718      9.803
REMARK INTER + INTRA:         -14.001
REMARK INTER:                 -13.036
REMARK INTRA:                  -0.965
REMARK UNBOUND:                -0.915
REMARK SMILES CCCCCCCCCCCCCC[C@H](C)C(=O)[O-]
REMARK SMILES IDX 9 1 10 2 11 3 12 4 13 5 14 6 15 7 16 8 17 9 18 10 19 11 8 12
REMARK SMILES IDX 7 13 6 14 5 15 4 16 3 17 2 18 1 19
REMARK H PARENT
REMARK Flexibility Score: inf
ROOT
ATOM      1  C   UNL     1     -22.689 -22.179  31.287  1.00  0.00     0.000 C 
ENDROOT
BRANCH   1   2
ATOM      2  C   UNL     1     -21.498 -21.400  31.859  1.00  0.00     0.000 C 
BRANCH   2   3
ATOM      3  C   UNL     1     -21.370 -20.023  31.193  1.00  0.00     0.000 C 
BRANCH   3   4
ATOM      4  C   UNL     1     -21.641 -20.062  29.679  1.00  0.00     0.000 C 
BRANCH   4   5
ATOM      5  C   UNL     1     -20.975 -18.905  28.904  1.00  0.00     0.001 C 
BRANCH   5   6
ATOM      6  C   UNL     1     -19.553 -18.603  29.421  1.00  0.00     0.009 C 
BRANCH   6   7
ATOM      7  C   UNL     1     -19.190 -17.103  29.437  1.00  0.00     0.032 C 
ATOM      8  C   UNL     1     -18.241 -16.713  28.295  1.00  0.00     0.014 C 
BRANCH   7   9
ATOM      9  C   UNL     1     -18.653 -16.681  30.780  1.00  0.00     0.044 C 
ATOM     10  O   UNL     1     -18.051 -15.581  30.896  1.00  0.00    -0.550 OA
ATOM     11  O   UNL     1     -18.860 -17.467  31.909  1.00  0.00    -0.550 OA
ENDBRANCH   7   9
ENDBRANCH   6   7
ENDBRANCH   5   6
ENDBRANCH   4   5
ENDBRANCH   3   4
ENDBRANCH   2   3
ENDBRANCH   1   2
BRANCH   1  12
ATOM     12  C   UNL     1     -22.249 -23.559  30.783  1.00  0.00     0.000 C 
BRANCH  12  13
ATOM     13  C   UNL     1     -22.593 -23.738  29.299  1.00  0.00    -0.000 C 
BRANCH  13  14
ATOM     14  C   UNL     1     -23.424 -25.006  29.075  1.00  0.00    -0.000 C 
BRANCH  14  15
ATOM     15  C   UNL     1     -23.807 -25.655  30.414  1.00  0.00    -0.000 C 
BRANCH  15  16
ATOM     16  C   UNL     1     -24.934 -26.691  30.271  1.00  0.00    -0.000 C 
BRANCH  16  17
ATOM     17  C   UNL     1     -25.756 -26.497  28.985  1.00  0.00    -0.000 C 
BRANCH  17  18
ATOM     18  C   UNL     1     -26.004 -27.818  28.241  1.00  0.00    -0.003 C 
ATOM     19  C   UNL     1     -26.824 -28.816  29.060  1.00  0.00     0.004 C 
ENDBRANCH  17  18
ENDBRANCH  16  17
ENDBRANCH  15  16
ENDBRANCH  14  15
ENDBRANCH  13  14
ENDBRANCH  12  13
ENDBRANCH   1  12
TORSDOF 14
ENDMDL
MODEL 4
REMARK VINA RESULT:    -7.185      1.387      2.755
REMARK INTER + INTRA:         -13.981
REMARK INTER:                 -13.128
REMARK INTRA:                  -0.852
REMARK UNBOUND:                -0.915
REMARK SMILES CCCCCCCCCCCCCC[C@H](C)C(=O)[O-]
REMARK SMILES IDX 9 1 10 2 11 3 12 4 13 5 14 6 15 7 16 8 17 9 18 10 19 11 8 12
REMARK SMILES IDX 7 13 6 14 5 15 4 16 3 17 2 18 1 19
REMARK H PARENT
REMARK Flexibility Score: inf
ROOT
ATOM      1  C   UNL     1     -21.194 -19.933  31.298  1.00  0.00     0.000 C 
ENDROOT
BRANCH   1   2
ATOM      2  C   UNL     1     -22.044 -21.037  30.658  1.00  0.00     0.000 C 
BRANCH   2   3
ATOM      3  C   UNL     1     -22.012 -20.937  29.126  1.00  0.00     0.000 C 
BRANCH   3   4
ATOM      4  C   UNL     1     -22.279 -22.284  28.432  1.00  0.00     0.000 C 
BRANCH   4   5
ATOM      5  C   UNL     1     -22.136 -23.501  29.370  1.00  0.00     0.001 C 
BRANCH   5   6
ATOM      6  C   UNL     1     -23.083 -24.653  28.976  1.00  0.00     0.009 C 
BRANCH   6   7
ATOM      7  C   UNL     1     -24.090 -25.049  30.077  1.00  0.00     0.032 C 
ATOM      8  C   UNL     1     -23.588 -24.710  31.487  1.00  0.00     0.014 C 
BRANCH   7   9
ATOM      9  C   UNL     1     -24.491 -26.498  29.959  1.00  0.00     0.044 C 
ATOM     10  O   UNL     1     -24.444 -27.244  30.972  1.00  0.00    -0.550 OA
ATOM     11  O   UNL     1     -24.965 -27.011  28.756  1.00  0.00    -0.550 OA
ENDBRANCH   7   9
ENDBRANCH   6   7
ENDBRANCH   5   6
ENDBRANCH   4   5
ENDBRANCH   3   4
ENDBRANCH   2   3
ENDBRANCH   1   2
BRANCH   1  12
ATOM     12  C   UNL     1     -20.897 -18.815  30.290  1.00  0.00     0.000 C 
BRANCH  12  13
ATOM     13  C   UNL     1     -19.401 -18.480  30.265  1.00  0.00    -0.000 C 
BRANCH  13  14
ATOM     14  C   UNL     1     -19.110 -17.200  31.056  1.00  0.00    -0.000 C 
BRANCH  14  15
ATOM     15  C   UNL     1     -18.380 -16.168  30.181  1.00  0.00    -0.000 C 
BRANCH  15  16
ATOM     16  C   UNL     1     -18.421 -16.523  28.685  1.00  0.00    -0.000 C 
BRANCH  16  17
ATOM     17  C   UNL     1     -17.493 -15.631  27.841  1.00  0.00    -0.000 C 
BRANCH  17  18
ATOM     18  C   UNL     1     -17.849 -15.663  26.346  1.00  0.00    -0.003 C 
ATOM     19  C   UNL     1     -16.746 -15.081  25.462  1.00  0.00     0.004 C 
ENDBRANCH  17  18
ENDBRANCH  16  17
ENDBRANCH  15  16
ENDBRANCH  14  15
ENDBRANCH  13  14
ENDBRANCH  12  13
ENDBRANCH   1  12
TORSDOF 14
ENDMDL
MODEL 5
REMARK VINA RESULT:    -7.173      4.975     10.128
REMARK INTER + INTRA:         -13.958
REMARK INTER:                 -13.284
REMARK INTRA:                  -0.674
REMARK UNBOUND:                -0.915
REMARK SMILES CCCCCCCCCCCCCC[C@H](C)C(=O)[O-]
REMARK SMILES IDX 9 1 10 2 11 3 12 4 13 5 14 6 15 7 16 8 17 9 18 10 19 11 8 12
REMARK SMILES IDX 7 13 6 14 5 15 4 16 3 17 2 18 1 19
REMARK H PARENT
REMARK Flexibility Score: inf
ROOT
ATOM      1  C   UNL     1     -22.056 -23.084  29.278  1.00  0.00     0.000 C 
ENDROOT
BRANCH   1   2
ATOM      2  C   UNL     1     -22.037 -21.556  29.147  1.00  0.00     0.000 C 
BRANCH   2   3
ATOM      3  C   UNL     1     -21.989 -20.886  30.528  1.00  0.00     0.000 C 
BRANCH   3   4
ATOM      4  C   UNL     1     -21.502 -19.427  30.471  1.00  0.00     0.000 C 
BRANCH   4   5
ATOM      5  C   UNL     1     -20.900 -19.032  29.106  1.00  0.00     0.001 C 
BRANCH   5   6
ATOM      6  C   UNL     1     -20.387 -17.577  29.098  1.00  0.00     0.009 C 
BRANCH   6   7
ATOM      7  C   UNL     1     -18.943 -17.411  29.618  1.00  0.00     0.032 C 
ATOM      8  C   UNL     1     -18.870 -17.356  31.150  1.00  0.00     0.014 C 
BRANCH   7   9
ATOM      9  C   UNL     1     -18.262 -16.226  28.982  1.00  0.00     0.044 C 
ATOM     10  O   UNL     1     -18.233 -16.119  27.728  1.00  0.00    -0.550 OA
ATOM     11  O   UNL     1     -17.708 -15.218  29.765  1.00  0.00    -0.550 OA
ENDBRANCH   7   9
ENDBRANCH   6   7
ENDBRANCH   5   6
ENDBRANCH   4   5
ENDBRANCH   3   4
ENDBRANCH   2   3
ENDBRANCH   1   2
BRANCH   1  12
ATOM     12  C   UNL     1     -22.315 -23.506  30.729  1.00  0.00     0.000 C 
BRANCH  12  13
ATOM     13  C   UNL     1     -23.409 -24.580  30.802  1.00  0.00    -0.000 C 
BRANCH  13  14
ATOM     14  C   UNL     1     -23.771 -25.093  29.404  1.00  0.00    -0.000 C 
BRANCH  14  15
ATOM     15  C   UNL     1     -23.848 -26.627  29.384  1.00  0.00    -0.000 C 
BRANCH  15  16
ATOM     16  C   UNL     1     -25.278 -27.153  29.592  1.00  0.00    -0.000 C 
BRANCH  16  17
ATOM     17  C   UNL     1     -26.139 -27.042  28.321  1.00  0.00    -0.000 C 
BRANCH  17  18
ATOM     18  C   UNL     1     -26.629 -28.410  27.822  1.00  0.00    -0.003 C 
ATOM     19  C   UNL     1     -27.001 -28.402  26.340  1.00  0.00     0.004 C 
ENDBRANCH  17  18
ENDBRANCH  16  17
ENDBRANCH  15  16
ENDBRANCH  14  15
ENDBRANCH  13  14
ENDBRANCH  12  13
ENDBRANCH   1  12
TORSDOF 14
ENDMDL
MODEL 6
REMARK VINA RESULT:    -7.097      4.488      9.470
REMARK INTER + INTRA:         -13.820
REMARK INTER:                 -12.818
REMARK INTRA:                  -1.002
REMARK UNBOUND:                -0.915
REMARK SMILES CCCCCCCCCCCCCC[C@H](C)C(=O)[O-]
REMARK SMILES IDX 9 1 10 2 11 3 12 4 13 5 14 6 15 7 16 8 17 9 18 10 19 11 8 12
REMARK SMILES IDX 7 13 6 14 5 15 4 16 3 17 2 18 1 19
REMARK H PARENT
REMARK Flexibility Score: inf
ROOT
ATOM      1  C   UNL     1     -23.233 -23.562  31.428  1.00  0.00     0.000 C 
ENDROOT
BRANCH   1   2
ATOM      2  C   UNL     1     -21.986 -22.893  30.835  1.00  0.00     0.000 C 
BRANCH   2   3
ATOM      3  C   UNL     1     -21.947 -23.058  29.309  1.00  0.00     0.000 C 
BRANCH   3   4
ATOM      4  C   UNL     1     -22.311 -21.766  28.557  1.00  0.00     0.000 C 
BRANCH   4   5
ATOM      5  C   UNL     1     -22.319 -20.511  29.455  1.00  0.00     0.001 C 
BRANCH   5   6
ATOM      6  C   UNL     1     -21.282 -19.465  28.999  1.00  0.00     0.009 C 
BRANCH   6   7
ATOM      7  C   UNL     1     -20.286 -19.039  30.099  1.00  0.00     0.032 C 
ATOM      8  C   UNL     1     -20.811 -19.324  31.513  1.00  0.00     0.014 C 
BRANCH   7   9
ATOM      9  C   UNL     1     -19.870 -17.599  29.937  1.00  0.00     0.044 C 
ATOM     10  O   UNL     1     -19.730 -16.870  30.953  1.00  0.00    -0.550 OA
ATOM     11  O   UNL     1     -19.586 -17.077  28.679  1.00  0.00    -0.550 OA
ENDBRANCH   7   9
ENDBRANCH   6   7
ENDBRANCH   5   6
ENDBRANCH   4   5
ENDBRANCH   3   4
ENDBRANCH   2   3
ENDBRANCH   1   2
BRANCH   1  12
ATOM     12  C   UNL     1     -23.515 -24.903  30.741  1.00  0.00     0.000 C 
BRANCH  12  13
ATOM     13  C   UNL     1     -24.358 -25.816  31.641  1.00  0.00    -0.000 C 
BRANCH  13  14
ATOM     14  C   UNL     1     -25.118 -26.857  30.811  1.00  0.00    -0.000 C 
BRANCH  14  15
ATOM     15  C   UNL     1     -25.410 -26.327  29.398  1.00  0.00    -0.000 C 
BRANCH  15  16
ATOM     16  C   UNL     1     -25.176 -27.384  28.307  1.00  0.00    -0.000 C 
BRANCH  16  17
ATOM     17  C   UNL     1     -26.374 -28.337  28.142  1.00  0.00    -0.000 C 
BRANCH  17  18
ATOM     18  C   UNL     1     -27.176 -28.055  26.861  1.00  0.00    -0.003 C 
ATOM     19  C   UNL     1     -26.651 -28.827  25.650  1.00  0.00     0.004 C 
ENDBRANCH  17  18
ENDBRANCH  16  17
ENDBRANCH  15  16
ENDBRANCH  14  15
ENDBRANCH  13  14
ENDBRANCH  12  13
ENDBRANCH   1  12
TORSDOF 14
ENDMDL
MODEL 7
REMARK VINA RESULT:    -6.990      5.049      9.943
REMARK INTER + INTRA:         -13.626
REMARK INTER:                 -12.886
REMARK INTRA:                  -0.741
REMARK UNBOUND:                -0.915
REMARK SMILES CCCCCCCCCCCCCC[C@H](C)C(=O)[O-]
REMARK SMILES IDX 9 1 10 2 11 3 12 4 13 5 14 6 15 7 16 8 17 9 18 10 19 11 8 12
REMARK SMILES IDX 7 13 6 14 5 15 4 16 3 17 2 18 1 19
REMARK H PARENT
REMARK Flexibility Score: inf
ROOT
ATOM      1  C   UNL     1     -21.636 -21.728  31.463  1.00  0.00     0.000 C 
ENDROOT
BRANCH   1   2
ATOM      2  C   UNL     1     -22.009 -20.351  30.900  1.00  0.00     0.000 C 
BRANCH   2   3
ATOM      3  C   UNL     1     -22.188 -20.409  29.377  1.00  0.00     0.000 C 
BRANCH   3   4
ATOM      4  C   UNL     1     -21.314 -19.386  28.630  1.00  0.00     0.000 C 
BRANCH   4   5
ATOM      5  C   UNL     1     -20.293 -18.669  29.538  1.00  0.00     0.001 C 
BRANCH   5   6
ATOM      6  C   UNL     1     -19.898 -17.284  28.987  1.00  0.00     0.009 C 
BRANCH   6   7
ATOM      7  C   UNL     1     -18.519 -16.782  29.464  1.00  0.00     0.032 C 
ATOM      8  C   UNL     1     -18.523 -16.356  30.939  1.00  0.00     0.014 C 
BRANCH   7   9
ATOM      9  C   UNL     1     -17.991 -15.690  28.568  1.00  0.00     0.044 C 
ATOM     10  O   UNL     1     -17.596 -14.605  29.070  1.00  0.00    -0.550 OA
ATOM     11  O   UNL     1     -17.883 -15.885  27.195  1.00  0.00    -0.550 OA
ENDBRANCH   7   9
ENDBRANCH   6   7
ENDBRANCH   5   6
ENDBRANCH   4   5
ENDBRANCH   3   4
ENDBRANCH   2   3
ENDBRANCH   1   2
BRANCH   1  12
ATOM     12  C   UNL     1     -22.869 -22.437  32.038  1.00  0.00     0.000 C 
BRANCH  12  13
ATOM     13  C   UNL     1     -23.089 -23.795  31.360  1.00  0.00    -0.000 C 
BRANCH  13  14
ATOM     14  C   UNL     1     -22.370 -23.858  30.008  1.00  0.00    -0.000 C 
BRANCH  14  15
ATOM     15  C   UNL     1     -23.125 -24.767  29.026  1.00  0.00    -0.000 C 
BRANCH  15  16
ATOM     16  C   UNL     1     -23.829 -25.942  29.725  1.00  0.00    -0.000 C 
BRANCH  16  17
ATOM     17  C   UNL     1     -24.386 -26.974  28.729  1.00  0.00    -0.000 C 
BRANCH  17  18
ATOM     18  C   UNL     1     -25.921 -27.051  28.761  1.00  0.00    -0.003 C 
ATOM     19  C   UNL     1     -26.470 -28.253  27.992  1.00  0.00     0.004 C 
ENDBRANCH  17  18
ENDBRANCH  16  17
ENDBRANCH  15  16
ENDBRANCH  14  15
ENDBRANCH  13  14
ENDBRANCH  12  13
ENDBRANCH   1  12
TORSDOF 14
ENDMDL
MODEL 8
REMARK VINA RESULT:    -6.584      4.598      9.904
REMARK INTER + INTRA:         -12.887
REMARK INTER:                 -12.296
REMARK INTRA:                  -0.591
REMARK UNBOUND:                -0.915
REMARK SMILES CCCCCCCCCCCCCC[C@H](C)C(=O)[O-]
REMARK SMILES IDX 9 1 10 2 11 3 12 4 13 5 14 6 15 7 16 8 17 9 18 10 19 11 8 12
REMARK SMILES IDX 7 13 6 14 5 15 4 16 3 17 2 18 1 19
REMARK H PARENT
REMARK Flexibility Score: inf
ROOT
ATOM      1  C   UNL     1     -23.145 -24.924  29.138  1.00  0.00     0.000 C 
ENDROOT
BRANCH   1   2
ATOM      2  C   UNL     1     -22.405 -23.593  28.959  1.00  0.00     0.000 C 
BRANCH   2   3
ATOM      3  C   UNL     1     -22.221 -22.880  30.307  1.00  0.00     0.000 C 
BRANCH   3   4
ATOM      4  C   UNL     1     -22.418 -21.357  30.212  1.00  0.00     0.000 C 
BRANCH   4   5
ATOM      5  C   UNL     1     -21.680 -20.714  29.019  1.00  0.00     0.001 C 
BRANCH   5   6
ATOM      6  C   UNL     1     -21.459 -19.201  29.222  1.00  0.00     0.009 C 
BRANCH   6   7
ATOM      7  C   UNL     1     -20.244 -18.852  30.108  1.00  0.00     0.032 C 
ATOM      8  C   UNL     1     -20.529 -19.041  31.604  1.00  0.00     0.014 C 
BRANCH   7   9
ATOM      9  C   UNL     1     -19.723 -17.469  29.809  1.00  0.00     0.044 C 
ATOM     10  O   UNL     1     -19.660 -17.068  28.617  1.00  0.00    -0.550 OA
ATOM     11  O   UNL     1     -19.360 -16.606  30.838  1.00  0.00    -0.550 OA
ENDBRANCH   7   9
ENDBRANCH   6   7
ENDBRANCH   5   6
ENDBRANCH   4   5
ENDBRANCH   3   4
ENDBRANCH   2   3
ENDBRANCH   1   2
BRANCH   1  12
ATOM     12  C   UNL     1     -23.786 -25.013  30.529  1.00  0.00     0.000 C 
BRANCH  12  13
ATOM     13  C   UNL     1     -25.050 -25.881  30.498  1.00  0.00    -0.000 C 
BRANCH  13  14
ATOM     14  C   UNL     1     -25.028 -26.843  29.305  1.00  0.00    -0.000 C 
BRANCH  14  15
ATOM     15  C   UNL     1     -25.915 -28.069  29.571  1.00  0.00    -0.000 C 
BRANCH  15  16
ATOM     16  C   UNL     1     -26.846 -28.396  28.392  1.00  0.00    -0.000 C 
BRANCH  16  17
ATOM     17  C   UNL     1     -26.244 -27.993  27.035  1.00  0.00    -0.000 C 
BRANCH  17  18
ATOM     18  C   UNL     1     -26.675 -28.934  25.898  1.00  0.00    -0.003 C 
ATOM     19  C   UNL     1     -28.005 -28.526  25.263  1.00  0.00     0.004 C 
ENDBRANCH  17  18
ENDBRANCH  16  17
ENDBRANCH  15  16
ENDBRANCH  14  15
ENDBRANCH  13  14
ENDBRANCH  12  13
ENDBRANCH   1  12
TORSDOF 14
ENDMDL
MODEL 9
REMARK VINA RESULT:    -6.397      5.087     10.205
REMARK INTER + INTRA:         -12.547
REMARK INTER:                 -11.746
REMARK INTRA:                  -0.801
REMARK UNBOUND:                -0.915
REMARK SMILES CCCCCCCCCCCCCC[C@H](C)C(=O)[O-]
REMARK SMILES IDX 9 1 10 2 11 3 12 4 13 5 14 6 15 7 16 8 17 9 18 10 19 11 8 12
REMARK SMILES IDX 7 13 6 14 5 15 4 16 3 17 2 18 1 19
REMARK H PARENT
REMARK Flexibility Score: inf
ROOT
ATOM      1  C   UNL     1     -21.896 -20.216  30.893  1.00  0.00     0.000 C 
ENDROOT
BRANCH   1   2
ATOM      2  C   UNL     1     -21.781 -20.327  29.368  1.00  0.00     0.000 C 
BRANCH   2   3
ATOM      3  C   UNL     1     -21.220 -19.033  28.762  1.00  0.00     0.000 C 
BRANCH   3   4
ATOM      4  C   UNL     1     -20.092 -18.415  29.607  1.00  0.00     0.000 C 
BRANCH   4   5
ATOM      5  C   UNL     1     -19.538 -17.098  29.025  1.00  0.00     0.001 C 
BRANCH   5   6
ATOM      6  C   UNL     1     -18.194 -17.305  28.296  1.00  0.00     0.009 C 
BRANCH   6   7
ATOM      7  C   UNL     1     -17.384 -16.009  28.082  1.00  0.00     0.032 C 
ATOM      8  C   UNL     1     -17.812 -14.880  29.030  1.00  0.00     0.014 C 
BRANCH   7   9
ATOM      9  C   UNL     1     -17.417 -15.570  26.640  1.00  0.00     0.044 C 
ATOM     10  O   UNL     1     -16.351 -15.232  26.064  1.00  0.00    -0.550 OA
ATOM     11  O   UNL     1     -18.607 -15.585  25.919  1.00  0.00    -0.550 OA
ENDBRANCH   7   9
ENDBRANCH   6   7
ENDBRANCH   5   6
ENDBRANCH   4   5
ENDBRANCH   3   4
ENDBRANCH   2   3
ENDBRANCH   1   2
BRANCH   1  12
ATOM     12  C   UNL     1     -21.520 -21.541  31.569  1.00  0.00     0.000 C 
BRANCH  12  13
ATOM     13  C   UNL     1     -22.615 -22.595  31.361  1.00  0.00    -0.000 C 
BRANCH  13  14
ATOM     14  C   UNL     1     -22.111 -23.746  30.483  1.00  0.00    -0.000 C 
BRANCH  14  15
ATOM     15  C   UNL     1     -23.122 -24.074  29.373  1.00  0.00    -0.000 C 
BRANCH  15  16
ATOM     16  C   UNL     1     -23.327 -25.586  29.184  1.00  0.00    -0.000 C 
BRANCH  16  17
ATOM     17  C   UNL     1     -24.814 -25.974  29.100  1.00  0.00    -0.000 C 
BRANCH  17  18
ATOM     18  C   UNL     1     -25.294 -26.731  30.349  1.00  0.00    -0.003 C 
ATOM     19  C   UNL     1     -24.700 -26.177  31.643  1.00  0.00     0.004 C 
ENDBRANCH  17  18
ENDBRANCH  16  17
ENDBRANCH  15  16
ENDBRANCH  14  15
ENDBRANCH  13  14
ENDBRANCH  12  13
ENDBRANCH   1  12
TORSDOF 14
ENDMDL
