MODEL 1
REMARK VINA RESULT:    -2.868      0.000      0.000
REMARK INTER + INTRA:         -11.519
REMARK INTER:                  -6.556
REMARK INTRA:                  -4.963
REMARK UNBOUND:                -4.963
REMARK SMILES CCCCCCCCCCCCCCCCCCCCCCCC(=O)[O-]
REMARK SMILES IDX 13 1 14 2 15 3 16 4 17 5 18 6 19 7 20 8 21 9 22 10 23 11
REMARK SMILES IDX 24 12 25 13 26 14 12 15 11 16 10 17 9 18 8 19 7 20 6 21 5 22
REMARK SMILES IDX 4 23 3 24 2 25 1 26
REMARK H PARENT
REMARK Flexibility Score: inf
ROOT
ATOM      1  C   UNL     1      58.478  29.485  49.999  1.00  0.00     0.000 C 
ENDROOT
BRANCH   1   2
ATOM      2  C   UNL     1      59.417  28.354  49.551  1.00  0.00     0.000 C 
BRANCH   2   3
ATOM      3  C   UNL     1      58.757  26.982  49.740  1.00  0.00     0.000 C 
BRANCH   3   4
ATOM      4  C   UNL     1      59.698  26.016  50.476  1.00  0.00     0.000 C 
BRANCH   4   5
ATOM      5  C   UNL     1      60.712  26.747  51.371  1.00  0.00     0.000 C 
BRANCH   5   6
ATOM      6  C   UNL     1      60.287  26.774  52.851  1.00  0.00     0.000 C 
BRANCH   6   7
ATOM      7  C   UNL     1      59.960  28.194  53.342  1.00  0.00     0.000 C 
BRANCH   7   8
ATOM      8  C   UNL     1      61.050  29.212  52.967  1.00  0.00     0.000 C 
BRANCH   8   9
ATOM      9  C   UNL     1      60.551  30.669  53.011  1.00  0.00     0.000 C 
BRANCH   9  10
ATOM     10  C   UNL     1      61.018  31.550  51.838  1.00  0.00     0.006 C 
BRANCH  10  11
ATOM     11  C   UNL     1      61.885  30.791  50.823  1.00  0.00     0.053 C 
BRANCH  11  12
ATOM     12  C   UNL     1      62.838  31.722  50.142  1.00  0.00     0.041 C 
ATOM     13  O   UNL     1      64.081  31.554  50.265  1.00  0.00    -0.550 OA
ATOM     14  O   UNL     1      62.357  32.785  49.386  1.00  0.00    -0.550 OA
ENDBRANCH  11  12
ENDBRANCH  10  11
ENDBRANCH   9  10
ENDBRANCH   8   9
ENDBRANCH   7   8
ENDBRANCH   6   7
ENDBRANCH   5   6
ENDBRANCH   4   5
ENDBRANCH   3   4
ENDBRANCH   2   3
ENDBRANCH   1   2
BRANCH   1  15
ATOM     15  C   UNL     1      57.190  28.963  50.657  1.00  0.00     0.000 C 
BRANCH  15  16
ATOM     16  C   UNL     1      56.836  29.711  51.952  1.00  0.00     0.000 C 
BRANCH  16  17
ATOM     17  C   UNL     1      55.319  29.863  52.156  1.00  0.00     0.000 C 
BRANCH  17  18
ATOM     18  C   UNL     1      54.514  29.893  50.841  1.00  0.00    -0.000 C 
BRANCH  18  19
ATOM     19  C   UNL     1      53.132  29.230  50.988  1.00  0.00    -0.000 C 
BRANCH  19  20
ATOM     20  C   UNL     1      53.224  27.701  51.135  1.00  0.00    -0.000 C 
BRANCH  20  21
ATOM     21  C   UNL     1      53.986  27.043  49.976  1.00  0.00    -0.000 C 
BRANCH  21  22
ATOM     22  C   UNL     1      54.992  26.007  50.496  1.00  0.00    -0.000 C 
BRANCH  22  23
ATOM     23  C   UNL     1      55.040  26.016  52.032  1.00  0.00    -0.000 C 
BRANCH  23  24
ATOM     24  C   UNL     1      56.474  26.042  52.589  1.00  0.00    -0.000 C 
BRANCH  24  25
ATOM     25  C   UNL     1      56.602  26.565  54.032  1.00  0.00    -0.003 C 
ATOM     26  C   UNL     1      55.315  27.202  54.554  1.00  0.00     0.004 C 
ENDBRANCH  24  25
ENDBRANCH  23  24
ENDBRANCH  22  23
ENDBRANCH  21  22
ENDBRANCH  20  21
ENDBRANCH  19  20
ENDBRANCH  18  19
ENDBRANCH  17  18
ENDBRANCH  16  17
ENDBRANCH  15  16
ENDBRANCH   1  15
TORSDOF 22
ENDMDL
MODEL 2
REMARK VINA RESULT:    -2.809      1.330      2.798
REMARK INTER + INTRA:         -11.385
REMARK INTER:                  -7.141
REMARK INTRA:                  -4.245
REMARK UNBOUND:                -4.963
REMARK SMILES CCCCCCCCCCCCCCCCCCCCCCCC(=O)[O-]
REMARK SMILES IDX 13 1 14 2 15 3 16 4 17 5 18 6 19 7 20 8 21 9 22 10 23 11
REMARK SMILES IDX 24 12 25 13 26 14 12 15 11 16 10 17 9 18 8 19 7 20 6 21 5 22
REMARK SMILES IDX 4 23 3 24 2 25 1 26
REMARK H PARENT
REMARK Flexibility Score: inf
ROOT
ATOM      1  C   UNL     1      58.515  25.727  51.360  1.00  0.00     0.000 C 
ENDROOT
BRANCH   1   2
ATOM      2  C   UNL     1      59.013  26.231  49.997  1.00  0.00     0.000 C 
BRANCH   2   3
ATOM      3  C   UNL     1      60.427  26.818  50.110  1.00  0.00     0.000 C 
BRANCH   3   4
ATOM      4  C   UNL     1      60.419  28.330  49.837  1.00  0.00     0.000 C 
BRANCH   4   5
ATOM      5  C   UNL     1      59.017  28.860  49.494  1.00  0.00     0.000 C 
BRANCH   5   6
ATOM      6  C   UNL     1      58.443  29.773  50.593  1.00  0.00     0.000 C 
BRANCH   6   7
ATOM      7  C   UNL     1      59.251  29.702  51.898  1.00  0.00     0.000 C 
BRANCH   7   8
ATOM      8  C   UNL     1      59.855  31.060  52.292  1.00  0.00     0.000 C 
BRANCH   8   9
ATOM      9  C   UNL     1      61.364  31.154  52.001  1.00  0.00     0.000 C 
BRANCH   9  10
ATOM     10  C   UNL     1      61.722  31.715  50.613  1.00  0.00     0.006 C 
BRANCH  10  11
ATOM     11  C   UNL     1      62.969  31.059  50.002  1.00  0.00     0.053 C 
BRANCH  11  12
ATOM     12  C   UNL     1      63.973  32.095  49.608  1.00  0.00     0.041 C 
ATOM     13  O   UNL     1      65.061  31.750  49.074  1.00  0.00    -0.550 OA
ATOM     14  O   UNL     1      63.718  33.441  49.847  1.00  0.00    -0.550 OA
ENDBRANCH  11  12
ENDBRANCH  10  11
ENDBRANCH   9  10
ENDBRANCH   8   9
ENDBRANCH   7   8
ENDBRANCH   6   7
ENDBRANCH   5   6
ENDBRANCH   4   5
ENDBRANCH   3   4
ENDBRANCH   2   3
ENDBRANCH   1   2
BRANCH   1  15
ATOM     15  C   UNL     1      57.216  26.414  51.812  1.00  0.00     0.000 C 
BRANCH  15  16
ATOM     16  C   UNL     1      56.087  26.298  50.776  1.00  0.00     0.000 C 
BRANCH  16  17
ATOM     17  C   UNL     1      55.431  27.652  50.458  1.00  0.00     0.000 C 
BRANCH  17  18
ATOM     18  C   UNL     1      53.893  27.587  50.340  1.00  0.00    -0.000 C 
BRANCH  18  19
ATOM     19  C   UNL     1      53.243  28.981  50.419  1.00  0.00    -0.000 C 
BRANCH  19  20
ATOM     20  C   UNL     1      54.247  30.079  50.810  1.00  0.00    -0.000 C 
BRANCH  20  21
ATOM     21  C   UNL     1      54.113  30.502  52.281  1.00  0.00    -0.000 C 
BRANCH  21  22
ATOM     22  C   UNL     1      55.491  30.676  52.931  1.00  0.00    -0.000 C 
BRANCH  22  23
ATOM     23  C   UNL     1      55.933  29.379  53.628  1.00  0.00    -0.000 C 
BRANCH  23  24
ATOM     24  C   UNL     1      54.791  28.690  54.396  1.00  0.00    -0.000 C 
BRANCH  24  25
ATOM     25  C   UNL     1      54.905  27.158  54.493  1.00  0.00    -0.003 C 
ATOM     26  C   UNL     1      53.751  26.426  53.810  1.00  0.00     0.004 C 
ENDBRANCH  24  25
ENDBRANCH  23  24
ENDBRANCH  22  23
ENDBRANCH  21  22
ENDBRANCH  20  21
ENDBRANCH  19  20
ENDBRANCH  18  19
ENDBRANCH  17  18
ENDBRANCH  16  17
ENDBRANCH  15  16
ENDBRANCH   1  15
TORSDOF 22
ENDMDL
MODEL 3
REMARK VINA RESULT:    -2.650      3.246      6.138
REMARK INTER + INTRA:         -11.021
REMARK INTER:                  -6.239
REMARK INTRA:                  -4.782
REMARK UNBOUND:                -4.963
REMARK SMILES CCCCCCCCCCCCCCCCCCCCCCCC(=O)[O-]
REMARK SMILES IDX 13 1 14 2 15 3 16 4 17 5 18 6 19 7 20 8 21 9 22 10 23 11
REMARK SMILES IDX 24 12 25 13 26 14 12 15 11 16 10 17 9 18 8 19 7 20 6 21 5 22
REMARK SMILES IDX 4 23 3 24 2 25 1 26
REMARK H PARENT
REMARK Flexibility Score: inf
ROOT
ATOM      1  C   UNL     1      54.466  29.257  50.457  1.00  0.00     0.000 C 
ENDROOT
BRANCH   1   2
ATOM      2  C   UNL     1      53.111  28.567  50.674  1.00  0.00     0.000 C 
BRANCH   2   3
ATOM      3  C   UNL     1      53.083  27.186  50.007  1.00  0.00     0.000 C 
BRANCH   3   4
ATOM      4  C   UNL     1      54.419  26.453  50.203  1.00  0.00     0.000 C 
BRANCH   4   5
ATOM      5  C   UNL     1      54.526  25.780  51.581  1.00  0.00     0.000 C 
BRANCH   5   6
ATOM      6  C   UNL     1      55.933  25.902  52.194  1.00  0.00     0.000 C 
BRANCH   6   7
ATOM      7  C   UNL     1      55.904  26.456  53.628  1.00  0.00     0.000 C 
BRANCH   7   8
ATOM      8  C   UNL     1      54.506  26.947  54.041  1.00  0.00     0.000 C 
BRANCH   8   9
ATOM      9  C   UNL     1      54.552  28.165  54.981  1.00  0.00     0.000 C 
BRANCH   9  10
ATOM     10  C   UNL     1      55.963  28.587  55.428  1.00  0.00     0.006 C 
BRANCH  10  11
ATOM     11  C   UNL     1      56.108  30.104  55.614  1.00  0.00     0.053 C 
BRANCH  11  12
ATOM     12  C   UNL     1      56.105  30.462  57.066  1.00  0.00     0.041 C 
ATOM     13  O   UNL     1      56.334  31.648  57.425  1.00  0.00    -0.550 OA
ATOM     14  O   UNL     1      55.869  29.484  58.026  1.00  0.00    -0.550 OA
ENDBRANCH  11  12
ENDBRANCH  10  11
ENDBRANCH   9  10
ENDBRANCH   8   9
ENDBRANCH   7   8
ENDBRANCH   6   7
ENDBRANCH   5   6
ENDBRANCH   4   5
ENDBRANCH   3   4
ENDBRANCH   2   3
ENDBRANCH   1   2
BRANCH   1  15
ATOM     15  C   UNL     1      55.079  29.792  51.761  1.00  0.00     0.000 C 
BRANCH  15  16
ATOM     16  C   UNL     1      56.600  29.588  51.834  1.00  0.00     0.000 C 
BRANCH  16  17
ATOM     17  C   UNL     1      57.172  28.922  50.571  1.00  0.00     0.000 C 
BRANCH  17  18
ATOM     18  C   UNL     1      58.485  29.559  50.071  1.00  0.00    -0.000 C 
BRANCH  18  19
ATOM     19  C   UNL     1      59.523  28.502  49.649  1.00  0.00    -0.000 C 
BRANCH  19  20
ATOM     20  C   UNL     1      58.985  27.066  49.773  1.00  0.00    -0.000 C 
BRANCH  20  21
ATOM     21  C   UNL     1      60.008  26.106  50.398  1.00  0.00    -0.000 C 
BRANCH  21  22
ATOM     22  C   UNL     1      59.448  25.458  51.672  1.00  0.00    -0.000 C 
BRANCH  22  23
ATOM     23  C   UNL     1      60.472  25.530  52.816  1.00  0.00    -0.000 C 
BRANCH  23  24
ATOM     24  C   UNL     1      60.699  26.964  53.330  1.00  0.00    -0.000 C 
BRANCH  24  25
ATOM     25  C   UNL     1      59.416  27.744  53.669  1.00  0.00    -0.003 C 
ATOM     26  C   UNL     1      59.616  29.258  53.664  1.00  0.00     0.004 C 
ENDBRANCH  24  25
ENDBRANCH  23  24
ENDBRANCH  22  23
ENDBRANCH  21  22
ENDBRANCH  20  21
ENDBRANCH  19  20
ENDBRANCH  18  19
ENDBRANCH  17  18
ENDBRANCH  16  17
ENDBRANCH  15  16
ENDBRANCH   1  15
TORSDOF 22
ENDMDL
MODEL 4
REMARK VINA RESULT:    -2.600      1.488      3.377
REMARK INTER + INTRA:         -10.908
REMARK INTER:                  -7.427
REMARK INTRA:                  -3.480
REMARK UNBOUND:                -4.963
REMARK SMILES CCCCCCCCCCCCCCCCCCCCCCCC(=O)[O-]
REMARK SMILES IDX 13 1 14 2 15 3 16 4 17 5 18 6 19 7 20 8 21 9 22 10 23 11
REMARK SMILES IDX 24 12 25 13 26 14 12 15 11 16 10 17 9 18 8 19 7 20 6 21 5 22
REMARK SMILES IDX 4 23 3 24 2 25 1 26
REMARK H PARENT
REMARK Flexibility Score: inf
ROOT
ATOM      1  C   UNL     1      58.987  26.152  51.191  1.00  0.00     0.000 C 
ENDROOT
BRANCH   1   2
ATOM      2  C   UNL     1      59.660  24.771  51.240  1.00  0.00     0.000 C 
BRANCH   2   3
ATOM      3  C   UNL     1      60.997  24.783  50.489  1.00  0.00     0.000 C 
BRANCH   3   4
ATOM      4  C   UNL     1      62.145  25.216  51.415  1.00  0.00     0.000 C 
BRANCH   4   5
ATOM      5  C   UNL     1      63.142  26.156  50.719  1.00  0.00     0.000 C 
BRANCH   5   6
ATOM      6  C   UNL     1      63.048  27.605  51.229  1.00  0.00     0.000 C 
BRANCH   6   7
ATOM      7  C   UNL     1      62.486  27.690  52.658  1.00  0.00     0.000 C 
BRANCH   7   8
ATOM      8  C   UNL     1      61.310  28.675  52.771  1.00  0.00     0.000 C 
BRANCH   8   9
ATOM      9  C   UNL     1      61.765  30.141  52.890  1.00  0.00     0.000 C 
BRANCH   9  10
ATOM     10  C   UNL     1      61.091  31.112  51.904  1.00  0.00     0.006 C 
BRANCH  10  11
ATOM     11  C   UNL     1      62.020  32.242  51.439  1.00  0.00     0.053 C 
BRANCH  11  12
ATOM     12  C   UNL     1      62.490  31.999  50.040  1.00  0.00     0.041 C 
ATOM     13  O   UNL     1      62.545  32.952  49.217  1.00  0.00    -0.550 OA
ATOM     14  O   UNL     1      62.851  30.717  49.637  1.00  0.00    -0.550 OA
ENDBRANCH  11  12
ENDBRANCH  10  11
ENDBRANCH   9  10
ENDBRANCH   8   9
ENDBRANCH   7   8
ENDBRANCH   6   7
ENDBRANCH   5   6
ENDBRANCH   4   5
ENDBRANCH   3   4
ENDBRANCH   2   3
ENDBRANCH   1   2
BRANCH   1  15
ATOM     15  C   UNL     1      59.030  26.786  49.791  1.00  0.00     0.000 C 
BRANCH  15  16
ATOM     16  C   UNL     1      59.802  28.114  49.760  1.00  0.00     0.000 C 
BRANCH  16  17
ATOM     17  C   UNL     1      58.904  29.316  49.422  1.00  0.00     0.000 C 
BRANCH  17  18
ATOM     18  C   UNL     1      57.592  29.362  50.232  1.00  0.00    -0.000 C 
BRANCH  18  19
ATOM     19  C   UNL     1      57.830  29.733  51.708  1.00  0.00    -0.000 C 
BRANCH  19  20
ATOM     20  C   UNL     1      56.779  29.118  52.648  1.00  0.00    -0.000 C 
BRANCH  20  21
ATOM     21  C   UNL     1      55.681  30.119  53.038  1.00  0.00    -0.000 C 
BRANCH  21  22
ATOM     22  C   UNL     1      54.645  30.266  51.917  1.00  0.00    -0.000 C 
BRANCH  22  23
ATOM     23  C   UNL     1      53.816  28.980  51.767  1.00  0.00    -0.000 C 
BRANCH  23  24
ATOM     24  C   UNL     1      53.941  28.343  50.371  1.00  0.00    -0.000 C 
BRANCH  24  25
ATOM     25  C   UNL     1      54.752  27.036  50.324  1.00  0.00    -0.003 C 
ATOM     26  C   UNL     1      54.052  25.923  49.545  1.00  0.00     0.004 C 
ENDBRANCH  24  25
ENDBRANCH  23  24
ENDBRANCH  22  23
ENDBRANCH  21  22
ENDBRANCH  20  21
ENDBRANCH  19  20
ENDBRANCH  18  19
ENDBRANCH  17  18
ENDBRANCH  16  17
ENDBRANCH  15  16
ENDBRANCH   1  15
TORSDOF 22
ENDMDL
MODEL 5
REMARK VINA RESULT:    -2.595      4.925      7.299
REMARK INTER + INTRA:         -10.895
REMARK INTER:                  -7.819
REMARK INTRA:                  -3.076
REMARK UNBOUND:                -4.963
REMARK SMILES CCCCCCCCCCCCCCCCCCCCCCCC(=O)[O-]
REMARK SMILES IDX 13 1 14 2 15 3 16 4 17 5 18 6 19 7 20 8 21 9 22 10 23 11
REMARK SMILES IDX 24 12 25 13 26 14 12 15 11 16 10 17 9 18 8 19 7 20 6 21 5 22
REMARK SMILES IDX 4 23 3 24 2 25 1 26
REMARK H PARENT
REMARK Flexibility Score: inf
ROOT
ATOM      1  C   UNL     1      56.393  26.167  51.694  1.00  0.00     0.000 C 
ENDROOT
BRANCH   1   2
ATOM      2  C   UNL     1      57.883  25.793  51.645  1.00  0.00     0.000 C 
BRANCH   2   3
ATOM      3  C   UNL     1      58.208  24.692  52.662  1.00  0.00     0.000 C 
BRANCH   3   4
ATOM      4  C   UNL     1      59.669  24.786  53.128  1.00  0.00     0.000 C 
BRANCH   4   5
ATOM      5  C   UNL     1      60.578  23.761  52.430  1.00  0.00     0.000 C 
BRANCH   5   6
ATOM      6  C   UNL     1      61.232  24.319  51.154  1.00  0.00     0.000 C 
BRANCH   6   7
ATOM      7  C   UNL     1      61.096  23.363  49.958  1.00  0.00     0.000 C 
BRANCH   7   8
ATOM      8  C   UNL     1      60.977  21.892  50.391  1.00  0.00     0.000 C 
BRANCH   8   9
ATOM      9  C   UNL     1      59.908  21.118  49.597  1.00  0.00     0.000 C 
BRANCH   9  10
ATOM     10  C   UNL     1      59.389  19.841  50.283  1.00  0.00     0.006 C 
BRANCH  10  11
ATOM     11  C   UNL     1      59.020  20.057  51.757  1.00  0.00     0.053 C 
BRANCH  11  12
ATOM     12  C   UNL     1      57.723  19.386  52.081  1.00  0.00     0.041 C 
ATOM     13  O   UNL     1      57.605  18.138  51.945  1.00  0.00    -0.550 OA
ATOM     14  O   UNL     1      56.637  20.138  52.517  1.00  0.00    -0.550 OA
ENDBRANCH  11  12
ENDBRANCH  10  11
ENDBRANCH   9  10
ENDBRANCH   8   9
ENDBRANCH   7   8
ENDBRANCH   6   7
ENDBRANCH   5   6
ENDBRANCH   4   5
ENDBRANCH   3   4
ENDBRANCH   2   3
ENDBRANCH   1   2
BRANCH   1  15
ATOM     15  C   UNL     1      55.914  26.877  50.417  1.00  0.00     0.000 C 
BRANCH  15  16
ATOM     16  C   UNL     1      54.387  26.844  50.253  1.00  0.00     0.000 C 
BRANCH  16  17
ATOM     17  C   UNL     1      53.746  28.238  50.370  1.00  0.00     0.000 C 
BRANCH  17  18
ATOM     18  C   UNL     1      54.757  29.365  50.666  1.00  0.00    -0.000 C 
BRANCH  18  19
ATOM     19  C   UNL     1      54.522  30.012  52.044  1.00  0.00    -0.000 C 
BRANCH  19  20
ATOM     20  C   UNL     1      55.578  29.592  53.080  1.00  0.00    -0.000 C 
BRANCH  20  21
ATOM     21  C   UNL     1      56.904  30.348  52.912  1.00  0.00    -0.000 C 
BRANCH  21  22
ATOM     22  C   UNL     1      58.028  29.400  52.475  1.00  0.00    -0.000 C 
BRANCH  22  23
ATOM     23  C   UNL     1      58.885  30.039  51.370  1.00  0.00    -0.000 C 
BRANCH  23  24
ATOM     24  C   UNL     1      58.483  29.581  49.957  1.00  0.00    -0.000 C 
BRANCH  24  25
ATOM     25  C   UNL     1      59.229  28.336  49.442  1.00  0.00    -0.003 C 
ATOM     26  C   UNL     1      60.592  28.137  50.102  1.00  0.00     0.004 C 
ENDBRANCH  24  25
ENDBRANCH  23  24
ENDBRANCH  22  23
ENDBRANCH  21  22
ENDBRANCH  20  21
ENDBRANCH  19  20
ENDBRANCH  18  19
ENDBRANCH  17  18
ENDBRANCH  16  17
ENDBRANCH  15  16
ENDBRANCH   1  15
TORSDOF 22
ENDMDL
MODEL 6
REMARK VINA RESULT:    -2.581      3.211      7.101
REMARK INTER + INTRA:         -10.864
REMARK INTER:                  -7.157
REMARK INTRA:                  -3.707
REMARK UNBOUND:                -4.963
REMARK SMILES CCCCCCCCCCCCCCCCCCCCCCCC(=O)[O-]
REMARK SMILES IDX 13 1 14 2 15 3 16 4 17 5 18 6 19 7 20 8 21 9 22 10 23 11
REMARK SMILES IDX 24 12 25 13 26 14 12 15 11 16 10 17 9 18 8 19 7 20 6 21 5 22
REMARK SMILES IDX 4 23 3 24 2 25 1 26
REMARK H PARENT
REMARK Flexibility Score: inf
ROOT
ATOM      1  C   UNL     1      58.688  29.644  49.973  1.00  0.00     0.000 C 
ENDROOT
BRANCH   1   2
ATOM      2  C   UNL     1      57.343  29.284  50.622  1.00  0.00     0.000 C 
BRANCH   2   3
ATOM      3  C   UNL     1      57.552  28.466  51.903  1.00  0.00     0.000 C 
BRANCH   3   4
ATOM      4  C   UNL     1      56.637  27.232  51.923  1.00  0.00     0.000 C 
BRANCH   4   5
ATOM      5  C   UNL     1      56.449  26.613  50.529  1.00  0.00     0.000 C 
BRANCH   5   6
ATOM      6  C   UNL     1      54.967  26.428  50.155  1.00  0.00     0.000 C 
BRANCH   6   7
ATOM      7  C   UNL     1      54.032  27.292  51.017  1.00  0.00     0.000 C 
BRANCH   7   8
ATOM      8  C   UNL     1      53.402  28.450  50.224  1.00  0.00     0.000 C 
BRANCH   8   9
ATOM      9  C   UNL     1      53.771  29.834  50.788  1.00  0.00     0.000 C 
BRANCH   9  10
ATOM     10  C   UNL     1      53.807  29.920  52.324  1.00  0.00     0.006 C 
BRANCH  10  11
ATOM     11  C   UNL     1      54.866  30.901  52.848  1.00  0.00     0.053 C 
BRANCH  11  12
ATOM     12  C   UNL     1      54.225  32.165  53.327  1.00  0.00     0.041 C 
ATOM     13  O   UNL     1      54.712  33.281  53.003  1.00  0.00    -0.550 OA
ATOM     14  O   UNL     1      53.101  32.113  54.145  1.00  0.00    -0.550 OA
ENDBRANCH  11  12
ENDBRANCH  10  11
ENDBRANCH   9  10
ENDBRANCH   8   9
ENDBRANCH   7   8
ENDBRANCH   6   7
ENDBRANCH   5   6
ENDBRANCH   4   5
ENDBRANCH   3   4
ENDBRANCH   2   3
ENDBRANCH   1   2
BRANCH   1  15
ATOM     15  C   UNL     1      59.362  28.443  49.289  1.00  0.00     0.000 C 
BRANCH  15  16
ATOM     16  C   UNL     1      60.780  28.174  49.815  1.00  0.00     0.000 C 
BRANCH  16  17
ATOM     17  C   UNL     1      61.212  29.176  50.899  1.00  0.00     0.000 C 
BRANCH  17  18
ATOM     18  C   UNL     1      62.497  29.956  50.551  1.00  0.00    -0.000 C 
BRANCH  18  19
ATOM     19  C   UNL     1      63.452  29.138  49.660  1.00  0.00    -0.000 C 
BRANCH  19  20
ATOM     20  C   UNL     1      64.423  28.271  50.479  1.00  0.00    -0.000 C 
BRANCH  20  21
ATOM     21  C   UNL     1      64.205  26.767  50.252  1.00  0.00    -0.000 C 
BRANCH  21  22
ATOM     22  C   UNL     1      63.637  26.097  51.509  1.00  0.00    -0.000 C 
BRANCH  22  23
ATOM     23  C   UNL     1      62.395  25.259  51.168  1.00  0.00    -0.000 C 
BRANCH  23  24
ATOM     24  C   UNL     1      61.305  25.330  52.253  1.00  0.00    -0.000 C 
BRANCH  24  25
ATOM     25  C   UNL     1      59.860  25.251  51.728  1.00  0.00    -0.003 C 
ATOM     26  C   UNL     1      59.033  24.161  52.409  1.00  0.00     0.004 C 
ENDBRANCH  24  25
ENDBRANCH  23  24
ENDBRANCH  22  23
ENDBRANCH  21  22
ENDBRANCH  20  21
ENDBRANCH  19  20
ENDBRANCH  18  19
ENDBRANCH  17  18
ENDBRANCH  16  17
ENDBRANCH  15  16
ENDBRANCH   1  15
TORSDOF 22
ENDMDL
MODEL 7
REMARK VINA RESULT:    -2.562      3.039      5.324
REMARK INTER + INTRA:         -10.820
REMARK INTER:                  -7.275
REMARK INTRA:                  -3.546
REMARK UNBOUND:                -4.963
REMARK SMILES CCCCCCCCCCCCCCCCCCCCCCCC(=O)[O-]
REMARK SMILES IDX 13 1 14 2 15 3 16 4 17 5 18 6 19 7 20 8 21 9 22 10 23 11
REMARK SMILES IDX 24 12 25 13 26 14 12 15 11 16 10 17 9 18 8 19 7 20 6 21 5 22
REMARK SMILES IDX 4 23 3 24 2 25 1 26
REMARK H PARENT
REMARK Flexibility Score: inf
ROOT
ATOM      1  C   UNL     1      54.271  25.886  49.776  1.00  0.00     0.000 C 
ENDROOT
BRANCH   1   2
ATOM      2  C   UNL     1      55.225  26.270  50.917  1.00  0.00     0.000 C 
BRANCH   2   3
ATOM      3  C   UNL     1      56.463  26.998  50.378  1.00  0.00     0.000 C 
BRANCH   3   4
ATOM      4  C   UNL     1      56.983  28.027  51.395  1.00  0.00     0.000 C 
BRANCH   4   5
ATOM      5  C   UNL     1      57.308  29.383  50.750  1.00  0.00     0.000 C 
BRANCH   5   6
ATOM      6  C   UNL     1      58.501  29.308  49.780  1.00  0.00     0.000 C 
BRANCH   6   7
ATOM      7  C   UNL     1      59.774  29.940  50.365  1.00  0.00     0.000 C 
BRANCH   7   8
ATOM      8  C   UNL     1      60.939  28.940  50.459  1.00  0.00     0.000 C 
BRANCH   8   9
ATOM      9  C   UNL     1      60.595  27.562  49.865  1.00  0.00     0.000 C 
BRANCH   9  10
ATOM     10  C   UNL     1      60.777  26.376  50.830  1.00  0.00     0.006 C 
BRANCH  10  11
ATOM     11  C   UNL     1      59.668  25.321  50.703  1.00  0.00     0.053 C 
BRANCH  11  12
ATOM     12  C   UNL     1      60.233  23.942  50.832  1.00  0.00     0.041 C 
ATOM     13  O   UNL     1      59.853  23.188  51.767  1.00  0.00    -0.550 OA
ATOM     14  O   UNL     1      61.192  23.493  49.930  1.00  0.00    -0.550 OA
ENDBRANCH  11  12
ENDBRANCH  10  11
ENDBRANCH   9  10
ENDBRANCH   8   9
ENDBRANCH   7   8
ENDBRANCH   6   7
ENDBRANCH   5   6
ENDBRANCH   4   5
ENDBRANCH   3   4
ENDBRANCH   2   3
ENDBRANCH   1   2
BRANCH   1  15
ATOM     15  C   UNL     1      52.984  26.727  49.767  1.00  0.00     0.000 C 
BRANCH  15  16
ATOM     16  C   UNL     1      52.958  27.792  50.874  1.00  0.00     0.000 C 
BRANCH  16  17
ATOM     17  C   UNL     1      53.129  29.221  50.329  1.00  0.00     0.000 C 
BRANCH  17  18
ATOM     18  C   UNL     1      53.890  30.164  51.284  1.00  0.00    -0.000 C 
BRANCH  18  19
ATOM     19  C   UNL     1      53.400  30.040  52.739  1.00  0.00    -0.000 C 
BRANCH  19  20
ATOM     20  C   UNL     1      54.344  29.190  53.608  1.00  0.00    -0.000 C 
BRANCH  20  21
ATOM     21  C   UNL     1      54.441  29.707  55.051  1.00  0.00    -0.000 C 
BRANCH  21  22
ATOM     22  C   UNL     1      54.927  31.162  55.083  1.00  0.00    -0.000 C 
BRANCH  22  23
ATOM     23  C   UNL     1      56.447  31.235  54.865  1.00  0.00    -0.000 C 
BRANCH  23  24
ATOM     24  C   UNL     1      56.837  32.041  53.612  1.00  0.00    -0.000 C 
BRANCH  24  25
ATOM     25  C   UNL     1      58.311  31.911  53.189  1.00  0.00    -0.003 C 
ATOM     26  C   UNL     1      59.032  30.751  53.874  1.00  0.00     0.004 C 
ENDBRANCH  24  25
ENDBRANCH  23  24
ENDBRANCH  22  23
ENDBRANCH  21  22
ENDBRANCH  20  21
ENDBRANCH  19  20
ENDBRANCH  18  19
ENDBRANCH  17  18
ENDBRANCH  16  17
ENDBRANCH  15  16
ENDBRANCH   1  15
TORSDOF 22
ENDMDL
MODEL 8
REMARK VINA RESULT:    -2.523      3.106      6.803
REMARK INTER + INTRA:         -10.730
REMARK INTER:                  -7.270
REMARK INTRA:                  -3.460
REMARK UNBOUND:                -4.963
REMARK SMILES CCCCCCCCCCCCCCCCCCCCCCCC(=O)[O-]
REMARK SMILES IDX 13 1 14 2 15 3 16 4 17 5 18 6 19 7 20 8 21 9 22 10 23 11
REMARK SMILES IDX 24 12 25 13 26 14 12 15 11 16 10 17 9 18 8 19 7 20 6 21 5 22
REMARK SMILES IDX 4 23 3 24 2 25 1 26
REMARK H PARENT
REMARK Flexibility Score: inf
ROOT
ATOM      1  C   UNL     1      57.386  29.610  53.101  1.00  0.00     0.000 C 
ENDROOT
BRANCH   1   2
ATOM      2  C   UNL     1      56.194  30.575  53.017  1.00  0.00     0.000 C 
BRANCH   2   3
ATOM      3  C   UNL     1      54.876  29.809  52.843  1.00  0.00     0.000 C 
BRANCH   3   4
ATOM      4  C   UNL     1      53.847  30.652  52.074  1.00  0.00     0.000 C 
BRANCH   4   5
ATOM      5  C   UNL     1      53.385  29.978  50.773  1.00  0.00     0.000 C 
BRANCH   5   6
ATOM      6  C   UNL     1      54.298  28.813  50.350  1.00  0.00     0.000 C 
BRANCH   6   7
ATOM      7  C   UNL     1      53.552  27.470  50.297  1.00  0.00     0.000 C 
BRANCH   7   8
ATOM      8  C   UNL     1      54.491  26.285  50.015  1.00  0.00     0.000 C 
BRANCH   8   9
ATOM      9  C   UNL     1      55.963  26.595  50.344  1.00  0.00     0.000 C 
BRANCH   9  10
ATOM     10  C   UNL     1      56.389  26.262  51.785  1.00  0.00     0.006 C 
BRANCH  10  11
ATOM     11  C   UNL     1      57.825  25.727  51.880  1.00  0.00     0.053 C 
BRANCH  11  12
ATOM     12  C   UNL     1      58.260  25.631  53.308  1.00  0.00     0.041 C 
ATOM     13  O   UNL     1      57.807  24.715  54.046  1.00  0.00    -0.550 OA
ATOM     14  O   UNL     1      59.153  26.560  53.830  1.00  0.00    -0.550 OA
ENDBRANCH  11  12
ENDBRANCH  10  11
ENDBRANCH   9  10
ENDBRANCH   8   9
ENDBRANCH   7   8
ENDBRANCH   6   7
ENDBRANCH   5   6
ENDBRANCH   4   5
ENDBRANCH   3   4
ENDBRANCH   2   3
ENDBRANCH   1   2
BRANCH   1  15
ATOM     15  C   UNL     1      58.395  29.808  51.957  1.00  0.00     0.000 C 
BRANCH  15  16
ATOM     16  C   UNL     1      57.769  29.614  50.568  1.00  0.00     0.000 C 
BRANCH  16  17
ATOM     17  C   UNL     1      58.820  29.391  49.467  1.00  0.00     0.000 C 
BRANCH  17  18
ATOM     18  C   UNL     1      59.531  28.024  49.551  1.00  0.00    -0.000 C 
BRANCH  18  19
ATOM     19  C   UNL     1      61.025  28.164  49.901  1.00  0.00    -0.000 C 
BRANCH  19  20
ATOM     20  C   UNL     1      61.360  27.602  51.293  1.00  0.00    -0.000 C 
BRANCH  20  21
ATOM     21  C   UNL     1      62.565  26.650  51.269  1.00  0.00    -0.000 C 
BRANCH  21  22
ATOM     22  C   UNL     1      62.187  25.299  50.646  1.00  0.00    -0.000 C 
BRANCH  22  23
ATOM     23  C   UNL     1      61.711  24.314  51.726  1.00  0.00    -0.000 C 
BRANCH  23  24
ATOM     24  C   UNL     1      61.134  23.013  51.140  1.00  0.00    -0.000 C 
BRANCH  24  25
ATOM     25  C   UNL     1      59.900  22.459  51.877  1.00  0.00    -0.003 C 
ATOM     26  C   UNL     1      60.149  22.217  53.365  1.00  0.00     0.004 C 
ENDBRANCH  24  25
ENDBRANCH  23  24
ENDBRANCH  22  23
ENDBRANCH  21  22
ENDBRANCH  20  21
ENDBRANCH  19  20
ENDBRANCH  18  19
ENDBRANCH  17  18
ENDBRANCH  16  17
ENDBRANCH  15  16
ENDBRANCH   1  15
TORSDOF 22
ENDMDL
MODEL 9
REMARK VINA RESULT:    -2.514      1.875      4.327
REMARK INTER + INTRA:         -10.711
REMARK INTER:                  -6.583
REMARK INTRA:                  -4.127
REMARK UNBOUND:                -4.963
REMARK SMILES CCCCCCCCCCCCCCCCCCCCCCCC(=O)[O-]
REMARK SMILES IDX 13 1 14 2 15 3 16 4 17 5 18 6 19 7 20 8 21 9 22 10 23 11
REMARK SMILES IDX 24 12 25 13 26 14 12 15 11 16 10 17 9 18 8 19 7 20 6 21 5 22
REMARK SMILES IDX 4 23 3 24 2 25 1 26
REMARK H PARENT
REMARK Flexibility Score: inf
ROOT
ATOM      1  C   UNL     1      53.749  28.125  50.345  1.00  0.00     0.000 C 
ENDROOT
BRANCH   1   2
ATOM      2  C   UNL     1      54.812  29.142  50.787  1.00  0.00     0.000 C 
BRANCH   2   3
ATOM      3  C   UNL     1      56.223  28.552  50.665  1.00  0.00     0.000 C 
BRANCH   3   4
ATOM      4  C   UNL     1      56.878  28.401  52.048  1.00  0.00     0.000 C 
BRANCH   4   5
ATOM      5  C   UNL     1      57.743  27.135  52.156  1.00  0.00     0.000 C 
BRANCH   5   6
ATOM      6  C   UNL     1      57.710  26.282  50.875  1.00  0.00     0.000 C 
BRANCH   6   7
ATOM      7  C   UNL     1      59.096  26.146  50.224  1.00  0.00     0.000 C 
BRANCH   7   8
ATOM      8  C   UNL     1      60.060  27.265  50.651  1.00  0.00     0.000 C 
BRANCH   8   9
ATOM      9  C   UNL     1      60.124  28.422  49.637  1.00  0.00     0.000 C 
BRANCH   9  10
ATOM     10  C   UNL     1      59.790  29.810  50.214  1.00  0.00     0.006 C 
BRANCH  10  11
ATOM     11  C   UNL     1      60.730  30.231  51.353  1.00  0.00     0.053 C 
BRANCH  11  12
ATOM     12  C   UNL     1      61.624  31.347  50.915  1.00  0.00     0.041 C 
ATOM     13  O   UNL     1      62.430  31.173  49.960  1.00  0.00    -0.550 OA
ATOM     14  O   UNL     1      61.584  32.573  51.570  1.00  0.00    -0.550 OA
ENDBRANCH  11  12
ENDBRANCH  10  11
ENDBRANCH   9  10
ENDBRANCH   8   9
ENDBRANCH   7   8
ENDBRANCH   6   7
ENDBRANCH   5   6
ENDBRANCH   4   5
ENDBRANCH   3   4
ENDBRANCH   2   3
ENDBRANCH   1   2
BRANCH   1  15
ATOM     15  C   UNL     1      54.348  26.755  49.986  1.00  0.00     0.000 C 
BRANCH  15  16
ATOM     16  C   UNL     1      53.509  25.580  50.513  1.00  0.00     0.000 C 
BRANCH  16  17
ATOM     17  C   UNL     1      53.262  25.658  52.029  1.00  0.00     0.000 C 
BRANCH  17  18
ATOM     18  C   UNL     1      54.488  25.267  52.881  1.00  0.00    -0.000 C 
BRANCH  18  19
ATOM     19  C   UNL     1      54.726  26.247  54.045  1.00  0.00    -0.000 C 
BRANCH  19  20
ATOM     20  C   UNL     1      53.770  27.451  54.006  1.00  0.00    -0.000 C 
BRANCH  20  21
ATOM     21  C   UNL     1      54.335  28.676  54.741  1.00  0.00    -0.000 C 
BRANCH  21  22
ATOM     22  C   UNL     1      53.717  29.973  54.204  1.00  0.00    -0.000 C 
BRANCH  22  23
ATOM     23  C   UNL     1      54.566  31.190  54.605  1.00  0.00    -0.000 C 
BRANCH  23  24
ATOM     24  C   UNL     1      55.659  31.526  53.574  1.00  0.00    -0.000 C 
BRANCH  24  25
ATOM     25  C   UNL     1      56.218  32.958  53.663  1.00  0.00    -0.003 C 
ATOM     26  C   UNL     1      55.188  34.028  53.304  1.00  0.00     0.004 C 
ENDBRANCH  24  25
ENDBRANCH  23  24
ENDBRANCH  22  23
ENDBRANCH  21  22
ENDBRANCH  20  21
ENDBRANCH  19  20
ENDBRANCH  18  19
ENDBRANCH  17  18
ENDBRANCH  16  17
ENDBRANCH  15  16
ENDBRANCH   1  15
TORSDOF 22
ENDMDL
