MODEL 1
REMARK VINA RESULT:    -4.463      0.000      0.000
REMARK INTER + INTRA:          -5.104
REMARK INTER:                  -5.115
REMARK INTRA:                   0.012
REMARK UNBOUND:                 0.012
REMARK SMILES COc1cc(C=O)ccc1O
REMARK SMILES IDX 3 1 10 2 9 3 8 4 5 5 4 6 2 7 1 8 11 9 6 11 7 12
REMARK H PARENT 11 10
REMARK Flexibility Score: inf
ROOT
ATOM      1  C   UNL     1      14.341  22.189  -0.863  1.00  0.00     0.161 A 
ATOM      2  C   UNL     1      14.525  22.843  -2.090  1.00  0.00     0.157 A 
ATOM      3  C   UNL     1      13.808  22.429  -3.221  1.00  0.00     0.051 A 
ATOM      4  C   UNL     1      12.908  21.365  -3.135  1.00  0.00     0.015 A 
ATOM      5  C   UNL     1      12.713  20.700  -1.914  1.00  0.00     0.018 A 
ATOM      6  C   UNL     1      13.431  21.115  -0.782  1.00  0.00     0.062 A 
ENDROOT
BRANCH   1   7
ATOM      7  O   UNL     1      15.077  22.633   0.247  1.00  0.00    -0.493 OA
ATOM      8  C   UNL     1      16.434  22.284   0.506  1.00  0.00     0.278 C 
ENDBRANCH   1   7
BRANCH   2   9
ATOM      9  O   UNL     1      15.422  23.905  -2.178  1.00  0.00    -0.504 OA
ATOM     10  H   UNL     1      15.579  24.397  -3.050  1.00  0.00     0.293 HD
ENDBRANCH   2   9
BRANCH   5  11
ATOM     11  C   UNL     1      11.767  19.574  -1.803  1.00  0.00     0.260 C 
ATOM     12  O   UNL     1      10.705  19.548  -2.482  1.00  0.00    -0.298 OA
ENDBRANCH   5  11
TORSDOF 3
ENDMDL
MODEL 2
REMARK VINA RESULT:    -4.269      1.366      1.544
REMARK INTER + INTRA:          -4.882
REMARK INTER:                  -4.806
REMARK INTRA:                  -0.075
REMARK UNBOUND:                 0.012
REMARK SMILES COc1cc(C=O)ccc1O
REMARK SMILES IDX 3 1 10 2 9 3 8 4 5 5 4 6 2 7 1 8 11 9 6 11 7 12
REMARK H PARENT 11 10
REMARK Flexibility Score: inf
ROOT
ATOM      1  C   UNL     1      14.488  22.447  -0.949  1.00  0.00     0.161 A 
ATOM      2  C   UNL     1      13.696  23.591  -0.771  1.00  0.00     0.157 A 
ATOM      3  C   UNL     1      12.302  23.503  -0.880  1.00  0.00     0.051 A 
ATOM      4  C   UNL     1      11.691  22.281  -1.169  1.00  0.00     0.015 A 
ATOM      5  C   UNL     1      12.471  21.127  -1.351  1.00  0.00     0.018 A 
ATOM      6  C   UNL     1      13.867  21.215  -1.241  1.00  0.00     0.062 A 
ENDROOT
BRANCH   1   7
ATOM      7  O   UNL     1      15.881  22.575  -0.832  1.00  0.00    -0.493 OA
ATOM      8  C   UNL     1      16.634  22.172   0.309  1.00  0.00     0.278 C 
ENDBRANCH   1   7
BRANCH   2   9
ATOM      9  O   UNL     1      14.302  24.811  -0.483  1.00  0.00    -0.504 OA
ATOM     10  H   UNL     1      15.140  24.867   0.084  1.00  0.00     0.293 HD
ENDBRANCH   2   9
BRANCH   5  11
ATOM     11  C   UNL     1      11.845  19.827  -1.656  1.00  0.00     0.260 C 
ATOM     12  O   UNL     1      11.032  19.704  -2.611  1.00  0.00    -0.298 OA
ENDBRANCH   5  11
TORSDOF 3
ENDMDL
MODEL 3
REMARK VINA RESULT:    -4.039      2.067      4.171
REMARK INTER + INTRA:          -4.618
REMARK INTER:                  -4.563
REMARK INTRA:                  -0.055
REMARK UNBOUND:                 0.012
REMARK SMILES COc1cc(C=O)ccc1O
REMARK SMILES IDX 3 1 10 2 9 3 8 4 5 5 4 6 2 7 1 8 11 9 6 11 7 12
REMARK H PARENT 11 10
REMARK Flexibility Score: inf
ROOT
ATOM      1  C   UNL     1      13.966  22.722  -2.848  1.00  0.00     0.161 A 
ATOM      2  C   UNL     1      14.027  24.122  -2.777  1.00  0.00     0.157 A 
ATOM      3  C   UNL     1      14.667  24.743  -1.698  1.00  0.00     0.051 A 
ATOM      4  C   UNL     1      15.247  23.977  -0.685  1.00  0.00     0.015 A 
ATOM      5  C   UNL     1      15.195  22.575  -0.740  1.00  0.00     0.018 A 
ATOM      6  C   UNL     1      14.553  21.953  -1.823  1.00  0.00     0.062 A 
ENDROOT
BRANCH   1   7
ATOM      7  O   UNL     1      13.316  22.137  -3.946  1.00  0.00    -0.493 OA
ATOM      8  C   UNL     1      12.981  20.755  -4.041  1.00  0.00     0.278 C 
ENDBRANCH   1   7
BRANCH   2   9
ATOM      9  O   UNL     1      13.448  24.888  -3.787  1.00  0.00    -0.504 OA
ATOM     10  H   UNL     1      12.469  24.795  -4.029  1.00  0.00     0.293 HD
ENDBRANCH   2   9
BRANCH   5  11
ATOM     11  C   UNL     1      15.802  21.748   0.319  1.00  0.00     0.260 C 
ATOM     12  O   UNL     1      17.011  21.893   0.644  1.00  0.00    -0.298 OA
ENDBRANCH   5  11
TORSDOF 3
ENDMDL
MODEL 4
REMARK VINA RESULT:    -3.998      1.326      2.740
REMARK INTER + INTRA:          -4.571
REMARK INTER:                  -4.516
REMARK INTRA:                  -0.055
REMARK UNBOUND:                 0.012
REMARK SMILES COc1cc(C=O)ccc1O
REMARK SMILES IDX 3 1 10 2 9 3 8 4 5 5 4 6 2 7 1 8 11 9 6 11 7 12
REMARK H PARENT 11 10
REMARK Flexibility Score: inf
ROOT
ATOM      1  C   UNL     1      14.031  23.368  -1.692  1.00  0.00     0.161 A 
ATOM      2  C   UNL     1      14.634  23.227  -0.433  1.00  0.00     0.157 A 
ATOM      3  C   UNL     1      14.378  22.091   0.345  1.00  0.00     0.051 A 
ATOM      4  C   UNL     1      13.521  21.093  -0.123  1.00  0.00     0.015 A 
ATOM      5  C   UNL     1      12.909  21.219  -1.381  1.00  0.00     0.018 A 
ATOM      6  C   UNL     1      13.166  22.357  -2.160  1.00  0.00     0.062 A 
ENDROOT
BRANCH   1   7
ATOM      7  O   UNL     1      14.312  24.520  -2.442  1.00  0.00    -0.493 OA
ATOM      8  C   UNL     1      13.564  24.946  -3.577  1.00  0.00     0.278 C 
ENDBRANCH   1   7
BRANCH   2   9
ATOM      9  O   UNL     1      15.489  24.222   0.036  1.00  0.00    -0.504 OA
ATOM     10  H   UNL     1      15.393  24.608   0.969  1.00  0.00     0.293 HD
ENDBRANCH   2   9
BRANCH   5  11
ATOM     11  C   UNL     1      12.002  20.175  -1.893  1.00  0.00     0.260 C 
ATOM     12  O   UNL     1      11.837  20.008  -3.132  1.00  0.00    -0.298 OA
ENDBRANCH   5  11
TORSDOF 3
ENDMDL
MODEL 5
REMARK VINA RESULT:    -3.894      2.402      3.679
REMARK INTER + INTRA:          -4.452
REMARK INTER:                  -4.411
REMARK INTRA:                  -0.040
REMARK UNBOUND:                 0.012
REMARK SMILES COc1cc(C=O)ccc1O
REMARK SMILES IDX 3 1 10 2 9 3 8 4 5 5 4 6 2 7 1 8 11 9 6 11 7 12
REMARK H PARENT 11 10
REMARK Flexibility Score: inf
ROOT
ATOM      1  C   UNL     1      14.670  22.504  -0.862  1.00  0.00     0.161 A 
ATOM      2  C   UNL     1      13.531  22.077  -0.163  1.00  0.00     0.157 A 
ATOM      3  C   UNL     1      12.299  22.710  -0.373  1.00  0.00     0.051 A 
ATOM      4  C   UNL     1      12.195  23.769  -1.278  1.00  0.00     0.015 A 
ATOM      5  C   UNL     1      13.325  24.208  -1.985  1.00  0.00     0.018 A 
ATOM      6  C   UNL     1      14.559  23.573  -1.774  1.00  0.00     0.062 A 
ENDROOT
BRANCH   1   7
ATOM      7  O   UNL     1      15.885  21.844  -0.624  1.00  0.00    -0.493 OA
ATOM      8  C   UNL     1      16.813  22.206   0.395  1.00  0.00     0.278 C 
ENDBRANCH   1   7
BRANCH   2   9
ATOM      9  O   UNL     1      13.632  21.021   0.741  1.00  0.00    -0.504 OA
ATOM     10  H   UNL     1      13.535  20.057   0.443  1.00  0.00     0.293 HD
ENDBRANCH   2   9
BRANCH   5  11
ATOM     11  C   UNL     1      13.236  25.324  -2.946  1.00  0.00     0.260 C 
ATOM     12  O   UNL     1      13.664  25.203  -4.125  1.00  0.00    -0.298 OA
ENDBRANCH   5  11
TORSDOF 3
ENDMDL
MODEL 6
REMARK VINA RESULT:    -3.821      1.703      4.333
REMARK INTER + INTRA:          -4.368
REMARK INTER:                  -4.291
REMARK INTRA:                  -0.076
REMARK UNBOUND:                 0.012
REMARK SMILES COc1cc(C=O)ccc1O
REMARK SMILES IDX 3 1 10 2 9 3 8 4 5 5 4 6 2 7 1 8 11 9 6 11 7 12
REMARK H PARENT 11 10
REMARK Flexibility Score: inf
ROOT
ATOM      1  C   UNL     1      12.876  21.553  -1.187  1.00  0.00     0.161 A 
ATOM      2  C   UNL     1      13.668  21.322  -0.053  1.00  0.00     0.157 A 
ATOM      3  C   UNL     1      14.668  22.235   0.305  1.00  0.00     0.051 A 
ATOM      4  C   UNL     1      14.885  23.381  -0.464  1.00  0.00     0.015 A 
ATOM      5  C   UNL     1      14.101  23.628  -1.602  1.00  0.00     0.018 A 
ATOM      6  C   UNL     1      13.100  22.711  -1.960  1.00  0.00     0.062 A 
ENDROOT
BRANCH   1   7
ATOM      7  O   UNL     1      11.885  20.615  -1.513  1.00  0.00    -0.493 OA
ATOM      8  C   UNL     1      11.988  19.668  -2.573  1.00  0.00     0.278 C 
ENDBRANCH   1   7
BRANCH   2   9
ATOM      9  O   UNL     1      13.454  20.179   0.715  1.00  0.00    -0.504 OA
ATOM     10  H   UNL     1      13.244  19.284   0.288  1.00  0.00     0.293 HD
ENDBRANCH   2   9
BRANCH   5  11
ATOM     11  C   UNL     1      14.314  24.832  -2.426  1.00  0.00     0.260 C 
ATOM     12  O   UNL     1      13.698  24.993  -3.514  1.00  0.00    -0.298 OA
ENDBRANCH   5  11
TORSDOF 3
ENDMDL
MODEL 7
REMARK VINA RESULT:    -3.626      1.970      4.417
REMARK INTER + INTRA:          -4.145
REMARK INTER:                  -4.131
REMARK INTRA:                  -0.014
REMARK UNBOUND:                 0.012
REMARK SMILES COc1cc(C=O)ccc1O
REMARK SMILES IDX 3 1 10 2 9 3 8 4 5 5 4 6 2 7 1 8 11 9 6 11 7 12
REMARK H PARENT 11 10
REMARK Flexibility Score: inf
ROOT
ATOM      1  C   UNL     1      12.107  20.004  -2.552  1.00  0.00     0.161 A 
ATOM      2  C   UNL     1      13.344  20.083  -3.208  1.00  0.00     0.157 A 
ATOM      3  C   UNL     1      14.215  21.147  -2.940  1.00  0.00     0.051 A 
ATOM      4  C   UNL     1      13.858  22.137  -2.021  1.00  0.00     0.015 A 
ATOM      5  C   UNL     1      12.623  22.073  -1.356  1.00  0.00     0.018 A 
ATOM      6  C   UNL     1      11.752  21.006  -1.625  1.00  0.00     0.062 A 
ENDROOT
BRANCH   1   7
ATOM      7  O   UNL     1      11.262  18.923  -2.847  1.00  0.00    -0.493 OA
ATOM      8  C   UNL     1      10.372  18.875  -3.958  1.00  0.00     0.278 C 
ENDBRANCH   1   7
BRANCH   2   9
ATOM      9  O   UNL     1      13.702  19.097  -4.125  1.00  0.00    -0.504 OA
ATOM     10  H   UNL     1      14.059  19.332  -5.044  1.00  0.00     0.293 HD
ENDBRANCH   2   9
BRANCH   5  11
ATOM     11  C   UNL     1      12.229  23.107  -0.382  1.00  0.00     0.260 C 
ATOM     12  O   UNL     1      12.725  24.265  -0.426  1.00  0.00    -0.298 OA
ENDBRANCH   5  11
TORSDOF 3
ENDMDL
