MODEL 1
REMARK VINA RESULT:    -3.191      0.000      0.000
REMARK INTER + INTRA:          -4.145
REMARK INTER:                  -3.938
REMARK INTRA:                  -0.207
REMARK UNBOUND:                -0.207
REMARK SMILES [NH3+][C@H](Cc1ccc(O)cc1)C(=O)[O-]
REMARK SMILES IDX 3 1 2 2 1 3 11 7 12 8 13 9 4 10 5 11 10 12 6 13 9 14 7 15
REMARK SMILES IDX 8 16
REMARK H PARENT 1 4 1 5 1 6 8 17
REMARK Flexibility Score: inf
ROOT
ATOM      1  C   UNL     1     141.860 125.625 125.629  1.00  0.00     0.107 C 
ENDROOT
BRANCH   1   2
ATOM      2  C   UNL     1     143.268 125.964 126.165  1.00  0.00     0.232 C 
BRANCH   2   3
ATOM      3  N   UNL     1     144.245 124.913 125.845  1.00  0.00    -0.350 N 
ATOM      4  H   UNL     1     144.889 124.767 126.657  1.00  0.00     0.345 HD
ATOM      5  H   UNL     1     143.770 124.010 125.618  1.00  0.00     0.345 HD
ATOM      6  H   UNL     1     144.820 125.208 125.022  1.00  0.00     0.345 HD
ENDBRANCH   2   3
BRANCH   2   7
ATOM      7  C   UNL     1     143.735 127.314 125.685  1.00  0.00     0.099 C 
ATOM      8  O   UNL     1     144.695 127.416 124.875  1.00  0.00    -0.544 OA
ATOM      9  O   UNL     1     143.067 128.460 126.097  1.00  0.00    -0.544 OA
ENDBRANCH   2   7
ENDBRANCH   1   2
BRANCH   1  10
ATOM     10  C   UNL     1     140.754 125.876 126.627  1.00  0.00    -0.041 A 
ATOM     11  C   UNL     1     140.551 124.993 127.700  1.00  0.00     0.008 A 
ATOM     12  C   UNL     1     139.910 126.991 126.486  1.00  0.00     0.008 A 
ATOM     13  C   UNL     1     139.518 125.219 128.616  1.00  0.00     0.046 A 
ATOM     14  C   UNL     1     138.878 127.215 127.404  1.00  0.00     0.046 A 
ATOM     15  C   UNL     1     138.680 126.329 128.470  1.00  0.00     0.115 A 
BRANCH  15  16
ATOM     16  O   UNL     1     137.655 126.542 129.389  1.00  0.00    -0.508 OA
ATOM     17  H   UNL     1     136.801 127.019 129.128  1.00  0.00     0.293 HD
ENDBRANCH  15  16
ENDBRANCH   1  10
TORSDOF 5
ENDMDL
MODEL 2
REMARK VINA RESULT:    -3.011      9.777     11.808
REMARK INTER + INTRA:          -3.922
REMARK INTER:                  -3.706
REMARK INTRA:                  -0.217
REMARK UNBOUND:                -0.207
REMARK SMILES [NH3+][C@H](Cc1ccc(O)cc1)C(=O)[O-]
REMARK SMILES IDX 3 1 2 2 1 3 11 7 12 8 13 9 4 10 5 11 10 12 6 13 9 14 7 15
REMARK SMILES IDX 8 16
REMARK H PARENT 1 4 1 5 1 6 8 17
REMARK Flexibility Score: inf
ROOT
ATOM      1  C   UNL     1     129.393 126.461 129.651  1.00  0.00     0.107 C 
ENDROOT
BRANCH   1   2
ATOM      2  C   UNL     1     128.858 125.321 128.756  1.00  0.00     0.232 C 
BRANCH   2   3
ATOM      3  N   UNL     1     127.522 124.875 129.176  1.00  0.00    -0.350 N 
ATOM      4  H   UNL     1     126.789 125.374 128.620  1.00  0.00     0.345 HD
ATOM      5  H   UNL     1     127.407 123.844 129.047  1.00  0.00     0.345 HD
ATOM      6  H   UNL     1     127.377 125.106 130.187  1.00  0.00     0.345 HD
ENDBRANCH   2   3
BRANCH   2   7
ATOM      7  C   UNL     1     128.878 125.703 127.298  1.00  0.00     0.099 C 
ATOM      8  O   UNL     1     129.867 126.305 126.801  1.00  0.00    -0.544 OA
ATOM      9  O   UNL     1     127.817 125.342 126.477  1.00  0.00    -0.544 OA
ENDBRANCH   2   7
ENDBRANCH   1   2
BRANCH   1  10
ATOM     10  C   UNL     1     130.791 126.218 130.170  1.00  0.00    -0.041 A 
ATOM     11  C   UNL     1     131.070 125.092 130.962  1.00  0.00     0.008 A 
ATOM     12  C   UNL     1     131.825 127.122 129.875  1.00  0.00     0.008 A 
ATOM     13  C   UNL     1     132.360 124.876 131.454  1.00  0.00     0.046 A 
ATOM     14  C   UNL     1     133.116 126.904 130.368  1.00  0.00     0.046 A 
ATOM     15  C   UNL     1     133.386 125.780 131.159  1.00  0.00     0.115 A 
BRANCH  15  16
ATOM     16  O   UNL     1     134.668 125.552 131.656  1.00  0.00    -0.508 OA
ATOM     17  H   UNL     1     135.460 126.103 131.349  1.00  0.00     0.293 HD
ENDBRANCH  15  16
ENDBRANCH   1  10
TORSDOF 5
ENDMDL
MODEL 3
REMARK VINA RESULT:    -2.999     18.233     21.078
REMARK INTER + INTRA:          -3.908
REMARK INTER:                  -3.686
REMARK INTRA:                  -0.221
REMARK UNBOUND:                -0.207
REMARK SMILES [NH3+][C@H](Cc1ccc(O)cc1)C(=O)[O-]
REMARK SMILES IDX 3 1 2 2 1 3 11 7 12 8 13 9 4 10 5 11 10 12 6 13 9 14 7 15
REMARK SMILES IDX 8 16
REMARK H PARENT 1 4 1 5 1 6 8 17
REMARK Flexibility Score: inf
ROOT
ATOM      1  C   UNL     1     128.479 126.214 144.651  1.00  0.00     0.107 C 
ENDROOT
BRANCH   1   2
ATOM      2  C   UNL     1     127.162 125.625 144.099  1.00  0.00     0.232 C 
BRANCH   2   3
ATOM      3  N   UNL     1     126.423 124.875 145.125  1.00  0.00    -0.350 N 
ATOM      4  H   UNL     1     126.216 125.497 145.940  1.00  0.00     0.345 HD
ATOM      5  H   UNL     1     125.526 124.496 144.746  1.00  0.00     0.345 HD
ATOM      6  H   UNL     1     127.009 124.077 145.464  1.00  0.00     0.345 HD
ENDBRANCH   2   3
BRANCH   2   7
ATOM      7  C   UNL     1     126.300 126.689 143.468  1.00  0.00     0.099 C 
ATOM      8  O   UNL     1     125.750 126.497 142.350  1.00  0.00    -0.544 OA
ATOM      9  O   UNL     1     126.063 127.877 144.148  1.00  0.00    -0.544 OA
ENDBRANCH   2   7
ENDBRANCH   1   2
BRANCH   1  10
ATOM     10  C   UNL     1     129.594 126.263 143.633  1.00  0.00    -0.041 A 
ATOM     11  C   UNL     1     130.529 127.311 143.652  1.00  0.00     0.008 A 
ATOM     12  C   UNL     1     129.701 125.267 142.647  1.00  0.00     0.008 A 
ATOM     13  C   UNL     1     131.552 127.363 142.701  1.00  0.00     0.046 A 
ATOM     14  C   UNL     1     130.726 125.320 141.697  1.00  0.00     0.046 A 
ATOM     15  C   UNL     1     131.653 126.370 141.721  1.00  0.00     0.115 A 
BRANCH  15  16
ATOM     16  O   UNL     1     132.677 126.435 140.779  1.00  0.00    -0.508 OA
ATOM     17  H   UNL     1     132.510 126.770 139.838  1.00  0.00     0.293 HD
ENDBRANCH  15  16
ENDBRANCH   1  10
TORSDOF 5
ENDMDL
MODEL 4
REMARK VINA RESULT:    -2.988     13.132     14.384
REMARK INTER + INTRA:          -3.894
REMARK INTER:                  -3.674
REMARK INTRA:                  -0.219
REMARK UNBOUND:                -0.207
REMARK SMILES [NH3+][C@H](Cc1ccc(O)cc1)C(=O)[O-]
REMARK SMILES IDX 3 1 2 2 1 3 11 7 12 8 13 9 4 10 5 11 10 12 6 13 9 14 7 15
REMARK SMILES IDX 8 16
REMARK H PARENT 1 4 1 5 1 6 8 17
REMARK Flexibility Score: inf
ROOT
ATOM      1  C   UNL     1     140.738 126.354 140.444  1.00  0.00     0.107 C 
ENDROOT
BRANCH   1   2
ATOM      2  C   UNL     1     141.148 125.360 141.554  1.00  0.00     0.232 C 
BRANCH   2   3
ATOM      3  N   UNL     1     142.526 124.879 141.377  1.00  0.00    -0.350 N 
ATOM      4  H   UNL     1     142.523 123.989 140.828  1.00  0.00     0.345 HD
ATOM      5  H   UNL     1     143.114 125.586 140.882  1.00  0.00     0.345 HD
ATOM      6  H   UNL     1     142.951 124.683 142.313  1.00  0.00     0.345 HD
ENDBRANCH   2   3
BRANCH   2   7
ATOM      7  C   UNL     1     140.942 125.947 142.928  1.00  0.00     0.099 C 
ATOM      8  O   UNL     1     140.709 125.204 143.919  1.00  0.00    -0.544 OA
ATOM      9  O   UNL     1     141.062 127.318 143.116  1.00  0.00    -0.544 OA
ENDBRANCH   2   7
ENDBRANCH   1   2
BRANCH   1  10
ATOM     10  C   UNL     1     139.315 126.177 139.969  1.00  0.00    -0.041 A 
ATOM     11  C   UNL     1     138.337 127.135 140.280  1.00  0.00     0.008 A 
ATOM     12  C   UNL     1     138.952 125.045 139.219  1.00  0.00     0.008 A 
ATOM     13  C   UNL     1     137.017 126.964 139.852  1.00  0.00     0.046 A 
ATOM     14  C   UNL     1     137.631 124.875 138.791  1.00  0.00     0.046 A 
ATOM     15  C   UNL     1     136.661 125.834 139.107  1.00  0.00     0.115 A 
BRANCH  15  16
ATOM     16  O   UNL     1     135.342 125.675 138.687  1.00  0.00    -0.508 OA
ATOM     17  H   UNL     1     134.581 125.597 139.351  1.00  0.00     0.293 HD
ENDBRANCH  15  16
ENDBRANCH   1  10
TORSDOF 5
ENDMDL
MODEL 5
REMARK VINA RESULT:    -2.930     19.842     21.599
REMARK INTER + INTRA:          -3.822
REMARK INTER:                  -3.558
REMARK INTRA:                  -0.264
REMARK UNBOUND:                -0.207
REMARK SMILES [NH3+][C@H](Cc1ccc(O)cc1)C(=O)[O-]
REMARK SMILES IDX 3 1 2 2 1 3 11 7 12 8 13 9 4 10 5 11 10 12 6 13 9 14 7 15
REMARK SMILES IDX 8 16
REMARK H PARENT 1 4 1 5 1 6 8 17
REMARK Flexibility Score: inf
ROOT
ATOM      1  C   UNL     1     130.767 144.866 128.594  1.00  0.00     0.107 C 
ENDROOT
BRANCH   1   2
ATOM      2  C   UNL     1     131.470 143.490 128.648  1.00  0.00     0.232 C 
BRANCH   2   3
ATOM      3  N   UNL     1     132.718 143.542 129.423  1.00  0.00    -0.350 N 
ATOM      4  H   UNL     1     132.745 142.750 130.106  1.00  0.00     0.345 HD
ATOM      5  H   UNL     1     133.554 143.486 128.799  1.00  0.00     0.345 HD
ATOM      6  H   UNL     1     132.759 144.438 129.961  1.00  0.00     0.345 HD
ENDBRANCH   2   3
BRANCH   2   7
ATOM      7  C   UNL     1     130.547 142.415 129.161  1.00  0.00     0.099 C 
ATOM      8  O   UNL     1     130.029 142.500 130.306  1.00  0.00    -0.544 OA
ATOM      9  O   UNL     1     130.219 141.341 128.343  1.00  0.00    -0.544 OA
ENDBRANCH   2   7
ENDBRANCH   1   2
BRANCH   1  10
ATOM     10  C   UNL     1     129.625 144.924 127.608  1.00  0.00    -0.041 A 
ATOM     11  C   UNL     1     128.304 145.085 128.058  1.00  0.00     0.008 A 
ATOM     12  C   UNL     1     129.869 144.806 126.229  1.00  0.00     0.008 A 
ATOM     13  C   UNL     1     127.245 145.124 127.145  1.00  0.00     0.046 A 
ATOM     14  C   UNL     1     128.809 144.847 125.318  1.00  0.00     0.046 A 
ATOM     15  C   UNL     1     127.495 145.005 125.774  1.00  0.00     0.115 A 
BRANCH  15  16
ATOM     16  O   UNL     1     126.431 145.046 124.876  1.00  0.00    -0.508 OA
ATOM     17  H   UNL     1     126.493 144.615 123.961  1.00  0.00     0.293 HD
ENDBRANCH  15  16
ENDBRANCH   1  10
TORSDOF 5
ENDMDL
MODEL 6
REMARK VINA RESULT:    -2.920     18.772     20.491
REMARK INTER + INTRA:          -3.811
REMARK INTER:                  -3.863
REMARK INTRA:                   0.052
REMARK UNBOUND:                -0.207
REMARK SMILES [NH3+][C@H](Cc1ccc(O)cc1)C(=O)[O-]
REMARK SMILES IDX 3 1 2 2 1 3 11 7 12 8 13 9 4 10 5 11 10 12 6 13 9 14 7 15
REMARK SMILES IDX 8 16
REMARK H PARENT 1 4 1 5 1 6 8 17
REMARK Flexibility Score: inf
ROOT
ATOM      1  C   UNL     1     130.873 125.176 143.327  1.00  0.00     0.107 C 
ENDROOT
BRANCH   1   2
ATOM      2  C   UNL     1     131.354 126.361 142.460  1.00  0.00     0.232 C 
BRANCH   2   3
ATOM      3  N   UNL     1     131.148 126.110 141.026  1.00  0.00    -0.350 N 
ATOM      4  H   UNL     1     131.479 125.148 140.782  1.00  0.00     0.345 HD
ATOM      5  H   UNL     1     130.141 126.203 140.765  1.00  0.00     0.345 HD
ATOM      6  H   UNL     1     131.706 126.797 140.467  1.00  0.00     0.345 HD
ENDBRANCH   2   3
BRANCH   2   7
ATOM      7  C   UNL     1     130.716 127.658 142.889  1.00  0.00     0.099 C 
ATOM      8  O   UNL     1     131.048 128.215 143.969  1.00  0.00    -0.544 OA
ATOM      9  O   UNL     1     129.789 128.277 142.059  1.00  0.00    -0.544 OA
ENDBRANCH   2   7
ENDBRANCH   1   2
BRANCH   1  10
ATOM     10  C   UNL     1     129.373 125.111 143.486  1.00  0.00    -0.041 A 
ATOM     11  C   UNL     1     128.788 125.201 144.760  1.00  0.00     0.008 A 
ATOM     12  C   UNL     1     128.545 124.949 142.362  1.00  0.00     0.008 A 
ATOM     13  C   UNL     1     127.399 125.126 144.908  1.00  0.00     0.046 A 
ATOM     14  C   UNL     1     127.157 124.875 142.511  1.00  0.00     0.046 A 
ATOM     15  C   UNL     1     126.581 124.963 143.785  1.00  0.00     0.115 A 
BRANCH  15  16
ATOM     16  O   UNL     1     125.199 124.890 143.946  1.00  0.00    -0.508 OA
ATOM     17  H   UNL     1     124.662 124.118 143.571  1.00  0.00     0.293 HD
ENDBRANCH  15  16
ENDBRANCH   1  10
TORSDOF 5
ENDMDL
MODEL 7
REMARK VINA RESULT:    -2.920      1.557      2.209
REMARK INTER + INTRA:          -3.811
REMARK INTER:                  -3.647
REMARK INTRA:                  -0.163
REMARK UNBOUND:                -0.207
REMARK SMILES [NH3+][C@H](Cc1ccc(O)cc1)C(=O)[O-]
REMARK SMILES IDX 3 1 2 2 1 3 11 7 12 8 13 9 4 10 5 11 10 12 6 13 9 14 7 15
REMARK SMILES IDX 8 16
REMARK H PARENT 1 4 1 5 1 6 8 17
REMARK Flexibility Score: inf
ROOT
ATOM      1  C   UNL     1     142.182 126.998 127.003  1.00  0.00     0.107 C 
ENDROOT
BRANCH   1   2
ATOM      2  C   UNL     1     142.502 125.768 126.124  1.00  0.00     0.232 C 
BRANCH   2   3
ATOM      3  N   UNL     1     141.710 125.757 124.886  1.00  0.00    -0.350 N 
ATOM      4  H   UNL     1     141.870 124.861 124.369  1.00  0.00     0.345 HD
ATOM      5  H   UNL     1     140.690 125.859 125.087  1.00  0.00     0.345 HD
ATOM      6  H   UNL     1     142.013 126.547 124.270  1.00  0.00     0.345 HD
ENDBRANCH   2   3
BRANCH   2   7
ATOM      7  C   UNL     1     143.978 125.661 125.835  1.00  0.00     0.099 C 
ATOM      8  O   UNL     1     144.495 126.291 124.875  1.00  0.00    -0.544 OA
ATOM      9  O   UNL     1     144.789 124.901 126.669  1.00  0.00    -0.544 OA
ENDBRANCH   2   7
ENDBRANCH   1   2
BRANCH   1  10
ATOM     10  C   UNL     1     140.840 126.917 127.693  1.00  0.00    -0.041 A 
ATOM     11  C   UNL     1     140.034 128.060 127.816  1.00  0.00     0.008 A 
ATOM     12  C   UNL     1     140.390 125.699 128.229  1.00  0.00     0.008 A 
ATOM     13  C   UNL     1     138.799 127.987 128.468  1.00  0.00     0.046 A 
ATOM     14  C   UNL     1     139.154 125.628 128.880  1.00  0.00     0.046 A 
ATOM     15  C   UNL     1     138.356 126.772 129.001  1.00  0.00     0.115 A 
BRANCH  15  16
ATOM     16  O   UNL     1     137.123 126.714 129.648  1.00  0.00    -0.508 OA
ATOM     17  H   UNL     1     136.372 127.351 129.413  1.00  0.00     0.293 HD
ENDBRANCH  15  16
ENDBRANCH   1  10
TORSDOF 5
ENDMDL
MODEL 8
REMARK VINA RESULT:    -2.877     20.056     21.954
REMARK INTER + INTRA:          -3.758
REMARK INTER:                  -3.585
REMARK INTRA:                  -0.173
REMARK UNBOUND:                -0.207
REMARK SMILES [NH3+][C@H](Cc1ccc(O)cc1)C(=O)[O-]
REMARK SMILES IDX 3 1 2 2 1 3 11 7 12 8 13 9 4 10 5 11 10 12 6 13 9 14 7 15
REMARK SMILES IDX 8 16
REMARK H PARENT 1 4 1 5 1 6 8 17
REMARK Flexibility Score: inf
ROOT
ATOM      1  C   UNL     1     128.406 143.750 125.733  1.00  0.00     0.107 C 
ENDROOT
BRANCH   1   2
ATOM      2  C   UNL     1     127.259 144.690 126.169  1.00  0.00     0.232 C 
BRANCH   2   3
ATOM      3  N   UNL     1     126.443 145.125 125.027  1.00  0.00    -0.350 N 
ATOM      4  H   UNL     1     126.883 145.958 124.572  1.00  0.00     0.345 HD
ATOM      5  H   UNL     1     126.342 144.362 124.320  1.00  0.00     0.345 HD
ATOM      6  H   UNL     1     125.491 145.402 125.362  1.00  0.00     0.345 HD
ENDBRANCH   2   3
BRANCH   2   7
ATOM      7  C   UNL     1     126.410 144.066 127.247  1.00  0.00     0.099 C 
ATOM      8  O   UNL     1     126.151 144.692 128.309  1.00  0.00    -0.544 OA
ATOM      9  O   UNL     1     125.860 142.806 127.047  1.00  0.00    -0.544 OA
ENDBRANCH   2   7
ENDBRANCH   1   2
BRANCH   1  10
ATOM     10  C   UNL     1     129.567 143.723 126.699  1.00  0.00    -0.041 A 
ATOM     11  C   UNL     1     130.393 142.590 126.787  1.00  0.00     0.008 A 
ATOM     12  C   UNL     1     129.827 144.828 127.528  1.00  0.00     0.008 A 
ATOM     13  C   UNL     1     131.459 142.561 127.691  1.00  0.00     0.046 A 
ATOM     14  C   UNL     1     130.894 144.797 128.431  1.00  0.00     0.046 A 
ATOM     15  C   UNL     1     131.712 143.663 128.515  1.00  0.00     0.115 A 
BRANCH  15  16
ATOM     16  O   UNL     1     132.778 143.620 129.412  1.00  0.00    -0.508 OA
ATOM     17  H   UNL     1     133.576 143.016 129.257  1.00  0.00     0.293 HD
ENDBRANCH  15  16
ENDBRANCH   1  10
TORSDOF 5
ENDMDL
MODEL 9
REMARK VINA RESULT:    -2.127     20.002     21.603
REMARK INTER + INTRA:          -2.832
REMARK INTER:                  -2.606
REMARK INTRA:                  -0.226
REMARK UNBOUND:                -0.207
REMARK SMILES [NH3+][C@H](Cc1ccc(O)cc1)C(=O)[O-]
REMARK SMILES IDX 3 1 2 2 1 3 11 7 12 8 13 9 4 10 5 11 10 12 6 13 9 14 7 15
REMARK SMILES IDX 8 16
REMARK H PARENT 1 4 1 5 1 6 8 17
REMARK Flexibility Score: inf
ROOT
ATOM      1  C   UNL     1     128.709 143.884 125.119  1.00  0.00     0.107 C 
ENDROOT
BRANCH   1   2
ATOM      2  C   UNL     1     127.243 143.656 125.550  1.00  0.00     0.232 C 
BRANCH   2   3
ATOM      3  N   UNL     1     126.361 144.740 125.093  1.00  0.00    -0.350 N 
ATOM      4  H   UNL     1     125.756 145.063 125.882  1.00  0.00     0.345 HD
ATOM      5  H   UNL     1     126.913 145.550 124.730  1.00  0.00     0.345 HD
ATOM      6  H   UNL     1     125.739 144.386 124.329  1.00  0.00     0.345 HD
ENDBRANCH   2   3
BRANCH   2   7
ATOM      7  C   UNL     1     126.736 142.308 125.104  1.00  0.00     0.099 C 
ATOM      8  O   UNL     1     125.511 142.122 124.875  1.00  0.00    -0.544 OA
ATOM      9  O   UNL     1     127.635 141.271 124.889  1.00  0.00    -0.544 OA
ENDBRANCH   2   7
ENDBRANCH   1   2
BRANCH   1  10
ATOM     10  C   UNL     1     129.682 143.915 126.273  1.00  0.00    -0.041 A 
ATOM     11  C   UNL     1     129.757 145.041 127.110  1.00  0.00     0.008 A 
ATOM     12  C   UNL     1     130.531 142.822 126.516  1.00  0.00     0.008 A 
ATOM     13  C   UNL     1     130.669 145.074 128.170  1.00  0.00     0.046 A 
ATOM     14  C   UNL     1     131.442 142.857 127.577  1.00  0.00     0.046 A 
ATOM     15  C   UNL     1     131.513 143.984 128.406  1.00  0.00     0.115 A 
BRANCH  15  16
ATOM     16  O   UNL     1     132.416 144.031 129.466  1.00  0.00    -0.508 OA
ATOM     17  H   UNL     1     133.392 143.793 129.340  1.00  0.00     0.293 HD
ENDBRANCH  15  16
ENDBRANCH   1  10
TORSDOF 5
ENDMDL
