MODEL 1
REMARK VINA RESULT:    -3.460      0.000      0.000
REMARK INTER + INTRA:          -4.914
REMARK INTER:                  -4.674
REMARK INTRA:                  -0.240
REMARK UNBOUND:                -0.240
REMARK SMILES CCCCCCCC(=O)[O-]
REMARK SMILES IDX 5 1 6 2 7 3 8 4 9 5 10 6 4 7 3 8 2 9 1 10
REMARK H PARENT
REMARK Flexibility Score: inf
ROOT
ATOM      1  C   UNL     1      62.009  32.524  60.025  1.00  0.00     0.000 C 
ENDROOT
BRANCH   1   2
ATOM      2  C   UNL     1      60.960  31.422  60.286  1.00  0.00     0.006 C 
BRANCH   2   3
ATOM      3  C   UNL     1      61.211  30.686  61.609  1.00  0.00     0.053 C 
BRANCH   3   4
ATOM      4  C   UNL     1      62.132  29.528  61.397  1.00  0.00     0.041 C 
ATOM      5  O   UNL     1      63.380  29.701  61.400  1.00  0.00    -0.550 OA
ATOM      6  O   UNL     1      61.614  28.264  61.146  1.00  0.00    -0.550 OA
ENDBRANCH   3   4
ENDBRANCH   2   3
ENDBRANCH   1   2
BRANCH   1   7
ATOM      7  C   UNL     1      61.448  33.951  60.147  1.00  0.00     0.000 C 
BRANCH   7   8
ATOM      8  C   UNL     1      62.495  34.967  60.626  1.00  0.00    -0.000 C 
BRANCH   8   9
ATOM      9  C   UNL     1      63.857  34.294  60.835  1.00  0.00    -0.003 C 
ATOM     10  C   UNL     1      64.864  35.266  61.442  1.00  0.00     0.004 C 
ENDBRANCH   8   9
ENDBRANCH   7   8
ENDBRANCH   1   7
TORSDOF 6
ENDMDL
MODEL 2
REMARK VINA RESULT:    -3.350     12.078     13.674
REMARK INTER + INTRA:          -4.765
REMARK INTER:                  -4.558
REMARK INTRA:                  -0.207
REMARK UNBOUND:                -0.240
REMARK SMILES CCCCCCCC(=O)[O-]
REMARK SMILES IDX 5 1 6 2 7 3 8 4 9 5 10 6 4 7 3 8 2 9 1 10
REMARK H PARENT
REMARK Flexibility Score: inf
ROOT
ATOM      1  C   UNL     1      57.224  28.137  50.150  1.00  0.00     0.000 C 
ENDROOT
BRANCH   1   2
ATOM      2  C   UNL     1      58.302  29.228  50.324  1.00  0.00     0.006 C 
BRANCH   2   3
ATOM      3  C   UNL     1      59.247  29.307  49.118  1.00  0.00     0.053 C 
BRANCH   3   4
ATOM      4  C   UNL     1      60.437  28.427  49.327  1.00  0.00     0.041 C 
ATOM      5  O   UNL     1      61.533  28.920  49.703  1.00  0.00    -0.550 OA
ATOM      6  O   UNL     1      60.352  27.066  49.059  1.00  0.00    -0.550 OA
ENDBRANCH   3   4
ENDBRANCH   2   3
ENDBRANCH   1   2
BRANCH   1   7
ATOM      7  C   UNL     1      55.785  28.676  50.223  1.00  0.00     0.000 C 
BRANCH   7   8
ATOM      8  C   UNL     1      54.728  27.562  50.194  1.00  0.00    -0.000 C 
BRANCH   8   9
ATOM      9  C   UNL     1      55.250  26.328  49.449  1.00  0.00    -0.003 C 
ATOM     10  C   UNL     1      54.101  25.449  48.966  1.00  0.00     0.004 C 
ENDBRANCH   8   9
ENDBRANCH   7   8
ENDBRANCH   1   7
TORSDOF 6
ENDMDL
MODEL 3
REMARK VINA RESULT:    -3.349      0.690      1.323
REMARK INTER + INTRA:          -4.764
REMARK INTER:                  -4.527
REMARK INTRA:                  -0.237
REMARK UNBOUND:                -0.240
REMARK SMILES CCCCCCCC(=O)[O-]
REMARK SMILES IDX 5 1 6 2 7 3 8 4 9 5 10 6 4 7 3 8 2 9 1 10
REMARK H PARENT
REMARK Flexibility Score: inf
ROOT
ATOM      1  C   UNL     1      61.537  33.883  60.247  1.00  0.00     0.000 C 
ENDROOT
BRANCH   1   2
ATOM      2  C   UNL     1      62.124  32.457  60.287  1.00  0.00     0.006 C 
BRANCH   2   3
ATOM      3  C   UNL     1      61.141  31.442  60.887  1.00  0.00     0.053 C 
BRANCH   3   4
ATOM      4  C   UNL     1      61.826  30.138  61.143  1.00  0.00     0.041 C 
ATOM      5  O   UNL     1      63.054  30.110  61.421  1.00  0.00    -0.550 OA
ATOM      6  O   UNL     1      61.120  28.947  61.025  1.00  0.00    -0.550 OA
ENDBRANCH   3   4
ENDBRANCH   2   3
ENDBRANCH   1   2
BRANCH   1   7
ATOM      7  C   UNL     1      62.556  34.980  60.602  1.00  0.00     0.000 C 
BRANCH   7   8
ATOM      8  C   UNL     1      63.993  34.449  60.708  1.00  0.00    -0.000 C 
BRANCH   8   9
ATOM      9  C   UNL     1      64.853  35.365  61.585  1.00  0.00    -0.003 C 
ATOM     10  C   UNL     1      64.391  36.816  61.487  1.00  0.00     0.004 C 
ENDBRANCH   8   9
ENDBRANCH   7   8
ENDBRANCH   1   7
TORSDOF 6
ENDMDL
MODEL 4
REMARK VINA RESULT:    -3.344      0.880      1.715
REMARK INTER + INTRA:          -4.757
REMARK INTER:                  -4.529
REMARK INTRA:                  -0.229
REMARK UNBOUND:                -0.240
REMARK SMILES CCCCCCCC(=O)[O-]
REMARK SMILES IDX 5 1 6 2 7 3 8 4 9 5 10 6 4 7 3 8 2 9 1 10
REMARK H PARENT
REMARK Flexibility Score: inf
ROOT
ATOM      1  C   UNL     1      61.694  32.006  59.644  1.00  0.00     0.000 C 
ENDROOT
BRANCH   1   2
ATOM      2  C   UNL     1      60.717  30.998  60.285  1.00  0.00     0.006 C 
BRANCH   2   3
ATOM      3  C   UNL     1      61.240  30.455  61.622  1.00  0.00     0.053 C 
BRANCH   3   4
ATOM      4  C   UNL     1      62.306  29.433  61.391  1.00  0.00     0.041 C 
ATOM      5  O   UNL     1      62.000  28.222  61.229  1.00  0.00    -0.550 OA
ATOM      6  O   UNL     1      63.644  29.808  61.405  1.00  0.00    -0.550 OA
ENDBRANCH   3   4
ENDBRANCH   2   3
ENDBRANCH   1   2
BRANCH   1   7
ATOM      7  C   UNL     1      61.574  33.430  60.216  1.00  0.00     0.000 C 
BRANCH   7   8
ATOM      8  C   UNL     1      62.937  34.081  60.490  1.00  0.00    -0.000 C 
BRANCH   8   9
ATOM      9  C   UNL     1      62.784  35.580  60.769  1.00  0.00    -0.003 C 
ATOM     10  C   UNL     1      61.351  36.043  60.525  1.00  0.00     0.004 C 
ENDBRANCH   8   9
ENDBRANCH   7   8
ENDBRANCH   1   7
TORSDOF 6
ENDMDL
MODEL 5
REMARK VINA RESULT:    -3.337     12.485     14.154
REMARK INTER + INTRA:          -4.748
REMARK INTER:                  -4.442
REMARK INTRA:                  -0.306
REMARK UNBOUND:                -0.240
REMARK SMILES CCCCCCCC(=O)[O-]
REMARK SMILES IDX 5 1 6 2 7 3 8 4 9 5 10 6 4 7 3 8 2 9 1 10
REMARK H PARENT
REMARK Flexibility Score: inf
ROOT
ATOM      1  C   UNL     1      55.644  28.941  50.254  1.00  0.00     0.000 C 
ENDROOT
BRANCH   1   2
ATOM      2  C   UNL     1      57.002  28.362  50.706  1.00  0.00     0.006 C 
BRANCH   2   3
ATOM      3  C   UNL     1      58.185  29.068  50.032  1.00  0.00     0.053 C 
BRANCH   3   4
ATOM      4  C   UNL     1      59.174  28.065  49.528  1.00  0.00     0.041 C 
ATOM      5  O   UNL     1      60.139  28.433  48.807  1.00  0.00    -0.550 OA
ATOM      6  O   UNL     1      59.004  26.717  49.813  1.00  0.00    -0.550 OA
ENDBRANCH   3   4
ENDBRANCH   2   3
ENDBRANCH   1   2
BRANCH   1   7
ATOM      7  C   UNL     1      54.631  27.868  49.819  1.00  0.00     0.000 C 
BRANCH   7   8
ATOM      8  C   UNL     1      55.264  26.478  49.658  1.00  0.00    -0.000 C 
BRANCH   8   9
ATOM      9  C   UNL     1      54.322  25.529  48.909  1.00  0.00    -0.003 C 
ATOM     10  C   UNL     1      52.946  26.157  48.714  1.00  0.00     0.004 C 
ENDBRANCH   8   9
ENDBRANCH   7   8
ENDBRANCH   1   7
TORSDOF 6
ENDMDL
MODEL 6
REMARK VINA RESULT:    -3.266     11.689     13.255
REMARK INTER + INTRA:          -4.652
REMARK INTER:                  -4.375
REMARK INTRA:                  -0.277
REMARK UNBOUND:                -0.240
REMARK SMILES CCCCCCCC(=O)[O-]
REMARK SMILES IDX 5 1 6 2 7 3 8 4 9 5 10 6 4 7 3 8 2 9 1 10
REMARK H PARENT
REMARK Flexibility Score: inf
ROOT
ATOM      1  C   UNL     1      57.760  29.040  51.207  1.00  0.00     0.000 C 
ENDROOT
BRANCH   1   2
ATOM      2  C   UNL     1      59.046  29.619  50.580  1.00  0.00     0.006 C 
BRANCH   2   3
ATOM      3  C   UNL     1      59.296  29.077  49.166  1.00  0.00     0.053 C 
BRANCH   3   4
ATOM      4  C   UNL     1      60.365  28.032  49.188  1.00  0.00     0.041 C 
ATOM      5  O   UNL     1      60.058  26.811  49.183  1.00  0.00    -0.550 OA
ATOM      6  O   UNL     1      61.701  28.405  49.265  1.00  0.00    -0.550 OA
ENDBRANCH   3   4
ENDBRANCH   2   3
ENDBRANCH   1   2
BRANCH   1   7
ATOM      7  C   UNL     1      56.927  28.191  50.231  1.00  0.00     0.000 C 
BRANCH   7   8
ATOM      8  C   UNL     1      55.449  28.605  50.191  1.00  0.00    -0.000 C 
BRANCH   8   9
ATOM      9  C   UNL     1      54.557  27.422  49.799  1.00  0.00    -0.003 C 
ATOM     10  C   UNL     1      55.393  26.201  49.430  1.00  0.00     0.004 C 
ENDBRANCH   8   9
ENDBRANCH   7   8
ENDBRANCH   1   7
TORSDOF 6
ENDMDL
MODEL 7
REMARK VINA RESULT:    -3.248      3.191      5.032
REMARK INTER + INTRA:          -4.627
REMARK INTER:                  -4.291
REMARK INTRA:                  -0.335
REMARK UNBOUND:                -0.240
REMARK SMILES CCCCCCCC(=O)[O-]
REMARK SMILES IDX 5 1 6 2 7 3 8 4 9 5 10 6 4 7 3 8 2 9 1 10
REMARK H PARENT
REMARK Flexibility Score: inf
ROOT
ATOM      1  C   UNL     1      61.803  31.989  60.012  1.00  0.00     0.000 C 
ENDROOT
BRANCH   1   2
ATOM      2  C   UNL     1      62.143  33.457  60.346  1.00  0.00     0.006 C 
BRANCH   2   3
ATOM      3  C   UNL     1      63.652  33.678  60.513  1.00  0.00     0.053 C 
BRANCH   3   4
ATOM      4  C   UNL     1      63.924  35.041  61.066  1.00  0.00     0.041 C 
ATOM      5  O   UNL     1      65.015  35.284  61.645  1.00  0.00    -0.550 OA
ATOM      6  O   UNL     1      62.951  36.030  60.986  1.00  0.00    -0.550 OA
ENDBRANCH   3   4
ENDBRANCH   2   3
ENDBRANCH   1   2
BRANCH   1   7
ATOM      7  C   UNL     1      60.975  31.284  61.100  1.00  0.00     0.000 C 
BRANCH   7   8
ATOM      8  C   UNL     1      61.594  29.954  61.554  1.00  0.00    -0.000 C 
BRANCH   8   9
ATOM      9  C   UNL     1      63.103  29.930  61.285  1.00  0.00    -0.003 C 
ATOM     10  C   UNL     1      63.525  28.618  60.632  1.00  0.00     0.004 C 
ENDBRANCH   8   9
ENDBRANCH   7   8
ENDBRANCH   1   7
TORSDOF 6
ENDMDL
MODEL 8
REMARK VINA RESULT:    -3.143      1.517      2.368
REMARK INTER + INTRA:          -4.485
REMARK INTER:                  -4.047
REMARK INTRA:                  -0.438
REMARK UNBOUND:                -0.240
REMARK SMILES CCCCCCCC(=O)[O-]
REMARK SMILES IDX 5 1 6 2 7 3 8 4 9 5 10 6 4 7 3 8 2 9 1 10
REMARK H PARENT
REMARK Flexibility Score: inf
ROOT
ATOM      1  C   UNL     1      64.442  32.618  59.556  1.00  0.00     0.000 C 
ENDROOT
BRANCH   1   2
ATOM      2  C   UNL     1      63.648  31.938  60.692  1.00  0.00     0.006 C 
BRANCH   2   3
ATOM      3  C   UNL     1      62.241  31.522  60.247  1.00  0.00     0.053 C 
BRANCH   3   4
ATOM      4  C   UNL     1      61.643  30.565  61.228  1.00  0.00     0.041 C 
ATOM      5  O   UNL     1      60.548  30.834  61.790  1.00  0.00    -0.550 OA
ATOM      6  O   UNL     1      62.318  29.398  61.561  1.00  0.00    -0.550 OA
ENDBRANCH   3   4
ENDBRANCH   2   3
ENDBRANCH   1   2
BRANCH   1   7
ATOM      7  C   UNL     1      64.353  34.154  59.575  1.00  0.00     0.000 C 
BRANCH   7   8
ATOM      8  C   UNL     1      64.053  34.718  60.972  1.00  0.00    -0.000 C 
BRANCH   8   9
ATOM      9  C   UNL     1      62.957  35.787  60.908  1.00  0.00    -0.003 C 
ATOM     10  C   UNL     1      61.640  35.199  60.411  1.00  0.00     0.004 C 
ENDBRANCH   8   9
ENDBRANCH   7   8
ENDBRANCH   1   7
TORSDOF 6
ENDMDL
MODEL 9
REMARK VINA RESULT:    -3.082     12.621     13.668
REMARK INTER + INTRA:          -4.402
REMARK INTER:                  -4.125
REMARK INTRA:                  -0.277
REMARK UNBOUND:                -0.240
REMARK SMILES CCCCCCCC(=O)[O-]
REMARK SMILES IDX 5 1 6 2 7 3 8 4 9 5 10 6 4 7 3 8 2 9 1 10
REMARK H PARENT
REMARK Flexibility Score: inf
ROOT
ATOM      1  C   UNL     1      57.224  28.163  50.803  1.00  0.00     0.000 C 
ENDROOT
BRANCH   1   2
ATOM      2  C   UNL     1      55.892  27.847  50.092  1.00  0.00     0.006 C 
BRANCH   2   3
ATOM      3  C   UNL     1      55.795  26.375  49.671  1.00  0.00     0.053 C 
BRANCH   3   4
ATOM      4  C   UNL     1      54.377  26.010  49.365  1.00  0.00     0.041 C 
ATOM      5  O   UNL     1      54.043  24.801  49.256  1.00  0.00    -0.550 OA
ATOM      6  O   UNL     1      53.434  27.007  49.149  1.00  0.00    -0.550 OA
ENDBRANCH   3   4
ENDBRANCH   2   3
ENDBRANCH   1   2
BRANCH   1   7
ATOM      7  C   UNL     1      58.115  29.152  50.033  1.00  0.00     0.000 C 
BRANCH   7   8
ATOM      8  C   UNL     1      59.615  28.884  50.228  1.00  0.00    -0.000 C 
BRANCH   8   9
ATOM      9  C   UNL     1      60.187  28.082  49.054  1.00  0.00    -0.003 C 
ATOM     10  C   UNL     1      60.374  26.615  49.427  1.00  0.00     0.004 C 
ENDBRANCH   8   9
ENDBRANCH   7   8
ENDBRANCH   1   7
TORSDOF 6
ENDMDL
