MODEL 1
REMARK VINA RESULT:    -4.969      0.000      0.000
REMARK INTER + INTRA:          -8.521
REMARK INTER:                  -7.874
REMARK INTRA:                  -0.648
REMARK UNBOUND:                -0.648
REMARK SMILES CCCCCCCCCCCC(=O)[O-]
REMARK SMILES IDX 7 1 8 2 9 3 10 4 11 5 12 6 13 7 14 8 6 9 5 10 4 11 3 12 2 13
REMARK SMILES IDX 1 14
REMARK H PARENT
REMARK Flexibility Score: inf
ROOT
ATOM      1  C   UNL     1      22.115  58.079  35.073  1.00  0.00     0.000 C 
ENDROOT
BRANCH   1   2
ATOM      2  C   UNL     1      22.155  58.918  36.362  1.00  0.00     0.000 C 
BRANCH   2   3
ATOM      3  C   UNL     1      21.417  58.244  37.530  1.00  0.00     0.000 C 
BRANCH   3   4
ATOM      4  C   UNL     1      20.868  59.256  38.550  1.00  0.00     0.006 C 
BRANCH   4   5
ATOM      5  C   UNL     1      19.776  58.648  39.439  1.00  0.00     0.053 C 
BRANCH   5   6
ATOM      6  C   UNL     1      20.267  58.391  40.830  1.00  0.00     0.041 C 
ATOM      7  O   UNL     1      20.096  59.254  41.732  1.00  0.00    -0.550 OA
ATOM      8  O   UNL     1      20.885  57.186  41.140  1.00  0.00    -0.550 OA
ENDBRANCH   5   6
ENDBRANCH   4   5
ENDBRANCH   3   4
ENDBRANCH   2   3
ENDBRANCH   1   2
BRANCH   1   9
ATOM      9  C   UNL     1      21.057  58.589  34.076  1.00  0.00     0.000 C 
BRANCH   9  10
ATOM     10  C   UNL     1      20.674  57.552  33.002  1.00  0.00    -0.000 C 
BRANCH  10  11
ATOM     11  C   UNL     1      21.754  56.465  32.793  1.00  0.00    -0.000 C 
BRANCH  11  12
ATOM     12  C   UNL     1      22.808  56.842  31.735  1.00  0.00    -0.000 C 
BRANCH  12  13
ATOM     13  C   UNL     1      24.245  56.933  32.276  1.00  0.00    -0.003 C 
ATOM     14  C   UNL     1      24.767  58.368  32.332  1.00  0.00     0.004 C 
ENDBRANCH  12  13
ENDBRANCH  11  12
ENDBRANCH  10  11
ENDBRANCH   9  10
ENDBRANCH   1   9
TORSDOF 10
ENDMDL
MODEL 2
REMARK VINA RESULT:    -4.894     13.140     15.462
REMARK INTER + INTRA:          -8.403
REMARK INTER:                  -7.380
REMARK INTRA:                  -1.023
REMARK UNBOUND:                -0.648
REMARK SMILES CCCCCCCCCCCC(=O)[O-]
REMARK SMILES IDX 7 1 8 2 9 3 10 4 11 5 12 6 13 7 14 8 6 9 5 10 4 11 3 12 2 13
REMARK SMILES IDX 1 14
REMARK H PARENT
REMARK Flexibility Score: inf
ROOT
ATOM      1  C   UNL     1      36.719  57.498  28.283  1.00  0.00     0.000 C 
ENDROOT
BRANCH   1   2
ATOM      2  C   UNL     1      35.823  56.509  27.516  1.00  0.00     0.000 C 
BRANCH   2   3
ATOM      3  C   UNL     1      34.800  57.216  26.612  1.00  0.00     0.000 C 
BRANCH   3   4
ATOM      4  C   UNL     1      33.407  56.566  26.669  1.00  0.00     0.006 C 
BRANCH   4   5
ATOM      5  C   UNL     1      33.362  55.379  27.640  1.00  0.00     0.053 C 
BRANCH   5   6
ATOM      6  C   UNL     1      32.001  54.756  27.699  1.00  0.00     0.041 C 
ATOM      7  O   UNL     1      31.866  53.563  28.081  1.00  0.00    -0.550 OA
ATOM      8  O   UNL     1      30.878  55.502  27.363  1.00  0.00    -0.550 OA
ENDBRANCH   5   6
ENDBRANCH   4   5
ENDBRANCH   3   4
ENDBRANCH   2   3
ENDBRANCH   1   2
BRANCH   1   9
ATOM      9  C   UNL     1      36.006  58.105  29.506  1.00  0.00     0.000 C 
BRANCH   9  10
ATOM     10  C   UNL     1      35.313  57.056  30.398  1.00  0.00    -0.000 C 
BRANCH  10  11
ATOM     11  C   UNL     1      34.442  57.683  31.511  1.00  0.00    -0.000 C 
BRANCH  11  12
ATOM     12  C   UNL     1      33.598  56.654  32.285  1.00  0.00    -0.000 C 
BRANCH  12  13
ATOM     13  C   UNL     1      32.639  55.830  31.408  1.00  0.00    -0.003 C 
ATOM     14  C   UNL     1      32.990  54.343  31.382  1.00  0.00     0.004 C 
ENDBRANCH  12  13
ENDBRANCH  11  12
ENDBRANCH  10  11
ENDBRANCH   9  10
ENDBRANCH   1   9
TORSDOF 10
ENDMDL
MODEL 3
REMARK VINA RESULT:    -4.876     11.782     13.645
REMARK INTER + INTRA:          -8.375
REMARK INTER:                  -7.399
REMARK INTRA:                  -0.976
REMARK UNBOUND:                -0.648
REMARK SMILES CCCCCCCCCCCC(=O)[O-]
REMARK SMILES IDX 7 1 8 2 9 3 10 4 11 5 12 6 13 7 14 8 6 9 5 10 4 11 3 12 2 13
REMARK SMILES IDX 1 14
REMARK H PARENT
REMARK Flexibility Score: inf
ROOT
ATOM      1  C   UNL     1      35.193  58.078  30.620  1.00  0.00     0.000 C 
ENDROOT
BRANCH   1   2
ATOM      2  C   UNL     1      34.909  57.053  31.731  1.00  0.00     0.000 C 
BRANCH   2   3
ATOM      3  C   UNL     1      34.113  55.838  31.227  1.00  0.00     0.000 C 
BRANCH   3   4
ATOM      4  C   UNL     1      32.606  55.954  31.514  1.00  0.00     0.006 C 
BRANCH   4   5
ATOM      5  C   UNL     1      32.325  56.447  32.939  1.00  0.00     0.053 C 
BRANCH   5   6
ATOM      6  C   UNL     1      32.326  55.324  33.930  1.00  0.00     0.041 C 
ATOM      7  O   UNL     1      31.877  54.192  33.606  1.00  0.00    -0.550 OA
ATOM      8  O   UNL     1      32.852  55.516  35.201  1.00  0.00    -0.550 OA
ENDBRANCH   5   6
ENDBRANCH   4   5
ENDBRANCH   3   4
ENDBRANCH   2   3
ENDBRANCH   1   2
BRANCH   1   9
ATOM      9  C   UNL     1      36.063  57.492  29.492  1.00  0.00     0.000 C 
BRANCH   9  10
ATOM     10  C   UNL     1      35.476  57.712  28.084  1.00  0.00    -0.000 C 
BRANCH  10  11
ATOM     11  C   UNL     1      35.068  56.396  27.382  1.00  0.00    -0.000 C 
BRANCH  11  12
ATOM     12  C   UNL     1      33.606  56.386  26.898  1.00  0.00    -0.000 C 
BRANCH  12  13
ATOM     13  C   UNL     1      32.653  55.555  27.775  1.00  0.00    -0.003 C 
ATOM     14  C   UNL     1      31.199  55.637  27.312  1.00  0.00     0.004 C 
ENDBRANCH  12  13
ENDBRANCH  11  12
ENDBRANCH  10  11
ENDBRANCH   9  10
ENDBRANCH   1   9
TORSDOF 10
ENDMDL
MODEL 4
REMARK VINA RESULT:    -4.821      3.859      7.442
REMARK INTER + INTRA:          -8.287
REMARK INTER:                  -7.549
REMARK INTRA:                  -0.738
REMARK UNBOUND:                -0.648
REMARK SMILES CCCCCCCCCCCC(=O)[O-]
REMARK SMILES IDX 7 1 8 2 9 3 10 4 11 5 12 6 13 7 14 8 6 9 5 10 4 11 3 12 2 13
REMARK SMILES IDX 1 14
REMARK H PARENT
REMARK Flexibility Score: inf
ROOT
ATOM      1  C   UNL     1      22.855  59.736  37.213  1.00  0.00     0.000 C 
ENDROOT
BRANCH   1   2
ATOM      2  C   UNL     1      21.840  58.816  36.514  1.00  0.00     0.000 C 
BRANCH   2   3
ATOM      3  C   UNL     1      22.502  57.859  35.510  1.00  0.00     0.000 C 
BRANCH   3   4
ATOM      4  C   UNL     1      22.370  58.340  34.054  1.00  0.00     0.006 C 
BRANCH   4   5
ATOM      5  C   UNL     1      23.652  58.099  33.247  1.00  0.00     0.053 C 
BRANCH   5   6
ATOM      6  C   UNL     1      24.505  59.327  33.173  1.00  0.00     0.041 C 
ATOM      7  O   UNL     1      24.586  60.104  34.162  1.00  0.00    -0.550 OA
ATOM      8  O   UNL     1      25.236  59.600  32.023  1.00  0.00    -0.550 OA
ENDBRANCH   5   6
ENDBRANCH   4   5
ENDBRANCH   3   4
ENDBRANCH   2   3
ENDBRANCH   1   2
BRANCH   1   9
ATOM      9  C   UNL     1      22.216  60.557  38.349  1.00  0.00     0.000 C 
BRANCH   9  10
ATOM     10  C   UNL     1      23.114  60.687  39.595  1.00  0.00    -0.000 C 
BRANCH  10  11
ATOM     11  C   UNL     1      22.482  60.076  40.867  1.00  0.00    -0.000 C 
BRANCH  11  12
ATOM     12  C   UNL     1      21.751  58.745  40.612  1.00  0.00    -0.000 C 
BRANCH  12  13
ATOM     13  C   UNL     1      20.241  58.784  40.902  1.00  0.00    -0.003 C 
ATOM     14  C   UNL     1      19.392  58.541  39.655  1.00  0.00     0.004 C 
ENDBRANCH  12  13
ENDBRANCH  11  12
ENDBRANCH  10  11
ENDBRANCH   9  10
ENDBRANCH   1   9
TORSDOF 10
ENDMDL
MODEL 5
REMARK VINA RESULT:    -4.797     11.779     13.667
REMARK INTER + INTRA:          -8.248
REMARK INTER:                  -7.241
REMARK INTRA:                  -1.007
REMARK UNBOUND:                -0.648
REMARK SMILES CCCCCCCCCCCC(=O)[O-]
REMARK SMILES IDX 7 1 8 2 9 3 10 4 11 5 12 6 13 7 14 8 6 9 5 10 4 11 3 12 2 13
REMARK SMILES IDX 1 14
REMARK H PARENT
REMARK Flexibility Score: inf
ROOT
ATOM      1  C   UNL     1      32.616  55.083  29.008  1.00  0.00     0.000 C 
ENDROOT
BRANCH   1   2
ATOM      2  C   UNL     1      33.105  54.191  30.162  1.00  0.00     0.000 C 
BRANCH   2   3
ATOM      3  C   UNL     1      33.613  55.003  31.364  1.00  0.00     0.000 C 
BRANCH   3   4
ATOM      4  C   UNL     1      32.580  56.026  31.870  1.00  0.00     0.006 C 
BRANCH   4   5
ATOM      5  C   UNL     1      33.009  56.677  33.190  1.00  0.00     0.053 C 
BRANCH   5   6
ATOM      6  C   UNL     1      32.656  55.829  34.373  1.00  0.00     0.041 C 
ATOM      7  O   UNL     1      33.522  55.577  35.253  1.00  0.00    -0.550 OA
ATOM      8  O   UNL     1      31.364  55.341  34.520  1.00  0.00    -0.550 OA
ENDBRANCH   5   6
ENDBRANCH   4   5
ENDBRANCH   3   4
ENDBRANCH   2   3
ENDBRANCH   1   2
BRANCH   1   9
ATOM      9  C   UNL     1      33.578  55.063  27.805  1.00  0.00     0.000 C 
BRANCH   9  10
ATOM     10  C   UNL     1      33.479  56.320  26.917  1.00  0.00    -0.000 C 
BRANCH  10  11
ATOM     11  C   UNL     1      34.818  57.080  26.787  1.00  0.00    -0.000 C 
BRANCH  11  12
ATOM     12  C   UNL     1      35.818  56.762  27.915  1.00  0.00    -0.000 C 
BRANCH  12  13
ATOM     13  C   UNL     1      36.158  57.960  28.818  1.00  0.00    -0.003 C 
ATOM     14  C   UNL     1      35.467  57.892  30.179  1.00  0.00     0.004 C 
ENDBRANCH  12  13
ENDBRANCH  11  12
ENDBRANCH  10  11
ENDBRANCH   9  10
ENDBRANCH   1   9
TORSDOF 10
ENDMDL
MODEL 6
REMARK VINA RESULT:    -4.774     13.538     14.847
REMARK INTER + INTRA:          -8.212
REMARK INTER:                  -7.036
REMARK INTRA:                  -1.176
REMARK UNBOUND:                -0.648
REMARK SMILES CCCCCCCCCCCC(=O)[O-]
REMARK SMILES IDX 7 1 8 2 9 3 10 4 11 5 12 6 13 7 14 8 6 9 5 10 4 11 3 12 2 13
REMARK SMILES IDX 1 14
REMARK H PARENT
REMARK Flexibility Score: inf
ROOT
ATOM      1  C   UNL     1      32.839  54.093  27.969  1.00  0.00     0.000 C 
ENDROOT
BRANCH   1   2
ATOM      2  C   UNL     1      32.656  55.106  29.112  1.00  0.00     0.000 C 
BRANCH   2   3
ATOM      3  C   UNL     1      33.778  55.027  30.159  1.00  0.00     0.000 C 
BRANCH   3   4
ATOM      4  C   UNL     1      33.746  56.200  31.155  1.00  0.00     0.006 C 
BRANCH   4   5
ATOM      5  C   UNL     1      35.029  56.285  31.991  1.00  0.00     0.053 C 
BRANCH   5   6
ATOM      6  C   UNL     1      35.246  57.659  32.545  1.00  0.00     0.041 C 
ATOM      7  O   UNL     1      35.949  58.493  31.914  1.00  0.00    -0.550 OA
ATOM      8  O   UNL     1      34.647  58.031  33.741  1.00  0.00    -0.550 OA
ENDBRANCH   5   6
ENDBRANCH   4   5
ENDBRANCH   3   4
ENDBRANCH   2   3
ENDBRANCH   1   2
BRANCH   1   9
ATOM      9  C   UNL     1      32.935  54.777  26.592  1.00  0.00     0.000 C 
BRANCH   9  10
ATOM     10  C   UNL     1      33.030  56.314  26.673  1.00  0.00    -0.000 C 
BRANCH  10  11
ATOM     11  C   UNL     1      34.388  56.866  26.180  1.00  0.00    -0.000 C 
BRANCH  11  12
ATOM     12  C   UNL     1      35.536  56.663  27.186  1.00  0.00    -0.000 C 
BRANCH  12  13
ATOM     13  C   UNL     1      35.570  57.695  28.326  1.00  0.00    -0.003 C 
ATOM     14  C   UNL     1      36.974  58.238  28.592  1.00  0.00     0.004 C 
ENDBRANCH  12  13
ENDBRANCH  11  12
ENDBRANCH  10  11
ENDBRANCH   9  10
ENDBRANCH   1   9
TORSDOF 10
ENDMDL
MODEL 7
REMARK VINA RESULT:    -4.751     13.185     15.324
REMARK INTER + INTRA:          -8.176
REMARK INTER:                  -7.071
REMARK INTRA:                  -1.105
REMARK UNBOUND:                -0.648
REMARK SMILES CCCCCCCCCCCC(=O)[O-]
REMARK SMILES IDX 7 1 8 2 9 3 10 4 11 5 12 6 13 7 14 8 6 9 5 10 4 11 3 12 2 13
REMARK SMILES IDX 1 14
REMARK H PARENT
REMARK Flexibility Score: inf
ROOT
ATOM      1  C   UNL     1      33.804  56.312  26.103  1.00  0.00     0.000 C 
ENDROOT
BRANCH   1   2
ATOM      2  C   UNL     1      34.712  57.326  26.821  1.00  0.00     0.000 C 
BRANCH   2   3
ATOM      3  C   UNL     1      36.072  56.727  27.216  1.00  0.00     0.000 C 
BRANCH   3   4
ATOM      4  C   UNL     1      36.476  57.071  28.660  1.00  0.00     0.006 C 
BRANCH   4   5
ATOM      5  C   UNL     1      35.293  57.602  29.480  1.00  0.00     0.053 C 
BRANCH   5   6
ATOM      6  C   UNL     1      35.629  57.716  30.935  1.00  0.00     0.041 C 
ATOM      7  O   UNL     1      35.874  58.844  31.442  1.00  0.00    -0.550 OA
ATOM      8  O   UNL     1      35.643  56.584  31.739  1.00  0.00    -0.550 OA
ENDBRANCH   5   6
ENDBRANCH   4   5
ENDBRANCH   3   4
ENDBRANCH   2   3
ENDBRANCH   1   2
BRANCH   1   9
ATOM      9  C   UNL     1      32.563  55.945  26.938  1.00  0.00     0.000 C 
BRANCH   9  10
ATOM     10  C   UNL     1      32.448  54.438  27.241  1.00  0.00    -0.000 C 
BRANCH  10  11
ATOM     11  C   UNL     1      33.305  53.993  28.448  1.00  0.00    -0.000 C 
BRANCH  11  12
ATOM     12  C   UNL     1      33.058  54.829  29.718  1.00  0.00    -0.000 C 
BRANCH  12  13
ATOM     13  C   UNL     1      33.286  54.066  31.035  1.00  0.00    -0.003 C 
ATOM     14  C   UNL     1      32.587  54.719  32.226  1.00  0.00     0.004 C 
ENDBRANCH  12  13
ENDBRANCH  11  12
ENDBRANCH  10  11
ENDBRANCH   9  10
ENDBRANCH   1   9
TORSDOF 10
ENDMDL
MODEL 8
REMARK VINA RESULT:    -4.721     13.486     14.932
REMARK INTER + INTRA:          -8.129
REMARK INTER:                  -6.939
REMARK INTRA:                  -1.190
REMARK UNBOUND:                -0.648
REMARK SMILES CCCCCCCCCCCC(=O)[O-]
REMARK SMILES IDX 7 1 8 2 9 3 10 4 11 5 12 6 13 7 14 8 6 9 5 10 4 11 3 12 2 13
REMARK SMILES IDX 1 14
REMARK H PARENT
REMARK Flexibility Score: inf
ROOT
ATOM      1  C   UNL     1      36.272  56.759  28.515  1.00  0.00     0.000 C 
ENDROOT
BRANCH   1   2
ATOM      2  C   UNL     1      36.071  58.174  29.085  1.00  0.00     0.000 C 
BRANCH   2   3
ATOM      3  C   UNL     1      35.319  58.171  30.425  1.00  0.00     0.000 C 
BRANCH   3   4
ATOM      4  C   UNL     1      34.674  56.811  30.741  1.00  0.00     0.006 C 
BRANCH   4   5
ATOM      5  C   UNL     1      34.097  56.760  32.162  1.00  0.00     0.053 C 
BRANCH   5   6
ATOM      6  C   UNL     1      35.106  57.172  33.189  1.00  0.00     0.041 C 
ATOM      7  O   UNL     1      34.876  58.155  33.944  1.00  0.00    -0.550 OA
ATOM      8  O   UNL     1      36.286  56.455  33.335  1.00  0.00    -0.550 OA
ENDBRANCH   5   6
ENDBRANCH   4   5
ENDBRANCH   3   4
ENDBRANCH   2   3
ENDBRANCH   1   2
BRANCH   1   9
ATOM      9  C   UNL     1      35.983  56.691  27.003  1.00  0.00     0.000 C 
BRANCH   9  10
ATOM     10  C   UNL     1      34.584  57.214  26.620  1.00  0.00    -0.000 C 
BRANCH  10  11
ATOM     11  C   UNL     1      33.625  56.096  26.149  1.00  0.00    -0.000 C 
BRANCH  11  12
ATOM     12  C   UNL     1      32.317  56.027  26.958  1.00  0.00    -0.000 C 
BRANCH  12  13
ATOM     13  C   UNL     1      32.413  55.199  28.251  1.00  0.00    -0.003 C 
ATOM     14  C   UNL     1      33.467  54.095  28.170  1.00  0.00     0.004 C 
ENDBRANCH  12  13
ENDBRANCH  11  12
ENDBRANCH  10  11
ENDBRANCH   9  10
ENDBRANCH   1   9
TORSDOF 10
ENDMDL
MODEL 9
REMARK VINA RESULT:    -4.685     13.328     15.152
REMARK INTER + INTRA:          -8.072
REMARK INTER:                  -7.071
REMARK INTRA:                  -1.001
REMARK UNBOUND:                -0.648
REMARK SMILES CCCCCCCCCCCC(=O)[O-]
REMARK SMILES IDX 7 1 8 2 9 3 10 4 11 5 12 6 13 7 14 8 6 9 5 10 4 11 3 12 2 13
REMARK SMILES IDX 1 14
REMARK H PARENT
REMARK Flexibility Score: inf
ROOT
ATOM      1  C   UNL     1      33.196  56.796  31.864  1.00  0.00     0.000 C 
ENDROOT
BRANCH   1   2
ATOM      2  C   UNL     1      32.946  55.296  32.099  1.00  0.00     0.000 C 
BRANCH   2   3
ATOM      3  C   UNL     1      33.360  54.431  30.898  1.00  0.00     0.000 C 
BRANCH   3   4
ATOM      4  C   UNL     1      32.784  54.947  29.567  1.00  0.00     0.006 C 
BRANCH   4   5
ATOM      5  C   UNL     1      33.151  54.039  28.387  1.00  0.00     0.053 C 
BRANCH   5   6
ATOM      6  C   UNL     1      32.266  54.276  27.203  1.00  0.00     0.041 C 
ATOM      7  O   UNL     1      31.190  54.919  27.334  1.00  0.00    -0.550 OA
ATOM      8  O   UNL     1      32.642  53.815  25.948  1.00  0.00    -0.550 OA
ENDBRANCH   5   6
ENDBRANCH   4   5
ENDBRANCH   3   4
ENDBRANCH   2   3
ENDBRANCH   1   2
BRANCH   1   9
ATOM      9  C   UNL     1      34.648  57.202  32.176  1.00  0.00     0.000 C 
BRANCH   9  10
ATOM     10  C   UNL     1      35.282  58.099  31.093  1.00  0.00    -0.000 C 
BRANCH  10  11
ATOM     11  C   UNL     1      35.104  57.543  29.662  1.00  0.00    -0.000 C 
BRANCH  11  12
ATOM     12  C   UNL     1      36.433  57.343  28.910  1.00  0.00    -0.000 C 
BRANCH  12  13
ATOM     13  C   UNL     1      36.273  56.969  27.426  1.00  0.00    -0.003 C 
ATOM     14  C   UNL     1      34.820  57.017  26.956  1.00  0.00     0.004 C 
ENDBRANCH  12  13
ENDBRANCH  11  12
ENDBRANCH  10  11
ENDBRANCH   9  10
ENDBRANCH   1   9
TORSDOF 10
ENDMDL
