MODEL 1
REMARK VINA RESULT:    -3.298      0.000      0.000
REMARK INTER + INTRA:          -3.698
REMARK INTER:                  -3.683
REMARK INTRA:                  -0.015
REMARK UNBOUND:                -0.015
REMARK SMILES CCCC(=O)[O-]
REMARK SMILES IDX 3 1 4 2 5 3 6 4 2 5 1 6
REMARK H PARENT
REMARK Flexibility Score: inf
ROOT
ATOM      1  C   UNL     1      45.234  12.529  11.222  1.00  0.00     0.052 C 
ENDROOT
BRANCH   1   2
ATOM      2  C   UNL     1      45.766  11.265  11.824  1.00  0.00     0.041 C 
ATOM      3  O   UNL     1      45.740  11.097  13.072  1.00  0.00    -0.550 OA
ATOM      4  O   UNL     1      46.323  10.287  11.009  1.00  0.00    -0.550 OA
ENDBRANCH   1   2
BRANCH   1   5
ATOM      5  C   UNL     1      46.361  13.510  10.874  1.00  0.00     0.003 C 
ATOM      6  C   UNL     1      46.135  14.894  11.483  1.00  0.00     0.004 C 
ENDBRANCH   1   5
TORSDOF 2
ENDMDL
MODEL 2
REMARK VINA RESULT:    -3.260      2.266      3.172
REMARK INTER + INTRA:          -3.656
REMARK INTER:                  -3.614
REMARK INTRA:                  -0.042
REMARK UNBOUND:                -0.015
REMARK SMILES CCCC(=O)[O-]
REMARK SMILES IDX 3 1 4 2 5 3 6 4 2 5 1 6
REMARK H PARENT
REMARK Flexibility Score: inf
ROOT
ATOM      1  C   UNL     1      45.012  12.642  11.289  1.00  0.00     0.052 C 
ENDROOT
BRANCH   1   2
ATOM      2  C   UNL     1      45.848  13.866  11.502  1.00  0.00     0.041 C 
ATOM      3  O   UNL     1      45.585  14.657  12.446  1.00  0.00    -0.550 OA
ATOM      4  O   UNL     1      46.897  14.151  10.637  1.00  0.00    -0.550 OA
ENDBRANCH   1   2
BRANCH   1   5
ATOM      5  C   UNL     1      45.544  11.445  12.087  1.00  0.00     0.003 C 
ATOM      6  C   UNL     1      46.545  10.612  11.287  1.00  0.00     0.004 C 
ENDBRANCH   1   5
TORSDOF 2
ENDMDL
MODEL 3
REMARK VINA RESULT:    -3.155      1.275      1.653
REMARK INTER + INTRA:          -3.539
REMARK INTER:                  -3.509
REMARK INTRA:                  -0.029
REMARK UNBOUND:                -0.015
REMARK SMILES CCCC(=O)[O-]
REMARK SMILES IDX 3 1 4 2 5 3 6 4 2 5 1 6
REMARK H PARENT
REMARK Flexibility Score: inf
ROOT
ATOM      1  C   UNL     1      46.793  13.555  10.861  1.00  0.00     0.052 C 
ENDROOT
BRANCH   1   2
ATOM      2  C   UNL     1      45.944  12.331  11.022  1.00  0.00     0.041 C 
ATOM      3  O   UNL     1      44.699  12.439  11.177  1.00  0.00    -0.550 OA
ATOM      4  O   UNL     1      46.534  11.073  11.033  1.00  0.00    -0.550 OA
ENDBRANCH   1   2
BRANCH   1   5
ATOM      5  C   UNL     1      46.063  14.818  11.335  1.00  0.00     0.003 C 
ATOM      6  C   UNL     1      46.724  15.446  12.562  1.00  0.00     0.004 C 
ENDBRANCH   1   5
TORSDOF 2
ENDMDL
MODEL 4
REMARK VINA RESULT:    -2.955     18.816     19.190
REMARK INTER + INTRA:          -3.315
REMARK INTER:                  -3.294
REMARK INTRA:                  -0.021
REMARK UNBOUND:                -0.015
REMARK SMILES CCCC(=O)[O-]
REMARK SMILES IDX 3 1 4 2 5 3 6 4 2 5 1 6
REMARK H PARENT
REMARK Flexibility Score: inf
ROOT
ATOM      1  C   UNL     1      42.712  27.753  -0.121  1.00  0.00     0.052 C 
ENDROOT
BRANCH   1   2
ATOM      2  C   UNL     1      43.877  26.847  -0.380  1.00  0.00     0.041 C 
ATOM      3  O   UNL     1      44.850  26.822   0.418  1.00  0.00    -0.550 OA
ATOM      4  O   UNL     1      43.901  26.056  -1.522  1.00  0.00    -0.550 OA
ENDBRANCH   1   2
BRANCH   1   5
ATOM      5  C   UNL     1      42.369  27.823   1.372  1.00  0.00     0.003 C 
ATOM      6  C   UNL     1      41.928  29.222   1.802  1.00  0.00     0.004 C 
ENDBRANCH   1   5
TORSDOF 2
ENDMDL
MODEL 5
REMARK VINA RESULT:    -2.928     18.789     19.212
REMARK INTER + INTRA:          -3.285
REMARK INTER:                  -3.267
REMARK INTRA:                  -0.018
REMARK UNBOUND:                -0.015
REMARK SMILES CCCC(=O)[O-]
REMARK SMILES IDX 3 1 4 2 5 3 6 4 2 5 1 6
REMARK H PARENT
REMARK Flexibility Score: inf
ROOT
ATOM      1  C   UNL     1      42.729  27.741  -0.112  1.00  0.00     0.052 C 
ENDROOT
BRANCH   1   2
ATOM      2  C   UNL     1      43.901  26.856  -0.409  1.00  0.00     0.041 C 
ATOM      3  O   UNL     1      43.903  26.132  -1.439  1.00  0.00    -0.550 OA
ATOM      4  O   UNL     1      44.975  26.806   0.471  1.00  0.00    -0.550 OA
ENDBRANCH   1   2
BRANCH   1   5
ATOM      5  C   UNL     1      42.458  27.837   1.395  1.00  0.00     0.003 C 
ATOM      6  C   UNL     1      41.985  29.229   1.812  1.00  0.00     0.004 C 
ENDBRANCH   1   5
TORSDOF 2
ENDMDL
MODEL 6
REMARK VINA RESULT:    -2.844     18.138     19.084
REMARK INTER + INTRA:          -3.192
REMARK INTER:                  -3.130
REMARK INTRA:                  -0.061
REMARK UNBOUND:                -0.015
REMARK SMILES CCCC(=O)[O-]
REMARK SMILES IDX 3 1 4 2 5 3 6 4 2 5 1 6
REMARK H PARENT
REMARK Flexibility Score: inf
ROOT
ATOM      1  C   UNL     1      42.623  27.136   0.209  1.00  0.00     0.052 C 
ENDROOT
BRANCH   1   2
ATOM      2  C   UNL     1      43.753  27.179  -0.773  1.00  0.00     0.041 C 
ATOM      3  O   UNL     1      44.409  28.242  -0.938  1.00  0.00    -0.550 OA
ATOM      4  O   UNL     1      44.060  26.056  -1.531  1.00  0.00    -0.550 OA
ENDBRANCH   1   2
BRANCH   1   5
ATOM      5  C   UNL     1      43.062  27.608   1.601  1.00  0.00     0.003 C 
ATOM      6  C   UNL     1      44.124  26.696   2.216  1.00  0.00     0.004 C 
ENDBRANCH   1   5
TORSDOF 2
ENDMDL
MODEL 7
REMARK VINA RESULT:    -2.643     16.998     17.939
REMARK INTER + INTRA:          -2.967
REMARK INTER:                  -2.898
REMARK INTRA:                  -0.069
REMARK UNBOUND:                -0.015
REMARK SMILES CCCC(=O)[O-]
REMARK SMILES IDX 3 1 4 2 5 3 6 4 2 5 1 6
REMARK H PARENT
REMARK Flexibility Score: inf
ROOT
ATOM      1  C   UNL     1      44.197  27.899   2.182  1.00  0.00     0.052 C 
ENDROOT
BRANCH   1   2
ATOM      2  C   UNL     1      45.020  26.666   1.967  1.00  0.00     0.041 C 
ATOM      3  O   UNL     1      44.793  25.627   2.643  1.00  0.00    -0.550 OA
ATOM      4  O   UNL     1      46.058  26.675   1.044  1.00  0.00    -0.550 OA
ENDBRANCH   1   2
BRANCH   1   5
ATOM      5  C   UNL     1      42.744  27.698   1.733  1.00  0.00     0.003 C 
ATOM      6  C   UNL     1      42.644  27.240   0.278  1.00  0.00     0.004 C 
ENDBRANCH   1   5
TORSDOF 2
ENDMDL
MODEL 8
REMARK VINA RESULT:    -2.640     17.180     18.170
REMARK INTER + INTRA:          -2.963
REMARK INTER:                  -2.940
REMARK INTRA:                  -0.023
REMARK UNBOUND:                -0.015
REMARK SMILES CCCC(=O)[O-]
REMARK SMILES IDX 3 1 4 2 5 3 6 4 2 5 1 6
REMARK H PARENT
REMARK Flexibility Score: inf
ROOT
ATOM      1  C   UNL     1      43.712  26.818   1.892  1.00  0.00     0.052 C 
ENDROOT
BRANCH   1   2
ATOM      2  C   UNL     1      43.803  27.220   0.453  1.00  0.00     0.041 C 
ATOM      3  O   UNL     1      44.704  26.738  -0.284  1.00  0.00    -0.550 OA
ATOM      4  O   UNL     1      42.914  28.153  -0.067  1.00  0.00    -0.550 OA
ENDBRANCH   1   2
BRANCH   1   5
ATOM      5  C   UNL     1      45.099  26.688   2.535  1.00  0.00     0.003 C 
ATOM      6  C   UNL     1      45.199  25.477   3.461  1.00  0.00     0.004 C 
ENDBRANCH   1   5
TORSDOF 2
ENDMDL
MODEL 9
REMARK VINA RESULT:    -2.577     15.750     16.746
REMARK INTER + INTRA:          -2.893
REMARK INTER:                  -2.874
REMARK INTRA:                  -0.019
REMARK UNBOUND:                -0.015
REMARK SMILES CCCC(=O)[O-]
REMARK SMILES IDX 3 1 4 2 5 3 6 4 2 5 1 6
REMARK H PARENT
REMARK Flexibility Score: inf
ROOT
ATOM      1  C   UNL     1      44.964  27.203   2.850  1.00  0.00     0.052 C 
ENDROOT
BRANCH   1   2
ATOM      2  C   UNL     1      45.356  25.987   3.631  1.00  0.00     0.041 C 
ATOM      3  O   UNL     1      45.268  24.844   3.110  1.00  0.00    -0.550 OA
ATOM      4  O   UNL     1      45.785  26.113   4.946  1.00  0.00    -0.550 OA
ENDBRANCH   1   2
BRANCH   1   5
ATOM      5  C   UNL     1      43.990  26.861   1.716  1.00  0.00     0.003 C 
ATOM      6  C   UNL     1      42.705  27.685   1.785  1.00  0.00     0.004 C 
ENDBRANCH   1   5
TORSDOF 2
ENDMDL
