MODEL 1
REMARK VINA RESULT:    -0.624      0.000      0.000
REMARK INTER + INTRA:          -1.052
REMARK INTER:                  -0.751
REMARK INTRA:                  -0.300
REMARK UNBOUND:                -0.300
REMARK SMILES Oc1cc(O)c2cc(O)c(-c3ccc(O)c(O)c3)[o+]c2c1
REMARK SMILES IDX 10 1 19 2 20 3 21 4 2 5 3 6 4 7 6 8 7 9 8 10 11 11 12 12
REMARK SMILES IDX 13 13 14 14 18 15 16 16 15 17 17 19 9 21 1 23 5 25
REMARK H PARENT 15 18 17 20 9 22 1 24 5 26
REMARK Flexibility Score: inf
ROOT
ATOM      1  C   UNL     1      13.225  -9.996 -28.016  1.00  0.00     0.402 A 
ATOM      2  O   UNL     1      12.210 -10.555 -28.670  1.00  0.00    -0.202 OA
ATOM      3  C   UNL     1      11.795 -11.798 -28.449  1.00  0.00     0.368 A 
ATOM      4  C   UNL     1      10.717 -12.296 -29.185  1.00  0.00     0.162 A 
ATOM      5  C   UNL     1      10.257 -13.595 -28.971  1.00  0.00     0.128 A 
ATOM      6  C   UNL     1      10.878 -14.406 -28.014  1.00  0.00     0.093 A 
ATOM      7  C   UNL     1      11.960 -13.930 -27.262  1.00  0.00     0.136 A 
ATOM      8  C   UNL     1      12.432 -12.609 -27.479  1.00  0.00     0.125 A 
ATOM      9  C   UNL     1      13.517 -12.053 -26.782  1.00  0.00     0.078 A 
ATOM     10  C   UNL     1      13.928 -10.745 -27.053  1.00  0.00     0.223 A 
ENDROOT
BRANCH   1  11
ATOM     11  C   UNL     1      13.587  -8.598 -28.346  1.00  0.00     0.087 A 
ATOM     12  C   UNL     1      12.817  -7.515 -27.889  1.00  0.00     0.022 A 
ATOM     13  C   UNL     1      13.164  -6.206 -28.234  1.00  0.00     0.051 A 
ATOM     14  C   UNL     1      14.278  -5.962 -29.049  1.00  0.00     0.157 A 
ATOM     15  C   UNL     1      14.689  -8.350 -29.180  1.00  0.00     0.068 A 
ATOM     16  C   UNL     1      15.039  -7.036 -29.526  1.00  0.00     0.158 A 
BRANCH  14  17
ATOM     17  O   UNL     1      14.630  -4.658 -29.393  1.00  0.00    -0.504 OA
ATOM     18  H   UNL     1      15.598  -4.386 -29.515  1.00  0.00     0.293 HD
ENDBRANCH  14  17
BRANCH  16  19
ATOM     19  O   UNL     1      16.142  -6.792 -30.342  1.00  0.00    -0.504 OA
ATOM     20  H   UNL     1      16.046  -6.338 -31.243  1.00  0.00     0.293 HD
ENDBRANCH  16  19
ENDBRANCH   1  11
BRANCH  10  21
ATOM     21  O   UNL     1      15.037 -10.210 -26.398  1.00  0.00    -0.500 OA
ATOM     22  H   UNL     1      15.378  -9.278 -26.604  1.00  0.00     0.294 HD
ENDBRANCH  10  21
BRANCH   5  23
ATOM     23  O   UNL     1       9.181 -14.074 -29.716  1.00  0.00    -0.507 OA
ATOM     24  H   UNL     1       8.313 -14.355 -29.275  1.00  0.00     0.293 HD
ENDBRANCH   5  23
BRANCH   7  25
ATOM     25  O   UNL     1      12.522 -14.799 -26.323  1.00  0.00    -0.507 OA
ATOM     26  H   UNL     1      13.509 -14.852 -26.115  1.00  0.00     0.293 HD
ENDBRANCH   7  25
TORSDOF 6
ENDMDL
MODEL 2
REMARK VINA RESULT:     0.243      0.715      1.513
REMARK INTER + INTRA:          -0.008
REMARK INTER:                   0.285
REMARK INTRA:                  -0.293
REMARK UNBOUND:                -0.300
REMARK SMILES Oc1cc(O)c2cc(O)c(-c3ccc(O)c(O)c3)[o+]c2c1
REMARK SMILES IDX 10 1 19 2 20 3 21 4 2 5 3 6 4 7 6 8 7 9 8 10 11 11 12 12
REMARK SMILES IDX 13 13 14 14 18 15 16 16 15 17 17 19 9 21 1 23 5 25
REMARK H PARENT 15 18 17 20 9 22 1 24 5 26
REMARK Flexibility Score: inf
ROOT
ATOM      1  C   UNL     1      13.224  -9.688 -28.166  1.00  0.00     0.402 A 
ATOM      2  O   UNL     1      12.239 -10.266 -28.849  1.00  0.00    -0.202 OA
ATOM      3  C   UNL     1      11.763 -11.473 -28.565  1.00  0.00     0.368 A 
ATOM      4  C   UNL     1      10.723 -11.994 -29.338  1.00  0.00     0.162 A 
ATOM      5  C   UNL     1      10.201 -13.257 -29.061  1.00  0.00     0.128 A 
ATOM      6  C   UNL     1      10.721 -14.008 -28.000  1.00  0.00     0.093 A 
ATOM      7  C   UNL     1      11.763 -13.508 -27.209  1.00  0.00     0.136 A 
ATOM      8  C   UNL     1      12.298 -12.224 -27.491  1.00  0.00     0.125 A 
ATOM      9  C   UNL     1      13.351 -11.649 -26.760  1.00  0.00     0.078 A 
ATOM     10  C   UNL     1      13.828 -10.380 -27.099  1.00  0.00     0.223 A 
ENDROOT
BRANCH   1  11
ATOM     11  C   UNL     1      13.660  -8.333 -28.575  1.00  0.00     0.087 A 
ATOM     12  C   UNL     1      14.853  -8.134 -29.293  1.00  0.00     0.022 A 
ATOM     13  C   UNL     1      15.257  -6.843 -29.647  1.00  0.00     0.051 A 
ATOM     14  C   UNL     1      14.482  -5.735 -29.280  1.00  0.00     0.157 A 
ATOM     15  C   UNL     1      12.899  -7.218 -28.191  1.00  0.00     0.068 A 
ATOM     16  C   UNL     1      13.304  -5.922 -28.548  1.00  0.00     0.158 A 
BRANCH  14  17
ATOM     17  O   UNL     1      14.880  -4.447 -29.633  1.00  0.00    -0.504 OA
ATOM     18  H   UNL     1      15.810  -4.105 -29.425  1.00  0.00     0.293 HD
ENDBRANCH  14  17
BRANCH  16  19
ATOM     19  O   UNL     1      12.538  -4.818 -28.177  1.00  0.00    -0.504 OA
ATOM     20  H   UNL     1      12.189  -4.707 -27.232  1.00  0.00     0.293 HD
ENDBRANCH  16  19
ENDBRANCH   1  11
BRANCH  10  21
ATOM     21  O   UNL     1      14.906  -9.830 -26.406  1.00  0.00    -0.500 OA
ATOM     22  H   UNL     1      15.793 -10.315 -26.329  1.00  0.00     0.294 HD
ENDBRANCH  10  21
BRANCH   5  23
ATOM     23  O   UNL     1       9.165 -13.760 -29.845  1.00  0.00    -0.507 OA
ATOM     24  H   UNL     1       8.904 -14.739 -29.815  1.00  0.00     0.293 HD
ENDBRANCH   5  23
BRANCH   7  25
ATOM     25  O   UNL     1      12.224 -14.317 -26.166  1.00  0.00    -0.507 OA
ATOM     26  H   UNL     1      11.917 -15.265 -26.002  1.00  0.00     0.293 HD
ENDBRANCH   7  25
TORSDOF 6
ENDMDL
MODEL 3
REMARK VINA RESULT:     0.375      1.867      2.796
REMARK INTER + INTRA:           0.151
REMARK INTER:                   0.320
REMARK INTRA:                  -0.169
REMARK UNBOUND:                -0.300
REMARK SMILES Oc1cc(O)c2cc(O)c(-c3ccc(O)c(O)c3)[o+]c2c1
REMARK SMILES IDX 10 1 19 2 20 3 21 4 2 5 3 6 4 7 6 8 7 9 8 10 11 11 12 12
REMARK SMILES IDX 13 13 14 14 18 15 16 16 15 17 17 19 9 21 1 23 5 25
REMARK H PARENT 15 18 17 20 9 22 1 24 5 26
REMARK Flexibility Score: inf
ROOT
ATOM      1  C   UNL     1      12.401  -9.963 -27.868  1.00  0.00     0.402 A 
ATOM      2  O   UNL     1      12.143 -10.145 -26.576  1.00  0.00    -0.202 OA
ATOM      3  C   UNL     1      11.650 -11.275 -26.082  1.00  0.00     0.368 A 
ATOM      4  C   UNL     1      11.415 -11.373 -24.709  1.00  0.00     0.162 A 
ATOM      5  C   UNL     1      10.901 -12.548 -24.161  1.00  0.00     0.128 A 
ATOM      6  C   UNL     1      10.619 -13.638 -24.993  1.00  0.00     0.093 A 
ATOM      7  C   UNL     1      10.846 -13.567 -26.373  1.00  0.00     0.136 A 
ATOM      8  C   UNL     1      11.366 -12.371 -26.933  1.00  0.00     0.125 A 
ATOM      9  C   UNL     1      11.613 -12.205 -28.306  1.00  0.00     0.078 A 
ATOM     10  C   UNL     1      12.123 -10.995 -28.785  1.00  0.00     0.223 A 
ENDROOT
BRANCH   1  11
ATOM     11  C   UNL     1      12.960  -8.659 -28.295  1.00  0.00     0.087 A 
ATOM     12  C   UNL     1      12.230  -7.467 -28.149  1.00  0.00     0.022 A 
ATOM     13  C   UNL     1      12.768  -6.252 -28.581  1.00  0.00     0.051 A 
ATOM     14  C   UNL     1      14.036  -6.212 -29.175  1.00  0.00     0.157 A 
ATOM     15  C   UNL     1      14.221  -8.617 -28.910  1.00  0.00     0.068 A 
ATOM     16  C   UNL     1      14.762  -7.397 -29.343  1.00  0.00     0.158 A 
BRANCH  14  17
ATOM     17  O   UNL     1      14.578  -5.002 -29.605  1.00  0.00    -0.504 OA
ATOM     18  H   UNL     1      14.759  -4.823 -30.586  1.00  0.00     0.293 HD
ENDBRANCH  14  17
BRANCH  16  19
ATOM     19  O   UNL     1      16.021  -7.357 -29.941  1.00  0.00    -0.504 OA
ATOM     20  H   UNL     1      16.192  -7.778 -30.847  1.00  0.00     0.293 HD
ENDBRANCH  16  19
ENDBRANCH   1  11
BRANCH  10  21
ATOM     21  O   UNL     1      12.320 -10.812 -30.153  1.00  0.00    -0.500 OA
ATOM     22  H   UNL     1      11.655 -10.302 -30.724  1.00  0.00     0.294 HD
ENDBRANCH  10  21
BRANCH   5  23
ATOM     23  O   UNL     1      10.673 -12.624 -22.789  1.00  0.00    -0.507 OA
ATOM     24  H   UNL     1      10.888 -11.850 -22.172  1.00  0.00     0.293 HD
ENDBRANCH   5  23
BRANCH   7  25
ATOM     25  O   UNL     1      10.543 -14.700 -27.134  1.00  0.00    -0.507 OA
ATOM     26  H   UNL     1       9.927 -14.700 -27.934  1.00  0.00     0.293 HD
ENDBRANCH   7  25
TORSDOF 6
ENDMDL
MODEL 4
REMARK VINA RESULT:     0.753      1.865      2.762
REMARK INTER + INTRA:           0.607
REMARK INTER:                   0.274
REMARK INTRA:                   0.333
REMARK UNBOUND:                -0.300
REMARK SMILES Oc1cc(O)c2cc(O)c(-c3ccc(O)c(O)c3)[o+]c2c1
REMARK SMILES IDX 10 1 19 2 20 3 21 4 2 5 3 6 4 7 6 8 7 9 8 10 11 11 12 12
REMARK SMILES IDX 13 13 14 14 18 15 16 16 15 17 17 19 9 21 1 23 5 25
REMARK H PARENT 15 18 17 20 9 22 1 24 5 26
REMARK Flexibility Score: inf
ROOT
ATOM      1  C   UNL     1      13.190  -9.802 -27.499  1.00  0.00     0.402 A 
ATOM      2  O   UNL     1      14.114 -10.759 -27.482  1.00  0.00    -0.202 OA
ATOM      3  C   UNL     1      13.895 -11.976 -26.997  1.00  0.00     0.368 A 
ATOM      4  C   UNL     1      14.928 -12.916 -27.026  1.00  0.00     0.162 A 
ATOM      5  C   UNL     1      14.727 -14.203 -26.528  1.00  0.00     0.128 A 
ATOM      6  C   UNL     1      13.481 -14.556 -25.996  1.00  0.00     0.093 A 
ATOM      7  C   UNL     1      12.428 -13.633 -25.956  1.00  0.00     0.136 A 
ATOM      8  C   UNL     1      12.632 -12.322 -26.460  1.00  0.00     0.125 A 
ATOM      9  C   UNL     1      11.639 -11.328 -26.449  1.00  0.00     0.078 A 
ATOM     10  C   UNL     1      11.915 -10.057 -26.960  1.00  0.00     0.223 A 
ENDROOT
BRANCH   1  11
ATOM     11  C   UNL     1      13.553  -8.487 -28.076  1.00  0.00     0.087 A 
ATOM     12  C   UNL     1      12.829  -7.323 -27.761  1.00  0.00     0.022 A 
ATOM     13  C   UNL     1      13.175  -6.098 -28.336  1.00  0.00     0.051 A 
ATOM     14  C   UNL     1      14.242  -6.019 -29.241  1.00  0.00     0.157 A 
ATOM     15  C   UNL     1      14.607  -8.406 -29.000  1.00  0.00     0.068 A 
ATOM     16  C   UNL     1      14.956  -7.175 -29.577  1.00  0.00     0.158 A 
BRANCH  14  17
ATOM     17  O   UNL     1      14.592  -4.798 -29.815  1.00  0.00    -0.504 OA
ATOM     18  H   UNL     1      14.450  -3.923 -29.325  1.00  0.00     0.293 HD
ENDBRANCH  14  17
BRANCH  16  19
ATOM     19  O   UNL     1      16.012  -7.096 -30.483  1.00  0.00    -0.504 OA
ATOM     20  H   UNL     1      16.857  -7.642 -30.363  1.00  0.00     0.293 HD
ENDBRANCH  16  19
ENDBRANCH   1  11
BRANCH  10  21
ATOM     21  O   UNL     1      10.946  -9.055 -26.903  1.00  0.00    -0.500 OA
ATOM     22  H   UNL     1       9.972  -9.266 -26.717  1.00  0.00     0.294 HD
ENDBRANCH  10  21
BRANCH   5  23
ATOM     23  O   UNL     1      15.770 -15.125 -26.564  1.00  0.00    -0.507 OA
ATOM     24  H   UNL     1      16.201 -15.472 -25.715  1.00  0.00     0.293 HD
ENDBRANCH   5  23
BRANCH   7  25
ATOM     25  O   UNL     1      11.214 -14.065 -25.414  1.00  0.00    -0.507 OA
ATOM     26  H   UNL     1      10.307 -13.797 -25.764  1.00  0.00     0.293 HD
ENDBRANCH   7  25
TORSDOF 6
ENDMDL
