MODEL 1
REMARK VINA RESULT:    -7.073      0.000      0.000
REMARK INTER + INTRA:          -8.795
REMARK INTER:                  -8.520
REMARK INTRA:                  -0.275
REMARK UNBOUND:                -0.275
REMARK SMILES O=c1c(O)c(-c2ccc(O)c(O)c2)oc2cc(O)cc(O)c12
REMARK SMILES IDX 5 1 3 2 2 3 1 4 22 5 20 6 19 7 17 8 16 9 15 10 14 11 6 12
REMARK SMILES IDX 7 13 8 14 9 15 13 16 11 17 10 18 12 20 4 22 21 24 18 26
REMARK H PARENT 10 19 12 21 4 23 21 25 18 27
REMARK Flexibility Score: inf
ROOT
ATOM      1  C   UNL     1      27.988  43.497  15.455  1.00  0.00     0.180 A 
ATOM      2  C   UNL     1      29.044  44.423  15.363  1.00  0.00     0.208 A 
ATOM      3  C   UNL     1      28.803  45.670  14.763  1.00  0.00     0.238 A 
ATOM      4  O   UNL     1      29.738  46.513  14.684  1.00  0.00    -0.285 OA
ATOM      5  C   UNL     1      27.522  45.959  14.248  1.00  0.00     0.111 A 
ATOM      6  C   UNL     1      27.197  47.188  13.626  1.00  0.00     0.134 A 
ATOM      7  C   UNL     1      25.901  47.397  13.131  1.00  0.00     0.093 A 
ATOM      8  C   UNL     1      24.926  46.402  13.245  1.00  0.00     0.123 A 
ATOM      9  C   UNL     1      25.241  45.186  13.860  1.00  0.00     0.094 A 
ATOM     10  C   UNL     1      26.527  44.960  14.361  1.00  0.00     0.146 A 
ATOM     11  O   UNL     1      26.797  43.798  14.946  1.00  0.00    -0.452 OA
ENDROOT
BRANCH   1  12
ATOM     12  C   UNL     1      28.160  42.170  16.089  1.00  0.00     0.025 A 
ATOM     13  C   UNL     1      28.820  41.121  15.425  1.00  0.00     0.016 A 
ATOM     14  C   UNL     1      28.992  39.885  16.053  1.00  0.00     0.051 A 
ATOM     15  C   UNL     1      28.523  39.680  17.354  1.00  0.00     0.157 A 
ATOM     16  C   UNL     1      27.708  41.968  17.404  1.00  0.00     0.062 A 
ATOM     17  C   UNL     1      27.879  40.727  18.036  1.00  0.00     0.158 A 
BRANCH  15  18
ATOM     18  O   UNL     1      28.706  38.435  17.954  1.00  0.00    -0.504 OA
ATOM     19  H   UNL     1      29.106  37.650  17.454  1.00  0.00     0.293 HD
ENDBRANCH  15  18
BRANCH  17  20
ATOM     20  O   UNL     1      27.415  40.534  19.336  1.00  0.00    -0.504 OA
ATOM     21  H   UNL     1      26.432  40.614  19.565  1.00  0.00     0.293 HD
ENDBRANCH  17  20
ENDBRANCH   1  12
BRANCH   2  22
ATOM     22  O   UNL     1      30.317  44.094  15.835  1.00  0.00    -0.502 OA
ATOM     23  H   UNL     1      30.743  44.567  16.624  1.00  0.00     0.293 HD
ENDBRANCH   2  22
BRANCH   6  24
ATOM     24  O   UNL     1      28.148  48.201  13.494  1.00  0.00    -0.507 OA
ATOM     25  H   UNL     1      27.895  49.135  13.193  1.00  0.00     0.293 HD
ENDBRANCH   6  24
BRANCH   8  26
ATOM     26  O   UNL     1      23.647  46.635  12.745  1.00  0.00    -0.508 OA
ATOM     27  H   UNL     1      23.108  45.897  12.306  1.00  0.00     0.293 HD
ENDBRANCH   8  26
TORSDOF 6
ENDMDL
MODEL 2
REMARK VINA RESULT:    -6.993      3.430      6.178
REMARK INTER + INTRA:          -8.698
REMARK INTER:                  -8.670
REMARK INTRA:                  -0.029
REMARK UNBOUND:                -0.275
REMARK SMILES O=c1c(O)c(-c2ccc(O)c(O)c2)oc2cc(O)cc(O)c12
REMARK SMILES IDX 5 1 3 2 2 3 1 4 22 5 20 6 19 7 17 8 16 9 15 10 14 11 6 12
REMARK SMILES IDX 7 13 8 14 9 15 13 16 11 17 10 18 12 20 4 22 21 24 18 26
REMARK H PARENT 10 19 12 21 4 23 21 25 18 27
REMARK Flexibility Score: inf
ROOT
ATOM      1  C   UNL     1      25.684  44.952  14.642  1.00  0.00     0.180 A 
ATOM      2  C   UNL     1      24.743  45.295  13.654  1.00  0.00     0.208 A 
ATOM      3  C   UNL     1      23.484  44.674  13.671  1.00  0.00     0.238 A 
ATOM      4  O   UNL     1      22.628  44.980  12.797  1.00  0.00    -0.285 OA
ATOM      5  C   UNL     1      23.195  43.709  14.659  1.00  0.00     0.111 A 
ATOM      6  C   UNL     1      21.954  43.035  14.744  1.00  0.00     0.134 A 
ATOM      7  C   UNL     1      21.747  42.081  15.752  1.00  0.00     0.093 A 
ATOM      8  C   UNL     1      22.756  41.789  16.673  1.00  0.00     0.123 A 
ATOM      9  C   UNL     1      23.985  42.453  16.595  1.00  0.00     0.094 A 
ATOM     10  C   UNL     1      24.209  43.407  15.598  1.00  0.00     0.146 A 
ATOM     11  O   UNL     1      25.383  44.027  15.550  1.00  0.00    -0.452 OA
ENDROOT
BRANCH   1  12
ATOM     12  C   UNL     1      27.026  45.576  14.701  1.00  0.00     0.025 A 
ATOM     13  C   UNL     1      27.873  45.594  13.580  1.00  0.00     0.016 A 
ATOM     14  C   UNL     1      29.125  46.211  13.651  1.00  0.00     0.051 A 
ATOM     15  C   UNL     1      29.544  46.828  14.834  1.00  0.00     0.157 A 
ATOM     16  C   UNL     1      27.440  46.215  15.881  1.00  0.00     0.062 A 
ATOM     17  C   UNL     1      28.697  46.834  15.955  1.00  0.00     0.158 A 
BRANCH  15  18
ATOM     18  O   UNL     1      30.800  47.433  14.876  1.00  0.00    -0.504 OA
ATOM     19  H   UNL     1      31.071  48.157  14.222  1.00  0.00     0.293 HD
ENDBRANCH  15  18
BRANCH  17  20
ATOM     20  O   UNL     1      29.103  47.454  17.135  1.00  0.00    -0.504 OA
ATOM     21  H   UNL     1      28.610  47.309  18.008  1.00  0.00     0.293 HD
ENDBRANCH  17  20
ENDBRANCH   1  12
BRANCH   2  22
ATOM     22  O   UNL     1      25.069  46.216  12.656  1.00  0.00    -0.502 OA
ATOM     23  H   UNL     1      25.261  45.938  11.700  1.00  0.00     0.293 HD
ENDBRANCH   2  22
BRANCH   6  24
ATOM     24  O   UNL     1      20.927  43.303  13.838  1.00  0.00    -0.507 OA
ATOM     25  H   UNL     1      20.838  42.794  12.966  1.00  0.00     0.293 HD
ENDBRANCH   6  24
BRANCH   8  26
ATOM     26  O   UNL     1      22.525  40.837  17.664  1.00  0.00    -0.508 OA
ATOM     27  H   UNL     1      21.891  40.061  17.516  1.00  0.00     0.293 HD
ENDBRANCH   8  26
TORSDOF 6
ENDMDL
MODEL 3
REMARK VINA RESULT:    -6.853      9.204     10.576
REMARK INTER + INTRA:          -8.530
REMARK INTER:                  -8.296
REMARK INTRA:                  -0.234
REMARK UNBOUND:                -0.275
REMARK SMILES O=c1c(O)c(-c2ccc(O)c(O)c2)oc2cc(O)cc(O)c12
REMARK SMILES IDX 5 1 3 2 2 3 1 4 22 5 20 6 19 7 17 8 16 9 15 10 14 11 6 12
REMARK SMILES IDX 7 13 8 14 9 15 13 16 11 17 10 18 12 20 4 22 21 24 18 26
REMARK H PARENT 10 19 12 21 4 23 21 25 18 27
REMARK Flexibility Score: inf
ROOT
ATOM      1  C   UNL     1      18.004  42.019  17.931  1.00  0.00     0.180 A 
ATOM      2  C   UNL     1      18.799  43.128  17.588  1.00  0.00     0.208 A 
ATOM      3  C   UNL     1      18.171  44.300  17.137  1.00  0.00     0.238 A 
ATOM      4  O   UNL     1      18.872  45.305  16.837  1.00  0.00    -0.285 OA
ATOM      5  C   UNL     1      16.766  44.336  17.018  1.00  0.00     0.111 A 
ATOM      6  C   UNL     1      16.056  45.475  16.568  1.00  0.00     0.134 A 
ATOM      7  C   UNL     1      14.658  45.429  16.469  1.00  0.00     0.093 A 
ATOM      8  C   UNL     1      13.957  44.268  16.807  1.00  0.00     0.123 A 
ATOM      9  C   UNL     1      14.654  43.140  17.253  1.00  0.00     0.094 A 
ATOM     10  C   UNL     1      16.047  43.167  17.361  1.00  0.00     0.146 A 
ATOM     11  O   UNL     1      16.683  42.084  17.792  1.00  0.00    -0.452 OA
ENDROOT
BRANCH   1  12
ATOM     12  C   UNL     1      18.591  40.755  18.431  1.00  0.00     0.025 A 
ATOM     13  C   UNL     1      19.314  39.898  17.581  1.00  0.00     0.016 A 
ATOM     14  C   UNL     1      19.880  38.722  18.080  1.00  0.00     0.051 A 
ATOM     15  C   UNL     1      19.748  38.391  19.432  1.00  0.00     0.157 A 
ATOM     16  C   UNL     1      18.479  40.430  19.792  1.00  0.00     0.062 A 
ATOM     17  C   UNL     1      19.046  39.250  20.295  1.00  0.00     0.158 A 
BRANCH  15  18
ATOM     18  O   UNL     1      20.322  37.210  19.901  1.00  0.00    -0.504 OA
ATOM     19  H   UNL     1      21.135  36.795  19.462  1.00  0.00     0.293 HD
ENDBRANCH  15  18
BRANCH  17  20
ATOM     20  O   UNL     1      18.916  38.930  21.645  1.00  0.00    -0.504 OA
ATOM     21  H   UNL     1      18.544  39.594  22.314  1.00  0.00     0.293 HD
ENDBRANCH  17  20
ENDBRANCH   1  12
BRANCH   2  22
ATOM     22  O   UNL     1      20.192  43.052  17.667  1.00  0.00    -0.502 OA
ATOM     23  H   UNL     1      20.777  42.929  16.849  1.00  0.00     0.293 HD
ENDBRANCH   2  22
BRANCH   6  24
ATOM     24  O   UNL     1      16.726  46.649  16.221  1.00  0.00    -0.507 OA
ATOM     25  H   UNL     1      16.812  46.949  15.256  1.00  0.00     0.293 HD
ENDBRANCH   6  24
BRANCH   8  26
ATOM     26  O   UNL     1      12.568  44.249  16.699  1.00  0.00    -0.508 OA
ATOM     27  H   UNL     1      12.108  44.179  15.799  1.00  0.00     0.293 HD
ENDBRANCH   8  26
TORSDOF 6
ENDMDL
MODEL 4
REMARK VINA RESULT:    -6.833      3.069      5.300
REMARK INTER + INTRA:          -8.507
REMARK INTER:                  -8.229
REMARK INTRA:                  -0.278
REMARK UNBOUND:                -0.275
REMARK SMILES O=c1c(O)c(-c2ccc(O)c(O)c2)oc2cc(O)cc(O)c12
REMARK SMILES IDX 5 1 3 2 2 3 1 4 22 5 20 6 19 7 17 8 16 9 15 10 14 11 6 12
REMARK SMILES IDX 7 13 8 14 9 15 13 16 11 17 10 18 12 20 4 22 21 24 18 26
REMARK H PARENT 10 19 12 21 4 23 21 25 18 27
REMARK Flexibility Score: inf
ROOT
ATOM      1  C   UNL     1      24.677  44.459  14.326  1.00  0.00     0.180 A 
ATOM      2  C   UNL     1      24.522  45.627  13.555  1.00  0.00     0.208 A 
ATOM      3  C   UNL     1      25.608  46.508  13.432  1.00  0.00     0.238 A 
ATOM      4  O   UNL     1      25.485  47.551  12.735  1.00  0.00    -0.285 OA
ATOM      5  C   UNL     1      26.818  46.220  14.097  1.00  0.00     0.111 A 
ATOM      6  C   UNL     1      27.958  47.056  14.028  1.00  0.00     0.134 A 
ATOM      7  C   UNL     1      29.123  46.704  14.726  1.00  0.00     0.093 A 
ATOM      8  C   UNL     1      29.170  45.536  15.490  1.00  0.00     0.123 A 
ATOM      9  C   UNL     1      28.047  44.704  15.561  1.00  0.00     0.094 A 
ATOM     10  C   UNL     1      26.877  45.037  14.871  1.00  0.00     0.146 A 
ATOM     11  O   UNL     1      25.828  44.227  14.951  1.00  0.00    -0.452 OA
ENDROOT
BRANCH   1  12
ATOM     12  C   UNL     1      23.584  43.473  14.489  1.00  0.00     0.025 A 
ATOM     13  C   UNL     1      23.238  42.588  13.452  1.00  0.00     0.016 A 
ATOM     14  C   UNL     1      22.220  41.649  13.637  1.00  0.00     0.051 A 
ATOM     15  C   UNL     1      21.543  41.568  14.858  1.00  0.00     0.157 A 
ATOM     16  C   UNL     1      22.918  43.375  15.721  1.00  0.00     0.062 A 
ATOM     17  C   UNL     1      21.895  42.434  15.908  1.00  0.00     0.158 A 
BRANCH  15  18
ATOM     18  O   UNL     1      20.530  40.623  15.011  1.00  0.00    -0.504 OA
ATOM     19  H   UNL     1      19.933  40.343  14.242  1.00  0.00     0.293 HD
ENDBRANCH  15  18
BRANCH  17  20
ATOM     20  O   UNL     1      21.231  42.355  17.130  1.00  0.00    -0.504 OA
ATOM     21  H   UNL     1      21.667  42.660  17.992  1.00  0.00     0.293 HD
ENDBRANCH  17  20
ENDBRANCH   1  12
BRANCH   2  22
ATOM     22  O   UNL     1      23.298  45.915  12.947  1.00  0.00    -0.502 OA
ATOM     23  H   UNL     1      23.085  45.638  11.996  1.00  0.00     0.293 HD
ENDBRANCH   2  22
BRANCH   6  24
ATOM     24  O   UNL     1      27.943  48.231  13.275  1.00  0.00    -0.507 OA
ATOM     25  H   UNL     1      27.580  48.254  12.329  1.00  0.00     0.293 HD
ENDBRANCH   6  24
BRANCH   8  26
ATOM     26  O   UNL     1      30.339  45.209  16.174  1.00  0.00    -0.508 OA
ATOM     27  H   UNL     1      31.222  45.657  15.957  1.00  0.00     0.293 HD
ENDBRANCH   8  26
TORSDOF 6
ENDMDL
MODEL 5
REMARK VINA RESULT:    -6.540     10.231     13.542
REMARK INTER + INTRA:          -8.153
REMARK INTER:                  -7.823
REMARK INTRA:                  -0.329
REMARK UNBOUND:                -0.275
REMARK SMILES O=c1c(O)c(-c2ccc(O)c(O)c2)oc2cc(O)cc(O)c12
REMARK SMILES IDX 5 1 3 2 2 3 1 4 22 5 20 6 19 7 17 8 16 9 15 10 14 11 6 12
REMARK SMILES IDX 7 13 8 14 9 15 13 16 11 17 10 18 12 20 4 22 21 24 18 26
REMARK H PARENT 10 19 12 21 4 23 21 25 18 27
REMARK Flexibility Score: inf
ROOT
ATOM      1  C   UNL     1      15.748  45.849  18.064  1.00  0.00     0.180 A 
ATOM      2  C   UNL     1      15.241  44.540  17.948  1.00  0.00     0.208 A 
ATOM      3  C   UNL     1      16.049  43.548  17.372  1.00  0.00     0.238 A 
ATOM      4  O   UNL     1      15.611  42.369  17.274  1.00  0.00    -0.285 OA
ATOM      5  C   UNL     1      17.337  43.882  16.904  1.00  0.00     0.111 A 
ATOM      6  C   UNL     1      18.213  42.943  16.308  1.00  0.00     0.134 A 
ATOM      7  C   UNL     1      19.476  43.356  15.859  1.00  0.00     0.093 A 
ATOM      8  C   UNL     1      19.879  44.687  15.993  1.00  0.00     0.123 A 
ATOM      9  C   UNL     1      19.019  45.619  16.583  1.00  0.00     0.094 A 
ATOM     10  C   UNL     1      17.756  45.227  17.037  1.00  0.00     0.146 A 
ATOM     11  O   UNL     1      16.961  46.131  17.598  1.00  0.00    -0.452 OA
ENDROOT
BRANCH   1  12
ATOM     12  C   UNL     1      14.963  46.945  18.676  1.00  0.00     0.025 A 
ATOM     13  C   UNL     1      14.980  47.170  20.064  1.00  0.00     0.016 A 
ATOM     14  C   UNL     1      14.251  48.227  20.616  1.00  0.00     0.051 A 
ATOM     15  C   UNL     1      13.509  49.081  19.795  1.00  0.00     0.157 A 
ATOM     16  C   UNL     1      14.234  47.818  17.851  1.00  0.00     0.062 A 
ATOM     17  C   UNL     1      13.501  48.878  18.404  1.00  0.00     0.158 A 
BRANCH  15  18
ATOM     18  O   UNL     1      12.789  50.125  20.375  1.00  0.00    -0.504 OA
ATOM     19  H   UNL     1      11.808  50.038  20.608  1.00  0.00     0.293 HD
ENDBRANCH  15  18
BRANCH  17  20
ATOM     20  O   UNL     1      12.770  49.730  17.578  1.00  0.00    -0.504 OA
ATOM     21  H   UNL     1      12.581  50.690  17.839  1.00  0.00     0.293 HD
ENDBRANCH  17  20
ENDBRANCH   1  12
BRANCH   2  22
ATOM     22  O   UNL     1      13.944  44.245  18.374  1.00  0.00    -0.502 OA
ATOM     23  H   UNL     1      13.629  43.296  18.541  1.00  0.00     0.293 HD
ENDBRANCH   2  22
BRANCH   6  24
ATOM     24  O   UNL     1      17.839  41.607  16.158  1.00  0.00    -0.507 OA
ATOM     25  H   UNL     1      18.265  41.009  15.459  1.00  0.00     0.293 HD
ENDBRANCH   6  24
BRANCH   8  26
ATOM     26  O   UNL     1      21.139  45.072  15.539  1.00  0.00    -0.508 OA
ATOM     27  H   UNL     1      21.286  45.382  14.585  1.00  0.00     0.293 HD
ENDBRANCH   8  26
TORSDOF 6
ENDMDL
MODEL 6
REMARK VINA RESULT:    -6.484      8.420     11.744
REMARK INTER + INTRA:          -8.086
REMARK INTER:                  -7.765
REMARK INTRA:                  -0.321
REMARK UNBOUND:                -0.275
REMARK SMILES O=c1c(O)c(-c2ccc(O)c(O)c2)oc2cc(O)cc(O)c12
REMARK SMILES IDX 5 1 3 2 2 3 1 4 22 5 20 6 19 7 17 8 16 9 15 10 14 11 6 12
REMARK SMILES IDX 7 13 8 14 9 15 13 16 11 17 10 18 12 20 4 22 21 24 18 26
REMARK H PARENT 10 19 12 21 4 23 21 25 18 27
REMARK Flexibility Score: inf
ROOT
ATOM      1  C   UNL     1      18.788  40.821  16.940  1.00  0.00     0.180 A 
ATOM      2  C   UNL     1      17.652  41.150  17.702  1.00  0.00     0.208 A 
ATOM      3  C   UNL     1      17.506  40.589  18.981  1.00  0.00     0.238 A 
ATOM      4  O   UNL     1      16.498  40.885  19.678  1.00  0.00    -0.285 OA
ATOM      5  C   UNL     1      18.484  39.695  19.465  1.00  0.00     0.111 A 
ATOM      6  C   UNL     1      18.411  39.084  20.739  1.00  0.00     0.134 A 
ATOM      7  C   UNL     1      19.420  38.198  21.145  1.00  0.00     0.093 A 
ATOM      8  C   UNL     1      20.498  37.912  20.303  1.00  0.00     0.123 A 
ATOM      9  C   UNL     1      20.576  38.514  19.043  1.00  0.00     0.094 A 
ATOM     10  C   UNL     1      19.581  39.401  18.621  1.00  0.00     0.146 A 
ATOM     11  O   UNL     1      19.682  39.963  17.422  1.00  0.00    -0.452 OA
ENDROOT
BRANCH   1  12
ATOM     12  C   UNL     1      19.021  41.386  15.591  1.00  0.00     0.025 A 
ATOM     13  C   UNL     1      19.590  42.660  15.420  1.00  0.00     0.016 A 
ATOM     14  C   UNL     1      19.824  43.162  14.137  1.00  0.00     0.051 A 
ATOM     15  C   UNL     1      19.508  42.399  13.009  1.00  0.00     0.157 A 
ATOM     16  C   UNL     1      18.725  40.613  14.456  1.00  0.00     0.062 A 
ATOM     17  C   UNL     1      18.957  41.116  13.168  1.00  0.00     0.158 A 
BRANCH  15  18
ATOM     18  O   UNL     1      19.750  42.928  11.742  1.00  0.00    -0.504 OA
ATOM     19  H   UNL     1      19.734  42.355  10.907  1.00  0.00     0.293 HD
ENDBRANCH  15  18
BRANCH  17  20
ATOM     20  O   UNL     1      18.646  40.346  12.049  1.00  0.00    -0.504 OA
ATOM     21  H   UNL     1      19.040  40.549  11.138  1.00  0.00     0.293 HD
ENDBRANCH  17  20
ENDBRANCH   1  12
BRANCH   2  22
ATOM     22  O   UNL     1      16.672  41.999  17.181  1.00  0.00    -0.502 OA
ATOM     23  H   UNL     1      15.905  41.660  16.612  1.00  0.00     0.293 HD
ENDBRANCH   2  22
BRANCH   6  24
ATOM     24  O   UNL     1      17.347  39.347  21.603  1.00  0.00    -0.507 OA
ATOM     25  H   UNL     1      16.777  38.603  21.990  1.00  0.00     0.293 HD
ENDBRANCH   6  24
BRANCH   8  26
ATOM     26  O   UNL     1      21.487  37.028  20.730  1.00  0.00    -0.508 OA
ATOM     27  H   UNL     1      22.375  36.953  20.247  1.00  0.00     0.293 HD
ENDBRANCH   8  26
TORSDOF 6
ENDMDL
MODEL 7
REMARK VINA RESULT:    -6.443      9.432     11.908
REMARK INTER + INTRA:          -8.037
REMARK INTER:                  -7.715
REMARK INTRA:                  -0.322
REMARK UNBOUND:                -0.275
REMARK SMILES O=c1c(O)c(-c2ccc(O)c(O)c2)oc2cc(O)cc(O)c12
REMARK SMILES IDX 5 1 3 2 2 3 1 4 22 5 20 6 19 7 17 8 16 9 15 10 14 11 6 12
REMARK SMILES IDX 7 13 8 14 9 15 13 16 11 17 10 18 12 20 4 22 21 24 18 26
REMARK H PARENT 10 19 12 21 4 23 21 25 18 27
REMARK Flexibility Score: inf
ROOT
ATOM      1  C   UNL     1      18.366  40.689  17.343  1.00  0.00     0.180 A 
ATOM      2  C   UNL     1      18.786  40.208  16.088  1.00  0.00     0.208 A 
ATOM      3  C   UNL     1      19.681  39.128  16.040  1.00  0.00     0.238 A 
ATOM      4  O   UNL     1      20.056  38.681  14.922  1.00  0.00    -0.285 OA
ATOM      5  C   UNL     1      20.155  38.561  17.242  1.00  0.00     0.111 A 
ATOM      6  C   UNL     1      21.061  37.475  17.281  1.00  0.00     0.134 A 
ATOM      7  C   UNL     1      21.494  36.974  18.517  1.00  0.00     0.093 A 
ATOM      8  C   UNL     1      21.041  37.538  19.713  1.00  0.00     0.123 A 
ATOM      9  C   UNL     1      20.144  38.611  19.680  1.00  0.00     0.094 A 
ATOM     10  C   UNL     1      19.701  39.124  18.457  1.00  0.00     0.146 A 
ATOM     11  O   UNL     1      18.846  40.140  18.455  1.00  0.00    -0.452 OA
ENDROOT
BRANCH   1  12
ATOM     12  C   UNL     1      17.410  41.812  17.475  1.00  0.00     0.025 A 
ATOM     13  C   UNL     1      16.034  41.585  17.649  1.00  0.00     0.016 A 
ATOM     14  C   UNL     1      15.154  42.660  17.797  1.00  0.00     0.051 A 
ATOM     15  C   UNL     1      15.633  43.974  17.788  1.00  0.00     0.157 A 
ATOM     16  C   UNL     1      17.891  43.131  17.488  1.00  0.00     0.062 A 
ATOM     17  C   UNL     1      17.009  44.212  17.636  1.00  0.00     0.158 A 
BRANCH  15  18
ATOM     18  O   UNL     1      14.731  45.027  17.935  1.00  0.00    -0.504 OA
ATOM     19  H   UNL     1      13.949  45.158  17.305  1.00  0.00     0.293 HD
ENDBRANCH  15  18
BRANCH  17  20
ATOM     20  O   UNL     1      17.496  45.518  17.633  1.00  0.00    -0.504 OA
ATOM     21  H   UNL     1      18.221  45.816  18.275  1.00  0.00     0.293 HD
ENDBRANCH  17  20
ENDBRANCH   1  12
BRANCH   2  22
ATOM     22  O   UNL     1      18.340  40.817  14.912  1.00  0.00    -0.502 OA
ATOM     23  H   UNL     1      17.555  40.461  14.379  1.00  0.00     0.293 HD
ENDBRANCH   2  22
BRANCH   6  24
ATOM     24  O   UNL     1      21.534  36.890  16.105  1.00  0.00    -0.507 OA
ATOM     25  H   UNL     1      21.303  37.266  15.193  1.00  0.00     0.293 HD
ENDBRANCH   6  24
BRANCH   8  26
ATOM     26  O   UNL     1      21.486  37.021  20.928  1.00  0.00    -0.508 OA
ATOM     27  H   UNL     1      22.006  37.590  21.586  1.00  0.00     0.293 HD
ENDBRANCH   8  26
TORSDOF 6
ENDMDL
MODEL 8
REMARK VINA RESULT:    -6.427      7.686     11.064
REMARK INTER + INTRA:          -8.017
REMARK INTER:                  -7.693
REMARK INTRA:                  -0.325
REMARK UNBOUND:                -0.275
REMARK SMILES O=c1c(O)c(-c2ccc(O)c(O)c2)oc2cc(O)cc(O)c12
REMARK SMILES IDX 5 1 3 2 2 3 1 4 22 5 20 6 19 7 17 8 16 9 15 10 14 11 6 12
REMARK SMILES IDX 7 13 8 14 9 15 13 16 11 17 10 18 12 20 4 22 21 24 18 26
REMARK H PARENT 10 19 12 21 4 23 21 25 18 27
REMARK Flexibility Score: inf
ROOT
ATOM      1  C   UNL     1      19.557  41.290  17.090  1.00  0.00     0.180 A 
ATOM      2  C   UNL     1      18.325  41.615  17.689  1.00  0.00     0.208 A 
ATOM      3  C   UNL     1      17.932  40.926  18.847  1.00  0.00     0.238 A 
ATOM      4  O   UNL     1      16.836  41.215  19.399  1.00  0.00    -0.285 OA
ATOM      5  C   UNL     1      18.763  39.915  19.373  1.00  0.00     0.111 A 
ATOM      6  C   UNL     1      18.438  39.171  20.533  1.00  0.00     0.134 A 
ATOM      7  C   UNL     1      19.314  38.174  20.988  1.00  0.00     0.093 A 
ATOM      8  C   UNL     1      20.504  37.906  20.307  1.00  0.00     0.123 A 
ATOM      9  C   UNL     1      20.830  38.638  19.161  1.00  0.00     0.094 A 
ATOM     10  C   UNL     1      19.971  39.637  18.692  1.00  0.00     0.146 A 
ATOM     11  O   UNL     1      20.308  40.321  17.605  1.00  0.00    -0.452 OA
ENDROOT
BRANCH   1  12
ATOM     12  C   UNL     1      20.049  41.984  15.878  1.00  0.00     0.025 A 
ATOM     13  C   UNL     1      19.741  41.512  14.589  1.00  0.00     0.016 A 
ATOM     14  C   UNL     1      20.195  42.197  13.459  1.00  0.00     0.051 A 
ATOM     15  C   UNL     1      20.949  43.367  13.596  1.00  0.00     0.157 A 
ATOM     16  C   UNL     1      20.788  43.171  16.011  1.00  0.00     0.062 A 
ATOM     17  C   UNL     1      21.246  43.859  14.878  1.00  0.00     0.158 A 
BRANCH  15  18
ATOM     18  O   UNL     1      21.391  44.027  12.450  1.00  0.00    -0.504 OA
ATOM     19  H   UNL     1      20.790  44.176  11.649  1.00  0.00     0.293 HD
ENDBRANCH  15  18
BRANCH  17  20
ATOM     20  O   UNL     1      21.991  45.028  15.023  1.00  0.00    -0.504 OA
ATOM     21  H   UNL     1      21.556  45.942  14.987  1.00  0.00     0.293 HD
ENDBRANCH  17  20
ENDBRANCH   1  12
BRANCH   2  22
ATOM     22  O   UNL     1      17.497  42.586  17.121  1.00  0.00    -0.502 OA
ATOM     23  H   UNL     1      17.800  43.542  16.975  1.00  0.00     0.293 HD
ENDBRANCH   2  22
BRANCH   6  24
ATOM     24  O   UNL     1      17.257  39.414  21.235  1.00  0.00    -0.507 OA
ATOM     25  H   UNL     1      16.765  38.674  21.723  1.00  0.00     0.293 HD
ENDBRANCH   6  24
BRANCH   8  26
ATOM     26  O   UNL     1      21.356  36.910  20.780  1.00  0.00    -0.508 OA
ATOM     27  H   UNL     1      21.134  35.928  20.671  1.00  0.00     0.293 HD
ENDBRANCH   8  26
TORSDOF 6
ENDMDL
MODEL 9
REMARK VINA RESULT:    -6.379     10.196     13.363
REMARK INTER + INTRA:          -7.959
REMARK INTER:                  -7.826
REMARK INTRA:                  -0.132
REMARK UNBOUND:                -0.275
REMARK SMILES O=c1c(O)c(-c2ccc(O)c(O)c2)oc2cc(O)cc(O)c12
REMARK SMILES IDX 5 1 3 2 2 3 1 4 22 5 20 6 19 7 17 8 16 9 15 10 14 11 6 12
REMARK SMILES IDX 7 13 8 14 9 15 13 16 11 17 10 18 12 20 4 22 21 24 18 26
REMARK H PARENT 10 19 12 21 4 23 21 25 18 27
REMARK Flexibility Score: inf
ROOT
ATOM      1  C   UNL     1      15.526  44.638  17.209  1.00  0.00     0.180 A 
ATOM      2  C   UNL     1      15.501  43.258  17.485  1.00  0.00     0.208 A 
ATOM      3  C   UNL     1      16.688  42.519  17.358  1.00  0.00     0.238 A 
ATOM      4  O   UNL     1      16.681  41.284  17.613  1.00  0.00    -0.285 OA
ATOM      5  C   UNL     1      17.870  43.165  16.940  1.00  0.00     0.111 A 
ATOM      6  C   UNL     1      19.106  42.493  16.784  1.00  0.00     0.134 A 
ATOM      7  C   UNL     1      20.236  43.206  16.355  1.00  0.00     0.093 A 
ATOM      8  C   UNL     1      20.153  44.573  16.078  1.00  0.00     0.123 A 
ATOM      9  C   UNL     1      18.935  45.242  16.232  1.00  0.00     0.094 A 
ATOM     10  C   UNL     1      17.798  44.550  16.660  1.00  0.00     0.146 A 
ATOM     11  O   UNL     1      16.655  45.211  16.803  1.00  0.00    -0.452 OA
ENDROOT
BRANCH   1  12
ATOM     12  C   UNL     1      14.319  45.487  17.337  1.00  0.00     0.025 A 
ATOM     13  C   UNL     1      13.175  45.254  16.555  1.00  0.00     0.016 A 
ATOM     14  C   UNL     1      12.039  46.053  16.710  1.00  0.00     0.051 A 
ATOM     15  C   UNL     1      12.022  47.084  17.655  1.00  0.00     0.157 A 
ATOM     16  C   UNL     1      14.292  46.509  18.300  1.00  0.00     0.062 A 
ATOM     17  C   UNL     1      13.153  47.313  18.457  1.00  0.00     0.158 A 
BRANCH  15  18
ATOM     18  O   UNL     1      10.875  47.867  17.785  1.00  0.00    -0.504 OA
ATOM     19  H   UNL     1      10.832  48.658  18.416  1.00  0.00     0.293 HD
ENDBRANCH  15  18
BRANCH  17  20
ATOM     20  O   UNL     1      13.142  48.334  19.406  1.00  0.00    -0.504 OA
ATOM     21  H   UNL     1      13.764  49.130  19.337  1.00  0.00     0.293 HD
ENDBRANCH  17  20
ENDBRANCH   1  12
BRANCH   2  22
ATOM     22  O   UNL     1      14.307  42.631  17.850  1.00  0.00    -0.502 OA
ATOM     23  H   UNL     1      13.547  42.485  17.195  1.00  0.00     0.293 HD
ENDBRANCH   2  22
BRANCH   6  24
ATOM     24  O   UNL     1      19.221  41.129  17.050  1.00  0.00    -0.507 OA
ATOM     25  H   UNL     1      19.644  40.786  17.905  1.00  0.00     0.293 HD
ENDBRANCH   6  24
BRANCH   8  26
ATOM     26  O   UNL     1      21.290  45.257  15.653  1.00  0.00    -0.508 OA
ATOM     27  H   UNL     1      22.114  45.329  16.238  1.00  0.00     0.293 HD
ENDBRANCH   8  26
TORSDOF 6
ENDMDL
