MODEL 1
REMARK VINA RESULT:    68.110      0.000      0.000
REMARK INTER + INTRA:          93.803
REMARK INTER:                  93.992
REMARK INTRA:                  -0.189
REMARK UNBOUND:                -0.189
REMARK SMILES CC[C@H](CC[C@@H](C)[C@H]1CC[C@H]2[C@H]3CC=C4C[C@@H](O)CC[C@@]4(C)[C@H]3CC[C@@]12C)C(C)C
REMARK SMILES IDX 5 1 4 2 3 3 2 4 1 5 28 6 29 7 30 8 6 9 7 10 8 11 9 12 26 13
REMARK SMILES IDX 10 14 11 15 25 16 27 17 12 18 24 19 23 20 13 21 21 22 14 23
REMARK SMILES IDX 15 24 20 25 22 26 16 27 19 28 17 29 18 30
REMARK H PARENT 18 31
REMARK Flexibility Score: inf
ROOT
ATOM      1  C   UNL     1      -1.790  -3.476  19.180  1.00  0.00     0.004 C 
ENDROOT
BRANCH   1   2
ATOM      2  C   UNL     1      -1.445  -4.972  19.031  1.00  0.00     0.004 C 
BRANCH   2   3
ATOM      3  C   UNL     1      -0.195  -5.204  18.117  1.00  0.00    -0.009 C 
BRANCH   3   4
ATOM      4  C   UNL     1       1.118  -4.955  18.912  1.00  0.00     0.000 C 
ATOM      5  C   UNL     1       1.125  -3.621  19.663  1.00  0.00     0.004 C 
ENDBRANCH   3   4
BRANCH   3   6
ATOM      6  C   UNL     1      -0.249  -6.630  17.465  1.00  0.00    -0.014 C 
ATOM      7  C   UNL     1       1.015  -6.988  16.660  1.00  0.00     0.007 C 
ATOM      8  C   UNL     1      -1.469  -6.757  16.529  1.00  0.00     0.007 C 
ENDBRANCH   3   6
ENDBRANCH   2   3
ENDBRANCH   1   2
BRANCH   1   9
ATOM      9  C   UNL     1      -3.214  -3.211  19.748  1.00  0.00    -0.011 C 
ATOM     10  C   UNL     1      -3.233  -3.457  21.266  1.00  0.00     0.008 C 
BRANCH   9  11
ATOM     11  C   UNL     1      -3.683  -1.756  19.367  1.00  0.00    -0.002 C 
ATOM     12  C   UNL     1      -3.313  -1.407  17.914  1.00  0.00     0.005 C 
ATOM     13  C   UNL     1      -5.194  -1.352  19.481  1.00  0.00    -0.026 C 
ATOM     14  C   UNL     1      -4.253  -0.294  17.465  1.00  0.00     0.005 C 
ATOM     15  C   UNL     1      -5.237  -0.061  18.622  1.00  0.00    -0.001 C 
ATOM     16  C   UNL     1      -6.156  -2.462  18.924  1.00  0.00     0.007 C 
ATOM     17  C   UNL     1      -5.590  -0.977  20.937  1.00  0.00     0.012 C 
ATOM     18  C   UNL     1      -6.668   0.440  18.224  1.00  0.00     0.000 C 
ATOM     19  C   UNL     1      -7.017  -2.050  17.725  1.00  0.00     0.005 C 
ATOM     20  C   UNL     1      -7.728  -0.704  17.978  1.00  0.00     0.003 C 
ATOM     21  C   UNL     1      -6.601   1.531  17.114  1.00  0.00     0.031 C 
ATOM     22  C   UNL     1      -8.797  -0.339  16.870  1.00  0.00    -0.008 C 
ATOM     23  C   UNL     1      -7.013   1.012  15.770  1.00  0.00    -0.027 C 
ATOM     24  C   UNL     1      -8.046   0.160  15.621  1.00  0.00    -0.065 C 
ATOM     25  C   UNL     1      -9.764  -1.543  16.565  1.00  0.00     0.014 C 
ATOM     26  C   UNL     1      -9.715   0.797  17.406  1.00  0.00     0.016 C 
ATOM     27  C   UNL     1      -8.282  -0.379  14.220  1.00  0.00     0.063 C 
ATOM     28  C   UNL     1      -9.416  -2.331  15.303  1.00  0.00     0.033 C 
ATOM     29  C   UNL     1      -9.432  -1.386  14.108  1.00  0.00     0.118 C 
BRANCH  29  30
ATOM     30  O   UNL     1      -9.300  -2.132  12.926  1.00  0.00    -0.393 OA
ATOM     31  H   UNL     1     -10.175  -2.574  12.767  1.00  0.00     0.210 HD
ENDBRANCH  29  30
ENDBRANCH   9  11
ENDBRANCH   1   9
TORSDOF 7
ENDMDL
MODEL 2
REMARK VINA RESULT:    68.390     11.413     15.379
REMARK INTER + INTRA:          94.188
REMARK INTER:                  95.033
REMARK INTRA:                  -0.845
REMARK UNBOUND:                -0.189
REMARK SMILES CC[C@H](CC[C@@H](C)[C@H]1CC[C@H]2[C@H]3CC=C4C[C@@H](O)CC[C@@]4(C)[C@H]3CC[C@@]12C)C(C)C
REMARK SMILES IDX 5 1 4 2 3 3 2 4 1 5 28 6 29 7 30 8 6 9 7 10 8 11 9 12 26 13
REMARK SMILES IDX 10 14 11 15 25 16 27 17 12 18 24 19 23 20 13 21 21 22 14 23
REMARK SMILES IDX 15 24 20 25 22 26 16 27 19 28 17 29 18 30
REMARK H PARENT 18 31
REMARK Flexibility Score: inf
ROOT
ATOM      1  C   UNL     1     -17.324  -9.294  17.202  1.00  0.00     0.004 C 
ENDROOT
BRANCH   1   2
ATOM      2  C   UNL     1     -18.804  -9.567  16.861  1.00  0.00     0.004 C 
BRANCH   2   3
ATOM      3  C   UNL     1     -18.984 -10.872  16.013  1.00  0.00    -0.009 C 
BRANCH   3   4
ATOM      4  C   UNL     1     -18.282 -10.728  14.633  1.00  0.00     0.000 C 
ATOM      5  C   UNL     1     -19.092 -11.326  13.479  1.00  0.00     0.004 C 
ENDBRANCH   3   4
BRANCH   3   6
ATOM      6  C   UNL     1     -18.488 -12.123  16.819  1.00  0.00    -0.014 C 
ATOM      7  C   UNL     1     -18.795 -13.464  16.127  1.00  0.00     0.007 C 
ATOM      8  C   UNL     1     -19.121 -12.152  18.227  1.00  0.00     0.007 C 
ENDBRANCH   3   6
ENDBRANCH   2   3
ENDBRANCH   1   2
BRANCH   1   9
ATOM      9  C   UNL     1     -17.103  -8.026  18.076  1.00  0.00    -0.011 C 
ATOM     10  C   UNL     1     -18.157  -6.959  17.736  1.00  0.00     0.008 C 
BRANCH   9  11
ATOM     11  C   UNL     1     -17.111  -8.416  19.602  1.00  0.00    -0.002 C 
ATOM     12  C   UNL     1     -17.143  -9.943  19.793  1.00  0.00     0.005 C 
ATOM     13  C   UNL     1     -15.956  -7.940  20.551  1.00  0.00    -0.026 C 
ATOM     14  C   UNL     1     -16.589 -10.235  21.182  1.00  0.00     0.005 C 
ATOM     15  C   UNL     1     -16.141  -8.886  21.766  1.00  0.00    -0.001 C 
ATOM     16  C   UNL     1     -14.537  -8.095  19.894  1.00  0.00     0.007 C 
ATOM     17  C   UNL     1     -16.166  -6.480  21.039  1.00  0.00     0.012 C 
ATOM     18  C   UNL     1     -14.943  -8.932  22.776  1.00  0.00     0.000 C 
ATOM     19  C   UNL     1     -13.578  -9.052  20.610  1.00  0.00     0.005 C 
ATOM     20  C   UNL     1     -13.516  -8.760  22.124  1.00  0.00     0.003 C 
ATOM     21  C   UNL     1     -15.079 -10.127  23.766  1.00  0.00     0.031 C 
ATOM     22  C   UNL     1     -12.382  -9.568  22.875  1.00  0.00    -0.008 C 
ATOM     23  C   UNL     1     -14.134 -11.246  23.452  1.00  0.00    -0.027 C 
ATOM     24  C   UNL     1     -12.866 -11.020  23.059  1.00  0.00    -0.065 C 
ATOM     25  C   UNL     1     -10.998  -9.471  22.133  1.00  0.00     0.014 C 
ATOM     26  C   UNL     1     -12.142  -8.926  24.272  1.00  0.00     0.016 C 
ATOM     27  C   UNL     1     -12.053 -12.239  22.659  1.00  0.00     0.063 C 
ATOM     28  C   UNL     1     -10.650 -10.690  21.279  1.00  0.00     0.033 C 
ATOM     29  C   UNL     1     -10.635 -11.929  22.166  1.00  0.00     0.118 C 
BRANCH  29  30
ATOM     30  O   UNL     1     -10.135 -13.017  21.433  1.00  0.00    -0.393 OA
ATOM     31  H   UNL     1     -10.914 -13.587  21.199  1.00  0.00     0.210 HD
ENDBRANCH  29  30
ENDBRANCH   9  11
ENDBRANCH   1   9
TORSDOF 7
ENDMDL
MODEL 3
REMARK VINA RESULT:    68.428      6.627     11.344
REMARK INTER + INTRA:          94.241
REMARK INTER:                  94.749
REMARK INTRA:                  -0.508
REMARK UNBOUND:                -0.189
REMARK SMILES CC[C@H](CC[C@@H](C)[C@H]1CC[C@H]2[C@H]3CC=C4C[C@@H](O)CC[C@@]4(C)[C@H]3CC[C@@]12C)C(C)C
REMARK SMILES IDX 5 1 4 2 3 3 2 4 1 5 28 6 29 7 30 8 6 9 7 10 8 11 9 12 26 13
REMARK SMILES IDX 10 14 11 15 25 16 27 17 12 18 24 19 23 20 13 21 21 22 14 23
REMARK SMILES IDX 15 24 20 25 22 26 16 27 19 28 17 29 18 30
REMARK H PARENT 18 31
REMARK Flexibility Score: inf
ROOT
ATOM      1  C   UNL     1     -16.518  -3.257  16.931  1.00  0.00     0.004 C 
ENDROOT
BRANCH   1   2
ATOM      2  C   UNL     1     -17.104  -4.169  18.029  1.00  0.00     0.004 C 
BRANCH   2   3
ATOM      3  C   UNL     1     -16.035  -5.153  18.614  1.00  0.00    -0.009 C 
BRANCH   3   4
ATOM      4  C   UNL     1     -14.911  -4.367  19.348  1.00  0.00     0.000 C 
ATOM      5  C   UNL     1     -13.702  -4.071  18.457  1.00  0.00     0.004 C 
ENDBRANCH   3   4
BRANCH   3   6
ATOM      6  C   UNL     1     -16.720  -6.228  19.529  1.00  0.00    -0.014 C 
ATOM      7  C   UNL     1     -15.767  -7.348  19.985  1.00  0.00     0.007 C 
ATOM      8  C   UNL     1     -17.918  -6.878  18.805  1.00  0.00     0.007 C 
ENDBRANCH   3   6
ENDBRANCH   2   3
ENDBRANCH   1   2
BRANCH   1   9
ATOM      9  C   UNL     1     -17.280  -3.332  15.577  1.00  0.00    -0.011 C 
ATOM     10  C   UNL     1     -18.745  -2.908  15.770  1.00  0.00     0.008 C 
BRANCH   9  11
ATOM     11  C   UNL     1     -16.538  -2.462  14.494  1.00  0.00    -0.002 C 
ATOM     12  C   UNL     1     -16.340  -1.013  14.974  1.00  0.00     0.005 C 
ATOM     13  C   UNL     1     -15.121  -2.884  13.968  1.00  0.00    -0.026 C 
ATOM     14  C   UNL     1     -15.177  -0.430  14.180  1.00  0.00     0.005 C 
ATOM     15  C   UNL     1     -14.632  -1.570  13.305  1.00  0.00    -0.001 C 
ATOM     16  C   UNL     1     -14.167  -3.352  15.125  1.00  0.00     0.007 C 
ATOM     17  C   UNL     1     -15.210  -3.976  12.867  1.00  0.00     0.012 C 
ATOM     18  C   UNL     1     -13.102  -1.512  12.968  1.00  0.00     0.000 C 
ATOM     19  C   UNL     1     -12.903  -2.508  15.321  1.00  0.00     0.005 C 
ATOM     20  C   UNL     1     -12.167  -2.276  13.985  1.00  0.00     0.003 C 
ATOM     21  C   UNL     1     -12.651  -0.063  12.614  1.00  0.00     0.031 C 
ATOM     22  C   UNL     1     -10.746  -1.602  14.157  1.00  0.00    -0.008 C 
ATOM     23  C   UNL     1     -11.866   0.582  13.716  1.00  0.00    -0.027 C 
ATOM     24  C   UNL     1     -10.955  -0.100  14.436  1.00  0.00    -0.065 C 
ATOM     25  C   UNL     1      -9.885  -2.317  15.263  1.00  0.00     0.014 C 
ATOM     26  C   UNL     1      -9.939  -1.772  12.838  1.00  0.00     0.016 C 
ATOM     27  C   UNL     1     -10.318   0.641  15.598  1.00  0.00     0.063 C 
ATOM     28  C   UNL     1      -9.868  -1.603  16.615  1.00  0.00     0.033 C 
ATOM     29  C   UNL     1      -9.329  -0.190  16.422  1.00  0.00     0.118 C 
BRANCH  29  30
ATOM     30  O   UNL     1      -9.134   0.406  17.679  1.00  0.00    -0.393 OA
ATOM     31  H   UNL     1      -9.824   1.114  17.770  1.00  0.00     0.210 HD
ENDBRANCH  29  30
ENDBRANCH   9  11
ENDBRANCH   1   9
TORSDOF 7
ENDMDL
MODEL 4
REMARK VINA RESULT:    69.140     10.563     14.433
REMARK INTER + INTRA:          95.224
REMARK INTER:                  93.932
REMARK INTRA:                   1.292
REMARK UNBOUND:                -0.189
REMARK SMILES CC[C@H](CC[C@@H](C)[C@H]1CC[C@H]2[C@H]3CC=C4C[C@@H](O)CC[C@@]4(C)[C@H]3CC[C@@]12C)C(C)C
REMARK SMILES IDX 5 1 4 2 3 3 2 4 1 5 28 6 29 7 30 8 6 9 7 10 8 11 9 12 26 13
REMARK SMILES IDX 10 14 11 15 25 16 27 17 12 18 24 19 23 20 13 21 21 22 14 23
REMARK SMILES IDX 15 24 20 25 22 26 16 27 19 28 17 29 18 30
REMARK H PARENT 18 31
REMARK Flexibility Score: inf
ROOT
ATOM      1  C   UNL     1     -16.818  -4.504  17.702  1.00  0.00     0.004 C 
ENDROOT
BRANCH   1   2
ATOM      2  C   UNL     1     -16.373  -3.065  17.366  1.00  0.00     0.004 C 
BRANCH   2   3
ATOM      3  C   UNL     1     -16.780  -2.644  15.913  1.00  0.00    -0.009 C 
BRANCH   3   4
ATOM      4  C   UNL     1     -15.959  -3.443  14.862  1.00  0.00     0.000 C 
ATOM      5  C   UNL     1     -15.380  -2.561  13.752  1.00  0.00     0.004 C 
ENDBRANCH   3   4
BRANCH   3   6
ATOM      6  C   UNL     1     -18.329  -2.792  15.713  1.00  0.00    -0.014 C 
ATOM      7  C   UNL     1     -19.080  -1.447  15.694  1.00  0.00     0.007 C 
ATOM      8  C   UNL     1     -18.942  -3.671  16.824  1.00  0.00     0.007 C 
ENDBRANCH   3   6
ENDBRANCH   2   3
ENDBRANCH   1   2
BRANCH   1   9
ATOM      9  C   UNL     1     -15.736  -5.341  18.443  1.00  0.00    -0.011 C 
ATOM     10  C   UNL     1     -14.671  -4.411  19.050  1.00  0.00     0.008 C 
BRANCH   9  11
ATOM     11  C   UNL     1     -16.416  -6.264  19.522  1.00  0.00    -0.002 C 
ATOM     12  C   UNL     1     -16.640  -7.689  18.984  1.00  0.00     0.005 C 
ATOM     13  C   UNL     1     -15.737  -6.489  20.919  1.00  0.00    -0.026 C 
ATOM     14  C   UNL     1     -16.748  -8.614  20.191  1.00  0.00     0.005 C 
ATOM     15  C   UNL     1     -16.488  -7.745  21.431  1.00  0.00    -0.001 C 
ATOM     16  C   UNL     1     -14.190  -6.735  20.801  1.00  0.00     0.007 C 
ATOM     17  C   UNL     1     -16.024  -5.320  21.902  1.00  0.00     0.012 C 
ATOM     18  C   UNL     1     -15.836  -8.469  22.659  1.00  0.00     0.000 C 
ATOM     19  C   UNL     1     -13.697  -8.099  21.296  1.00  0.00     0.005 C 
ATOM     20  C   UNL     1     -14.258  -8.427  22.696  1.00  0.00     0.003 C 
ATOM     21  C   UNL     1     -16.466  -9.875  22.892  1.00  0.00     0.031 C 
ATOM     22  C   UNL     1     -13.612  -9.716  23.347  1.00  0.00    -0.008 C 
ATOM     23  C   UNL     1     -15.563 -10.990  22.461  1.00  0.00    -0.027 C 
ATOM     24  C   UNL     1     -14.235 -10.958  22.679  1.00  0.00    -0.065 C 
ATOM     25  C   UNL     1     -12.041  -9.695  23.260  1.00  0.00     0.014 C 
ATOM     26  C   UNL     1     -13.936  -9.734  24.868  1.00  0.00     0.016 C 
ATOM     27  C   UNL     1     -13.423 -12.096  22.086  1.00  0.00     0.063 C 
ATOM     28  C   UNL     1     -11.457 -10.545  22.131  1.00  0.00     0.033 C 
ATOM     29  C   UNL     1     -11.911 -11.989  22.312  1.00  0.00     0.118 C 
BRANCH  29  30
ATOM     30  O   UNL     1     -11.231 -12.806  21.395  1.00  0.00    -0.393 OA
ATOM     31  H   UNL     1     -11.193 -13.715  21.794  1.00  0.00     0.210 HD
ENDBRANCH  29  30
ENDBRANCH   9  11
ENDBRANCH   1   9
TORSDOF 7
ENDMDL
