MODEL 1
REMARK VINA RESULT:    -4.053      0.000      0.000
REMARK INTER + INTRA:          -4.290
REMARK INTER:                  -4.290
REMARK INTRA:                   0.000
REMARK UNBOUND:                 0.000
REMARK SMILES O=c1ccc2cc(O)c(O)cc2o1
REMARK SMILES IDX 4 1 3 2 2 3 1 4 13 5 12 6 11 7 9 8 7 9 6 10 5 11 8 12 10 14
REMARK H PARENT 8 13 10 15
REMARK Flexibility Score: inf
ROOT
ATOM      1  C   UNL     1     -11.354  38.175  63.048  1.00  0.00     0.019 A 
ATOM      2  C   UNL     1      -9.961  38.118  63.028  1.00  0.00     0.094 A 
ATOM      3  C   UNL     1      -9.241  39.277  62.717  1.00  0.00     0.336 A 
ATOM      4  O   UNL     1      -7.983  39.248  62.693  1.00  0.00    -0.246 OA
ATOM      5  O   UNL     1      -9.878  40.414  62.446  1.00  0.00    -0.423 OA
ATOM      6  C   UNL     1     -11.206  40.509  62.456  1.00  0.00     0.142 A 
ATOM      7  C   UNL     1     -11.820  41.729  62.163  1.00  0.00     0.098 A 
ATOM      8  C   UNL     1     -13.217  41.845  62.168  1.00  0.00     0.161 A 
ATOM      9  C   UNL     1     -14.012  40.713  62.473  1.00  0.00     0.158 A 
ATOM     10  C   UNL     1     -13.393  39.491  62.766  1.00  0.00     0.062 A 
ATOM     11  C   UNL     1     -11.996  39.382  62.759  1.00  0.00     0.022 A 
ENDROOT
BRANCH   9  12
ATOM     12  O   UNL     1     -15.407  40.757  62.496  1.00  0.00    -0.504 OA
ATOM     13  H   UNL     1     -15.943  41.335  63.127  1.00  0.00     0.293 HD
ENDBRANCH   9  12
BRANCH   8  14
ATOM     14  O   UNL     1     -13.766  43.093  61.866  1.00  0.00    -0.504 OA
ATOM     15  H   UNL     1     -14.000  43.789  62.559  1.00  0.00     0.293 HD
ENDBRANCH   8  14
TORSDOF 2
ENDMDL
MODEL 2
REMARK VINA RESULT:    -4.000      1.197      2.303
REMARK INTER + INTRA:          -4.234
REMARK INTER:                  -4.234
REMARK INTRA:                   0.000
REMARK UNBOUND:                 0.000
REMARK SMILES O=c1ccc2cc(O)c(O)cc2o1
REMARK SMILES IDX 4 1 3 2 2 3 1 4 13 5 12 6 11 7 9 8 7 9 6 10 5 11 8 12 10 14
REMARK H PARENT 8 13 10 15
REMARK Flexibility Score: inf
ROOT
ATOM      1  C   UNL     1      -9.819  40.285  62.439  1.00  0.00     0.019 A 
ATOM      2  C   UNL     1      -9.282  39.038  62.760  1.00  0.00     0.094 A 
ATOM      3  C   UNL     1     -10.151  37.992  63.088  1.00  0.00     0.336 A 
ATOM      4  O   UNL     1      -9.688  36.859  63.381  1.00  0.00    -0.246 OA
ATOM      5  O   UNL     1     -11.468  38.185  63.091  1.00  0.00    -0.423 OA
ATOM      6  C   UNL     1     -12.019  39.359  62.790  1.00  0.00     0.142 A 
ATOM      7  C   UNL     1     -13.408  39.504  62.811  1.00  0.00     0.098 A 
ATOM      8  C   UNL     1     -14.004  40.733  62.497  1.00  0.00     0.161 A 
ATOM      9  C   UNL     1     -13.186  41.839  62.155  1.00  0.00     0.158 A 
ATOM     10  C   UNL     1     -11.794  41.691  62.136  1.00  0.00     0.062 A 
ATOM     11  C   UNL     1     -11.205  40.459  62.450  1.00  0.00     0.022 A 
ENDROOT
BRANCH   9  12
ATOM     12  O   UNL     1     -13.712  43.092  61.831  1.00  0.00    -0.504 OA
ATOM     13  H   UNL     1     -13.245  43.764  61.241  1.00  0.00     0.293 HD
ENDBRANCH   9  12
BRANCH   8  14
ATOM     14  O   UNL     1     -15.397  40.809  62.537  1.00  0.00    -0.504 OA
ATOM     15  H   UNL     1     -15.917  41.256  63.278  1.00  0.00     0.293 HD
ENDBRANCH   8  14
TORSDOF 2
ENDMDL
MODEL 3
REMARK VINA RESULT:    -3.894      9.405     11.074
REMARK INTER + INTRA:          -4.122
REMARK INTER:                  -4.122
REMARK INTRA:                   0.000
REMARK UNBOUND:                 0.000
REMARK SMILES O=c1ccc2cc(O)c(O)cc2o1
REMARK SMILES IDX 4 1 3 2 2 3 1 4 13 5 12 6 11 7 9 8 7 9 6 10 5 11 8 12 10 14
REMARK H PARENT 8 13 10 15
REMARK Flexibility Score: inf
ROOT
ATOM      1  C   UNL     1     -15.483  41.890  52.447  1.00  0.00     0.019 A 
ATOM      2  C   UNL     1     -16.132  41.632  51.240  1.00  0.00     0.094 A 
ATOM      3  C   UNL     1     -17.529  41.693  51.196  1.00  0.00     0.336 A 
ATOM      4  O   UNL     1     -18.134  41.465  50.116  1.00  0.00    -0.246 OA
ATOM      5  O   UNL     1     -18.225  41.994  52.290  1.00  0.00    -0.423 OA
ATOM      6  C   UNL     1     -17.644  42.246  53.461  1.00  0.00     0.142 A 
ATOM      7  C   UNL     1     -18.426  42.555  54.576  1.00  0.00     0.098 A 
ATOM      8  C   UNL     1     -17.830  42.823  55.815  1.00  0.00     0.161 A 
ATOM      9  C   UNL     1     -16.419  42.779  55.936  1.00  0.00     0.158 A 
ATOM     10  C   UNL     1     -15.637  42.468  54.817  1.00  0.00     0.062 A 
ATOM     11  C   UNL     1     -16.240  42.202  53.580  1.00  0.00     0.022 A 
ENDROOT
BRANCH   9  12
ATOM     12  O   UNL     1     -15.758  43.035  57.140  1.00  0.00    -0.504 OA
ATOM     13  H   UNL     1     -14.772  42.876  57.288  1.00  0.00     0.293 HD
ENDBRANCH   9  12
BRANCH   8  14
ATOM     14  O   UNL     1     -18.670  43.125  56.889  1.00  0.00    -0.504 OA
ATOM     15  H   UNL     1     -19.328  43.892  56.893  1.00  0.00     0.293 HD
ENDBRANCH   8  14
TORSDOF 2
ENDMDL
MODEL 4
REMARK VINA RESULT:    -3.695      1.279      5.052
REMARK INTER + INTRA:          -3.911
REMARK INTER:                  -3.911
REMARK INTRA:                   0.000
REMARK UNBOUND:                 0.000
REMARK SMILES O=c1ccc2cc(O)c(O)cc2o1
REMARK SMILES IDX 4 1 3 2 2 3 1 4 13 5 12 6 11 7 9 8 7 9 6 10 5 11 8 12 10 14
REMARK H PARENT 8 13 10 15
REMARK Flexibility Score: inf
ROOT
ATOM      1  C   UNL     1     -11.881  42.192  62.152  1.00  0.00     0.019 A 
ATOM      2  C   UNL     1     -13.260  42.001  62.234  1.00  0.00     0.094 A 
ATOM      3  C   UNL     1     -13.751  40.717  62.494  1.00  0.00     0.336 A 
ATOM      4  O   UNL     1     -14.992  40.523  62.572  1.00  0.00    -0.246 OA
ATOM      5  O   UNL     1     -12.914  39.696  62.660  1.00  0.00    -0.423 OA
ATOM      6  C   UNL     1     -11.591  39.837  62.589  1.00  0.00     0.142 A 
ATOM      7  C   UNL     1     -10.761  38.729  62.772  1.00  0.00     0.098 A 
ATOM      8  C   UNL     1      -9.368  38.860  62.700  1.00  0.00     0.161 A 
ATOM      9  C   UNL     1      -8.798  40.131  62.440  1.00  0.00     0.158 A 
ATOM     10  C   UNL     1      -9.633  41.240  62.257  1.00  0.00     0.062 A 
ATOM     11  C   UNL     1     -11.025  41.102  62.330  1.00  0.00     0.022 A 
ENDROOT
BRANCH   9  12
ATOM     12  O   UNL     1      -7.419  40.335  62.355  1.00  0.00    -0.504 OA
ATOM     13  H   UNL     1      -6.921  40.479  61.489  1.00  0.00     0.293 HD
ENDBRANCH   9  12
BRANCH   8  14
ATOM     14  O   UNL     1      -8.596  37.713  62.892  1.00  0.00    -0.504 OA
ATOM     15  H   UNL     1      -8.035  37.283  62.170  1.00  0.00     0.293 HD
ENDBRANCH   8  14
TORSDOF 2
ENDMDL
MODEL 5
REMARK VINA RESULT:    -3.659      2.184      4.393
REMARK INTER + INTRA:          -3.873
REMARK INTER:                  -3.873
REMARK INTRA:                   0.000
REMARK UNBOUND:                 0.000
REMARK SMILES O=c1ccc2cc(O)c(O)cc2o1
REMARK SMILES IDX 4 1 3 2 2 3 1 4 13 5 12 6 11 7 9 8 7 9 6 10 5 11 8 12 10 14
REMARK H PARENT 8 13 10 15
REMARK Flexibility Score: inf
ROOT
ATOM      1  C   UNL     1     -11.239  40.296  62.208  1.00  0.00     0.019 A 
ATOM      2  C   UNL     1     -11.660  41.591  61.906  1.00  0.00     0.094 A 
ATOM      3  C   UNL     1     -12.977  41.961  62.203  1.00  0.00     0.336 A 
ATOM      4  O   UNL     1     -13.377  43.124  61.940  1.00  0.00    -0.246 OA
ATOM      5  O   UNL     1     -13.811  41.089  62.766  1.00  0.00    -0.423 OA
ATOM      6  C   UNL     1     -13.447  39.845  63.069  1.00  0.00     0.142 A 
ATOM      7  C   UNL     1     -14.366  38.973  63.658  1.00  0.00     0.098 A 
ATOM      8  C   UNL     1     -13.999  37.660  63.983  1.00  0.00     0.161 A 
ATOM      9  C   UNL     1     -12.682  37.215  63.710  1.00  0.00     0.158 A 
ATOM     10  C   UNL     1     -11.763  38.091  63.120  1.00  0.00     0.062 A 
ATOM     11  C   UNL     1     -12.136  39.402  62.798  1.00  0.00     0.022 A 
ENDROOT
BRANCH   9  12
ATOM     12  O   UNL     1     -12.248  35.921  64.008  1.00  0.00    -0.504 OA
ATOM     13  H   UNL     1     -11.772  35.320  63.351  1.00  0.00     0.293 HD
ENDBRANCH   9  12
BRANCH   8  14
ATOM     14  O   UNL     1     -14.967  36.842  64.569  1.00  0.00    -0.504 OA
ATOM     15  H   UNL     1     -15.653  36.316  64.047  1.00  0.00     0.293 HD
ENDBRANCH   8  14
TORSDOF 2
ENDMDL
MODEL 6
REMARK VINA RESULT:    -3.652      2.521      3.534
REMARK INTER + INTRA:          -3.866
REMARK INTER:                  -3.866
REMARK INTRA:                   0.000
REMARK UNBOUND:                 0.000
REMARK SMILES O=c1ccc2cc(O)c(O)cc2o1
REMARK SMILES IDX 4 1 3 2 2 3 1 4 13 5 12 6 11 7 9 8 7 9 6 10 5 11 8 12 10 14
REMARK H PARENT 8 13 10 15
REMARK Flexibility Score: inf
ROOT
ATOM      1  C   UNL     1     -12.930  42.084  62.034  1.00  0.00     0.019 A 
ATOM      2  C   UNL     1     -11.684  42.528  62.474  1.00  0.00     0.094 A 
ATOM      3  C   UNL     1     -11.087  41.894  63.569  1.00  0.00     0.336 A 
ATOM      4  O   UNL     1      -9.963  42.279  63.982  1.00  0.00    -0.246 OA
ATOM      5  O   UNL     1     -11.701  40.882  64.178  1.00  0.00    -0.423 OA
ATOM      6  C   UNL     1     -12.890  40.428  63.788  1.00  0.00     0.142 A 
ATOM      7  C   UNL     1     -13.486  39.362  64.466  1.00  0.00     0.098 A 
ATOM      8  C   UNL     1     -14.738  38.873  64.069  1.00  0.00     0.161 A 
ATOM      9  C   UNL     1     -15.404  39.467  62.968  1.00  0.00     0.158 A 
ATOM     10  C   UNL     1     -14.803  40.535  62.290  1.00  0.00     0.062 A 
ATOM     11  C   UNL     1     -13.552  41.019  62.693  1.00  0.00     0.022 A 
ENDROOT
BRANCH   9  12
ATOM     12  O   UNL     1     -16.652  39.030  62.518  1.00  0.00    -0.504 OA
ATOM     13  H   UNL     1     -16.796  38.186  61.984  1.00  0.00     0.293 HD
ENDBRANCH   9  12
BRANCH   8  14
ATOM     14  O   UNL     1     -15.278  37.806  64.791  1.00  0.00    -0.504 OA
ATOM     15  H   UNL     1     -16.204  37.808  65.194  1.00  0.00     0.293 HD
ENDBRANCH   8  14
TORSDOF 2
ENDMDL
MODEL 7
REMARK VINA RESULT:    -3.579      9.752     11.147
REMARK INTER + INTRA:          -3.788
REMARK INTER:                  -3.788
REMARK INTRA:                   0.000
REMARK UNBOUND:                 0.000
REMARK SMILES O=c1ccc2cc(O)c(O)cc2o1
REMARK SMILES IDX 4 1 3 2 2 3 1 4 13 5 12 6 11 7 9 8 7 9 6 10 5 11 8 12 10 14
REMARK H PARENT 8 13 10 15
REMARK Flexibility Score: inf
ROOT
ATOM      1  C   UNL     1     -18.346  41.609  51.947  1.00  0.00     0.019 A 
ATOM      2  C   UNL     1     -17.692  41.365  50.740  1.00  0.00     0.094 A 
ATOM      3  C   UNL     1     -16.297  41.467  50.693  1.00  0.00     0.336 A 
ATOM      4  O   UNL     1     -15.687  41.251  49.613  1.00  0.00    -0.246 OA
ATOM      5  O   UNL     1     -15.608  41.791  51.784  1.00  0.00    -0.423 OA
ATOM      6  C   UNL     1     -16.195  42.031  52.955  1.00  0.00     0.142 A 
ATOM      7  C   UNL     1     -15.420  42.367  54.068  1.00  0.00     0.098 A 
ATOM      8  C   UNL     1     -16.022  42.623  55.307  1.00  0.00     0.161 A 
ATOM      9  C   UNL     1     -17.431  42.539  55.430  1.00  0.00     0.158 A 
ATOM     10  C   UNL     1     -18.205  42.202  54.313  1.00  0.00     0.062 A 
ATOM     11  C   UNL     1     -17.597  41.947  53.077  1.00  0.00     0.022 A 
ENDROOT
BRANCH   9  12
ATOM     12  O   UNL     1     -18.097  42.781  56.634  1.00  0.00    -0.504 OA
ATOM     13  H   UNL     1     -17.769  43.420  57.343  1.00  0.00     0.293 HD
ENDBRANCH   9  12
BRANCH   8  14
ATOM     14  O   UNL     1     -15.189  42.955  56.378  1.00  0.00    -0.504 OA
ATOM     15  H   UNL     1     -15.037  43.899  56.704  1.00  0.00     0.293 HD
ENDBRANCH   8  14
TORSDOF 2
ENDMDL
MODEL 8
REMARK VINA RESULT:    -3.470      1.284      4.620
REMARK INTER + INTRA:          -3.673
REMARK INTER:                  -3.673
REMARK INTRA:                   0.000
REMARK UNBOUND:                 0.000
REMARK SMILES O=c1ccc2cc(O)c(O)cc2o1
REMARK SMILES IDX 4 1 3 2 2 3 1 4 13 5 12 6 11 7 9 8 7 9 6 10 5 11 8 12 10 14
REMARK H PARENT 8 13 10 15
REMARK Flexibility Score: inf
ROOT
ATOM      1  C   UNL     1     -12.758  39.704  62.730  1.00  0.00     0.019 A 
ATOM      2  C   UNL     1     -13.472  40.883  62.515  1.00  0.00     0.094 A 
ATOM      3  C   UNL     1     -12.771  42.050  62.193  1.00  0.00     0.336 A 
ATOM      4  O   UNL     1     -13.395  43.124  61.995  1.00  0.00    -0.246 OA
ATOM      5  O   UNL     1     -11.444  42.032  62.092  1.00  0.00    -0.423 OA
ATOM      6  C   UNL     1     -10.726  40.928  62.289  1.00  0.00     0.142 A 
ATOM      7  C   UNL     1      -9.335  40.970  62.170  1.00  0.00     0.098 A 
ATOM      8  C   UNL     1      -8.565  39.816  62.375  1.00  0.00     0.161 A 
ATOM      9  C   UNL     1      -9.207  38.597  62.705  1.00  0.00     0.158 A 
ATOM     10  C   UNL     1     -10.602  38.559  62.824  1.00  0.00     0.062 A 
ATOM     11  C   UNL     1     -11.365  39.715  62.618  1.00  0.00     0.022 A 
ENDROOT
BRANCH   9  12
ATOM     12  O   UNL     1      -8.503  37.410  62.922  1.00  0.00    -0.504 OA
ATOM     13  H   UNL     1      -8.467  36.647  62.263  1.00  0.00     0.293 HD
ENDBRANCH   9  12
BRANCH   8  14
ATOM     14  O   UNL     1      -7.180  39.928  62.241  1.00  0.00    -0.504 OA
ATOM     15  H   UNL     1      -6.672  40.796  62.331  1.00  0.00     0.293 HD
ENDBRANCH   8  14
TORSDOF 2
ENDMDL
MODEL 9
REMARK VINA RESULT:    -3.449      9.758     11.753
REMARK INTER + INTRA:          -3.651
REMARK INTER:                  -3.651
REMARK INTRA:                   0.000
REMARK UNBOUND:                 0.000
REMARK SMILES O=c1ccc2cc(O)c(O)cc2o1
REMARK SMILES IDX 4 1 3 2 2 3 1 4 13 5 12 6 11 7 9 8 7 9 6 10 5 11 8 12 10 14
REMARK H PARENT 8 13 10 15
REMARK Flexibility Score: inf
ROOT
ATOM      1  C   UNL     1      -3.546  35.171  53.425  1.00  0.00     0.019 A 
ATOM      2  C   UNL     1      -4.300  33.998  53.441  1.00  0.00     0.094 A 
ATOM      3  C   UNL     1      -5.388  33.904  54.316  1.00  0.00     0.336 A 
ATOM      4  O   UNL     1      -6.082  32.854  54.346  1.00  0.00    -0.246 OA
ATOM      5  O   UNL     1      -5.696  34.919  55.119  1.00  0.00    -0.423 OA
ATOM      6  C   UNL     1      -5.002  36.056  55.134  1.00  0.00     0.142 A 
ATOM      7  C   UNL     1      -5.373  37.088  55.999  1.00  0.00     0.098 A 
ATOM      8  C   UNL     1      -4.652  38.290  56.028  1.00  0.00     0.161 A 
ATOM      9  C   UNL     1      -3.537  38.457  55.169  1.00  0.00     0.158 A 
ATOM     10  C   UNL     1      -3.169  37.420  54.303  1.00  0.00     0.062 A 
ATOM     11  C   UNL     1      -3.893  36.221  54.280  1.00  0.00     0.022 A 
ENDROOT
BRANCH   9  12
ATOM     12  O   UNL     1      -2.775  39.627  55.144  1.00  0.00    -0.504 OA
ATOM     13  H   UNL     1      -3.029  40.476  55.626  1.00  0.00     0.293 HD
ENDBRANCH   9  12
BRANCH   8  14
ATOM     14  O   UNL     1      -5.075  39.280  56.916  1.00  0.00    -0.504 OA
ATOM     15  H   UNL     1      -4.517  40.080  57.177  1.00  0.00     0.293 HD
ENDBRANCH   8  14
TORSDOF 2
ENDMDL
