MODEL 1
REMARK VINA RESULT:    -4.919      0.000      0.000
REMARK INTER + INTRA:          -6.048
REMARK INTER:                  -5.782
REMARK INTRA:                  -0.266
REMARK UNBOUND:                -0.266
REMARK SMILES O=c1cc(-c2ccc(O)c(O)c2)oc2cc(O)cc(O)c12
REMARK SMILES IDX 4 1 3 2 2 3 1 4 21 5 19 6 18 7 16 8 15 9 14 10 13 11 5 12
REMARK SMILES IDX 6 13 7 14 8 15 12 16 10 17 9 18 11 20 20 22 17 24
REMARK H PARENT 9 19 11 21 20 23 17 25
REMARK Flexibility Score: inf
ROOT
ATOM      1  C   UNL     1       7.604 176.148  46.012  1.00  0.00     0.138 A 
ATOM      2  C   UNL     1       6.978 174.959  46.421  1.00  0.00     0.100 A 
ATOM      3  C   UNL     1       5.741 174.613  45.877  1.00  0.00     0.197 A 
ATOM      4  O   UNL     1       5.186 173.544  46.251  1.00  0.00    -0.289 OA
ATOM      5  C   UNL     1       5.136 175.460  44.927  1.00  0.00     0.107 A 
ATOM      6  C   UNL     1       3.886 175.182  44.325  1.00  0.00     0.134 A 
ATOM      7  C   UNL     1       3.349 176.081  43.392  1.00  0.00     0.093 A 
ATOM      8  C   UNL     1       4.036 177.248  43.050  1.00  0.00     0.123 A 
ATOM      9  C   UNL     1       5.272 177.528  43.641  1.00  0.00     0.094 A 
ATOM     10  C   UNL     1       5.825 176.645  44.573  1.00  0.00     0.146 A 
ATOM     11  O   UNL     1       7.002 176.931  45.120  1.00  0.00    -0.456 OA
ENDROOT
BRANCH   1  12
ATOM     12  C   UNL     1       8.920 176.569  46.558  1.00  0.00     0.021 A 
ATOM     13  C   UNL     1       8.994 177.704  47.383  1.00  0.00     0.016 A 
ATOM     14  C   UNL     1      10.220 178.125  47.903  1.00  0.00     0.051 A 
ATOM     15  C   UNL     1      11.395 177.426  47.600  1.00  0.00     0.157 A 
ATOM     16  C   UNL     1      10.106 175.877  46.245  1.00  0.00     0.062 A 
ATOM     17  C   UNL     1      11.337 176.299  46.765  1.00  0.00     0.158 A 
BRANCH  15  18
ATOM     18  O   UNL     1      12.616 177.847  48.122  1.00  0.00    -0.504 OA
ATOM     19  H   UNL     1      12.873 177.665  49.085  1.00  0.00     0.293 HD
ENDBRANCH  15  18
BRANCH  17  20
ATOM     20  O   UNL     1      12.490 175.588  46.434  1.00  0.00    -0.504 OA
ATOM     21  H   UNL     1      12.756 174.738  46.917  1.00  0.00     0.293 HD
ENDBRANCH  17  20
ENDBRANCH   1  12
BRANCH   6  22
ATOM     22  O   UNL     1       3.176 174.025  44.647  1.00  0.00    -0.507 OA
ATOM     23  H   UNL     1       3.317 173.156  44.146  1.00  0.00     0.293 HD
ENDBRANCH   6  22
BRANCH   8  24
ATOM     24  O   UNL     1       3.480 178.125  42.120  1.00  0.00    -0.508 OA
ATOM     25  H   UNL     1       3.512 179.128  42.253  1.00  0.00     0.293 HD
ENDBRANCH   8  24
TORSDOF 5
ENDMDL
MODEL 2
REMARK VINA RESULT:    -4.608      1.283      2.740
REMARK INTER + INTRA:          -5.682
REMARK INTER:                  -5.422
REMARK INTRA:                  -0.260
REMARK UNBOUND:                -0.266
REMARK SMILES O=c1cc(-c2ccc(O)c(O)c2)oc2cc(O)cc(O)c12
REMARK SMILES IDX 4 1 3 2 2 3 1 4 21 5 19 6 18 7 16 8 15 9 14 10 13 11 5 12
REMARK SMILES IDX 6 13 7 14 8 15 12 16 10 17 9 18 11 20 20 22 17 24
REMARK H PARENT 9 19 11 21 20 23 17 25
REMARK Flexibility Score: inf
ROOT
ATOM      1  C   UNL     1       7.080 176.857  45.692  1.00  0.00     0.138 A 
ATOM      2  C   UNL     1       6.618 177.699  44.667  1.00  0.00     0.100 A 
ATOM      3  C   UNL     1       5.462 177.354  43.966  1.00  0.00     0.197 A 
ATOM      4  O   UNL     1       5.055 178.115  43.046  1.00  0.00    -0.289 OA
ATOM      5  C   UNL     1       4.775 176.168  44.294  1.00  0.00     0.107 A 
ATOM      6  C   UNL     1       3.596 175.748  43.636  1.00  0.00     0.134 A 
ATOM      7  C   UNL     1       2.976 174.550  44.019  1.00  0.00     0.093 A 
ATOM      8  C   UNL     1       3.510 173.767  45.045  1.00  0.00     0.123 A 
ATOM      9  C   UNL     1       4.676 174.177  45.700  1.00  0.00     0.094 A 
ATOM     10  C   UNL     1       5.309 175.369  45.334  1.00  0.00     0.146 A 
ATOM     11  O   UNL     1       6.414 175.739  45.972  1.00  0.00    -0.456 OA
ENDROOT
BRANCH   1  12
ATOM     12  C   UNL     1       8.305 177.172  46.471  1.00  0.00     0.021 A 
ATOM     13  C   UNL     1       8.186 177.794  47.725  1.00  0.00     0.016 A 
ATOM     14  C   UNL     1       9.323 178.107  48.473  1.00  0.00     0.051 A 
ATOM     15  C   UNL     1      10.600 177.813  47.978  1.00  0.00     0.157 A 
ATOM     16  C   UNL     1       9.592 176.891  45.971  1.00  0.00     0.062 A 
ATOM     17  C   UNL     1      10.733 177.205  46.719  1.00  0.00     0.158 A 
BRANCH  15  18
ATOM     18  O   UNL     1      11.732 178.125  48.728  1.00  0.00    -0.504 OA
ATOM     19  H   UNL     1      11.695 178.204  49.737  1.00  0.00     0.293 HD
ENDBRANCH  15  18
BRANCH  17  20
ATOM     20  O   UNL     1      11.990 176.911  46.192  1.00  0.00    -0.504 OA
ATOM     21  H   UNL     1      12.487 176.061  46.428  1.00  0.00     0.293 HD
ENDBRANCH  17  20
ENDBRANCH   1  12
BRANCH   6  22
ATOM     22  O   UNL     1       3.038 176.508  42.607  1.00  0.00    -0.507 OA
ATOM     23  H   UNL     1       2.045 176.699  42.564  1.00  0.00     0.293 HD
ENDBRANCH   6  22
BRANCH   8  24
ATOM     24  O   UNL     1       2.875 172.580  45.406  1.00  0.00    -0.508 OA
ATOM     25  H   UNL     1       2.019 172.580  45.948  1.00  0.00     0.293 HD
ENDBRANCH   8  24
TORSDOF 5
ENDMDL
MODEL 3
REMARK VINA RESULT:    -4.175      1.415      3.065
REMARK INTER + INTRA:          -5.173
REMARK INTER:                  -4.896
REMARK INTRA:                  -0.277
REMARK UNBOUND:                -0.266
REMARK SMILES O=c1cc(-c2ccc(O)c(O)c2)oc2cc(O)cc(O)c12
REMARK SMILES IDX 4 1 3 2 2 3 1 4 21 5 19 6 18 7 16 8 15 9 14 10 13 11 5 12
REMARK SMILES IDX 6 13 7 14 8 15 12 16 10 17 9 18 11 20 20 22 17 24
REMARK H PARENT 9 19 11 21 20 23 17 25
REMARK Flexibility Score: inf
ROOT
ATOM      1  C   UNL     1       7.275 176.969  45.685  1.00  0.00     0.138 A 
ATOM      2  C   UNL     1       6.864 177.754  44.595  1.00  0.00     0.100 A 
ATOM      3  C   UNL     1       5.699 177.415  43.906  1.00  0.00     0.197 A 
ATOM      4  O   UNL     1       5.337 178.125  42.929  1.00  0.00    -0.289 OA
ATOM      5  C   UNL     1       4.954 176.288  44.310  1.00  0.00     0.107 A 
ATOM      6  C   UNL     1       3.762 175.877  43.669  1.00  0.00     0.134 A 
ATOM      7  C   UNL     1       3.082 174.740  44.129  1.00  0.00     0.093 A 
ATOM      8  C   UNL     1       3.569 174.009  45.215  1.00  0.00     0.123 A 
ATOM      9  C   UNL     1       4.747 174.411  45.855  1.00  0.00     0.094 A 
ATOM     10  C   UNL     1       5.439 175.543  45.411  1.00  0.00     0.146 A 
ATOM     11  O   UNL     1       6.554 175.906  46.035  1.00  0.00    -0.456 OA
ENDROOT
BRANCH   1  12
ATOM     12  C   UNL     1       8.507 177.281  46.454  1.00  0.00     0.021 A 
ATOM     13  C   UNL     1       9.751 177.266  45.801  1.00  0.00     0.016 A 
ATOM     14  C   UNL     1      10.925 177.549  46.504  1.00  0.00     0.051 A 
ATOM     15  C   UNL     1      10.878 177.842  47.872  1.00  0.00     0.157 A 
ATOM     16  C   UNL     1       8.467 177.563  47.833  1.00  0.00     0.062 A 
ATOM     17  C   UNL     1       9.642 177.846  48.539  1.00  0.00     0.158 A 
BRANCH  15  18
ATOM     18  O   UNL     1      12.050 178.125  48.570  1.00  0.00    -0.504 OA
ATOM     19  H   UNL     1      12.585 177.397  49.029  1.00  0.00     0.293 HD
ENDBRANCH  15  18
BRANCH  17  20
ATOM     20  O   UNL     1       9.562 178.121  49.904  1.00  0.00    -0.504 OA
ATOM     21  H   UNL     1      10.341 178.511  50.421  1.00  0.00     0.293 HD
ENDBRANCH  17  20
ENDBRANCH   1  12
BRANCH   6  22
ATOM     22  O   UNL     1       3.250 176.586  42.581  1.00  0.00    -0.507 OA
ATOM     23  H   UNL     1       2.282 176.501  42.298  1.00  0.00     0.293 HD
ENDBRANCH   6  22
BRANCH   8  24
ATOM     24  O   UNL     1       2.875 172.883  45.653  1.00  0.00    -0.508 OA
ATOM     25  H   UNL     1       3.354 172.093  46.068  1.00  0.00     0.293 HD
ENDBRANCH   8  24
TORSDOF 5
ENDMDL
MODEL 4
REMARK VINA RESULT:    -3.671      4.874     10.746
REMARK INTER + INTRA:          -4.581
REMARK INTER:                  -4.284
REMARK INTRA:                  -0.297
REMARK UNBOUND:                -0.266
REMARK SMILES O=c1cc(-c2ccc(O)c(O)c2)oc2cc(O)cc(O)c12
REMARK SMILES IDX 4 1 3 2 2 3 1 4 21 5 19 6 18 7 16 8 15 9 14 10 13 11 5 12
REMARK SMILES IDX 6 13 7 14 8 15 12 16 10 17 9 18 11 20 20 22 17 24
REMARK H PARENT 9 19 11 21 20 23 17 25
REMARK Flexibility Score: inf
ROOT
ATOM      1  C   UNL     1      14.073 178.111  48.565  1.00  0.00     0.138 A 
ATOM      2  C   UNL     1      15.271 178.118  47.831  1.00  0.00     0.100 A 
ATOM      3  C   UNL     1      16.490 178.117  48.509  1.00  0.00     0.197 A 
ATOM      4  O   UNL     1      17.561 178.125  47.842  1.00  0.00    -0.289 OA
ATOM      5  C   UNL     1      16.505 178.112  49.918  1.00  0.00     0.107 A 
ATOM      6  C   UNL     1      17.695 178.108  50.681  1.00  0.00     0.134 A 
ATOM      7  C   UNL     1      17.623 178.109  52.082  1.00  0.00     0.093 A 
ATOM      8  C   UNL     1      16.387 178.112  52.732  1.00  0.00     0.123 A 
ATOM      9  C   UNL     1      15.205 178.115  51.983  1.00  0.00     0.094 A 
ATOM     10  C   UNL     1      15.256 178.114  50.586  1.00  0.00     0.146 A 
ATOM     11  O   UNL     1      14.121 178.115  49.896  1.00  0.00    -0.456 OA
ENDROOT
BRANCH   1  12
ATOM     12  C   UNL     1      12.746 178.113  47.899  1.00  0.00     0.021 A 
ATOM     13  C   UNL     1      11.579 178.087  48.681  1.00  0.00     0.016 A 
ATOM     14  C   UNL     1      10.320 178.080  48.079  1.00  0.00     0.051 A 
ATOM     15  C   UNL     1      10.202 178.090  46.683  1.00  0.00     0.157 A 
ATOM     16  C   UNL     1      12.622 178.109  46.495  1.00  0.00     0.062 A 
ATOM     17  C   UNL     1      11.360 178.101  45.889  1.00  0.00     0.158 A 
BRANCH  15  18
ATOM     18  O   UNL     1       8.944 178.086  46.085  1.00  0.00    -0.504 OA
ATOM     19  H   UNL     1       8.797 178.457  45.154  1.00  0.00     0.293 HD
ENDBRANCH  15  18
BRANCH  17  20
ATOM     20  O   UNL     1      11.278 178.099  44.497  1.00  0.00    -0.504 OA
ATOM     21  H   UNL     1      11.345 177.246  43.956  1.00  0.00     0.293 HD
ENDBRANCH  17  20
ENDBRANCH   1  12
BRANCH   6  22
ATOM     22  O   UNL     1      18.946 178.105  50.061  1.00  0.00    -0.507 OA
ATOM     23  H   UNL     1      19.730 177.594  50.447  1.00  0.00     0.293 HD
ENDBRANCH   6  22
BRANCH   8  24
ATOM     24  O   UNL     1      16.342 178.113  54.125  1.00  0.00    -0.508 OA
ATOM     25  H   UNL     1      16.339 178.976  54.655  1.00  0.00     0.293 HD
ENDBRANCH   8  24
TORSDOF 5
ENDMDL
MODEL 5
REMARK VINA RESULT:    -2.917     21.179     23.506
REMARK INTER + INTRA:          -3.695
REMARK INTER:                  -3.431
REMARK INTRA:                  -0.264
REMARK UNBOUND:                -0.266
REMARK SMILES O=c1cc(-c2ccc(O)c(O)c2)oc2cc(O)cc(O)c12
REMARK SMILES IDX 4 1 3 2 2 3 1 4 21 5 19 6 18 7 16 8 15 9 14 10 13 11 5 12
REMARK SMILES IDX 6 13 7 14 8 15 12 16 10 17 9 18 11 20 20 22 17 24
REMARK H PARENT 9 19 11 21 20 23 17 25
REMARK Flexibility Score: inf
ROOT
ATOM      1  C   UNL     1      18.117 159.517  35.162  1.00  0.00     0.138 A 
ATOM      2  C   UNL     1      19.003 158.849  34.301  1.00  0.00     0.100 A 
ATOM      3  C   UNL     1      20.347 158.731  34.657  1.00  0.00     0.197 A 
ATOM      4  O   UNL     1      21.136 158.131  33.877  1.00  0.00    -0.289 OA
ATOM      5  C   UNL     1      20.798 159.286  35.871  1.00  0.00     0.107 A 
ATOM      6  C   UNL     1      22.141 159.209  36.307  1.00  0.00     0.134 A 
ATOM      7  C   UNL     1      22.510 159.792  37.528  1.00  0.00     0.093 A 
ATOM      8  C   UNL     1      21.564 160.449  38.319  1.00  0.00     0.123 A 
ATOM      9  C   UNL     1      20.234 160.527  37.894  1.00  0.00     0.094 A 
ATOM     10  C   UNL     1      19.845 159.952  36.680  1.00  0.00     0.146 A 
ATOM     11  O   UNL     1      18.576 160.037  36.299  1.00  0.00    -0.456 OA
ENDROOT
BRANCH   1  12
ATOM     12  C   UNL     1      16.677 159.674  34.836  1.00  0.00     0.021 A 
ATOM     13  C   UNL     1      16.239 160.841  34.186  1.00  0.00     0.016 A 
ATOM     14  C   UNL     1      14.889 161.016  33.875  1.00  0.00     0.051 A 
ATOM     15  C   UNL     1      13.950 160.035  34.216  1.00  0.00     0.157 A 
ATOM     16  C   UNL     1      15.726 158.696  35.189  1.00  0.00     0.062 A 
ATOM     17  C   UNL     1      14.372 158.871  34.879  1.00  0.00     0.158 A 
BRANCH  15  18
ATOM     18  O   UNL     1      12.604 160.212  33.902  1.00  0.00    -0.504 OA
ATOM     19  H   UNL     1      11.991 159.425  33.726  1.00  0.00     0.293 HD
ENDBRANCH  15  18
BRANCH  17  20
ATOM     20  O   UNL     1      13.461 157.880  35.243  1.00  0.00    -0.504 OA
ATOM     21  H   UNL     1      13.228 157.692  36.210  1.00  0.00     0.293 HD
ENDBRANCH  17  20
ENDBRANCH   1  12
BRANCH   6  22
ATOM     22  O   UNL     1      23.109 158.561  35.539  1.00  0.00    -0.507 OA
ATOM     23  H   UNL     1      24.074 158.869  35.527  1.00  0.00     0.293 HD
ENDBRANCH   6  22
BRANCH   8  24
ATOM     24  O   UNL     1      21.956 161.021  39.528  1.00  0.00    -0.508 OA
ATOM     25  H   UNL     1      22.932 161.081  39.794  1.00  0.00     0.293 HD
ENDBRANCH   8  24
TORSDOF 5
ENDMDL
