MODEL 1
REMARK VINA RESULT:    -3.474      0.000      0.000
REMARK INTER + INTRA:          -4.167
REMARK INTER:                  -4.084
REMARK INTRA:                  -0.083
REMARK UNBOUND:                -0.083
REMARK SMILES O=C([O-])CCC(=O)[O-]
REMARK SMILES IDX 4 1 2 2 1 3 3 4 5 5 6 6 7 7 8 8
REMARK H PARENT
REMARK Flexibility Score: inf
ROOT
ATOM      1  C   UNL     1      13.098 -30.194  23.507  1.00  0.00     0.059 C 
ENDROOT
BRANCH   1   2
ATOM      2  C   UNL     1      12.343 -28.941  23.833  1.00  0.00     0.042 C 
ATOM      3  O   UNL     1      12.780 -28.148  24.709  1.00  0.00    -0.550 OA
ATOM      4  O   UNL     1      11.179 -28.629  23.142  1.00  0.00    -0.550 OA
ENDBRANCH   1   2
BRANCH   1   5
ATOM      5  C   UNL     1      12.454 -30.955  22.345  1.00  0.00     0.059 C 
BRANCH   5   6
ATOM      6  C   UNL     1      13.412 -31.143  21.209  1.00  0.00     0.042 C 
ATOM      7  O   UNL     1      14.237 -30.237  20.919  1.00  0.00    -0.550 OA
ATOM      8  O   UNL     1      13.366 -32.302  20.443  1.00  0.00    -0.550 OA
ENDBRANCH   5   6
ENDBRANCH   1   5
TORSDOF 3
ENDMDL
MODEL 2
REMARK VINA RESULT:    -3.458      1.269      1.503
REMARK INTER + INTRA:          -4.148
REMARK INTER:                  -4.031
REMARK INTRA:                  -0.116
REMARK UNBOUND:                -0.083
REMARK SMILES O=C([O-])CCC(=O)[O-]
REMARK SMILES IDX 4 1 2 2 1 3 3 4 5 5 6 6 7 7 8 8
REMARK H PARENT
REMARK Flexibility Score: inf
ROOT
ATOM      1  C   UNL     1      13.650 -29.084  22.965  1.00  0.00     0.059 C 
ENDROOT
BRANCH   1   2
ATOM      2  C   UNL     1      12.866 -28.160  23.847  1.00  0.00     0.042 C 
ATOM      3  O   UNL     1      13.425 -27.160  24.371  1.00  0.00    -0.550 OA
ATOM      4  O   UNL     1      11.511 -28.379  24.056  1.00  0.00    -0.550 OA
ENDBRANCH   1   2
BRANCH   1   5
ATOM      5  C   UNL     1      13.154 -30.529  23.079  1.00  0.00     0.059 C 
BRANCH   5   6
ATOM      6  C   UNL     1      12.456 -30.972  21.829  1.00  0.00     0.042 C 
ATOM      7  O   UNL     1      11.240 -30.702  21.652  1.00  0.00    -0.550 OA
ATOM      8  O   UNL     1      13.140 -31.720  20.879  1.00  0.00    -0.550 OA
ENDBRANCH   5   6
ENDBRANCH   1   5
TORSDOF 3
ENDMDL
MODEL 3
REMARK VINA RESULT:    -3.456      0.570      4.151
REMARK INTER + INTRA:          -4.145
REMARK INTER:                  -4.083
REMARK INTRA:                  -0.062
REMARK UNBOUND:                -0.083
REMARK SMILES O=C([O-])CCC(=O)[O-]
REMARK SMILES IDX 4 1 2 2 1 3 3 4 5 5 6 6 7 7 8 8
REMARK H PARENT
REMARK Flexibility Score: inf
ROOT
ATOM      1  C   UNL     1      12.333 -30.589  22.231  1.00  0.00     0.059 C 
ENDROOT
BRANCH   1   2
ATOM      2  C   UNL     1      13.341 -31.024  21.211  1.00  0.00     0.042 C 
ATOM      3  O   UNL     1      13.061 -31.943  20.396  1.00  0.00    -0.550 OA
ATOM      4  O   UNL     1      14.574 -30.388  21.134  1.00  0.00    -0.550 OA
ENDBRANCH   1   2
BRANCH   1   5
ATOM      5  C   UNL     1      13.006 -30.047  23.495  1.00  0.00     0.059 C 
BRANCH   5   6
ATOM      6  C   UNL     1      12.529 -28.666  23.826  1.00  0.00     0.042 C 
ATOM      7  O   UNL     1      11.297 -28.425  23.916  1.00  0.00    -0.550 OA
ATOM      8  O   UNL     1      13.445 -27.635  23.993  1.00  0.00    -0.550 OA
ENDBRANCH   5   6
ENDBRANCH   1   5
TORSDOF 3
ENDMDL
MODEL 4
REMARK VINA RESULT:    -3.443      1.285      3.970
REMARK INTER + INTRA:          -4.130
REMARK INTER:                  -4.018
REMARK INTRA:                  -0.112
REMARK UNBOUND:                -0.083
REMARK SMILES O=C([O-])CCC(=O)[O-]
REMARK SMILES IDX 4 1 2 2 1 3 3 4 5 5 6 6 7 7 8 8
REMARK H PARENT
REMARK Flexibility Score: inf
ROOT
ATOM      1  C   UNL     1      13.119 -30.556  23.115  1.00  0.00     0.059 C 
ENDROOT
BRANCH   1   2
ATOM      2  C   UNL     1      12.454 -30.958  21.834  1.00  0.00     0.042 C 
ATOM      3  O   UNL     1      13.092 -31.612  20.967  1.00  0.00    -0.550 OA
ATOM      4  O   UNL     1      11.118 -30.646  21.615  1.00  0.00    -0.550 OA
ENDBRANCH   1   2
BRANCH   1   5
ATOM      5  C   UNL     1      13.663 -29.126  23.045  1.00  0.00     0.059 C 
BRANCH   5   6
ATOM      6  C   UNL     1      12.862 -28.189  23.896  1.00  0.00     0.042 C 
ATOM      7  O   UNL     1      11.640 -28.405  24.101  1.00  0.00    -0.550 OA
ATOM      8  O   UNL     1      13.459 -27.053  24.430  1.00  0.00    -0.550 OA
ENDBRANCH   5   6
ENDBRANCH   1   5
TORSDOF 3
ENDMDL
MODEL 5
REMARK VINA RESULT:    -3.360      1.904      3.856
REMARK INTER + INTRA:          -4.032
REMARK INTER:                  -3.866
REMARK INTRA:                  -0.165
REMARK UNBOUND:                -0.083
REMARK SMILES O=C([O-])CCC(=O)[O-]
REMARK SMILES IDX 4 1 2 2 1 3 3 4 5 5 6 6 7 7 8 8
REMARK H PARENT
REMARK Flexibility Score: inf
ROOT
ATOM      1  C   UNL     1      14.222 -30.511  21.259  1.00  0.00     0.059 C 
ENDROOT
BRANCH   1   2
ATOM      2  C   UNL     1      13.276 -31.583  20.809  1.00  0.00     0.042 C 
ATOM      3  O   UNL     1      12.051 -31.328  20.669  1.00  0.00    -0.550 OA
ATOM      4  O   UNL     1      13.754 -32.851  20.504  1.00  0.00    -0.550 OA
ENDBRANCH   1   2
BRANCH   1   5
ATOM      5  C   UNL     1      14.820 -30.827  22.634  1.00  0.00     0.059 C 
BRANCH   5   6
ATOM      6  C   UNL     1      13.753 -31.072  23.656  1.00  0.00     0.042 C 
ATOM      7  O   UNL     1      13.044 -30.120  24.075  1.00  0.00    -0.550 OA
ATOM      8  O   UNL     1      13.569 -32.347  24.178  1.00  0.00    -0.550 OA
ENDBRANCH   5   6
ENDBRANCH   1   5
TORSDOF 3
ENDMDL
MODEL 6
REMARK VINA RESULT:    -3.335      1.948      2.684
REMARK INTER + INTRA:          -4.003
REMARK INTER:                  -3.908
REMARK INTRA:                  -0.094
REMARK UNBOUND:                -0.083
REMARK SMILES O=C([O-])CCC(=O)[O-]
REMARK SMILES IDX 4 1 2 2 1 3 3 4 5 5 6 6 7 7 8 8
REMARK H PARENT
REMARK Flexibility Score: inf
ROOT
ATOM      1  C   UNL     1      13.901 -30.816  21.373  1.00  0.00     0.059 C 
ENDROOT
BRANCH   1   2
ATOM      2  C   UNL     1      13.022 -30.502  22.545  1.00  0.00     0.042 C 
ATOM      3  O   UNL     1      11.851 -30.075  22.362  1.00  0.00    -0.550 OA
ATOM      4  O   UNL     1      13.480 -30.719  23.838  1.00  0.00    -0.550 OA
ENDBRANCH   1   2
BRANCH   1   5
ATOM      5  C   UNL     1      13.381 -32.022  20.584  1.00  0.00     0.059 C 
BRANCH   5   6
ATOM      6  C   UNL     1      14.244 -33.229  20.787  1.00  0.00     0.042 C 
ATOM      7  O   UNL     1      14.685 -33.508  21.933  1.00  0.00    -0.550 OA
ATOM      8  O   UNL     1      14.597 -34.022  19.702  1.00  0.00    -0.550 OA
ENDBRANCH   5   6
ENDBRANCH   1   5
TORSDOF 3
ENDMDL
MODEL 7
REMARK VINA RESULT:    -3.312      1.629      2.300
REMARK INTER + INTRA:          -3.976
REMARK INTER:                  -3.796
REMARK INTRA:                  -0.181
REMARK UNBOUND:                -0.083
REMARK SMILES O=C([O-])CCC(=O)[O-]
REMARK SMILES IDX 4 1 2 2 1 3 3 4 5 5 6 6 7 7 8 8
REMARK H PARENT
REMARK Flexibility Score: inf
ROOT
ATOM      1  C   UNL     1      14.524 -30.636  23.104  1.00  0.00     0.059 C 
ENDROOT
BRANCH   1   2
ATOM      2  C   UNL     1      14.468 -29.213  22.638  1.00  0.00     0.042 C 
ATOM      3  O   UNL     1      15.068 -28.867  21.586  1.00  0.00    -0.550 OA
ATOM      4  O   UNL     1      13.720 -28.279  23.343  1.00  0.00    -0.550 OA
ENDBRANCH   1   2
BRANCH   1   5
ATOM      5  C   UNL     1      13.134 -31.281  23.120  1.00  0.00     0.059 C 
BRANCH   5   6
ATOM      6  C   UNL     1      12.466 -31.185  21.782  1.00  0.00     0.042 C 
ATOM      7  O   UNL     1      11.358 -30.598  21.667  1.00  0.00    -0.550 OA
ATOM      8  O   UNL     1      13.048 -31.780  20.670  1.00  0.00    -0.550 OA
ENDBRANCH   5   6
ENDBRANCH   1   5
TORSDOF 3
ENDMDL
MODEL 8
REMARK VINA RESULT:    -3.281      1.954      4.533
REMARK INTER + INTRA:          -3.939
REMARK INTER:                  -3.826
REMARK INTRA:                  -0.113
REMARK UNBOUND:                -0.083
REMARK SMILES O=C([O-])CCC(=O)[O-]
REMARK SMILES IDX 4 1 2 2 1 3 3 4 5 5 6 6 7 7 8 8
REMARK H PARENT
REMARK Flexibility Score: inf
ROOT
ATOM      1  C   UNL     1      13.447 -32.059  20.772  1.00  0.00     0.059 C 
ENDROOT
BRANCH   1   2
ATOM      2  C   UNL     1      14.339 -33.258  20.887  1.00  0.00     0.042 C 
ATOM      3  O   UNL     1      14.840 -33.570  22.000  1.00  0.00    -0.550 OA
ATOM      4  O   UNL     1      14.584 -34.053  19.775  1.00  0.00    -0.550 OA
ENDBRANCH   1   2
BRANCH   1   5
ATOM      5  C   UNL     1      14.002 -30.864  21.553  1.00  0.00     0.059 C 
BRANCH   5   6
ATOM      6  C   UNL     1      13.160 -30.548  22.750  1.00  0.00     0.042 C 
ATOM      7  O   UNL     1      13.465 -31.008  23.881  1.00  0.00    -0.550 OA
ATOM      8  O   UNL     1      12.012 -29.777  22.609  1.00  0.00    -0.550 OA
ENDBRANCH   5   6
ENDBRANCH   1   5
TORSDOF 3
ENDMDL
MODEL 9
REMARK VINA RESULT:    -3.263      1.368      4.001
REMARK INTER + INTRA:          -3.918
REMARK INTER:                  -3.809
REMARK INTRA:                  -0.109
REMARK UNBOUND:                -0.083
REMARK SMILES O=C([O-])CCC(=O)[O-]
REMARK SMILES IDX 4 1 2 2 1 3 3 4 5 5 6 6 7 7 8 8
REMARK H PARENT
REMARK Flexibility Score: inf
ROOT
ATOM      1  C   UNL     1      14.510 -31.541  22.459  1.00  0.00     0.059 C 
ENDROOT
BRANCH   1   2
ATOM      2  C   UNL     1      13.896 -32.226  21.276  1.00  0.00     0.042 C 
ATOM      3  O   UNL     1      14.280 -33.379  20.943  1.00  0.00    -0.550 OA
ATOM      4  O   UNL     1      12.872 -31.610  20.568  1.00  0.00    -0.550 OA
ENDBRANCH   1   2
BRANCH   1   5
ATOM      5  C   UNL     1      13.446 -31.072  23.456  1.00  0.00     0.059 C 
BRANCH   5   6
ATOM      6  C   UNL     1      13.289 -29.583  23.436  1.00  0.00     0.042 C 
ATOM      7  O   UNL     1      14.058 -28.873  22.737  1.00  0.00    -0.550 OA
ATOM      8  O   UNL     1      12.316 -28.975  24.221  1.00  0.00    -0.550 OA
ENDBRANCH   5   6
ENDBRANCH   1   5
TORSDOF 3
ENDMDL
