MODEL 1
REMARK VINA RESULT:    -4.926      0.000      0.000
REMARK INTER + INTRA:          -9.788
REMARK INTER:                  -8.381
REMARK INTRA:                  -1.407
REMARK UNBOUND:                -1.407
REMARK SMILES CCCCCCCCCCCCCC(=O)[O-]
REMARK SMILES IDX 8 1 9 2 10 3 11 4 12 5 13 6 14 7 15 8 16 9 7 10 6 11 5 12
REMARK SMILES IDX 4 13 3 14 2 15 1 16
REMARK H PARENT
REMARK Flexibility Score: inf
ROOT
ATOM      1  C   UNL     1      22.962  58.848  35.344  1.00  0.00     0.000 C 
ENDROOT
BRANCH   1   2
ATOM      2  C   UNL     1      22.862  57.470  36.009  1.00  0.00     0.000 C 
BRANCH   2   3
ATOM      3  C   UNL     1      22.124  57.559  37.351  1.00  0.00     0.000 C 
BRANCH   3   4
ATOM      4  C   UNL     1      21.386  58.900  37.485  1.00  0.00     0.000 C 
BRANCH   4   5
ATOM      5  C   UNL     1      21.716  59.642  38.793  1.00  0.00     0.006 C 
BRANCH   5   6
ATOM      6  C   UNL     1      21.832  58.723  40.022  1.00  0.00     0.053 C 
BRANCH   6   7
ATOM      7  C   UNL     1      20.501  58.237  40.509  1.00  0.00     0.041 C 
ATOM      8  O   UNL     1      19.533  59.035  40.618  1.00  0.00    -0.550 OA
ATOM      9  O   UNL     1      20.321  56.893  40.814  1.00  0.00    -0.550 OA
ENDBRANCH   6   7
ENDBRANCH   5   6
ENDBRANCH   4   5
ENDBRANCH   3   4
ENDBRANCH   2   3
ENDBRANCH   1   2
BRANCH   1  10
ATOM     10  C   UNL     1      24.275  58.989  34.564  1.00  0.00     0.000 C 
BRANCH  10  11
ATOM     11  C   UNL     1      24.007  59.207  33.070  1.00  0.00    -0.000 C 
BRANCH  11  12
ATOM     12  C   UNL     1      24.644  58.090  32.230  1.00  0.00    -0.000 C 
BRANCH  12  13
ATOM     13  C   UNL     1      23.885  56.754  32.336  1.00  0.00    -0.000 C 
BRANCH  13  14
ATOM     14  C   UNL     1      22.463  56.761  31.739  1.00  0.00    -0.000 C 
BRANCH  14  15
ATOM     15  C   UNL     1      21.328  56.587  32.762  1.00  0.00    -0.003 C 
ATOM     16  C   UNL     1      20.425  57.814  32.866  1.00  0.00     0.004 C 
ENDBRANCH  14  15
ENDBRANCH  13  14
ENDBRANCH  12  13
ENDBRANCH  11  12
ENDBRANCH  10  11
ENDBRANCH   1  10
TORSDOF 12
ENDMDL
MODEL 2
REMARK VINA RESULT:    -4.904     12.353     14.703
REMARK INTER + INTRA:          -9.751
REMARK INTER:                  -8.430
REMARK INTRA:                  -1.321
REMARK UNBOUND:                -1.407
REMARK SMILES CCCCCCCCCCCCCC(=O)[O-]
REMARK SMILES IDX 8 1 9 2 10 3 11 4 12 5 13 6 14 7 15 8 16 9 7 10 6 11 5 12
REMARK SMILES IDX 4 13 3 14 2 15 1 16
REMARK H PARENT
REMARK Flexibility Score: inf
ROOT
ATOM      1  C   UNL     1      35.944  58.038  29.705  1.00  0.00     0.000 C 
ENDROOT
BRANCH   1   2
ATOM      2  C   UNL     1      35.049  57.146  28.836  1.00  0.00     0.000 C 
BRANCH   2   3
ATOM      3  C   UNL     1      35.659  56.944  27.444  1.00  0.00     0.000 C 
BRANCH   3   4
ATOM      4  C   UNL     1      34.570  56.939  26.361  1.00  0.00     0.000 C 
BRANCH   4   5
ATOM      5  C   UNL     1      33.223  56.389  26.863  1.00  0.00     0.006 C 
BRANCH   5   6
ATOM      6  C   UNL     1      32.531  55.433  25.875  1.00  0.00     0.053 C 
BRANCH   6   7
ATOM      7  C   UNL     1      31.400  54.674  26.500  1.00  0.00     0.041 C 
ATOM      8  O   UNL     1      31.294  53.431  26.327  1.00  0.00    -0.550 OA
ATOM      9  O   UNL     1      30.477  55.338  27.300  1.00  0.00    -0.550 OA
ENDBRANCH   6   7
ENDBRANCH   5   6
ENDBRANCH   4   5
ENDBRANCH   3   4
ENDBRANCH   2   3
ENDBRANCH   1   2
BRANCH   1  10
ATOM     10  C   UNL     1      35.332  58.245  31.096  1.00  0.00     0.000 C 
BRANCH  10  11
ATOM     11  C   UNL     1      34.936  56.905  31.728  1.00  0.00    -0.000 C 
BRANCH  11  12
ATOM     12  C   UNL     1      33.510  56.965  32.294  1.00  0.00    -0.000 C 
BRANCH  12  13
ATOM     13  C   UNL     1      32.540  56.010  31.575  1.00  0.00    -0.000 C 
BRANCH  13  14
ATOM     14  C   UNL     1      33.105  54.605  31.279  1.00  0.00    -0.000 C 
BRANCH  14  15
ATOM     15  C   UNL     1      33.060  54.186  29.800  1.00  0.00    -0.003 C 
ATOM     16  C   UNL     1      32.659  52.725  29.606  1.00  0.00     0.004 C 
ENDBRANCH  14  15
ENDBRANCH  13  14
ENDBRANCH  12  13
ENDBRANCH  11  12
ENDBRANCH  10  11
ENDBRANCH   1  10
TORSDOF 12
ENDMDL
MODEL 3
REMARK VINA RESULT:    -4.879     11.159     13.647
REMARK INTER + INTRA:          -9.708
REMARK INTER:                  -8.400
REMARK INTRA:                  -1.308
REMARK UNBOUND:                -1.407
REMARK SMILES CCCCCCCCCCCCCC(=O)[O-]
REMARK SMILES IDX 8 1 9 2 10 3 11 4 12 5 13 6 14 7 15 8 16 9 7 10 6 11 5 12
REMARK SMILES IDX 4 13 3 14 2 15 1 16
REMARK H PARENT
REMARK Flexibility Score: inf
ROOT
ATOM      1  C   UNL     1      31.860  55.152  27.690  1.00  0.00     0.000 C 
ENDROOT
BRANCH   1   2
ATOM      2  C   UNL     1      32.788  53.932  27.659  1.00  0.00     0.000 C 
BRANCH   2   3
ATOM      3  C   UNL     1      33.504  53.751  29.003  1.00  0.00     0.000 C 
BRANCH   3   4
ATOM      4  C   UNL     1      33.051  54.813  30.015  1.00  0.00     0.000 C 
BRANCH   4   5
ATOM      5  C   UNL     1      32.917  54.264  31.447  1.00  0.00     0.006 C 
BRANCH   5   6
ATOM      6  C   UNL     1      33.352  55.257  32.540  1.00  0.00     0.053 C 
BRANCH   6   7
ATOM      7  C   UNL     1      32.201  56.020  33.120  1.00  0.00     0.041 C 
ATOM      8  O   UNL     1      31.715  55.689  34.234  1.00  0.00    -0.550 OA
ATOM      9  O   UNL     1      31.684  57.119  32.444  1.00  0.00    -0.550 OA
ENDBRANCH   6   7
ENDBRANCH   5   6
ENDBRANCH   4   5
ENDBRANCH   3   4
ENDBRANCH   2   3
ENDBRANCH   1   2
BRANCH   1  10
ATOM     10  C   UNL     1      32.260  56.177  26.622  1.00  0.00     0.000 C 
BRANCH  10  11
ATOM     11  C   UNL     1      33.738  56.026  26.240  1.00  0.00    -0.000 C 
BRANCH  11  12
ATOM     12  C   UNL     1      34.552  57.243  26.702  1.00  0.00    -0.000 C 
BRANCH  12  13
ATOM     13  C   UNL     1      35.908  56.857  27.319  1.00  0.00    -0.000 C 
BRANCH  13  14
ATOM     14  C   UNL     1      36.266  57.596  28.625  1.00  0.00    -0.000 C 
BRANCH  14  15
ATOM     15  C   UNL     1      35.352  57.279  29.822  1.00  0.00    -0.003 C 
ATOM     16  C   UNL     1      35.392  58.356  30.904  1.00  0.00     0.004 C 
ENDBRANCH  14  15
ENDBRANCH  13  14
ENDBRANCH  12  13
ENDBRANCH  11  12
ENDBRANCH  10  11
ENDBRANCH   1  10
TORSDOF 12
ENDMDL
MODEL 4
REMARK VINA RESULT:    -4.849     12.504     14.579
REMARK INTER + INTRA:          -9.657
REMARK INTER:                  -7.955
REMARK INTRA:                  -1.702
REMARK UNBOUND:                -1.407
REMARK SMILES CCCCCCCCCCCCCC(=O)[O-]
REMARK SMILES IDX 8 1 9 2 10 3 11 4 12 5 13 6 14 7 15 8 16 9 7 10 6 11 5 12
REMARK SMILES IDX 4 13 3 14 2 15 1 16
REMARK H PARENT
REMARK Flexibility Score: inf
ROOT
ATOM      1  C   UNL     1      34.542  56.924  26.082  1.00  0.00     0.000 C 
ENDROOT
BRANCH   1   2
ATOM      2  C   UNL     1      33.413  55.907  25.875  1.00  0.00     0.000 C 
BRANCH   2   3
ATOM      3  C   UNL     1      32.196  56.251  26.742  1.00  0.00     0.000 C 
BRANCH   3   4
ATOM      4  C   UNL     1      31.877  55.110  27.720  1.00  0.00     0.000 C 
BRANCH   4   5
ATOM      5  C   UNL     1      32.769  53.873  27.515  1.00  0.00     0.006 C 
BRANCH   5   6
ATOM      6  C   UNL     1      33.372  53.314  28.817  1.00  0.00     0.053 C 
BRANCH   6   7
ATOM      7  C   UNL     1      32.582  52.172  29.378  1.00  0.00     0.041 C 
ATOM      8  O   UNL     1      31.608  51.695  28.736  1.00  0.00    -0.550 OA
ATOM      9  O   UNL     1      32.941  51.611  30.598  1.00  0.00    -0.550 OA
ENDBRANCH   6   7
ENDBRANCH   5   6
ENDBRANCH   4   5
ENDBRANCH   3   4
ENDBRANCH   2   3
ENDBRANCH   1   2
BRANCH   1  10
ATOM     10  C   UNL     1      35.338  56.613  27.355  1.00  0.00     0.000 C 
BRANCH  10  11
ATOM     11  C   UNL     1      35.730  57.901  28.088  1.00  0.00    -0.000 C 
BRANCH  11  12
ATOM     12  C   UNL     1      35.527  57.756  29.603  1.00  0.00    -0.000 C 
BRANCH  12  13
ATOM     13  C   UNL     1      34.661  56.540  29.977  1.00  0.00    -0.000 C 
BRANCH  13  14
ATOM     14  C   UNL     1      33.989  56.617  31.363  1.00  0.00    -0.000 C 
BRANCH  14  15
ATOM     15  C   UNL     1      32.645  55.877  31.476  1.00  0.00    -0.003 C 
ATOM     16  C   UNL     1      32.709  54.661  32.397  1.00  0.00     0.004 C 
ENDBRANCH  14  15
ENDBRANCH  13  14
ENDBRANCH  12  13
ENDBRANCH  11  12
ENDBRANCH  10  11
ENDBRANCH   1  10
TORSDOF 12
ENDMDL
MODEL 5
REMARK VINA RESULT:    -4.776     11.855     14.710
REMARK INTER + INTRA:          -9.533
REMARK INTER:                  -8.234
REMARK INTRA:                  -1.300
REMARK UNBOUND:                -1.407
REMARK SMILES CCCCCCCCCCCCCC(=O)[O-]
REMARK SMILES IDX 8 1 9 2 10 3 11 4 12 5 13 6 14 7 15 8 16 9 7 10 6 11 5 12
REMARK SMILES IDX 4 13 3 14 2 15 1 16
REMARK H PARENT
REMARK Flexibility Score: inf
ROOT
ATOM      1  C   UNL     1      35.589  58.202  30.256  1.00  0.00     0.000 C 
ENDROOT
BRANCH   1   2
ATOM      2  C   UNL     1      36.104  57.211  29.204  1.00  0.00     0.000 C 
BRANCH   2   3
ATOM      3  C   UNL     1      35.895  57.757  27.786  1.00  0.00     0.000 C 
BRANCH   3   4
ATOM      4  C   UNL     1      35.277  56.689  26.871  1.00  0.00     0.000 C 
BRANCH   4   5
ATOM      5  C   UNL     1      33.746  56.597  26.999  1.00  0.00     0.006 C 
BRANCH   5   6
ATOM      6  C   UNL     1      33.145  55.310  26.407  1.00  0.00     0.053 C 
BRANCH   6   7
ATOM      7  C   UNL     1      32.781  54.304  27.458  1.00  0.00     0.041 C 
ATOM      8  O   UNL     1      31.572  54.064  27.717  1.00  0.00    -0.550 OA
ATOM      9  O   UNL     1      33.780  53.610  28.129  1.00  0.00    -0.550 OA
ENDBRANCH   6   7
ENDBRANCH   5   6
ENDBRANCH   4   5
ENDBRANCH   3   4
ENDBRANCH   2   3
ENDBRANCH   1   2
BRANCH   1  10
ATOM     10  C   UNL     1      34.496  57.566  31.123  1.00  0.00     0.000 C 
BRANCH  10  11
ATOM     11  C   UNL     1      34.186  56.138  30.660  1.00  0.00    -0.000 C 
BRANCH  11  12
ATOM     12  C   UNL     1      32.828  55.667  31.202  1.00  0.00    -0.000 C 
BRANCH  12  13
ATOM     13  C   UNL     1      32.376  56.450  32.448  1.00  0.00    -0.000 C 
BRANCH  13  14
ATOM     14  C   UNL     1      32.211  55.605  33.728  1.00  0.00    -0.000 C 
BRANCH  14  15
ATOM     15  C   UNL     1      33.226  55.908  34.843  1.00  0.00    -0.003 C 
ATOM     16  C   UNL     1      34.064  57.154  34.563  1.00  0.00     0.004 C 
ENDBRANCH  14  15
ENDBRANCH  13  14
ENDBRANCH  12  13
ENDBRANCH  11  12
ENDBRANCH  10  11
ENDBRANCH   1  10
TORSDOF 12
ENDMDL
MODEL 6
REMARK VINA RESULT:    -4.699     11.471     13.346
REMARK INTER + INTRA:          -9.402
REMARK INTER:                  -7.998
REMARK INTRA:                  -1.404
REMARK UNBOUND:                -1.407
REMARK SMILES CCCCCCCCCCCCCC(=O)[O-]
REMARK SMILES IDX 8 1 9 2 10 3 11 4 12 5 13 6 14 7 15 8 16 9 7 10 6 11 5 12
REMARK SMILES IDX 4 13 3 14 2 15 1 16
REMARK H PARENT
REMARK Flexibility Score: inf
ROOT
ATOM      1  C   UNL     1      32.531  54.128  27.875  1.00  0.00     0.000 C 
ENDROOT
BRANCH   1   2
ATOM      2  C   UNL     1      33.048  54.019  29.315  1.00  0.00     0.000 C 
BRANCH   2   3
ATOM      3  C   UNL     1      32.903  55.355  30.054  1.00  0.00     0.000 C 
BRANCH   3   4
ATOM      4  C   UNL     1      32.990  55.155  31.574  1.00  0.00     0.000 C 
BRANCH   4   5
ATOM      5  C   UNL     1      32.431  56.346  32.373  1.00  0.00     0.006 C 
BRANCH   5   6
ATOM      6  C   UNL     1      33.280  56.732  33.597  1.00  0.00     0.053 C 
BRANCH   6   7
ATOM      7  C   UNL     1      33.438  55.604  34.571  1.00  0.00     0.041 C 
ATOM      8  O   UNL     1      32.448  55.187  35.227  1.00  0.00    -0.550 OA
ATOM      9  O   UNL     1      34.676  54.993  34.731  1.00  0.00    -0.550 OA
ENDBRANCH   6   7
ENDBRANCH   5   6
ENDBRANCH   4   5
ENDBRANCH   3   4
ENDBRANCH   2   3
ENDBRANCH   1   2
BRANCH   1  10
ATOM     10  C   UNL     1      31.811  55.463  27.648  1.00  0.00     0.000 C 
BRANCH  10  11
ATOM     11  C   UNL     1      32.306  56.144  26.367  1.00  0.00    -0.000 C 
BRANCH  11  12
ATOM     12  C   UNL     1      33.839  56.107  26.282  1.00  0.00    -0.000 C 
BRANCH  12  13
ATOM     13  C   UNL     1      34.510  57.259  27.052  1.00  0.00    -0.000 C 
BRANCH  13  14
ATOM     14  C   UNL     1      35.520  56.822  28.132  1.00  0.00    -0.000 C 
BRANCH  14  15
ATOM     15  C   UNL     1      36.049  57.958  29.024  1.00  0.00    -0.003 C 
ATOM     16  C   UNL     1      35.412  57.973  30.412  1.00  0.00     0.004 C 
ENDBRANCH  14  15
ENDBRANCH  13  14
ENDBRANCH  12  13
ENDBRANCH  11  12
ENDBRANCH  10  11
ENDBRANCH   1  10
TORSDOF 12
ENDMDL
MODEL 7
REMARK VINA RESULT:    -4.684     12.507     14.141
REMARK INTER + INTRA:          -9.377
REMARK INTER:                  -8.088
REMARK INTRA:                  -1.289
REMARK UNBOUND:                -1.407
REMARK SMILES CCCCCCCCCCCCCC(=O)[O-]
REMARK SMILES IDX 8 1 9 2 10 3 11 4 12 5 13 6 14 7 15 8 16 9 7 10 6 11 5 12
REMARK SMILES IDX 4 13 3 14 2 15 1 16
REMARK H PARENT
REMARK Flexibility Score: inf
ROOT
ATOM      1  C   UNL     1      35.248  58.206  30.943  1.00  0.00     0.000 C 
ENDROOT
BRANCH   1   2
ATOM      2  C   UNL     1      34.932  56.868  31.621  1.00  0.00     0.000 C 
BRANCH   2   3
ATOM      3  C   UNL     1      33.523  56.877  32.226  1.00  0.00     0.000 C 
BRANCH   3   4
ATOM      4  C   UNL     1      32.598  55.904  31.481  1.00  0.00     0.000 C 
BRANCH   4   5
ATOM      5  C   UNL     1      33.243  54.529  31.231  1.00  0.00     0.006 C 
BRANCH   5   6
ATOM      6  C   UNL     1      33.119  54.034  29.779  1.00  0.00     0.053 C 
BRANCH   6   7
ATOM      7  C   UNL     1      32.952  52.548  29.685  1.00  0.00     0.041 C 
ATOM      8  O   UNL     1      33.817  51.778  30.179  1.00  0.00    -0.550 OA
ATOM      9  O   UNL     1      31.822  52.013  29.079  1.00  0.00    -0.550 OA
ENDBRANCH   6   7
ENDBRANCH   5   6
ENDBRANCH   4   5
ENDBRANCH   3   4
ENDBRANCH   2   3
ENDBRANCH   1   2
BRANCH   1  10
ATOM     10  C   UNL     1      35.837  57.990  29.543  1.00  0.00     0.000 C 
BRANCH  10  11
ATOM     11  C   UNL     1      35.095  56.873  28.800  1.00  0.00    -0.000 C 
BRANCH  11  12
ATOM     12  C   UNL     1      35.627  56.717  27.368  1.00  0.00    -0.000 C 
BRANCH  12  13
ATOM     13  C   UNL     1      34.562  57.017  26.298  1.00  0.00    -0.000 C 
BRANCH  13  14
ATOM     14  C   UNL     1      33.159  56.449  26.595  1.00  0.00    -0.000 C 
BRANCH  14  15
ATOM     15  C   UNL     1      32.879  55.062  25.990  1.00  0.00    -0.003 C 
ATOM     16  C   UNL     1      31.516  54.502  26.391  1.00  0.00     0.004 C 
ENDBRANCH  14  15
ENDBRANCH  13  14
ENDBRANCH  12  13
ENDBRANCH  11  12
ENDBRANCH  10  11
ENDBRANCH   1  10
TORSDOF 12
ENDMDL
MODEL 8
REMARK VINA RESULT:    -4.617      1.198      2.155
REMARK INTER + INTRA:          -9.263
REMARK INTER:                  -8.200
REMARK INTRA:                  -1.063
REMARK UNBOUND:                -1.407
REMARK SMILES CCCCCCCCCCCCCC(=O)[O-]
REMARK SMILES IDX 8 1 9 2 10 3 11 4 12 5 13 6 14 7 15 8 16 9 7 10 6 11 5 12
REMARK SMILES IDX 4 13 3 14 2 15 1 16
REMARK H PARENT
REMARK Flexibility Score: inf
ROOT
ATOM      1  C   UNL     1      22.035  58.676  37.113  1.00  0.00     0.000 C 
ENDROOT
BRANCH   1   2
ATOM      2  C   UNL     1      22.763  59.902  37.676  1.00  0.00     0.000 C 
BRANCH   2   3
ATOM      3  C   UNL     1      22.433  60.105  39.160  1.00  0.00     0.000 C 
BRANCH   3   4
ATOM      4  C   UNL     1      21.939  58.798  39.797  1.00  0.00     0.000 C 
BRANCH   4   5
ATOM      5  C   UNL     1      20.512  58.904  40.365  1.00  0.00     0.006 C 
BRANCH   5   6
ATOM      6  C   UNL     1      19.515  57.911  39.740  1.00  0.00     0.053 C 
BRANCH   6   7
ATOM      7  C   UNL     1      20.011  56.497  39.768  1.00  0.00     0.041 C 
ATOM      8  O   UNL     1      20.288  55.899  38.696  1.00  0.00    -0.550 OA
ATOM      9  O   UNL     1      20.196  55.851  40.984  1.00  0.00    -0.550 OA
ENDBRANCH   6   7
ENDBRANCH   5   6
ENDBRANCH   4   5
ENDBRANCH   3   4
ENDBRANCH   2   3
ENDBRANCH   1   2
BRANCH   1  10
ATOM     10  C   UNL     1      22.359  58.476  35.627  1.00  0.00     0.000 C 
BRANCH  10  11
ATOM     11  C   UNL     1      23.614  59.261  35.227  1.00  0.00    -0.000 C 
BRANCH  11  12
ATOM     12  C   UNL     1      23.980  59.002  33.758  1.00  0.00    -0.000 C 
BRANCH  12  13
ATOM     13  C   UNL     1      23.861  57.518  33.364  1.00  0.00    -0.000 C 
BRANCH  13  14
ATOM     14  C   UNL     1      23.085  57.249  32.059  1.00  0.00    -0.000 C 
BRANCH  14  15
ATOM     15  C   UNL     1      21.737  56.530  32.241  1.00  0.00    -0.003 C 
ATOM     16  C   UNL     1      20.619  57.464  32.699  1.00  0.00     0.004 C 
ENDBRANCH  14  15
ENDBRANCH  13  14
ENDBRANCH  12  13
ENDBRANCH  11  12
ENDBRANCH  10  11
ENDBRANCH   1  10
TORSDOF 12
ENDMDL
MODEL 9
REMARK VINA RESULT:    -4.595     12.211     13.965
REMARK INTER + INTRA:          -9.225
REMARK INTER:                  -7.976
REMARK INTRA:                  -1.249
REMARK UNBOUND:                -1.407
REMARK SMILES CCCCCCCCCCCCCC(=O)[O-]
REMARK SMILES IDX 8 1 9 2 10 3 11 4 12 5 13 6 14 7 15 8 16 9 7 10 6 11 5 12
REMARK SMILES IDX 4 13 3 14 2 15 1 16
REMARK H PARENT
REMARK Flexibility Score: inf
ROOT
ATOM      1  C   UNL     1      32.970  53.791  29.587  1.00  0.00     0.000 C 
ENDROOT
BRANCH   1   2
ATOM      2  C   UNL     1      33.344  54.961  30.505  1.00  0.00     0.000 C 
BRANCH   2   3
ATOM      3  C   UNL     1      32.856  54.715  31.938  1.00  0.00     0.000 C 
BRANCH   3   4
ATOM      4  C   UNL     1      32.525  56.039  32.642  1.00  0.00     0.000 C 
BRANCH   4   5
ATOM      5  C   UNL     1      33.393  56.293  33.888  1.00  0.00     0.006 C 
BRANCH   5   6
ATOM      6  C   UNL     1      34.179  57.616  33.843  1.00  0.00     0.053 C 
BRANCH   6   7
ATOM      7  C   UNL     1      35.585  57.437  33.356  1.00  0.00     0.041 C 
ATOM      8  O   UNL     1      36.373  58.419  33.311  1.00  0.00    -0.550 OA
ATOM      9  O   UNL     1      36.036  56.177  32.982  1.00  0.00    -0.550 OA
ENDBRANCH   6   7
ENDBRANCH   5   6
ENDBRANCH   4   5
ENDBRANCH   3   4
ENDBRANCH   2   3
ENDBRANCH   1   2
BRANCH   1  10
ATOM     10  C   UNL     1      33.327  54.099  28.128  1.00  0.00     0.000 C 
BRANCH  10  11
ATOM     11  C   UNL     1      32.928  55.532  27.754  1.00  0.00    -0.000 C 
BRANCH  11  12
ATOM     12  C   UNL     1      33.633  55.980  26.465  1.00  0.00    -0.000 C 
BRANCH  12  13
ATOM     13  C   UNL     1      34.655  57.106  26.702  1.00  0.00    -0.000 C 
BRANCH  13  14
ATOM     14  C   UNL     1      35.914  56.691  27.490  1.00  0.00    -0.000 C 
BRANCH  14  15
ATOM     15  C   UNL     1      36.404  57.723  28.520  1.00  0.00    -0.003 C 
ATOM     16  C   UNL     1      35.513  57.800  29.758  1.00  0.00     0.004 C 
ENDBRANCH  14  15
ENDBRANCH  13  14
ENDBRANCH  12  13
ENDBRANCH  11  12
ENDBRANCH  10  11
ENDBRANCH   1  10
TORSDOF 12
ENDMDL
