MODEL 1
REMARK VINA RESULT:    -6.918      0.000      0.000
REMARK INTER + INTRA:         -10.500
REMARK INTER:                  -8.737
REMARK INTRA:                  -1.763
REMARK UNBOUND:                -1.763
REMARK SMILES CC(C)[C@@H](C)C=C[C@H](C)[C@H]1CC[C@H]2C3=CC=C4C[C@H](O)CC[C@]4(C)[C@H]3CC[C@@]12C
REMARK SMILES IDX 8 1 9 2 7 3 6 4 4 5 5 6 2 7 1 8 3 9 10 10 11 11 28 12 12 13
REMARK SMILES IDX 13 14 27 15 29 16 14 17 26 18 25 19 15 20 23 21 16 22 17 23
REMARK SMILES IDX 22 24 24 25 18 26 21 27 19 28 20 29
REMARK H PARENT 20 30
REMARK Flexibility Score: inf
ROOT
ATOM      1  C   UNL     1     117.952 124.650 130.092  1.00  0.00     0.012 C 
ATOM      2  C   UNL     1     118.913 125.462 130.980  1.00  0.00     0.012 C 
ENDROOT
BRANCH   1   3
ATOM      3  C   UNL     1     116.536 125.066 130.433  1.00  0.00    -0.028 C 
ATOM      4  C   UNL     1     115.503 124.221 130.623  1.00  0.00    -0.028 C 
BRANCH   4   5
ATOM      5  C   UNL     1     115.569 122.706 130.495  1.00  0.00     0.011 C 
ATOM      6  C   UNL     1     114.246 122.170 129.932  1.00  0.00     0.012 C 
BRANCH   5   7
ATOM      7  C   UNL     1     115.964 122.007 131.831  1.00  0.00    -0.011 C 
ATOM      8  C   UNL     1     114.778 121.226 132.421  1.00  0.00     0.008 C 
ATOM      9  C   UNL     1     117.201 121.096 131.728  1.00  0.00     0.008 C 
ENDBRANCH   5   7
ENDBRANCH   4   5
ENDBRANCH   1   3
BRANCH   1  10
ATOM     10  C   UNL     1     118.257 124.875 128.572  1.00  0.00     0.002 C 
ATOM     11  C   UNL     1     119.623 125.531 128.350  1.00  0.00     0.005 C 
ATOM     12  C   UNL     1     118.256 123.619 127.620  1.00  0.00    -0.023 C 
ATOM     13  C   UNL     1     119.918 125.330 126.881  1.00  0.00     0.009 C 
ATOM     14  C   UNL     1     119.353 123.947 126.541  1.00  0.00     0.021 C 
ATOM     15  C   UNL     1     118.583 122.284 128.377  1.00  0.00     0.008 C 
ATOM     16  C   UNL     1     116.879 123.467 126.927  1.00  0.00     0.012 C 
ATOM     17  C   UNL     1     120.364 122.813 126.428  1.00  0.00    -0.063 C 
ATOM     18  C   UNL     1     118.943 121.085 127.455  1.00  0.00     0.009 C 
ATOM     19  C   UNL     1     119.720 121.480 126.161  1.00  0.00     0.025 C 
ATOM     20  C   UNL     1     121.586 122.831 126.989  1.00  0.00    -0.000 C 
ATOM     21  C   UNL     1     120.747 120.407 125.635  1.00  0.00    -0.005 C 
ATOM     22  C   UNL     1     122.428 121.623 127.018  1.00  0.00    -0.000 C 
ATOM     23  C   UNL     1     122.063 120.486 126.399  1.00  0.00    -0.061 C 
ATOM     24  C   UNL     1     121.096 120.696 124.144  1.00  0.00     0.014 C 
ATOM     25  C   UNL     1     120.115 118.990 125.742  1.00  0.00     0.017 C 
ATOM     26  C   UNL     1     123.141 119.516 125.992  1.00  0.00     0.063 C 
ATOM     27  C   UNL     1     122.241 119.810 123.590  1.00  0.00     0.033 C 
ATOM     28  C   UNL     1     123.493 119.744 124.505  1.00  0.00     0.118 C 
BRANCH  28  29
ATOM     29  O   UNL     1     124.299 120.887 124.349  1.00  0.00    -0.393 OA
ATOM     30  H   UNL     1     124.892 120.740 123.568  1.00  0.00     0.210 HD
ENDBRANCH  28  29
ENDBRANCH   1  10
TORSDOF 5
ENDMDL
MODEL 2
REMARK VINA RESULT:    -6.802      4.355      7.390
REMARK INTER + INTRA:         -10.354
REMARK INTER:                  -9.441
REMARK INTRA:                  -0.914
REMARK UNBOUND:                -1.763
REMARK SMILES CC(C)[C@@H](C)C=C[C@H](C)[C@H]1CC[C@H]2C3=CC=C4C[C@H](O)CC[C@]4(C)[C@H]3CC[C@@]12C
REMARK SMILES IDX 8 1 9 2 7 3 6 4 4 5 5 6 2 7 1 8 3 9 10 10 11 11 28 12 12 13
REMARK SMILES IDX 13 14 27 15 29 16 14 17 26 18 25 19 15 20 23 21 16 22 17 23
REMARK SMILES IDX 22 24 24 25 18 26 21 27 19 28 20 29
REMARK H PARENT 20 30
REMARK Flexibility Score: inf
ROOT
ATOM      1  C   UNL     1     117.941 128.600 130.137  1.00  0.00     0.012 C 
ATOM      2  C   UNL     1     116.700 128.382 131.022  1.00  0.00     0.012 C 
ENDROOT
BRANCH   1   3
ATOM      3  C   UNL     1     118.829 129.620 130.819  1.00  0.00    -0.028 C 
ATOM      4  C   UNL     1     119.706 130.429 130.191  1.00  0.00    -0.028 C 
BRANCH   4   5
ATOM      5  C   UNL     1     119.982 130.436 128.695  1.00  0.00     0.011 C 
ATOM      6  C   UNL     1     121.127 129.468 128.370  1.00  0.00     0.012 C 
BRANCH   5   7
ATOM      7  C   UNL     1     120.251 131.868 128.141  1.00  0.00    -0.011 C 
ATOM      8  C   UNL     1     119.029 132.779 128.339  1.00  0.00     0.008 C 
ATOM      9  C   UNL     1     121.514 132.541 128.710  1.00  0.00     0.008 C 
ENDBRANCH   5   7
ENDBRANCH   4   5
ENDBRANCH   1   3
BRANCH   1  10
ATOM     10  C   UNL     1     118.708 127.256 129.893  1.00  0.00     0.002 C 
ATOM     11  C   UNL     1     118.806 126.410 131.166  1.00  0.00     0.005 C 
ATOM     12  C   UNL     1     118.150 126.271 128.797  1.00  0.00    -0.023 C 
ATOM     13  C   UNL     1     119.213 125.034 130.689  1.00  0.00     0.009 C 
ATOM     14  C   UNL     1     118.488 124.838 129.354  1.00  0.00     0.021 C 
ATOM     15  C   UNL     1     116.608 126.439 128.559  1.00  0.00     0.008 C 
ATOM     16  C   UNL     1     118.883 126.487 127.450  1.00  0.00     0.012 C 
ATOM     17  C   UNL     1     117.246 123.957 129.383  1.00  0.00    -0.063 C 
ATOM     18  C   UNL     1     115.942 125.278 127.767  1.00  0.00     0.009 C 
ATOM     19  C   UNL     1     116.557 123.873 128.048  1.00  0.00     0.025 C 
ATOM     20  C   UNL     1     116.527 123.700 130.490  1.00  0.00    -0.000 C 
ATOM     21  C   UNL     1     115.549 122.664 127.962  1.00  0.00    -0.005 C 
ATOM     22  C   UNL     1     115.225 123.015 130.410  1.00  0.00    -0.000 C 
ATOM     23  C   UNL     1     114.749 122.525 129.252  1.00  0.00    -0.061 C 
ATOM     24  C   UNL     1     116.337 121.330 127.799  1.00  0.00     0.014 C 
ATOM     25  C   UNL     1     114.615 122.856 126.734  1.00  0.00     0.017 C 
ATOM     26  C   UNL     1     113.748 121.401 129.309  1.00  0.00     0.063 C 
ATOM     27  C   UNL     1     115.446 120.065 127.895  1.00  0.00     0.033 C 
ATOM     28  C   UNL     1     114.483 120.057 129.113  1.00  0.00     0.118 C 
BRANCH  28  29
ATOM     29  O   UNL     1     115.155 119.675 130.290  1.00  0.00    -0.393 OA
ATOM     30  H   UNL     1     115.663 120.460 130.621  1.00  0.00     0.210 HD
ENDBRANCH  28  29
ENDBRANCH   1  10
TORSDOF 5
ENDMDL
MODEL 3
REMARK VINA RESULT:    -6.572      3.933      6.792
REMARK INTER + INTRA:         -10.064
REMARK INTER:                  -8.658
REMARK INTRA:                  -1.406
REMARK UNBOUND:                -1.763
REMARK SMILES CC(C)[C@@H](C)C=C[C@H](C)[C@H]1CC[C@H]2C3=CC=C4C[C@H](O)CC[C@]4(C)[C@H]3CC[C@@]12C
REMARK SMILES IDX 8 1 9 2 7 3 6 4 4 5 5 6 2 7 1 8 3 9 10 10 11 11 28 12 12 13
REMARK SMILES IDX 13 14 27 15 29 16 14 17 26 18 25 19 15 20 23 21 16 22 17 23
REMARK SMILES IDX 22 24 24 25 18 26 21 27 19 28 20 29
REMARK H PARENT 20 30
REMARK Flexibility Score: inf
ROOT
ATOM      1  C   UNL     1     116.876 120.389 129.095  1.00  0.00     0.012 C 
ATOM      2  C   UNL     1     117.904 119.290 128.769  1.00  0.00     0.012 C 
ENDROOT
BRANCH   1   3
ATOM      3  C   UNL     1     115.529 119.725 129.295  1.00  0.00    -0.028 C 
ATOM      4  C   UNL     1     114.373 120.130 128.732  1.00  0.00    -0.028 C 
BRANCH   4   5
ATOM      5  C   UNL     1     114.210 121.342 127.827  1.00  0.00     0.011 C 
ATOM      6  C   UNL     1     113.345 122.402 128.522  1.00  0.00     0.012 C 
BRANCH   5   7
ATOM      7  C   UNL     1     113.661 120.970 126.417  1.00  0.00    -0.011 C 
ATOM      8  C   UNL     1     113.664 122.189 125.480  1.00  0.00     0.008 C 
ATOM      9  C   UNL     1     114.383 119.785 125.748  1.00  0.00     0.008 C 
ENDBRANCH   5   7
ENDBRANCH   4   5
ENDBRANCH   1   3
BRANCH   1  10
ATOM     10  C   UNL     1     117.298 121.204 130.364  1.00  0.00     0.002 C 
ATOM     11  C   UNL     1     118.820 121.289 130.513  1.00  0.00     0.005 C 
ATOM     12  C   UNL     1     116.798 122.692 130.491  1.00  0.00    -0.023 C 
ATOM     13  C   UNL     1     119.052 122.389 131.523  1.00  0.00     0.009 C 
ATOM     14  C   UNL     1     117.968 123.433 131.240  1.00  0.00     0.021 C 
ATOM     15  C   UNL     1     116.505 123.355 129.099  1.00  0.00     0.008 C 
ATOM     16  C   UNL     1     115.510 122.760 131.350  1.00  0.00     0.012 C 
ATOM     17  C   UNL     1     118.407 124.674 130.474  1.00  0.00    -0.063 C 
ATOM     18  C   UNL     1     116.355 124.902 129.134  1.00  0.00     0.009 C 
ATOM     19  C   UNL     1     117.269 125.613 130.179  1.00  0.00     0.025 C 
ATOM     20  C   UNL     1     119.502 124.733 129.696  1.00  0.00    -0.000 C 
ATOM     21  C   UNL     1     117.763 127.054 129.776  1.00  0.00    -0.005 C 
ATOM     22  C   UNL     1     119.753 125.892 128.822  1.00  0.00    -0.000 C 
ATOM     23  C   UNL     1     118.963 126.981 128.839  1.00  0.00    -0.061 C 
ATOM     24  C   UNL     1     118.252 127.818 131.042  1.00  0.00     0.014 C 
ATOM     25  C   UNL     1     116.588 127.842 129.130  1.00  0.00     0.017 C 
ATOM     26  C   UNL     1     119.542 128.292 128.378  1.00  0.00     0.063 C 
ATOM     27  C   UNL     1     118.933 129.175 130.727  1.00  0.00     0.033 C 
ATOM     28  C   UNL     1     120.008 129.101 129.609  1.00  0.00     0.118 C 
BRANCH  28  29
ATOM     29  O   UNL     1     121.227 128.603 130.106  1.00  0.00    -0.393 OA
ATOM     30  H   UNL     1     121.261 127.630 129.917  1.00  0.00     0.210 HD
ENDBRANCH  28  29
ENDBRANCH   1  10
TORSDOF 5
ENDMDL
MODEL 4
REMARK VINA RESULT:    -6.533      4.276      7.099
REMARK INTER + INTRA:         -10.014
REMARK INTER:                  -8.268
REMARK INTRA:                  -1.746
REMARK UNBOUND:                -1.763
REMARK SMILES CC(C)[C@@H](C)C=C[C@H](C)[C@H]1CC[C@H]2C3=CC=C4C[C@H](O)CC[C@]4(C)[C@H]3CC[C@@]12C
REMARK SMILES IDX 8 1 9 2 7 3 6 4 4 5 5 6 2 7 1 8 3 9 10 10 11 11 28 12 12 13
REMARK SMILES IDX 13 14 27 15 29 16 14 17 26 18 25 19 15 20 23 21 16 22 17 23
REMARK SMILES IDX 22 24 24 25 18 26 21 27 19 28 20 29
REMARK H PARENT 20 30
REMARK Flexibility Score: inf
ROOT
ATOM      1  C   UNL     1     117.158 120.040 133.828  1.00  0.00     0.012 C 
ATOM      2  C   UNL     1     115.946 120.276 134.748  1.00  0.00     0.012 C 
ENDROOT
BRANCH   1   3
ATOM      3  C   UNL     1     117.808 118.734 134.236  1.00  0.00    -0.028 C 
ATOM      4  C   UNL     1     119.134 118.492 134.229  1.00  0.00    -0.028 C 
BRANCH   4   5
ATOM      5  C   UNL     1     120.206 119.472 133.778  1.00  0.00     0.011 C 
ATOM      6  C   UNL     1     121.341 118.718 133.070  1.00  0.00     0.012 C 
BRANCH   5   7
ATOM      7  C   UNL     1     120.733 120.364 134.941  1.00  0.00    -0.011 C 
ATOM      8  C   UNL     1     122.237 120.643 134.791  1.00  0.00     0.008 C 
ATOM      9  C   UNL     1     119.963 121.686 135.125  1.00  0.00     0.008 C 
ENDBRANCH   5   7
ENDBRANCH   4   5
ENDBRANCH   1   3
BRANCH   1  10
ATOM     10  C   UNL     1     116.729 120.012 132.322  1.00  0.00     0.002 C 
ATOM     11  C   UNL     1     115.300 120.524 132.120  1.00  0.00     0.005 C 
ATOM     12  C   UNL     1     117.597 120.825 131.287  1.00  0.00    -0.023 C 
ATOM     13  C   UNL     1     115.186 120.787 130.635  1.00  0.00     0.009 C 
ATOM     14  C   UNL     1     116.558 121.320 130.213  1.00  0.00     0.021 C 
ATOM     15  C   UNL     1     118.354 122.031 131.946  1.00  0.00     0.008 C 
ATOM     16  C   UNL     1     118.639 119.900 130.610  1.00  0.00     0.012 C 
ATOM     17  C   UNL     1     116.665 122.825 130.006  1.00  0.00    -0.063 C 
ATOM     18  C   UNL     1     118.930 123.066 130.938  1.00  0.00     0.009 C 
ATOM     19  C   UNL     1     118.059 123.272 129.661  1.00  0.00     0.025 C 
ATOM     20  C   UNL     1     115.822 123.724 130.545  1.00  0.00    -0.000 C 
ATOM     21  C   UNL     1     118.096 124.722 129.044  1.00  0.00    -0.005 C 
ATOM     22  C   UNL     1     116.104 125.168 130.477  1.00  0.00    -0.000 C 
ATOM     23  C   UNL     1     117.150 125.657 129.788  1.00  0.00    -0.061 C 
ATOM     24  C   UNL     1     117.591 124.682 127.571  1.00  0.00     0.014 C 
ATOM     25  C   UNL     1     119.556 125.257 129.067  1.00  0.00     0.017 C 
ATOM     26  C   UNL     1     117.081 127.080 129.297  1.00  0.00     0.063 C 
ATOM     27  C   UNL     1     117.410 126.085 126.937  1.00  0.00     0.033 C 
ATOM     28  C   UNL     1     116.619 127.085 127.823  1.00  0.00     0.118 C 
BRANCH  28  29
ATOM     29  O   UNL     1     115.233 126.862 127.730  1.00  0.00    -0.393 OA
ATOM     30  H   UNL     1     115.038 125.971 128.119  1.00  0.00     0.210 HD
ENDBRANCH  28  29
ENDBRANCH   1  10
TORSDOF 5
ENDMDL
MODEL 5
REMARK VINA RESULT:    -6.516      2.116      4.409
REMARK INTER + INTRA:          -9.993
REMARK INTER:                  -8.272
REMARK INTRA:                  -1.721
REMARK UNBOUND:                -1.763
REMARK SMILES CC(C)[C@@H](C)C=C[C@H](C)[C@H]1CC[C@H]2C3=CC=C4C[C@H](O)CC[C@]4(C)[C@H]3CC[C@@]12C
REMARK SMILES IDX 8 1 9 2 7 3 6 4 4 5 5 6 2 7 1 8 3 9 10 10 11 11 28 12 12 13
REMARK SMILES IDX 13 14 27 15 29 16 14 17 26 18 25 19 15 20 23 21 16 22 17 23
REMARK SMILES IDX 22 24 24 25 18 26 21 27 19 28 20 29
REMARK H PARENT 20 30
REMARK Flexibility Score: inf
ROOT
ATOM      1  C   UNL     1     115.489 119.970 128.465  1.00  0.00     0.012 C 
ATOM      2  C   UNL     1     114.880 119.800 127.061  1.00  0.00     0.012 C 
ENDROOT
BRANCH   1   3
ATOM      3  C   UNL     1     114.381 119.792 129.481  1.00  0.00    -0.028 C 
ATOM      4  C   UNL     1     114.359 120.344 130.711  1.00  0.00    -0.028 C 
BRANCH   4   5
ATOM      5  C   UNL     1     115.458 121.213 131.306  1.00  0.00     0.011 C 
ATOM      6  C   UNL     1     115.607 120.915 132.805  1.00  0.00     0.012 C 
BRANCH   5   7
ATOM      7  C   UNL     1     115.241 122.730 131.030  1.00  0.00    -0.011 C 
ATOM      8  C   UNL     1     116.223 123.248 129.967  1.00  0.00     0.008 C 
ATOM      9  C   UNL     1     113.797 123.104 130.645  1.00  0.00     0.008 C 
ENDBRANCH   5   7
ENDBRANCH   4   5
ENDBRANCH   1   3
BRANCH   1  10
ATOM     10  C   UNL     1     116.649 118.945 128.708  1.00  0.00     0.002 C 
ATOM     11  C   UNL     1     116.664 117.832 127.655  1.00  0.00     0.005 C 
ATOM     12  C   UNL     1     118.127 119.489 128.738  1.00  0.00    -0.023 C 
ATOM     13  C   UNL     1     118.019 117.177 127.800  1.00  0.00     0.009 C 
ATOM     14  C   UNL     1     118.986 118.317 128.131  1.00  0.00     0.021 C 
ATOM     15  C   UNL     1     118.304 120.811 127.911  1.00  0.00     0.008 C 
ATOM     16  C   UNL     1     118.576 119.757 130.196  1.00  0.00     0.012 C 
ATOM     17  C   UNL     1     119.860 118.816 126.989  1.00  0.00    -0.063 C 
ATOM     18  C   UNL     1     119.780 121.197 127.610  1.00  0.00     0.009 C 
ATOM     19  C   UNL     1     120.729 119.980 127.382  1.00  0.00     0.025 C 
ATOM     20  C   UNL     1     119.572 118.646 125.686  1.00  0.00    -0.000 C 
ATOM     21  C   UNL     1     121.910 120.224 126.367  1.00  0.00    -0.005 C 
ATOM     22  C   UNL     1     120.347 119.333 124.639  1.00  0.00    -0.000 C 
ATOM     23  C   UNL     1     121.435 120.070 124.927  1.00  0.00    -0.061 C 
ATOM     24  C   UNL     1     123.015 119.146 126.573  1.00  0.00     0.014 C 
ATOM     25  C   UNL     1     122.521 121.632 126.613  1.00  0.00     0.017 C 
ATOM     26  C   UNL     1     122.468 120.271 123.849  1.00  0.00     0.063 C 
ATOM     27  C   UNL     1     124.131 119.185 125.498  1.00  0.00     0.033 C 
ATOM     28  C   UNL     1     123.605 119.244 124.038  1.00  0.00     0.118 C 
BRANCH  28  29
ATOM     29  O   UNL     1     123.212 117.970 123.587  1.00  0.00    -0.393 OA
ATOM     30  H   UNL     1     123.382 117.320 124.316  1.00  0.00     0.210 HD
ENDBRANCH  28  29
ENDBRANCH   1  10
TORSDOF 5
ENDMDL
MODEL 6
REMARK VINA RESULT:    -6.466      1.590      2.044
REMARK INTER + INTRA:          -9.929
REMARK INTER:                  -8.152
REMARK INTRA:                  -1.778
REMARK UNBOUND:                -1.763
REMARK SMILES CC(C)[C@@H](C)C=C[C@H](C)[C@H]1CC[C@H]2C3=CC=C4C[C@H](O)CC[C@]4(C)[C@H]3CC[C@@]12C
REMARK SMILES IDX 8 1 9 2 7 3 6 4 4 5 5 6 2 7 1 8 3 9 10 10 11 11 28 12 12 13
REMARK SMILES IDX 13 14 27 15 29 16 14 17 26 18 25 19 15 20 23 21 16 22 17 23
REMARK SMILES IDX 22 24 24 25 18 26 21 27 19 28 20 29
REMARK H PARENT 20 30
REMARK Flexibility Score: inf
ROOT
ATOM      1  C   UNL     1     116.405 124.196 130.080  1.00  0.00     0.012 C 
ATOM      2  C   UNL     1     116.634 125.643 130.553  1.00  0.00     0.012 C 
ENDROOT
BRANCH   1   3
ATOM      3  C   UNL     1     114.940 123.865 130.279  1.00  0.00    -0.028 C 
ATOM      4  C   UNL     1     114.465 122.688 130.734  1.00  0.00    -0.028 C 
BRANCH   4   5
ATOM      5  C   UNL     1     115.312 121.476 131.094  1.00  0.00     0.011 C 
ATOM      6  C   UNL     1     114.573 120.188 130.708  1.00  0.00     0.012 C 
BRANCH   5   7
ATOM      7  C   UNL     1     115.752 121.474 132.589  1.00  0.00    -0.011 C 
ATOM      8  C   UNL     1     114.897 120.502 133.418  1.00  0.00     0.008 C 
ATOM      9  C   UNL     1     117.249 121.185 132.809  1.00  0.00     0.008 C 
ENDBRANCH   5   7
ENDBRANCH   4   5
ENDBRANCH   1   3
BRANCH   1  10
ATOM     10  C   UNL     1     116.828 124.014 128.583  1.00  0.00     0.002 C 
ATOM     11  C   UNL     1     117.639 125.205 128.065  1.00  0.00     0.005 C 
ATOM     12  C   UNL     1     117.685 122.748 128.202  1.00  0.00    -0.023 C 
ATOM     13  C   UNL     1     118.273 124.717 126.782  1.00  0.00     0.009 C 
ATOM     14  C   UNL     1     118.618 123.247 127.036  1.00  0.00     0.021 C 
ATOM     15  C   UNL     1     118.525 122.199 129.408  1.00  0.00     0.008 C 
ATOM     16  C   UNL     1     116.771 121.612 127.681  1.00  0.00     0.012 C 
ATOM     17  C   UNL     1     120.079 122.937 127.336  1.00  0.00    -0.063 C 
ATOM     18  C   UNL     1     119.643 121.191 129.016  1.00  0.00     0.009 C 
ATOM     19  C   UNL     1     120.319 121.483 127.641  1.00  0.00     0.025 C 
ATOM     20  C   UNL     1     120.964 123.840 127.795  1.00  0.00    -0.000 C 
ATOM     21  C   UNL     1     121.840 121.085 127.536  1.00  0.00    -0.005 C 
ATOM     22  C   UNL     1     122.299 123.427 128.261  1.00  0.00    -0.000 C 
ATOM     23  C   UNL     1     122.730 122.157 128.153  1.00  0.00    -0.061 C 
ATOM     24  C   UNL     1     122.258 120.987 126.039  1.00  0.00     0.014 C 
ATOM     25  C   UNL     1     122.061 119.705 128.217  1.00  0.00     0.017 C 
ATOM     26  C   UNL     1     124.215 121.907 128.116  1.00  0.00     0.063 C 
ATOM     27  C   UNL     1     123.782 120.787 125.830  1.00  0.00     0.033 C 
ATOM     28  C   UNL     1     124.669 121.766 126.646  1.00  0.00     0.118 C 
BRANCH  28  29
ATOM     29  O   UNL     1     124.746 123.024 126.021  1.00  0.00    -0.393 OA
ATOM     30  H   UNL     1     124.582 123.720 126.708  1.00  0.00     0.210 HD
ENDBRANCH  28  29
ENDBRANCH   1  10
TORSDOF 5
ENDMDL
MODEL 7
REMARK VINA RESULT:    -6.387      2.830      5.230
REMARK INTER + INTRA:          -9.830
REMARK INTER:                  -8.022
REMARK INTRA:                  -1.808
REMARK UNBOUND:                -1.763
REMARK SMILES CC(C)[C@@H](C)C=C[C@H](C)[C@H]1CC[C@H]2C3=CC=C4C[C@H](O)CC[C@]4(C)[C@H]3CC[C@@]12C
REMARK SMILES IDX 8 1 9 2 7 3 6 4 4 5 5 6 2 7 1 8 3 9 10 10 11 11 28 12 12 13
REMARK SMILES IDX 13 14 27 15 29 16 14 17 26 18 25 19 15 20 23 21 16 22 17 23
REMARK SMILES IDX 22 24 24 25 18 26 21 27 19 28 20 29
REMARK H PARENT 20 30
REMARK Flexibility Score: inf
ROOT
ATOM      1  C   UNL     1     115.179 123.136 128.373  1.00  0.00     0.012 C 
ATOM      2  C   UNL     1     113.932 123.345 127.495  1.00  0.00     0.012 C 
ENDROOT
BRANCH   1   3
ATOM      3  C   UNL     1     115.230 124.260 129.388  1.00  0.00    -0.028 C 
ATOM      4  C   UNL     1     116.326 124.984 129.690  1.00  0.00    -0.028 C 
BRANCH   4   5
ATOM      5  C   UNL     1     117.710 124.777 129.092  1.00  0.00     0.011 C 
ATOM      6  C   UNL     1     118.784 125.014 130.163  1.00  0.00     0.012 C 
BRANCH   5   7
ATOM      7  C   UNL     1     117.951 125.645 127.820  1.00  0.00    -0.011 C 
ATOM      8  C   UNL     1     117.988 124.775 126.553  1.00  0.00     0.008 C 
ATOM      9  C   UNL     1     116.948 126.800 127.643  1.00  0.00     0.008 C 
ENDBRANCH   5   7
ENDBRANCH   4   5
ENDBRANCH   1   3
BRANCH   1  10
ATOM     10  C   UNL     1     115.149 121.738 129.078  1.00  0.00     0.002 C 
ATOM     11  C   UNL     1     114.362 120.702 128.270  1.00  0.00     0.005 C 
ATOM     12  C   UNL     1     116.523 121.038 129.399  1.00  0.00    -0.023 C 
ATOM     13  C   UNL     1     114.743 119.368 128.870  1.00  0.00     0.009 C 
ATOM     14  C   UNL     1     116.222 119.500 129.244  1.00  0.00     0.021 C 
ATOM     15  C   UNL     1     117.675 121.493 128.435  1.00  0.00     0.008 C 
ATOM     16  C   UNL     1     116.955 121.335 130.857  1.00  0.00     0.012 C 
ATOM     17  C   UNL     1     117.220 118.842 128.300  1.00  0.00    -0.063 C 
ATOM     18  C   UNL     1     118.942 120.592 128.466  1.00  0.00     0.009 C 
ATOM     19  C   UNL     1     118.650 119.079 128.702  1.00  0.00     0.025 C 
ATOM     20  C   UNL     1     116.959 118.540 127.015  1.00  0.00    -0.000 C 
ATOM     21  C   UNL     1     119.649 118.080 128.002  1.00  0.00    -0.005 C 
ATOM     22  C   UNL     1     118.030 118.100 126.105  1.00  0.00    -0.000 C 
ATOM     23  C   UNL     1     119.285 117.879 126.536  1.00  0.00    -0.061 C 
ATOM     24  C   UNL     1     119.545 116.676 128.668  1.00  0.00     0.014 C 
ATOM     25  C   UNL     1     121.103 118.609 128.157  1.00  0.00     0.017 C 
ATOM     26  C   UNL     1     120.158 116.940 125.745  1.00  0.00     0.063 C 
ATOM     27  C   UNL     1     120.349 115.575 127.929  1.00  0.00     0.033 C 
ATOM     28  C   UNL     1     120.113 115.539 126.395  1.00  0.00     0.118 C 
BRANCH  28  29
ATOM     29  O   UNL     1     118.912 114.876 126.079  1.00  0.00    -0.393 OA
ATOM     30  H   UNL     1     118.425 114.704 126.926  1.00  0.00     0.210 HD
ENDBRANCH  28  29
ENDBRANCH   1  10
TORSDOF 5
ENDMDL
MODEL 8
REMARK VINA RESULT:    -6.371      2.986      5.588
REMARK INTER + INTRA:          -9.810
REMARK INTER:                  -8.230
REMARK INTRA:                  -1.580
REMARK UNBOUND:                -1.763
REMARK SMILES CC(C)[C@@H](C)C=C[C@H](C)[C@H]1CC[C@H]2C3=CC=C4C[C@H](O)CC[C@]4(C)[C@H]3CC[C@@]12C
REMARK SMILES IDX 8 1 9 2 7 3 6 4 4 5 5 6 2 7 1 8 3 9 10 10 11 11 28 12 12 13
REMARK SMILES IDX 13 14 27 15 29 16 14 17 26 18 25 19 15 20 23 21 16 22 17 23
REMARK SMILES IDX 22 24 24 25 18 26 21 27 19 28 20 29
REMARK H PARENT 20 30
REMARK Flexibility Score: inf
ROOT
ATOM      1  C   UNL     1     115.938 123.909 129.930  1.00  0.00     0.012 C 
ATOM      2  C   UNL     1     114.413 123.844 129.731  1.00  0.00     0.012 C 
ENDROOT
BRANCH   1   3
ATOM      3  C   UNL     1     116.264 125.209 130.635  1.00  0.00    -0.028 C 
ATOM      4  C   UNL     1     117.319 126.000 130.357  1.00  0.00    -0.028 C 
BRANCH   4   5
ATOM      5  C   UNL     1     118.387 125.710 129.313  1.00  0.00     0.011 C 
ATOM      6  C   UNL     1     119.774 125.707 129.969  1.00  0.00     0.012 C 
BRANCH   5   7
ATOM      7  C   UNL     1     118.317 126.680 128.095  1.00  0.00    -0.011 C 
ATOM      8  C   UNL     1     119.534 126.504 127.173  1.00  0.00     0.008 C 
ATOM      9  C   UNL     1     117.014 126.580 127.280  1.00  0.00     0.008 C 
ENDBRANCH   5   7
ENDBRANCH   4   5
ENDBRANCH   1   3
BRANCH   1  10
ATOM     10  C   UNL     1     116.457 122.677 130.748  1.00  0.00     0.002 C 
ATOM     11  C   UNL     1     115.344 121.662 131.027  1.00  0.00     0.005 C 
ATOM     12  C   UNL     1     117.636 121.826 130.142  1.00  0.00    -0.023 C 
ATOM     13  C   UNL     1     116.064 120.407 131.466  1.00  0.00     0.009 C 
ATOM     14  C   UNL     1     117.341 120.355 130.622  1.00  0.00     0.021 C 
ATOM     15  C   UNL     1     117.703 121.911 128.577  1.00  0.00     0.008 C 
ATOM     16  C   UNL     1     118.995 122.294 130.720  1.00  0.00     0.012 C 
ATOM     17  C   UNL     1     117.335 119.389 129.445  1.00  0.00    -0.063 C 
ATOM     18  C   UNL     1     118.601 120.833 127.905  1.00  0.00     0.009 C 
ATOM     19  C   UNL     1     118.598 119.452 128.629  1.00  0.00     0.025 C 
ATOM     20  C   UNL     1     116.220 118.917 128.859  1.00  0.00    -0.000 C 
ATOM     21  C   UNL     1     118.777 118.197 127.693  1.00  0.00    -0.005 C 
ATOM     22  C   UNL     1     116.285 118.156 127.600  1.00  0.00    -0.000 C 
ATOM     23  C   UNL     1     117.457 117.809 127.038  1.00  0.00    -0.061 C 
ATOM     24  C   UNL     1     119.216 116.965 128.540  1.00  0.00     0.014 C 
ATOM     25  C   UNL     1     119.871 118.498 126.629  1.00  0.00     0.017 C 
ATOM     26  C   UNL     1     117.483 116.617 126.118  1.00  0.00     0.063 C 
ATOM     27  C   UNL     1     119.236 115.636 127.741  1.00  0.00     0.033 C 
ATOM     28  C   UNL     1     117.951 115.375 126.910  1.00  0.00     0.118 C 
BRANCH  28  29
ATOM     29  O   UNL     1     116.914 114.876 127.720  1.00  0.00    -0.393 OA
ATOM     30  H   UNL     1     117.325 114.416 128.496  1.00  0.00     0.210 HD
ENDBRANCH  28  29
ENDBRANCH   1  10
TORSDOF 5
ENDMDL
MODEL 9
REMARK VINA RESULT:    -6.343      4.548      6.630
REMARK INTER + INTRA:          -9.774
REMARK INTER:                  -8.056
REMARK INTRA:                  -1.718
REMARK UNBOUND:                -1.763
REMARK SMILES CC(C)[C@@H](C)C=C[C@H](C)[C@H]1CC[C@H]2C3=CC=C4C[C@H](O)CC[C@]4(C)[C@H]3CC[C@@]12C
REMARK SMILES IDX 8 1 9 2 7 3 6 4 4 5 5 6 2 7 1 8 3 9 10 10 11 11 28 12 12 13
REMARK SMILES IDX 13 14 27 15 29 16 14 17 26 18 25 19 15 20 23 21 16 22 17 23
REMARK SMILES IDX 22 24 24 25 18 26 21 27 19 28 20 29
REMARK H PARENT 20 30
REMARK Flexibility Score: inf
ROOT
ATOM      1  C   UNL     1     114.597 120.955 131.379  1.00  0.00     0.012 C 
ATOM      2  C   UNL     1     113.627 120.120 132.234  1.00  0.00     0.012 C 
ENDROOT
BRANCH   1   3
ATOM      3  C   UNL     1     113.789 122.004 130.644  1.00  0.00    -0.028 C 
ATOM      4  C   UNL     1     113.924 122.313 129.338  1.00  0.00    -0.028 C 
BRANCH   4   5
ATOM      5  C   UNL     1     114.933 121.690 128.385  1.00  0.00     0.011 C 
ATOM      6  C   UNL     1     115.298 122.692 127.281  1.00  0.00     0.012 C 
BRANCH   5   7
ATOM      7  C   UNL     1     114.448 120.328 127.803  1.00  0.00    -0.011 C 
ATOM      8  C   UNL     1     113.998 120.478 126.340  1.00  0.00     0.008 C 
ATOM      9  C   UNL     1     115.472 119.185 127.929  1.00  0.00     0.008 C 
ENDBRANCH   5   7
ENDBRANCH   4   5
ENDBRANCH   1   3
BRANCH   1  10
ATOM     10  C   UNL     1     115.709 121.616 132.263  1.00  0.00     0.002 C 
ATOM     11  C   UNL     1     115.735 121.039 133.682  1.00  0.00     0.005 C 
ATOM     12  C   UNL     1     117.202 121.530 131.767  1.00  0.00    -0.023 C 
ATOM     13  C   UNL     1     117.058 121.485 134.260  1.00  0.00     0.009 C 
ATOM     14  C   UNL     1     118.047 121.436 133.092  1.00  0.00     0.021 C 
ATOM     15  C   UNL     1     117.461 120.292 130.838  1.00  0.00     0.008 C 
ATOM     16  C   UNL     1     117.591 122.816 130.996  1.00  0.00     0.012 C 
ATOM     17  C   UNL     1     118.990 120.241 133.054  1.00  0.00    -0.063 C 
ATOM     18  C   UNL     1     118.962 119.955 130.609  1.00  0.00     0.009 C 
ATOM     19  C   UNL     1     119.879 120.235 131.839  1.00  0.00     0.025 C 
ATOM     20  C   UNL     1     118.757 119.074 133.680  1.00  0.00    -0.000 C 
ATOM     21  C   UNL     1     121.113 119.268 131.997  1.00  0.00    -0.005 C 
ATOM     22  C   UNL     1     119.604 117.895 133.431  1.00  0.00    -0.000 C 
ATOM     23  C   UNL     1     120.701 117.956 132.656  1.00  0.00    -0.061 C 
ATOM     24  C   UNL     1     122.170 119.911 132.944  1.00  0.00     0.014 C 
ATOM     25  C   UNL     1     121.760 119.023 130.605  1.00  0.00     0.017 C 
ATOM     26  C   UNL     1     121.789 116.938 132.874  1.00  0.00     0.063 C 
ATOM     27  C   UNL     1     123.336 118.958 133.314  1.00  0.00     0.033 C 
ATOM     28  C   UNL     1     122.881 117.549 133.780  1.00  0.00     0.118 C 
BRANCH  28  29
ATOM     29  O   UNL     1     122.466 117.567 135.125  1.00  0.00    -0.393 OA
ATOM     30  H   UNL     1     121.777 118.273 135.224  1.00  0.00     0.210 HD
ENDBRANCH  28  29
ENDBRANCH   1  10
TORSDOF 5
ENDMDL
