MODEL 1
REMARK VINA RESULT:     3.058      0.000      0.000
REMARK INTER + INTRA:           3.999
REMARK INTER:                   3.773
REMARK INTRA:                   0.226
REMARK UNBOUND:                 0.226
REMARK SMILES COC(=O)c1ccccc1C(=O)OC
REMARK SMILES IDX 5 1 6 2 7 3 8 4 9 5 10 6 3 7 4 8 2 9 1 10 11 11 12 12 13 13
REMARK SMILES IDX 14 14
REMARK H PARENT
REMARK Flexibility Score: inf
ROOT
ATOM      1  C   UNL     1      94.341  16.477 119.119  1.00  0.00     0.074 A 
ATOM      2  C   UNL     1      95.205  17.400 118.500  1.00  0.00     0.016 A 
ATOM      3  C   UNL     1      96.508  17.580 118.966  1.00  0.00     0.001 A 
ATOM      4  C   UNL     1      96.968  16.844 120.057  1.00  0.00     0.001 A 
ATOM      5  C   UNL     1      96.134  15.909 120.671  1.00  0.00     0.016 A 
ATOM      6  C   UNL     1      94.825  15.694 120.203  1.00  0.00     0.074 A 
ENDROOT
BRANCH   1   7
ATOM      7  C   UNL     1      92.935  16.416 118.656  1.00  0.00     0.338 C 
ATOM      8  O   UNL     1      92.656  15.823 117.577  1.00  0.00    -0.246 OA
BRANCH   7   9
ATOM      9  O   UNL     1      91.930  17.062 119.383  1.00  0.00    -0.465 OA
ATOM     10  C   UNL     1      91.754  18.473 119.364  1.00  0.00     0.282 C 
ENDBRANCH   7   9
ENDBRANCH   1   7
BRANCH   6  11
ATOM     11  C   UNL     1      94.036  14.608 120.827  1.00  0.00     0.338 C 
ATOM     12  O   UNL     1      92.815  14.782 121.095  1.00  0.00    -0.246 OA
BRANCH  11  13
ATOM     13  O   UNL     1      94.638  13.368 121.067  1.00  0.00    -0.465 OA
ATOM     14  C   UNL     1      93.916  12.143 121.016  1.00  0.00     0.282 C 
ENDBRANCH  11  13
ENDBRANCH   6  11
TORSDOF 4
ENDMDL
MODEL 2
REMARK VINA RESULT:     3.632      1.547      4.458
REMARK INTER + INTRA:           4.707
REMARK INTER:                   4.378
REMARK INTRA:                   0.328
REMARK UNBOUND:                 0.226
REMARK SMILES COC(=O)c1ccccc1C(=O)OC
REMARK SMILES IDX 5 1 6 2 7 3 8 4 9 5 10 6 3 7 4 8 2 9 1 10 11 11 12 12 13 13
REMARK SMILES IDX 14 14
REMARK H PARENT
REMARK Flexibility Score: inf
ROOT
ATOM      1  C   UNL     1      93.015  16.240 120.343  1.00  0.00     0.074 A 
ATOM      2  C   UNL     1      91.931  16.682 121.125  1.00  0.00     0.016 A 
ATOM      3  C   UNL     1      91.150  17.763 120.714  1.00  0.00     0.001 A 
ATOM      4  C   UNL     1      91.440  18.421 119.521  1.00  0.00     0.001 A 
ATOM      5  C   UNL     1      92.497  17.985 118.721  1.00  0.00     0.016 A 
ATOM      6  C   UNL     1      93.283  16.883 119.103  1.00  0.00     0.074 A 
ENDROOT
BRANCH   1   7
ATOM      7  C   UNL     1      93.877  15.166 120.887  1.00  0.00     0.338 C 
ATOM      8  O   UNL     1      95.104  15.387 121.087  1.00  0.00    -0.246 OA
BRANCH   7   9
ATOM      9  O   UNL     1      93.346  13.894 121.125  1.00  0.00    -0.465 OA
ATOM     10  C   UNL     1      94.115  12.704 120.996  1.00  0.00     0.282 C 
ENDBRANCH   7   9
ENDBRANCH   1   7
BRANCH   6  11
ATOM     11  C   UNL     1      94.313  16.404 118.154  1.00  0.00     0.338 C 
ATOM     12  O   UNL     1      94.052  15.467 117.351  1.00  0.00    -0.246 OA
BRANCH  11  13
ATOM     13  O   UNL     1      95.561  17.035 118.115  1.00  0.00    -0.465 OA
ATOM     14  C   UNL     1      96.483  16.979 119.197  1.00  0.00     0.282 C 
ENDBRANCH  11  13
ENDBRANCH   6  11
TORSDOF 4
ENDMDL
MODEL 3
REMARK VINA RESULT:     3.642      1.864      3.656
REMARK INTER + INTRA:           4.719
REMARK INTER:                   4.425
REMARK INTRA:                   0.294
REMARK UNBOUND:                 0.226
REMARK SMILES COC(=O)c1ccccc1C(=O)OC
REMARK SMILES IDX 5 1 6 2 7 3 8 4 9 5 10 6 3 7 4 8 2 9 1 10 11 11 12 12 13 13
REMARK SMILES IDX 14 14
REMARK H PARENT
REMARK Flexibility Score: inf
ROOT
ATOM      1  C   UNL     1      93.252  15.633 120.379  1.00  0.00     0.074 A 
ATOM      2  C   UNL     1      92.474  14.596 120.928  1.00  0.00     0.016 A 
ATOM      3  C   UNL     1      93.016  13.325 121.123  1.00  0.00     0.001 A 
ATOM      4  C   UNL     1      94.339  13.068 120.771  1.00  0.00     0.001 A 
ATOM      5  C   UNL     1      95.133  14.088 120.245  1.00  0.00     0.016 A 
ATOM      6  C   UNL     1      94.615  15.383 120.062  1.00  0.00     0.074 A 
ENDROOT
BRANCH   1   7
ATOM      7  C   UNL     1      92.589  16.925 120.087  1.00  0.00     0.338 C 
ATOM      8  O   UNL     1      92.584  17.374 118.907  1.00  0.00    -0.246 OA
BRANCH   7   9
ATOM      9  O   UNL     1      92.020  17.671 121.124  1.00  0.00    -0.465 OA
ATOM     10  C   UNL     1      90.727  18.256 121.030  1.00  0.00     0.282 C 
ENDBRANCH   7   9
ENDBRANCH   1   7
BRANCH   6  11
ATOM     11  C   UNL     1      95.543  16.443 119.607  1.00  0.00     0.338 C 
ATOM     12  O   UNL     1      95.378  16.996 118.485  1.00  0.00    -0.246 OA
BRANCH  11  13
ATOM     13  O   UNL     1      96.573  16.868 120.454  1.00  0.00    -0.465 OA
ATOM     14  C   UNL     1      97.662  17.661 119.998  1.00  0.00     0.282 C 
ENDBRANCH  11  13
ENDBRANCH   6  11
TORSDOF 4
ENDMDL
MODEL 4
REMARK VINA RESULT:     3.870      1.504      3.180
REMARK INTER + INTRA:           5.000
REMARK INTER:                   4.981
REMARK INTRA:                   0.020
REMARK UNBOUND:                 0.226
REMARK SMILES COC(=O)c1ccccc1C(=O)OC
REMARK SMILES IDX 5 1 6 2 7 3 8 4 9 5 10 6 3 7 4 8 2 9 1 10 11 11 12 12 13 13
REMARK SMILES IDX 14 14
REMARK H PARENT
REMARK Flexibility Score: inf
ROOT
ATOM      1  C   UNL     1      93.229  16.953 118.988  1.00  0.00     0.074 A 
ATOM      2  C   UNL     1      92.437  18.048 118.592  1.00  0.00     0.016 A 
ATOM      3  C   UNL     1      91.465  18.570 119.446  1.00  0.00     0.001 A 
ATOM      4  C   UNL     1      91.265  18.008 120.705  1.00  0.00     0.001 A 
ATOM      5  C   UNL     1      92.054  16.936 121.125  1.00  0.00     0.016 A 
ATOM      6  C   UNL     1      93.056  16.408 120.290  1.00  0.00     0.074 A 
ENDROOT
BRANCH   1   7
ATOM      7  C   UNL     1      94.161  16.369 117.996  1.00  0.00     0.338 C 
ATOM      8  O   UNL     1      93.827  15.333 117.356  1.00  0.00    -0.246 OA
BRANCH   7   9
ATOM      9  O   UNL     1      95.429  16.930 117.811  1.00  0.00    -0.465 OA
ATOM     10  C   UNL     1      96.259  17.326 118.896  1.00  0.00     0.282 C 
ENDBRANCH   7   9
ENDBRANCH   1   7
BRANCH   6  11
ATOM     11  C   UNL     1      93.930  15.349 120.842  1.00  0.00     0.338 C 
ATOM     12  O   UNL     1      95.135  15.599 121.120  1.00  0.00    -0.246 OA
BRANCH  11  13
ATOM     13  O   UNL     1      93.397  14.082 121.105  1.00  0.00    -0.465 OA
ATOM     14  C   UNL     1      94.188  12.899 121.090  1.00  0.00     0.282 C 
ENDBRANCH  11  13
ENDBRANCH   6  11
TORSDOF 4
ENDMDL
