MODEL 1
REMARK VINA RESULT:    -3.979      0.000      0.000
REMARK INTER + INTRA:          -9.598
REMARK INTER:                  -7.236
REMARK INTRA:                  -2.362
REMARK UNBOUND:                -2.362
REMARK SMILES CCCCCCCCCCCCCC[C@H](C)C(=O)[O-]
REMARK SMILES IDX 9 1 10 2 11 3 12 4 13 5 14 6 15 7 16 8 17 9 18 10 19 11 8 12
REMARK SMILES IDX 7 13 6 14 5 15 4 16 3 17 2 18 1 19
REMARK H PARENT
REMARK Flexibility Score: inf
ROOT
ATOM      1  C   UNL     1      27.979 -19.788  24.886  1.00  0.00     0.000 C 
ENDROOT
BRANCH   1   2
ATOM      2  C   UNL     1      26.750 -18.874  25.022  1.00  0.00     0.000 C 
BRANCH   2   3
ATOM      3  C   UNL     1      26.870 -17.593  24.179  1.00  0.00     0.000 C 
BRANCH   3   4
ATOM      4  C   UNL     1      26.733 -16.315  25.025  1.00  0.00     0.000 C 
BRANCH   4   5
ATOM      5  C   UNL     1      26.062 -16.576  26.384  1.00  0.00     0.001 C 
BRANCH   5   6
ATOM      6  C   UNL     1      25.000 -15.517  26.738  1.00  0.00     0.009 C 
BRANCH   6   7
ATOM      7  C   UNL     1      23.597 -16.096  27.033  1.00  0.00     0.032 C 
ATOM      8  C   UNL     1      23.316 -17.304  26.132  1.00  0.00     0.014 C 
BRANCH   7   9
ATOM      9  C   UNL     1      22.520 -15.060  26.850  1.00  0.00     0.044 C 
ATOM     10  O   UNL     1      22.295 -14.562  25.716  1.00  0.00    -0.550 OA
ATOM     11  O   UNL     1      21.770 -14.643  27.942  1.00  0.00    -0.550 OA
ENDBRANCH   7   9
ENDBRANCH   6   7
ENDBRANCH   5   6
ENDBRANCH   4   5
ENDBRANCH   3   4
ENDBRANCH   2   3
ENDBRANCH   1   2
BRANCH   1  12
ATOM     12  C   UNL     1      29.244 -19.018  24.472  1.00  0.00     0.000 C 
BRANCH  12  13
ATOM     13  C   UNL     1      30.234 -18.825  25.636  1.00  0.00    -0.000 C 
BRANCH  13  14
ATOM     14  C   UNL     1      30.020 -19.762  26.843  1.00  0.00    -0.000 C 
BRANCH  14  15
ATOM     15  C   UNL     1      29.882 -19.054  28.203  1.00  0.00    -0.000 C 
BRANCH  15  16
ATOM     16  C   UNL     1      28.549 -18.307  28.355  1.00  0.00    -0.000 C 
BRANCH  16  17
ATOM     17  C   UNL     1      27.396 -19.289  28.609  1.00  0.00    -0.000 C 
BRANCH  17  18
ATOM     18  C   UNL     1      26.291 -18.688  29.492  1.00  0.00    -0.003 C 
ATOM     19  C   UNL     1      24.888 -19.045  29.006  1.00  0.00     0.004 C 
ENDBRANCH  17  18
ENDBRANCH  16  17
ENDBRANCH  15  16
ENDBRANCH  14  15
ENDBRANCH  13  14
ENDBRANCH  12  13
ENDBRANCH   1  12
TORSDOF 14
ENDMDL
MODEL 2
REMARK VINA RESULT:    -3.904      1.759      2.428
REMARK INTER + INTRA:          -9.460
REMARK INTER:                  -7.756
REMARK INTRA:                  -1.705
REMARK UNBOUND:                -2.362
REMARK SMILES CCCCCCCCCCCCCC[C@H](C)C(=O)[O-]
REMARK SMILES IDX 9 1 10 2 11 3 12 4 13 5 14 6 15 7 16 8 17 9 18 10 19 11 8 12
REMARK SMILES IDX 7 13 6 14 5 15 4 16 3 17 2 18 1 19
REMARK H PARENT
REMARK Flexibility Score: inf
ROOT
ATOM      1  C   UNL     1      28.681 -18.878  24.408  1.00  0.00     0.000 C 
ENDROOT
BRANCH   1   2
ATOM      2  C   UNL     1      27.605 -19.800  25.007  1.00  0.00     0.000 C 
BRANCH   2   3
ATOM      3  C   UNL     1      26.305 -19.049  25.344  1.00  0.00     0.000 C 
BRANCH   3   4
ATOM      4  C   UNL     1      26.260 -17.641  24.726  1.00  0.00     0.000 C 
BRANCH   4   5
ATOM      5  C   UNL     1      26.431 -16.529  25.776  1.00  0.00     0.001 C 
BRANCH   5   6
ATOM      6  C   UNL     1      25.234 -16.430  26.741  1.00  0.00     0.009 C 
BRANCH   6   7
ATOM      7  C   UNL     1      24.177 -15.376  26.339  1.00  0.00     0.032 C 
ATOM      8  C   UNL     1      24.687 -13.963  26.645  1.00  0.00     0.014 C 
BRANCH   7   9
ATOM      9  C   UNL     1      22.866 -15.609  27.040  1.00  0.00     0.044 C 
ATOM     10  O   UNL     1      22.371 -16.765  27.106  1.00  0.00    -0.550 OA
ATOM     11  O   UNL     1      22.190 -14.541  27.617  1.00  0.00    -0.550 OA
ENDBRANCH   7   9
ENDBRANCH   6   7
ENDBRANCH   5   6
ENDBRANCH   4   5
ENDBRANCH   3   4
ENDBRANCH   2   3
ENDBRANCH   1   2
BRANCH   1  12
ATOM     12  C   UNL     1      29.701 -18.401  25.456  1.00  0.00     0.000 C 
BRANCH  12  13
ATOM     13  C   UNL     1      29.721 -19.287  26.716  1.00  0.00    -0.000 C 
BRANCH  13  14
ATOM     14  C   UNL     1      29.474 -18.545  28.046  1.00  0.00    -0.000 C 
BRANCH  14  15
ATOM     15  C   UNL     1      28.018 -18.568  28.546  1.00  0.00    -0.000 C 
BRANCH  15  16
ATOM     16  C   UNL     1      27.644 -17.316  29.351  1.00  0.00    -0.000 C 
BRANCH  16  17
ATOM     17  C   UNL     1      28.825 -16.844  30.212  1.00  0.00    -0.000 C 
BRANCH  17  18
ATOM     18  C   UNL     1      28.421 -15.770  31.234  1.00  0.00    -0.003 C 
ATOM     19  C   UNL     1      28.714 -14.352  30.748  1.00  0.00     0.004 C 
ENDBRANCH  17  18
ENDBRANCH  16  17
ENDBRANCH  15  16
ENDBRANCH  14  15
ENDBRANCH  13  14
ENDBRANCH  12  13
ENDBRANCH   1  12
TORSDOF 14
ENDMDL
MODEL 3
REMARK VINA RESULT:    -3.899      2.903      4.037
REMARK INTER + INTRA:          -9.452
REMARK INTER:                  -7.620
REMARK INTRA:                  -1.832
REMARK UNBOUND:                -2.362
REMARK SMILES CCCCCCCCCCCCCC[C@H](C)C(=O)[O-]
REMARK SMILES IDX 9 1 10 2 11 3 12 4 13 5 14 6 15 7 16 8 17 9 18 10 19 11 8 12
REMARK SMILES IDX 7 13 6 14 5 15 4 16 3 17 2 18 1 19
REMARK H PARENT
REMARK Flexibility Score: inf
ROOT
ATOM      1  C   UNL     1      29.091 -18.290  27.681  1.00  0.00     0.000 C 
ENDROOT
BRANCH   1   2
ATOM      2  C   UNL     1      29.355 -18.647  26.209  1.00  0.00     0.000 C 
BRANCH   2   3
ATOM      3  C   UNL     1      28.103 -19.194  25.500  1.00  0.00     0.000 C 
BRANCH   3   4
ATOM      4  C   UNL     1      27.598 -18.257  24.390  1.00  0.00     0.000 C 
BRANCH   4   5
ATOM      5  C   UNL     1      26.253 -17.599  24.740  1.00  0.00     0.001 C 
BRANCH   5   6
ATOM      6  C   UNL     1      26.415 -16.330  25.599  1.00  0.00     0.009 C 
BRANCH   6   7
ATOM      7  C   UNL     1      25.348 -16.170  26.706  1.00  0.00     0.032 C 
ATOM      8  C   UNL     1      24.448 -17.410  26.766  1.00  0.00     0.014 C 
BRANCH   7   9
ATOM      9  C   UNL     1      24.509 -14.938  26.495  1.00  0.00     0.044 C 
ATOM     10  O   UNL     1      23.279 -15.035  26.245  1.00  0.00    -0.550 OA
ATOM     11  O   UNL     1      25.096 -13.681  26.570  1.00  0.00    -0.550 OA
ENDBRANCH   7   9
ENDBRANCH   6   7
ENDBRANCH   5   6
ENDBRANCH   4   5
ENDBRANCH   3   4
ENDBRANCH   2   3
ENDBRANCH   1   2
BRANCH   1  12
ATOM     12  C   UNL     1      27.730 -18.805  28.179  1.00  0.00     0.000 C 
BRANCH  12  13
ATOM     13  C   UNL     1      27.150 -17.950  29.320  1.00  0.00    -0.000 C 
BRANCH  13  14
ATOM     14  C   UNL     1      28.029 -16.763  29.765  1.00  0.00    -0.000 C 
BRANCH  14  15
ATOM     15  C   UNL     1      28.749 -16.954  31.113  1.00  0.00    -0.000 C 
BRANCH  15  16
ATOM     16  C   UNL     1      29.603 -15.741  31.511  1.00  0.00    -0.000 C 
BRANCH  16  17
ATOM     17  C   UNL     1      29.021 -14.445  30.926  1.00  0.00    -0.000 C 
BRANCH  17  18
ATOM     18  C   UNL     1      29.841 -13.203  31.311  1.00  0.00    -0.003 C 
ATOM     19  C   UNL     1      29.967 -13.025  32.823  1.00  0.00     0.004 C 
ENDBRANCH  17  18
ENDBRANCH  16  17
ENDBRANCH  15  16
ENDBRANCH  14  15
ENDBRANCH  13  14
ENDBRANCH  12  13
ENDBRANCH   1  12
TORSDOF 14
ENDMDL
MODEL 4
REMARK VINA RESULT:    -3.839      2.736      3.595
REMARK INTER + INTRA:          -9.343
REMARK INTER:                  -7.999
REMARK INTRA:                  -1.345
REMARK UNBOUND:                -2.362
REMARK SMILES CCCCCCCCCCCCCC[C@H](C)C(=O)[O-]
REMARK SMILES IDX 9 1 10 2 11 3 12 4 13 5 14 6 15 7 16 8 17 9 18 10 19 11 8 12
REMARK SMILES IDX 7 13 6 14 5 15 4 16 3 17 2 18 1 19
REMARK H PARENT
REMARK Flexibility Score: inf
ROOT
ATOM      1  C   UNL     1      29.190 -18.702  26.308  1.00  0.00     0.000 C 
ENDROOT
BRANCH   1   2
ATOM      2  C   UNL     1      27.839 -19.154  25.728  1.00  0.00     0.000 C 
BRANCH   2   3
ATOM      3  C   UNL     1      27.431 -18.347  24.483  1.00  0.00     0.000 C 
BRANCH   3   4
ATOM      4  C   UNL     1      26.781 -17.000  24.841  1.00  0.00     0.000 C 
BRANCH   4   5
ATOM      5  C   UNL     1      25.502 -17.165  25.680  1.00  0.00     0.001 C 
BRANCH   5   6
ATOM      6  C   UNL     1      25.355 -16.081  26.764  1.00  0.00     0.009 C 
BRANCH   6   7
ATOM      7  C   UNL     1      24.272 -15.020  26.460  1.00  0.00     0.032 C 
ATOM      8  C   UNL     1      24.751 -13.628  26.886  1.00  0.00     0.014 C 
BRANCH   7   9
ATOM      9  C   UNL     1      22.970 -15.345  27.144  1.00  0.00     0.044 C 
ATOM     10  O   UNL     1      22.027 -14.511  27.156  1.00  0.00    -0.550 OA
ATOM     11  O   UNL     1      22.808 -16.572  27.774  1.00  0.00    -0.550 OA
ENDBRANCH   7   9
ENDBRANCH   6   7
ENDBRANCH   5   6
ENDBRANCH   4   5
ENDBRANCH   3   4
ENDBRANCH   2   3
ENDBRANCH   1   2
BRANCH   1  12
ATOM     12  C   UNL     1      29.149 -18.532  27.836  1.00  0.00     0.000 C 
BRANCH  12  13
ATOM     13  C   UNL     1      27.714 -18.492  28.395  1.00  0.00    -0.000 C 
BRANCH  13  14
ATOM     14  C   UNL     1      27.489 -17.502  29.557  1.00  0.00    -0.000 C 
BRANCH  14  15
ATOM     15  C   UNL     1      28.762 -16.821  30.090  1.00  0.00    -0.000 C 
BRANCH  15  16
ATOM     16  C   UNL     1      28.477 -15.830  31.229  1.00  0.00    -0.000 C 
BRANCH  16  17
ATOM     17  C   UNL     1      28.473 -14.385  30.709  1.00  0.00    -0.000 C 
BRANCH  17  18
ATOM     18  C   UNL     1      29.648 -13.558  31.252  1.00  0.00    -0.003 C 
ATOM     19  C   UNL     1      29.240 -12.635  32.400  1.00  0.00     0.004 C 
ENDBRANCH  17  18
ENDBRANCH  16  17
ENDBRANCH  15  16
ENDBRANCH  14  15
ENDBRANCH  13  14
ENDBRANCH  12  13
ENDBRANCH   1  12
TORSDOF 14
ENDMDL
MODEL 5
REMARK VINA RESULT:    -3.738      3.259      5.352
REMARK INTER + INTRA:          -9.159
REMARK INTER:                  -7.405
REMARK INTRA:                  -1.754
REMARK UNBOUND:                -2.362
REMARK SMILES CCCCCCCCCCCCCC[C@H](C)C(=O)[O-]
REMARK SMILES IDX 9 1 10 2 11 3 12 4 13 5 14 6 15 7 16 8 17 9 18 10 19 11 8 12
REMARK SMILES IDX 7 13 6 14 5 15 4 16 3 17 2 18 1 19
REMARK H PARENT
REMARK Flexibility Score: inf
ROOT
ATOM      1  C   UNL     1      29.951 -18.595  25.358  1.00  0.00     0.000 C 
ENDROOT
BRANCH   1   2
ATOM      2  C   UNL     1      30.277 -19.781  26.280  1.00  0.00     0.000 C 
BRANCH   2   3
ATOM      3  C   UNL     1      29.840 -19.536  27.735  1.00  0.00     0.000 C 
BRANCH   3   4
ATOM      4  C   UNL     1      28.947 -18.292  27.881  1.00  0.00     0.000 C 
BRANCH   4   5
ATOM      5  C   UNL     1      28.229 -18.237  29.241  1.00  0.00     0.001 C 
BRANCH   5   6
ATOM      6  C   UNL     1      28.005 -16.796  29.739  1.00  0.00     0.009 C 
BRANCH   6   7
ATOM      7  C   UNL     1      28.857 -16.408  30.969  1.00  0.00     0.032 C 
ATOM      8  C   UNL     1      28.001 -16.423  32.241  1.00  0.00     0.014 C 
BRANCH   7   9
ATOM      9  C   UNL     1      29.495 -15.055  30.798  1.00  0.00     0.044 C 
ATOM     10  O   UNL     1      28.785 -14.021  30.695  1.00  0.00    -0.550 OA
ATOM     11  O   UNL     1      30.878 -14.945  30.746  1.00  0.00    -0.550 OA
ENDBRANCH   7   9
ENDBRANCH   6   7
ENDBRANCH   5   6
ENDBRANCH   4   5
ENDBRANCH   3   4
ENDBRANCH   2   3
ENDBRANCH   1   2
BRANCH   1  12
ATOM     12  C   UNL     1      28.995 -18.979  24.216  1.00  0.00     0.000 C 
BRANCH  12  13
ATOM     13  C   UNL     1      27.727 -19.695  24.715  1.00  0.00    -0.000 C 
BRANCH  13  14
ATOM     14  C   UNL     1      26.561 -18.766  25.112  1.00  0.00    -0.000 C 
BRANCH  14  15
ATOM     15  C   UNL     1      26.619 -17.350  24.510  1.00  0.00    -0.000 C 
BRANCH  15  16
ATOM     16  C   UNL     1      26.369 -16.248  25.550  1.00  0.00    -0.000 C 
BRANCH  16  17
ATOM     17  C   UNL     1      25.660 -16.814  26.789  1.00  0.00    -0.000 C 
BRANCH  17  18
ATOM     18  C   UNL     1      24.172 -16.437  26.843  1.00  0.00    -0.003 C 
ATOM     19  C   UNL     1      23.927 -14.956  26.561  1.00  0.00     0.004 C 
ENDBRANCH  17  18
ENDBRANCH  16  17
ENDBRANCH  15  16
ENDBRANCH  14  15
ENDBRANCH  13  14
ENDBRANCH  12  13
ENDBRANCH   1  12
TORSDOF 14
ENDMDL
MODEL 6
REMARK VINA RESULT:    -3.692      2.627      5.757
REMARK INTER + INTRA:          -9.076
REMARK INTER:                  -6.876
REMARK INTRA:                  -2.200
REMARK UNBOUND:                -2.362
REMARK SMILES CCCCCCCCCCCCCC[C@H](C)C(=O)[O-]
REMARK SMILES IDX 9 1 10 2 11 3 12 4 13 5 14 6 15 7 16 8 17 9 18 10 19 11 8 12
REMARK SMILES IDX 7 13 6 14 5 15 4 16 3 17 2 18 1 19
REMARK H PARENT
REMARK Flexibility Score: inf
ROOT
ATOM      1  C   UNL     1      26.823 -16.686  25.292  1.00  0.00     0.000 C 
ENDROOT
BRANCH   1   2
ATOM      2  C   UNL     1      26.731 -18.024  24.540  1.00  0.00     0.000 C 
BRANCH   2   3
ATOM      3  C   UNL     1      28.114 -18.593  24.175  1.00  0.00     0.000 C 
BRANCH   3   4
ATOM      4  C   UNL     1      29.045 -18.704  25.394  1.00  0.00     0.000 C 
BRANCH   4   5
ATOM      5  C   UNL     1      28.874 -20.033  26.149  1.00  0.00     0.001 C 
BRANCH   5   6
ATOM      6  C   UNL     1      28.660 -19.838  27.662  1.00  0.00     0.009 C 
BRANCH   6   7
ATOM      7  C   UNL     1      28.993 -18.418  28.174  1.00  0.00     0.032 C 
ATOM      8  C   UNL     1      30.449 -18.348  28.649  1.00  0.00     0.014 C 
BRANCH   7   9
ATOM      9  C   UNL     1      28.071 -17.999  29.289  1.00  0.00     0.044 C 
ATOM     10  O   UNL     1      27.182 -18.782  29.713  1.00  0.00    -0.550 OA
ATOM     11  O   UNL     1      28.196 -16.735  29.851  1.00  0.00    -0.550 OA
ENDBRANCH   7   9
ENDBRANCH   6   7
ENDBRANCH   5   6
ENDBRANCH   4   5
ENDBRANCH   3   4
ENDBRANCH   2   3
ENDBRANCH   1   2
BRANCH   1  12
ATOM     12  C   UNL     1      26.122 -16.728  26.660  1.00  0.00     0.000 C 
BRANCH  12  13
ATOM     13  C   UNL     1      25.273 -17.997  26.857  1.00  0.00    -0.000 C 
BRANCH  13  14
ATOM     14  C   UNL     1      23.956 -17.792  27.634  1.00  0.00    -0.000 C 
BRANCH  14  15
ATOM     15  C   UNL     1      22.683 -17.765  26.767  1.00  0.00    -0.000 C 
BRANCH  15  16
ATOM     16  C   UNL     1      22.525 -16.457  25.978  1.00  0.00    -0.000 C 
BRANCH  16  17
ATOM     17  C   UNL     1      22.700 -15.238  26.897  1.00  0.00    -0.000 C 
BRANCH  17  18
ATOM     18  C   UNL     1      23.478 -14.097  26.223  1.00  0.00    -0.003 C 
ATOM     19  C   UNL     1      24.523 -13.471  27.145  1.00  0.00     0.004 C 
ENDBRANCH  17  18
ENDBRANCH  16  17
ENDBRANCH  15  16
ENDBRANCH  14  15
ENDBRANCH  13  14
ENDBRANCH  12  13
ENDBRANCH   1  12
TORSDOF 14
ENDMDL
MODEL 7
REMARK VINA RESULT:    -3.659      2.811      5.417
REMARK INTER + INTRA:          -9.016
REMARK INTER:                  -7.091
REMARK INTRA:                  -1.925
REMARK UNBOUND:                -2.362
REMARK SMILES CCCCCCCCCCCCCC[C@H](C)C(=O)[O-]
REMARK SMILES IDX 9 1 10 2 11 3 12 4 13 5 14 6 15 7 16 8 17 9 18 10 19 11 8 12
REMARK SMILES IDX 7 13 6 14 5 15 4 16 3 17 2 18 1 19
REMARK H PARENT
REMARK Flexibility Score: inf
ROOT
ATOM      1  C   UNL     1      27.864 -19.574  24.846  1.00  0.00     0.000 C 
ENDROOT
BRANCH   1   2
ATOM      2  C   UNL     1      29.183 -19.657  25.633  1.00  0.00     0.000 C 
BRANCH   2   3
ATOM      3  C   UNL     1      29.973 -18.337  25.604  1.00  0.00     0.000 C 
BRANCH   3   4
ATOM      4  C   UNL     1      31.037 -18.262  26.712  1.00  0.00     0.000 C 
BRANCH   4   5
ATOM      5  C   UNL     1      30.549 -18.862  28.041  1.00  0.00     0.001 C 
BRANCH   5   6
ATOM      6  C   UNL     1      30.329 -17.796  29.132  1.00  0.00     0.009 C 
BRANCH   6   7
ATOM      7  C   UNL     1      28.909 -17.796  29.745  1.00  0.00     0.032 C 
ATOM      8  C   UNL     1      27.848 -17.839  28.639  1.00  0.00     0.014 C 
BRANCH   7   9
ATOM      9  C   UNL     1      28.684 -16.594  30.623  1.00  0.00     0.044 C 
ATOM     10  O   UNL     1      27.775 -16.597  31.493  1.00  0.00    -0.550 OA
ATOM     11  O   UNL     1      29.483 -15.468  30.470  1.00  0.00    -0.550 OA
ENDBRANCH   7   9
ENDBRANCH   6   7
ENDBRANCH   5   6
ENDBRANCH   4   5
ENDBRANCH   3   4
ENDBRANCH   2   3
ENDBRANCH   1   2
BRANCH   1  12
ATOM     12  C   UNL     1      26.633 -19.853  25.725  1.00  0.00     0.000 C 
BRANCH  12  13
ATOM     13  C   UNL     1      25.608 -18.704  25.697  1.00  0.00    -0.000 C 
BRANCH  13  14
ATOM     14  C   UNL     1      26.016 -17.478  24.854  1.00  0.00    -0.000 C 
BRANCH  14  15
ATOM     15  C   UNL     1      26.358 -16.214  25.664  1.00  0.00    -0.000 C 
BRANCH  15  16
ATOM     16  C   UNL     1      25.324 -15.908  26.758  1.00  0.00    -0.000 C 
BRANCH  16  17
ATOM     17  C   UNL     1      24.525 -14.642  26.419  1.00  0.00    -0.000 C 
BRANCH  17  18
ATOM     18  C   UNL     1      23.006 -14.861  26.501  1.00  0.00    -0.003 C 
ATOM     19  C   UNL     1      22.596 -16.287  26.135  1.00  0.00     0.004 C 
ENDBRANCH  17  18
ENDBRANCH  16  17
ENDBRANCH  15  16
ENDBRANCH  14  15
ENDBRANCH  13  14
ENDBRANCH  12  13
ENDBRANCH   1  12
TORSDOF 14
ENDMDL
MODEL 8
REMARK VINA RESULT:    -3.653      1.270      3.539
REMARK INTER + INTRA:          -9.004
REMARK INTER:                  -6.490
REMARK INTRA:                  -2.514
REMARK UNBOUND:                -2.362
REMARK SMILES CCCCCCCCCCCCCC[C@H](C)C(=O)[O-]
REMARK SMILES IDX 9 1 10 2 11 3 12 4 13 5 14 6 15 7 16 8 17 9 18 10 19 11 8 12
REMARK SMILES IDX 7 13 6 14 5 15 4 16 3 17 2 18 1 19
REMARK H PARENT
REMARK Flexibility Score: inf
ROOT
ATOM      1  C   UNL     1      26.026 -18.428  28.405  1.00  0.00     0.000 C 
ENDROOT
BRANCH   1   2
ATOM      2  C   UNL     1      25.595 -19.836  27.960  1.00  0.00     0.000 C 
BRANCH   2   3
ATOM      3  C   UNL     1      24.069 -19.969  27.815  1.00  0.00     0.000 C 
BRANCH   3   4
ATOM      4  C   UNL     1      23.604 -19.865  26.353  1.00  0.00     0.000 C 
BRANCH   4   5
ATOM      5  C   UNL     1      22.607 -18.715  26.130  1.00  0.00     0.001 C 
BRANCH   5   6
ATOM      6  C   UNL     1      23.298 -17.388  25.764  1.00  0.00     0.009 C 
BRANCH   6   7
ATOM      7  C   UNL     1      23.316 -16.344  26.905  1.00  0.00     0.032 C 
ATOM      8  C   UNL     1      22.096 -16.524  27.815  1.00  0.00     0.014 C 
BRANCH   7   9
ATOM      9  C   UNL     1      23.352 -14.938  26.369  1.00  0.00     0.044 C 
ATOM     10  O   UNL     1      24.390 -14.235  26.482  1.00  0.00    -0.550 OA
ATOM     11  O   UNL     1      22.229 -14.406  25.748  1.00  0.00    -0.550 OA
ENDBRANCH   7   9
ENDBRANCH   6   7
ENDBRANCH   5   6
ENDBRANCH   4   5
ENDBRANCH   3   4
ENDBRANCH   2   3
ENDBRANCH   1   2
BRANCH   1  12
ATOM     12  C   UNL     1      27.286 -18.446  29.285  1.00  0.00     0.000 C 
BRANCH  12  13
ATOM     13  C   UNL     1      28.528 -17.890  28.563  1.00  0.00    -0.000 C 
BRANCH  13  14
ATOM     14  C   UNL     1      29.479 -18.954  27.977  1.00  0.00    -0.000 C 
BRANCH  14  15
ATOM     15  C   UNL     1      29.690 -18.873  26.454  1.00  0.00    -0.000 C 
BRANCH  15  16
ATOM     16  C   UNL     1      28.603 -19.612  25.660  1.00  0.00    -0.000 C 
BRANCH  16  17
ATOM     17  C   UNL     1      28.101 -18.754  24.490  1.00  0.00    -0.000 C 
BRANCH  17  18
ATOM     18  C   UNL     1      26.732 -18.114  24.771  1.00  0.00    -0.003 C 
ATOM     19  C   UNL     1      26.846 -16.673  25.266  1.00  0.00     0.004 C 
ENDBRANCH  17  18
ENDBRANCH  16  17
ENDBRANCH  15  16
ENDBRANCH  14  15
ENDBRANCH  13  14
ENDBRANCH  12  13
ENDBRANCH   1  12
TORSDOF 14
ENDMDL
MODEL 9
REMARK VINA RESULT:    -3.606      1.538      2.168
REMARK INTER + INTRA:          -8.920
REMARK INTER:                  -6.965
REMARK INTRA:                  -1.955
REMARK UNBOUND:                -2.362
REMARK SMILES CCCCCCCCCCCCCC[C@H](C)C(=O)[O-]
REMARK SMILES IDX 9 1 10 2 11 3 12 4 13 5 14 6 15 7 16 8 17 9 18 10 19 11 8 12
REMARK SMILES IDX 7 13 6 14 5 15 4 16 3 17 2 18 1 19
REMARK H PARENT
REMARK Flexibility Score: inf
ROOT
ATOM      1  C   UNL     1      28.706 -18.656  24.998  1.00  0.00     0.000 C 
ENDROOT
BRANCH   1   2
ATOM      2  C   UNL     1      27.736 -17.483  25.213  1.00  0.00     0.000 C 
BRANCH   2   3
ATOM      3  C   UNL     1      26.275 -17.861  24.912  1.00  0.00     0.000 C 
BRANCH   3   4
ATOM      4  C   UNL     1      25.808 -19.092  25.708  1.00  0.00     0.000 C 
BRANCH   4   5
ATOM      5  C   UNL     1      24.591 -18.792  26.599  1.00  0.00     0.001 C 
BRANCH   5   6
ATOM      6  C   UNL     1      24.507 -17.311  27.018  1.00  0.00     0.009 C 
BRANCH   6   7
ATOM      7  C   UNL     1      23.159 -16.632  26.688  1.00  0.00     0.032 C 
ATOM      8  C   UNL     1      22.471 -17.345  25.518  1.00  0.00     0.014 C 
BRANCH   7   9
ATOM      9  C   UNL     1      23.338 -15.172  26.363  1.00  0.00     0.044 C 
ATOM     10  O   UNL     1      24.409 -14.578  26.652  1.00  0.00    -0.550 OA
ATOM     11  O   UNL     1      22.311 -14.471  25.745  1.00  0.00    -0.550 OA
ENDBRANCH   7   9
ENDBRANCH   6   7
ENDBRANCH   5   6
ENDBRANCH   4   5
ENDBRANCH   3   4
ENDBRANCH   2   3
ENDBRANCH   1   2
BRANCH   1  12
ATOM     12  C   UNL     1      30.034 -18.471  25.751  1.00  0.00     0.000 C 
BRANCH  12  13
ATOM     13  C   UNL     1      30.507 -19.758  26.452  1.00  0.00    -0.000 C 
BRANCH  13  14
ATOM     14  C   UNL     1      29.744 -20.123  27.742  1.00  0.00    -0.000 C 
BRANCH  14  15
ATOM     15  C   UNL     1      29.408 -18.934  28.660  1.00  0.00    -0.000 C 
BRANCH  15  16
ATOM     16  C   UNL     1      27.900 -18.667  28.766  1.00  0.00    -0.000 C 
BRANCH  16  17
ATOM     17  C   UNL     1      27.629 -17.233  29.243  1.00  0.00    -0.000 C 
BRANCH  17  18
ATOM     18  C   UNL     1      28.799 -16.646  30.048  1.00  0.00    -0.003 C 
ATOM     19  C   UNL     1      28.403 -15.405  30.846  1.00  0.00     0.004 C 
ENDBRANCH  17  18
ENDBRANCH  16  17
ENDBRANCH  15  16
ENDBRANCH  14  15
ENDBRANCH  13  14
ENDBRANCH  12  13
ENDBRANCH   1  12
TORSDOF 14
ENDMDL
