MODEL 1
REMARK VINA RESULT:     0.000      0.000      0.000
REMARK INTER + INTRA:          -2.389
REMARK INTER:                   0.000
REMARK INTRA:                  -2.389
REMARK UNBOUND:                -2.389
REMARK SMILES C[C@H]1O[C@@H](O[C@H]2[C@H](Oc3cc(O)c4c(c3)O[C@@H](c3ccc(O)cc3)CC4=O)O[C@H](CO)[C@@H](O)[C@@H]2O)[C@@H](O)[C@H](O)[C@@H]1O
REMARK SMILES IDX 6 1 34 2 32 3 29 4 28 5 7 6 5 7 4 8 1 9 2 10 40 11 3 12
REMARK SMILES IDX 38 13 36 14 41 15 39 17 37 19 35 21 8 23 9 24 10 25 15 26
REMARK SMILES IDX 11 27 14 28 13 29 16 30 26 31 17 32 27 33 25 34 12 35 18 37
REMARK SMILES IDX 19 38 24 39 20 40 23 41 21 42 22 43 33 45 30 47 31 48
REMARK H PARENT 41 16 39 18 37 20 35 22 12 36 22 44 33 46 31 49
REMARK Flexibility Score: inf
ROOT
ATOM      1  C   UNL     1       6.584  17.995  54.453  1.00  0.00     0.221 C 
ATOM      2  C   UNL     1       5.830  19.217  54.985  1.00  0.00     0.181 C 
ATOM      3  C   UNL     1       4.448  19.330  54.318  1.00  0.00     0.177 C 
ATOM      4  C   UNL     1       4.539  19.214  52.776  1.00  0.00     0.179 C 
ATOM      5  O   UNL     1       5.315  18.106  52.323  1.00  0.00    -0.332 OA
ATOM      6  C   UNL     1       6.609  18.000  52.910  1.00  0.00     0.339 C 
ENDROOT
BRANCH   1   7
ATOM      7  O   UNL     1       5.943  16.817  54.921  1.00  0.00    -0.337 OA
BRANCH   7   8
ATOM      8  C   UNL     1       6.424  16.398  56.194  1.00  0.00     0.282 C 
ATOM      9  C   UNL     1       6.967  14.336  53.938  1.00  0.00     0.041 C 
ATOM     10  C   UNL     1       7.178  14.247  55.458  1.00  0.00     0.150 C 
ATOM     11  C   UNL     1       6.017  13.523  56.190  1.00  0.00     0.174 C 
ATOM     12  O   UNL     1       7.517  15.502  56.039  1.00  0.00    -0.344 OA
ATOM     13  C   UNL     1       4.818  14.462  56.419  1.00  0.00     0.179 C 
ATOM     14  C   UNL     1       5.286  15.786  57.034  1.00  0.00     0.202 C 
BRANCH  11  15
ATOM     15  O   UNL     1       6.458  12.962  57.404  1.00  0.00    -0.388 OA
ATOM     16  H   UNL     1       6.802  13.694  57.978  1.00  0.00     0.211 HD
ENDBRANCH  11  15
BRANCH  13  17
ATOM     17  O   UNL     1       3.881  13.853  57.270  1.00  0.00    -0.387 OA
ATOM     18  H   UNL     1       3.066  14.418  57.250  1.00  0.00     0.211 HD
ENDBRANCH  13  17
BRANCH  14  19
ATOM     19  O   UNL     1       4.214  16.692  57.098  1.00  0.00    -0.385 OA
ATOM     20  H   UNL     1       4.127  17.102  56.198  1.00  0.00     0.211 HD
ENDBRANCH  14  19
ENDBRANCH   7   8
ENDBRANCH   1   7
BRANCH   2  21
ATOM     21  O   UNL     1       6.585  20.379  54.756  1.00  0.00    -0.387 OA
ATOM     22  H   UNL     1       5.952  21.081  54.454  1.00  0.00     0.211 HD
ENDBRANCH   2  21
BRANCH   6  23
ATOM     23  O   UNL     1       7.492  19.014  52.430  1.00  0.00    -0.462 OA
BRANCH  23  24
ATOM     24  C   UNL     1       8.894  18.952  52.463  1.00  0.00     0.130 A 
ATOM     25  C   UNL     1       9.701  20.085  52.680  1.00  0.00     0.093 A 
ATOM     26  C   UNL     1       9.501  17.706  52.282  1.00  0.00     0.094 A 
ATOM     27  C   UNL     1      11.099  19.973  52.700  1.00  0.00     0.133 A 
ATOM     28  C   UNL     1      10.891  17.579  52.322  1.00  0.00     0.138 A 
ATOM     29  C   UNL     1      11.703  18.711  52.514  1.00  0.00     0.102 A 
ATOM     30  O   UNL     1      11.469  16.313  52.165  1.00  0.00    -0.484 OA
ATOM     31  C   UNL     1      13.173  18.523  52.472  1.00  0.00     0.174 C 
ATOM     32  C   UNL     1      12.834  16.055  52.504  1.00  0.00     0.211 C 
ATOM     33  O   UNL     1      13.961  19.466  52.755  1.00  0.00    -0.294 OA
ATOM     34  C   UNL     1      13.736  17.204  52.024  1.00  0.00     0.131 C 
BRANCH  27  35
ATOM     35  O   UNL     1      11.879  21.111  52.900  1.00  0.00    -0.507 OA
ATOM     36  H   UNL     1      11.467  22.002  53.155  1.00  0.00     0.293 HD
ENDBRANCH  27  35
BRANCH  32  37
ATOM     37  C   UNL     1      13.279  14.743  51.906  1.00  0.00    -0.007 A 
ATOM     38  C   UNL     1      12.334  13.792  51.480  1.00  0.00     0.011 A 
ATOM     39  C   UNL     1      14.646  14.483  51.712  1.00  0.00     0.011 A 
ATOM     40  C   UNL     1      12.753  12.592  50.898  1.00  0.00     0.046 A 
ATOM     41  C   UNL     1      15.062  13.283  51.127  1.00  0.00     0.046 A 
ATOM     42  C   UNL     1      14.115  12.333  50.721  1.00  0.00     0.115 A 
BRANCH  42  43
ATOM     43  O   UNL     1      14.517  11.134  50.139  1.00  0.00    -0.508 OA
ATOM     44  H   UNL     1      14.632  10.290  50.690  1.00  0.00     0.293 HD
ENDBRANCH  42  43
ENDBRANCH  32  37
ENDBRANCH  23  24
ENDBRANCH   6  23
BRANCH   3  45
ATOM     45  O   UNL     1       3.599  18.318  54.799  1.00  0.00    -0.387 OA
ATOM     46  H   UNL     1       2.753  18.757  55.078  1.00  0.00     0.211 HD
ENDBRANCH   3  45
BRANCH   4  47
ATOM     47  C   UNL     1       4.912  20.542  52.080  1.00  0.00     0.191 C 
BRANCH  47  48
ATOM     48  O   UNL     1       4.571  21.634  52.891  1.00  0.00    -0.394 OA
ATOM     49  H   UNL     1       3.883  21.315  53.529  1.00  0.00     0.210 HD
ENDBRANCH  47  48
ENDBRANCH   4  47
TORSDOF 14
ENDMDL
MODEL 2
REMARK VINA RESULT:     0.000      4.711      8.892
REMARK INTER + INTRA:          -2.389
REMARK INTER:                   0.000
REMARK INTRA:                  -2.389
REMARK UNBOUND:                -2.389
REMARK SMILES C[C@H]1O[C@@H](O[C@H]2[C@H](Oc3cc(O)c4c(c3)O[C@@H](c3ccc(O)cc3)CC4=O)O[C@H](CO)[C@@H](O)[C@@H]2O)[C@@H](O)[C@H](O)[C@@H]1O
REMARK SMILES IDX 6 1 34 2 32 3 29 4 28 5 7 6 5 7 4 8 1 9 2 10 40 11 3 12
REMARK SMILES IDX 38 13 36 14 41 15 39 17 37 19 35 21 8 23 9 24 10 25 15 26
REMARK SMILES IDX 11 27 14 28 13 29 16 30 26 31 17 32 27 33 25 34 12 35 18 37
REMARK SMILES IDX 19 38 24 39 20 40 23 41 21 42 22 43 33 45 30 47 31 48
REMARK H PARENT 41 16 39 18 37 20 35 22 12 36 22 44 33 46 31 49
REMARK Flexibility Score: inf
ROOT
ATOM      1  C   UNL     1      11.610  17.201  49.326  1.00  0.00     0.221 C 
ATOM      2  C   UNL     1      10.635  16.380  48.476  1.00  0.00     0.181 C 
ATOM      3  C   UNL     1       9.230  17.005  48.515  1.00  0.00     0.177 C 
ATOM      4  C   UNL     1       8.772  17.305  49.964  1.00  0.00     0.179 C 
ATOM      5  O   UNL     1       9.740  18.003  50.745  1.00  0.00    -0.332 OA
ATOM      6  C   UNL     1      11.042  17.425  50.743  1.00  0.00     0.339 C 
ENDROOT
BRANCH   1   7
ATOM      7  O   UNL     1      11.835  18.452  48.693  1.00  0.00    -0.337 OA
BRANCH   7   8
ATOM      8  C   UNL     1      12.899  18.408  47.748  1.00  0.00     0.282 C 
ATOM      9  C   UNL     1      13.446  20.330  50.123  1.00  0.00     0.041 C 
ATOM     10  C   UNL     1      14.234  20.077  48.828  1.00  0.00     0.150 C 
ATOM     11  C   UNL     1      13.931  21.121  47.720  1.00  0.00     0.174 C 
ATOM     12  O   UNL     1      14.133  18.730  48.378  1.00  0.00    -0.344 OA
ATOM     13  C   UNL     1      12.622  20.796  46.978  1.00  0.00     0.179 C 
ATOM     14  C   UNL     1      12.603  19.325  46.547  1.00  0.00     0.202 C 
BRANCH  11  15
ATOM     15  O   UNL     1      15.009  21.229  46.821  1.00  0.00    -0.388 OA
ATOM     16  H   UNL     1      15.852  21.230  47.344  1.00  0.00     0.211 HD
ENDBRANCH  11  15
BRANCH  13  17
ATOM     17  O   UNL     1      12.488  21.620  45.848  1.00  0.00    -0.387 OA
ATOM     18  H   UNL     1      12.439  21.019  45.060  1.00  0.00     0.211 HD
ENDBRANCH  13  17
BRANCH  14  19
ATOM     19  O   UNL     1      11.347  18.999  46.009  1.00  0.00    -0.385 OA
ATOM     20  H   UNL     1      11.280  19.457  45.131  1.00  0.00     0.211 HD
ENDBRANCH  14  19
ENDBRANCH   7   8
ENDBRANCH   1   7
BRANCH   2  21
ATOM     21  O   UNL     1      10.601  15.054  48.939  1.00  0.00    -0.387 OA
ATOM     22  H   UNL     1      10.131  14.519  48.248  1.00  0.00     0.211 HD
ENDBRANCH   2  21
BRANCH   6  23
ATOM     23  O   UNL     1      11.083  16.211  51.493  1.00  0.00    -0.462 OA
BRANCH  23  24
ATOM     24  C   UNL     1      12.240  15.632  52.040  1.00  0.00     0.130 A 
ATOM     25  C   UNL     1      12.429  14.240  52.119  1.00  0.00     0.093 A 
ATOM     26  C   UNL     1      13.241  16.486  52.511  1.00  0.00     0.094 A 
ATOM     27  C   UNL     1      13.602  13.709  52.677  1.00  0.00     0.133 A 
ATOM     28  C   UNL     1      14.421  15.970  53.049  1.00  0.00     0.138 A 
ATOM     29  C   UNL     1      14.606  14.579  53.154  1.00  0.00     0.102 A 
ATOM     30  O   UNL     1      15.419  16.849  53.487  1.00  0.00    -0.484 OA
ATOM     31  C   UNL     1      15.848  14.093  53.801  1.00  0.00     0.174 C 
ATOM     32  C   UNL     1      16.755  16.412  53.749  1.00  0.00     0.211 C 
ATOM     33  O   UNL     1      16.137  12.866  53.822  1.00  0.00    -0.294 OA
ATOM     34  C   UNL     1      16.747  15.072  54.502  1.00  0.00     0.131 C 
BRANCH  27  35
ATOM     35  O   UNL     1      13.761  12.326  52.762  1.00  0.00    -0.507 OA
ATOM     36  H   UNL     1      13.404  11.704  52.045  1.00  0.00     0.293 HD
ENDBRANCH  27  35
BRANCH  32  37
ATOM     37  C   UNL     1      17.500  17.462  54.537  1.00  0.00    -0.007 A 
ATOM     38  C   UNL     1      17.034  18.788  54.584  1.00  0.00     0.011 A 
ATOM     39  C   UNL     1      18.637  17.109  55.283  1.00  0.00     0.011 A 
ATOM     40  C   UNL     1      17.712  19.749  55.341  1.00  0.00     0.046 A 
ATOM     41  C   UNL     1      19.311  18.071  56.042  1.00  0.00     0.046 A 
ATOM     42  C   UNL     1      18.850  19.394  56.071  1.00  0.00     0.115 A 
BRANCH  42  43
ATOM     43  O   UNL     1      19.515  20.361  56.821  1.00  0.00    -0.508 OA
ATOM     44  H   UNL     1      20.511  20.517  56.721  1.00  0.00     0.293 HD
ENDBRANCH  42  43
ENDBRANCH  32  37
ENDBRANCH  23  24
ENDBRANCH   6  23
BRANCH   3  45
ATOM     45  O   UNL     1       9.215  18.201  47.779  1.00  0.00    -0.387 OA
ATOM     46  H   UNL     1       8.296  18.308  47.416  1.00  0.00     0.211 HD
ENDBRANCH   3  45
BRANCH   4  47
ATOM     47  C   UNL     1       8.176  16.078  50.689  1.00  0.00     0.191 C 
BRANCH  47  48
ATOM     48  O   UNL     1       7.702  15.141  49.760  1.00  0.00    -0.394 OA
ATOM     49  H   UNL     1       6.764  15.387  49.556  1.00  0.00     0.210 HD
ENDBRANCH  47  48
ENDBRANCH   4  47
TORSDOF 14
ENDMDL
MODEL 3
REMARK VINA RESULT:     0.000      3.731      7.600
REMARK INTER + INTRA:          -2.389
REMARK INTER:                   0.000
REMARK INTRA:                  -2.389
REMARK UNBOUND:                -2.389
REMARK SMILES C[C@H]1O[C@@H](O[C@H]2[C@H](Oc3cc(O)c4c(c3)O[C@@H](c3ccc(O)cc3)CC4=O)O[C@H](CO)[C@@H](O)[C@@H]2O)[C@@H](O)[C@H](O)[C@@H]1O
REMARK SMILES IDX 6 1 34 2 32 3 29 4 28 5 7 6 5 7 4 8 1 9 2 10 40 11 3 12
REMARK SMILES IDX 38 13 36 14 41 15 39 17 37 19 35 21 8 23 9 24 10 25 15 26
REMARK SMILES IDX 11 27 14 28 13 29 16 30 26 31 17 32 27 33 25 34 12 35 18 37
REMARK SMILES IDX 19 38 24 39 20 40 23 41 21 42 22 43 33 45 30 47 31 48
REMARK H PARENT 41 16 39 18 37 20 35 22 12 36 22 44 33 46 31 49
REMARK Flexibility Score: inf
ROOT
ATOM      1  C   UNL     1      11.669  13.637  55.148  1.00  0.00     0.221 C 
ATOM      2  C   UNL     1      12.892  12.912  55.719  1.00  0.00     0.181 C 
ATOM      3  C   UNL     1      13.542  13.749  56.835  1.00  0.00     0.177 C 
ATOM      4  C   UNL     1      13.774  15.216  56.395  1.00  0.00     0.179 C 
ATOM      5  O   UNL     1      12.633  15.829  55.798  1.00  0.00    -0.332 OA
ATOM      6  C   UNL     1      12.032  15.081  54.745  1.00  0.00     0.339 C 
ENDROOT
BRANCH   1   7
ATOM      7  O   UNL     1      10.642  13.654  56.129  1.00  0.00    -0.337 OA
BRANCH   7   8
ATOM      8  C   UNL     1       9.818  12.494  56.083  1.00  0.00     0.282 C 
ATOM      9  C   UNL     1       8.278  15.119  55.472  1.00  0.00     0.041 C 
ATOM     10  C   UNL     1       7.778  13.678  55.667  1.00  0.00     0.150 C 
ATOM     11  C   UNL     1       7.258  13.407  57.103  1.00  0.00     0.174 C 
ATOM     12  O   UNL     1       8.714  12.706  55.212  1.00  0.00    -0.344 OA
ATOM     13  C   UNL     1       8.414  13.130  58.083  1.00  0.00     0.179 C 
ATOM     14  C   UNL     1       9.370  12.084  57.499  1.00  0.00     0.202 C 
BRANCH  11  15
ATOM     15  O   UNL     1       6.326  12.352  57.111  1.00  0.00    -0.388 OA
ATOM     16  H   UNL     1       5.880  12.324  56.225  1.00  0.00     0.211 HD
ENDBRANCH  11  15
BRANCH  13  17
ATOM     17  O   UNL     1       7.909  12.674  59.312  1.00  0.00    -0.387 OA
ATOM     18  H   UNL     1       8.139  11.711  59.375  1.00  0.00     0.211 HD
ENDBRANCH  13  17
BRANCH  14  19
ATOM     19  O   UNL     1      10.498  11.950  58.325  1.00  0.00    -0.385 OA
ATOM     20  H   UNL     1      11.243  12.433  57.880  1.00  0.00     0.211 HD
ENDBRANCH  14  19
ENDBRANCH   7   8
ENDBRANCH   1   7
BRANCH   2  21
ATOM     21  O   UNL     1      13.815  12.655  54.692  1.00  0.00    -0.387 OA
ATOM     22  H   UNL     1      13.711  13.379  54.022  1.00  0.00     0.211 HD
ENDBRANCH   2  21
BRANCH   6  23
ATOM     23  O   UNL     1      12.842  15.080  53.569  1.00  0.00    -0.462 OA
BRANCH  23  24
ATOM     24  C   UNL     1      12.383  14.821  52.267  1.00  0.00     0.130 A 
ATOM     25  C   UNL     1      13.159  14.144  51.308  1.00  0.00     0.093 A 
ATOM     26  C   UNL     1      11.097  15.249  51.927  1.00  0.00     0.094 A 
ATOM     27  C   UNL     1      12.657  13.911  50.019  1.00  0.00     0.133 A 
ATOM     28  C   UNL     1      10.579  15.004  50.653  1.00  0.00     0.138 A 
ATOM     29  C   UNL     1      11.359  14.349  49.682  1.00  0.00     0.102 A 
ATOM     30  O   UNL     1       9.277  15.419  50.349  1.00  0.00    -0.484 OA
ATOM     31  C   UNL     1      10.781  14.184  48.327  1.00  0.00     0.174 C 
ATOM     32  C   UNL     1       8.574  14.936  49.202  1.00  0.00     0.211 C 
ATOM     33  O   UNL     1      11.371  13.504  47.444  1.00  0.00    -0.294 OA
ATOM     34  C   UNL     1       9.503  14.892  47.978  1.00  0.00     0.131 C 
BRANCH  27  35
ATOM     35  O   UNL     1      13.450  13.252  49.079  1.00  0.00    -0.507 OA
ATOM     36  H   UNL     1      14.399  12.964  49.291  1.00  0.00     0.293 HD
ENDBRANCH  27  35
BRANCH  32  37
ATOM     37  C   UNL     1       7.370  15.804  48.926  1.00  0.00    -0.007 A 
ATOM     38  C   UNL     1       6.847  16.643  49.927  1.00  0.00     0.011 A 
ATOM     39  C   UNL     1       6.795  15.827  47.644  1.00  0.00     0.011 A 
ATOM     40  C   UNL     1       5.751  17.468  49.655  1.00  0.00     0.046 A 
ATOM     41  C   UNL     1       5.701  16.654  47.375  1.00  0.00     0.046 A 
ATOM     42  C   UNL     1       5.175  17.476  48.381  1.00  0.00     0.115 A 
BRANCH  42  43
ATOM     43  O   UNL     1       4.084  18.302  48.124  1.00  0.00    -0.508 OA
ATOM     44  H   UNL     1       3.231  18.238  48.668  1.00  0.00     0.293 HD
ENDBRANCH  42  43
ENDBRANCH  32  37
ENDBRANCH  23  24
ENDBRANCH   6  23
BRANCH   3  45
ATOM     45  O   UNL     1      12.726  13.742  57.978  1.00  0.00    -0.387 OA
ATOM     46  H   UNL     1      12.100  12.976  57.884  1.00  0.00     0.211 HD
ENDBRANCH   3  45
BRANCH   4  47
ATOM     47  C   UNL     1      15.069  15.417  55.578  1.00  0.00     0.191 C 
BRANCH  47  48
ATOM     48  O   UNL     1      15.988  14.394  55.853  1.00  0.00    -0.394 OA
ATOM     49  H   UNL     1      16.187  14.439  56.823  1.00  0.00     0.210 HD
ENDBRANCH  47  48
ENDBRANCH   4  47
TORSDOF 14
ENDMDL
MODEL 4
REMARK VINA RESULT:     0.001      7.227      9.283
REMARK INTER + INTRA:          -2.388
REMARK INTER:                   0.000
REMARK INTRA:                  -2.388
REMARK UNBOUND:                -2.389
REMARK SMILES C[C@H]1O[C@@H](O[C@H]2[C@H](Oc3cc(O)c4c(c3)O[C@@H](c3ccc(O)cc3)CC4=O)O[C@H](CO)[C@@H](O)[C@@H]2O)[C@@H](O)[C@H](O)[C@@H]1O
REMARK SMILES IDX 6 1 34 2 32 3 29 4 28 5 7 6 5 7 4 8 1 9 2 10 40 11 3 12
REMARK SMILES IDX 38 13 36 14 41 15 39 17 37 19 35 21 8 23 9 24 10 25 15 26
REMARK SMILES IDX 11 27 14 28 13 29 16 30 26 31 17 32 27 33 25 34 12 35 18 37
REMARK SMILES IDX 19 38 24 39 20 40 23 41 21 42 22 43 33 45 30 47 31 48
REMARK H PARENT 41 16 39 18 37 20 35 22 12 36 22 44 33 46 31 49
REMARK Flexibility Score: inf
ROOT
ATOM      1  C   UNL     1      12.886  22.887  48.974  1.00  0.00     0.221 C 
ATOM      2  C   UNL     1      13.311  24.080  49.836  1.00  0.00     0.181 C 
ATOM      3  C   UNL     1      13.578  25.313  48.955  1.00  0.00     0.177 C 
ATOM      4  C   UNL     1      14.507  24.979  47.761  1.00  0.00     0.179 C 
ATOM      5  O   UNL     1      14.119  23.816  47.033  1.00  0.00    -0.332 OA
ATOM      6  C   UNL     1      13.893  22.657  47.829  1.00  0.00     0.339 C 
ENDROOT
BRANCH   1   7
ATOM      7  O   UNL     1      11.595  23.141  48.439  1.00  0.00    -0.337 OA
BRANCH   7   8
ATOM      8  C   UNL     1      10.547  22.726  49.309  1.00  0.00     0.282 C 
ATOM      9  C   UNL     1      10.575  21.199  46.606  1.00  0.00     0.041 C 
ATOM     10  C   UNL     1       9.564  21.183  47.764  1.00  0.00     0.150 C 
ATOM     11  C   UNL     1       8.346  22.112  47.518  1.00  0.00     0.174 C 
ATOM     12  O   UNL     1      10.179  21.381  49.033  1.00  0.00    -0.344 OA
ATOM     13  C   UNL     1       8.679  23.581  47.840  1.00  0.00     0.179 C 
ATOM     14  C   UNL     1       9.347  23.687  49.216  1.00  0.00     0.202 C 
BRANCH  11  15
ATOM     15  O   UNL     1       7.224  21.677  48.248  1.00  0.00    -0.388 OA
ATOM     16  H   UNL     1       7.142  20.694  48.136  1.00  0.00     0.211 HD
ENDBRANCH  11  15
BRANCH  13  17
ATOM     17  O   UNL     1       7.509  24.358  47.822  1.00  0.00    -0.387 OA
ATOM     18  H   UNL     1       7.631  25.042  47.113  1.00  0.00     0.211 HD
ENDBRANCH  13  17
BRANCH  14  19
ATOM     19  O   UNL     1       9.785  25.004  49.437  1.00  0.00    -0.385 OA
ATOM     20  H   UNL     1      10.091  25.358  48.561  1.00  0.00     0.211 HD
ENDBRANCH  14  19
ENDBRANCH   7   8
ENDBRANCH   1   7
BRANCH   2  21
ATOM     21  O   UNL     1      14.456  23.746  50.580  1.00  0.00    -0.387 OA
ATOM     22  H   UNL     1      14.920  23.022  50.086  1.00  0.00     0.211 HD
ENDBRANCH   2  21
BRANCH   6  23
ATOM     23  O   UNL     1      15.113  22.120  48.340  1.00  0.00    -0.462 OA
BRANCH  23  24
ATOM     24  C   UNL     1      15.298  20.800  48.783  1.00  0.00     0.130 A 
ATOM     25  C   UNL     1      16.140  20.471  49.861  1.00  0.00     0.093 A 
ATOM     26  C   UNL     1      14.603  19.783  48.123  1.00  0.00     0.094 A 
ATOM     27  C   UNL     1      16.295  19.136  50.264  1.00  0.00     0.133 A 
ATOM     28  C   UNL     1      14.731  18.454  48.530  1.00  0.00     0.138 A 
ATOM     29  C   UNL     1      15.591  18.115  49.591  1.00  0.00     0.102 A 
ATOM     30  O   UNL     1      14.000  17.459  47.869  1.00  0.00    -0.484 OA
ATOM     31  C   UNL     1      15.742  16.679  49.927  1.00  0.00     0.174 C 
ATOM     32  C   UNL     1      13.835  16.148  48.415  1.00  0.00     0.211 C 
ATOM     33  O   UNL     1      16.398  16.310  50.939  1.00  0.00    -0.294 OA
ATOM     34  C   UNL     1      15.157  15.641  49.011  1.00  0.00     0.131 C 
BRANCH  27  35
ATOM     35  O   UNL     1      17.148  18.830  51.324  1.00  0.00    -0.507 OA
ATOM     36  H   UNL     1      16.802  18.425  52.187  1.00  0.00     0.293 HD
ENDBRANCH  27  35
BRANCH  32  37
ATOM     37  C   UNL     1      13.331  15.202  47.353  1.00  0.00    -0.007 A 
ATOM     38  C   UNL     1      12.723  15.694  46.184  1.00  0.00     0.011 A 
ATOM     39  C   UNL     1      13.521  13.817  47.494  1.00  0.00     0.011 A 
ATOM     40  C   UNL     1      12.286  14.813  45.190  1.00  0.00     0.046 A 
ATOM     41  C   UNL     1      13.086  12.938  46.498  1.00  0.00     0.046 A 
ATOM     42  C   UNL     1      12.466  13.435  45.343  1.00  0.00     0.115 A 
BRANCH  42  43
ATOM     43  O   UNL     1      12.027  12.569  44.345  1.00  0.00    -0.508 OA
ATOM     44  H   UNL     1      12.034  11.564  44.474  1.00  0.00     0.293 HD
ENDBRANCH  42  43
ENDBRANCH  32  37
ENDBRANCH  23  24
ENDBRANCH   6  23
BRANCH   3  45
ATOM     45  O   UNL     1      12.365  25.819  48.458  1.00  0.00    -0.387 OA
ATOM     46  H   UNL     1      12.584  26.364  47.657  1.00  0.00     0.211 HD
ENDBRANCH   3  45
BRANCH   4  47
ATOM     47  C   UNL     1      16.008  24.995  48.126  1.00  0.00     0.191 C 
BRANCH  47  48
ATOM     48  O   UNL     1      16.231  25.795  49.256  1.00  0.00    -0.394 OA
ATOM     49  H   UNL     1      15.466  26.422  49.321  1.00  0.00     0.210 HD
ENDBRANCH  47  48
ENDBRANCH   4  47
TORSDOF 14
ENDMDL
MODEL 5
REMARK VINA RESULT:     0.001      6.319     11.485
REMARK INTER + INTRA:          -2.388
REMARK INTER:                   0.000
REMARK INTRA:                  -2.388
REMARK UNBOUND:                -2.389
REMARK SMILES C[C@H]1O[C@@H](O[C@H]2[C@H](Oc3cc(O)c4c(c3)O[C@@H](c3ccc(O)cc3)CC4=O)O[C@H](CO)[C@@H](O)[C@@H]2O)[C@@H](O)[C@H](O)[C@@H]1O
REMARK SMILES IDX 6 1 34 2 32 3 29 4 28 5 7 6 5 7 4 8 1 9 2 10 40 11 3 12
REMARK SMILES IDX 38 13 36 14 41 15 39 17 37 19 35 21 8 23 9 24 10 25 15 26
REMARK SMILES IDX 11 27 14 28 13 29 16 30 26 31 17 32 27 33 25 34 12 35 18 37
REMARK SMILES IDX 19 38 24 39 20 40 23 41 21 42 22 43 33 45 30 47 31 48
REMARK H PARENT 41 16 39 18 37 20 35 22 12 36 22 44 33 46 31 49
REMARK Flexibility Score: inf
ROOT
ATOM      1  C   UNL     1      16.024  20.570  58.620  1.00  0.00     0.221 C 
ATOM      2  C   UNL     1      16.473  19.978  59.959  1.00  0.00     0.181 C 
ATOM      3  C   UNL     1      17.898  19.407  59.845  1.00  0.00     0.177 C 
ATOM      4  C   UNL     1      18.052  18.481  58.614  1.00  0.00     0.179 C 
ATOM      5  O   UNL     1      17.551  19.041  57.401  1.00  0.00    -0.332 OA
ATOM      6  C   UNL     1      16.223  19.551  57.480  1.00  0.00     0.339 C 
ENDROOT
BRANCH   1   7
ATOM      7  O   UNL     1      16.782  21.743  58.356  1.00  0.00    -0.337 OA
BRANCH   7   8
ATOM      8  C   UNL     1      16.200  22.913  58.921  1.00  0.00     0.282 C 
ATOM      9  C   UNL     1      16.353  22.992  55.822  1.00  0.00     0.041 C 
ATOM     10  C   UNL     1      15.941  24.068  56.840  1.00  0.00     0.150 C 
ATOM     11  C   UNL     1      17.090  25.056  57.177  1.00  0.00     0.174 C 
ATOM     12  O   UNL     1      15.311  23.520  57.993  1.00  0.00    -0.344 OA
ATOM     13  C   UNL     1      18.064  24.461  58.211  1.00  0.00     0.179 C 
ATOM     14  C   UNL     1      17.291  23.888  59.404  1.00  0.00     0.202 C 
BRANCH  11  15
ATOM     15  O   UNL     1      16.580  26.292  57.615  1.00  0.00    -0.388 OA
ATOM     16  H   UNL     1      16.890  26.997  56.989  1.00  0.00     0.211 HD
ENDBRANCH  11  15
BRANCH  13  17
ATOM     17  O   UNL     1      18.957  25.449  58.659  1.00  0.00    -0.387 OA
ATOM     18  H   UNL     1      18.422  26.106  59.175  1.00  0.00     0.211 HD
ENDBRANCH  13  17
BRANCH  14  19
ATOM     19  O   UNL     1      18.171  23.214  60.267  1.00  0.00    -0.385 OA
ATOM     20  H   UNL     1      17.616  22.783  60.969  1.00  0.00     0.211 HD
ENDBRANCH  14  19
ENDBRANCH   7   8
ENDBRANCH   1   7
BRANCH   2  21
ATOM     21  O   UNL     1      15.571  18.979  60.364  1.00  0.00    -0.387 OA
ATOM     22  H   UNL     1      14.695  19.422  60.508  1.00  0.00     0.211 HD
ENDBRANCH   2  21
BRANCH   6  23
ATOM     23  O   UNL     1      15.259  18.502  57.577  1.00  0.00    -0.462 OA
BRANCH  23  24
ATOM     24  C   UNL     1      13.898  18.617  57.249  1.00  0.00     0.130 A 
ATOM     25  C   UNL     1      12.887  17.935  57.951  1.00  0.00     0.093 A 
ATOM     26  C   UNL     1      13.547  19.453  56.186  1.00  0.00     0.094 A 
ATOM     27  C   UNL     1      11.540  18.079  57.583  1.00  0.00     0.133 A 
ATOM     28  C   UNL     1      12.209  19.622  55.825  1.00  0.00     0.138 A 
ATOM     29  C   UNL     1      11.195  18.924  56.507  1.00  0.00     0.102 A 
ATOM     30  O   UNL     1      11.885  20.489  54.774  1.00  0.00    -0.484 OA
ATOM     31  C   UNL     1       9.801  19.087  56.029  1.00  0.00     0.174 C 
ATOM     32  C   UNL     1      10.550  20.951  54.555  1.00  0.00     0.211 C 
ATOM     33  O   UNL     1       8.831  18.591  56.663  1.00  0.00    -0.294 OA
ATOM     34  C   UNL     1       9.545  19.802  54.732  1.00  0.00     0.131 C 
BRANCH  27  35
ATOM     35  O   UNL     1      10.556  17.381  58.282  1.00  0.00    -0.507 OA
ATOM     36  H   UNL     1      10.248  17.673  59.202  1.00  0.00     0.293 HD
ENDBRANCH  27  35
BRANCH  32  37
ATOM     37  C   UNL     1      10.429  21.558  53.179  1.00  0.00    -0.007 A 
ATOM     38  C   UNL     1      11.575  21.957  52.468  1.00  0.00     0.011 A 
ATOM     39  C   UNL     1       9.169  21.675  52.567  1.00  0.00     0.011 A 
ATOM     40  C   UNL     1      11.458  22.489  51.180  1.00  0.00     0.046 A 
ATOM     41  C   UNL     1       9.055  22.205  51.279  1.00  0.00     0.046 A 
ATOM     42  C   UNL     1      10.200  22.616  50.583  1.00  0.00     0.115 A 
BRANCH  42  43
ATOM     43  O   UNL     1      10.098  23.147  49.300  1.00  0.00    -0.508 OA
ATOM     44  H   UNL     1      10.915  23.468  48.793  1.00  0.00     0.293 HD
ENDBRANCH  42  43
ENDBRANCH  32  37
ENDBRANCH  23  24
ENDBRANCH   6  23
BRANCH   3  45
ATOM     45  O   UNL     1      18.828  20.455  59.743  1.00  0.00    -0.387 OA
ATOM     46  H   UNL     1      18.462  21.220  60.261  1.00  0.00     0.211 HD
ENDBRANCH   3  45
BRANCH   4  47
ATOM     47  C   UNL     1      17.563  17.037  58.864  1.00  0.00     0.191 C 
BRANCH  47  48
ATOM     48  O   UNL     1      17.589  16.740  60.234  1.00  0.00    -0.394 OA
ATOM     49  H   UNL     1      18.522  16.496  60.459  1.00  0.00     0.210 HD
ENDBRANCH  47  48
ENDBRANCH   4  47
TORSDOF 14
ENDMDL
MODEL 6
REMARK VINA RESULT:     0.001      3.727      9.700
REMARK INTER + INTRA:          -2.388
REMARK INTER:                   0.000
REMARK INTRA:                  -2.388
REMARK UNBOUND:                -2.389
REMARK SMILES C[C@H]1O[C@@H](O[C@H]2[C@H](Oc3cc(O)c4c(c3)O[C@@H](c3ccc(O)cc3)CC4=O)O[C@H](CO)[C@@H](O)[C@@H]2O)[C@@H](O)[C@H](O)[C@@H]1O
REMARK SMILES IDX 6 1 34 2 32 3 29 4 28 5 7 6 5 7 4 8 1 9 2 10 40 11 3 12
REMARK SMILES IDX 38 13 36 14 41 15 39 17 37 19 35 21 8 23 9 24 10 25 15 26
REMARK SMILES IDX 11 27 14 28 13 29 16 30 26 31 17 32 27 33 25 34 12 35 18 37
REMARK SMILES IDX 19 38 24 39 20 40 23 41 21 42 22 43 33 45 30 47 31 48
REMARK H PARENT 41 16 39 18 37 20 35 22 12 36 22 44 33 46 31 49
REMARK Flexibility Score: inf
ROOT
ATOM      1  C   UNL     1      14.656  15.723  50.471  1.00  0.00     0.221 C 
ATOM      2  C   UNL     1      16.027  16.403  50.538  1.00  0.00     0.181 C 
ATOM      3  C   UNL     1      17.011  15.551  51.358  1.00  0.00     0.177 C 
ATOM      4  C   UNL     1      16.406  15.119  52.717  1.00  0.00     0.179 C 
ATOM      5  O   UNL     1      15.097  14.562  52.619  1.00  0.00    -0.332 OA
ATOM      6  C   UNL     1      14.164  15.349  51.884  1.00  0.00     0.339 C 
ENDROOT
BRANCH   1   7
ATOM      7  O   UNL     1      14.758  14.555  49.671  1.00  0.00    -0.337 OA
BRANCH   7   8
ATOM      8  C   UNL     1      14.556  14.816  48.286  1.00  0.00     0.282 C 
ATOM      9  C   UNL     1      12.420  12.919  49.502  1.00  0.00     0.041 C 
ATOM     10  C   UNL     1      12.674  13.353  48.049  1.00  0.00     0.150 C 
ATOM     11  C   UNL     1      13.504  12.319  47.243  1.00  0.00     0.174 C 
ATOM     12  O   UNL     1      13.180  14.681  47.954  1.00  0.00    -0.344 OA
ATOM     13  C   UNL     1      15.010  12.448  47.537  1.00  0.00     0.179 C 
ATOM     14  C   UNL     1      15.454  13.911  47.421  1.00  0.00     0.202 C 
BRANCH  11  15
ATOM     15  O   UNL     1      13.246  12.431  45.864  1.00  0.00    -0.388 OA
ATOM     16  H   UNL     1      12.938  11.548  45.533  1.00  0.00     0.211 HD
ENDBRANCH  11  15
BRANCH  13  17
ATOM     17  O   UNL     1      15.748  11.659  46.638  1.00  0.00    -0.387 OA
ATOM     18  H   UNL     1      15.540  10.713  46.851  1.00  0.00     0.211 HD
ENDBRANCH  13  17
BRANCH  14  19
ATOM     19  O   UNL     1      16.789  14.042  47.838  1.00  0.00    -0.385 OA
ATOM     20  H   UNL     1      16.771  14.446  48.745  1.00  0.00     0.211 HD
ENDBRANCH  14  19
ENDBRANCH   7   8
ENDBRANCH   1   7
BRANCH   2  21
ATOM     21  O   UNL     1      15.896  17.685  51.099  1.00  0.00    -0.387 OA
ATOM     22  H   UNL     1      15.066  18.080  50.726  1.00  0.00     0.211 HD
ENDBRANCH   2  21
BRANCH   6  23
ATOM     23  O   UNL     1      13.780  16.522  52.604  1.00  0.00    -0.462 OA
BRANCH  23  24
ATOM     24  C   UNL     1      12.610  17.264  52.382  1.00  0.00     0.130 A 
ATOM     25  C   UNL     1      12.560  18.664  52.517  1.00  0.00     0.093 A 
ATOM     26  C   UNL     1      11.456  16.573  52.002  1.00  0.00     0.094 A 
ATOM     27  C   UNL     1      11.364  19.362  52.287  1.00  0.00     0.133 A 
ATOM     28  C   UNL     1      10.266  17.259  51.749  1.00  0.00     0.138 A 
ATOM     29  C   UNL     1      10.203  18.656  51.906  1.00  0.00     0.102 A 
ATOM     30  O   UNL     1       9.134  16.543  51.342  1.00  0.00    -0.484 OA
ATOM     31  C   UNL     1       8.893  19.317  51.696  1.00  0.00     0.174 C 
ATOM     32  C   UNL     1       7.993  17.187  50.770  1.00  0.00     0.211 C 
ATOM     33  O   UNL     1       8.788  20.573  51.700  1.00  0.00    -0.294 OA
ATOM     34  C   UNL     1       7.658  18.476  51.538  1.00  0.00     0.131 C 
BRANCH  27  35
ATOM     35  O   UNL     1      11.333  20.747  52.443  1.00  0.00    -0.507 OA
ATOM     36  H   UNL     1      11.626  21.374  51.702  1.00  0.00     0.293 HD
ENDBRANCH  27  35
BRANCH  32  37
ATOM     37  C   UNL     1       6.812  16.247  50.765  1.00  0.00    -0.007 A 
ATOM     38  C   UNL     1       6.999  14.860  50.907  1.00  0.00     0.011 A 
ATOM     39  C   UNL     1       5.505  16.756  50.681  1.00  0.00     0.011 A 
ATOM     40  C   UNL     1       5.899  13.998  50.934  1.00  0.00     0.046 A 
ATOM     41  C   UNL     1       4.407  15.892  50.711  1.00  0.00     0.046 A 
ATOM     42  C   UNL     1       4.601  14.510  50.836  1.00  0.00     0.115 A 
BRANCH  42  43
ATOM     43  O   UNL     1       3.515  13.640  50.864  1.00  0.00    -0.508 OA
ATOM     44  H   UNL     1       2.846  13.602  50.104  1.00  0.00     0.293 HD
ENDBRANCH  42  43
ENDBRANCH  32  37
ENDBRANCH  23  24
ENDBRANCH   6  23
BRANCH   3  45
ATOM     45  O   UNL     1      17.368  14.400  50.635  1.00  0.00    -0.387 OA
ATOM     46  H   UNL     1      16.594  13.780  50.675  1.00  0.00     0.211 HD
ENDBRANCH   3  45
BRANCH   4  47
ATOM     47  C   UNL     1      16.526  16.198  53.816  1.00  0.00     0.191 C 
BRANCH  47  48
ATOM     48  O   UNL     1      17.580  17.078  53.527  1.00  0.00    -0.394 OA
ATOM     49  H   UNL     1      17.615  17.737  54.267  1.00  0.00     0.210 HD
ENDBRANCH  47  48
ENDBRANCH   4  47
TORSDOF 14
ENDMDL
MODEL 7
REMARK VINA RESULT:     0.001      5.580      8.785
REMARK INTER + INTRA:          -2.388
REMARK INTER:                   0.000
REMARK INTRA:                  -2.388
REMARK UNBOUND:                -2.389
REMARK SMILES C[C@H]1O[C@@H](O[C@H]2[C@H](Oc3cc(O)c4c(c3)O[C@@H](c3ccc(O)cc3)CC4=O)O[C@H](CO)[C@@H](O)[C@@H]2O)[C@@H](O)[C@H](O)[C@@H]1O
REMARK SMILES IDX 6 1 34 2 32 3 29 4 28 5 7 6 5 7 4 8 1 9 2 10 40 11 3 12
REMARK SMILES IDX 38 13 36 14 41 15 39 17 37 19 35 21 8 23 9 24 10 25 15 26
REMARK SMILES IDX 11 27 14 28 13 29 16 30 26 31 17 32 27 33 25 34 12 35 18 37
REMARK SMILES IDX 19 38 24 39 20 40 23 41 21 42 22 43 33 45 30 47 31 48
REMARK H PARENT 41 16 39 18 37 20 35 22 12 36 22 44 33 46 31 49
REMARK Flexibility Score: inf
ROOT
ATOM      1  C   UNL     1      13.426  20.635  52.422  1.00  0.00     0.221 C 
ATOM      2  C   UNL     1      12.766  20.854  53.787  1.00  0.00     0.181 C 
ATOM      3  C   UNL     1      11.502  21.719  53.641  1.00  0.00     0.177 C 
ATOM      4  C   UNL     1      11.770  22.998  52.810  1.00  0.00     0.179 C 
ATOM      5  O   UNL     1      12.455  22.759  51.582  1.00  0.00    -0.332 OA
ATOM      6  C   UNL     1      13.643  21.981  51.700  1.00  0.00     0.339 C 
ENDROOT
BRANCH   1   7
ATOM      7  O   UNL     1      12.594  19.795  51.636  1.00  0.00    -0.337 OA
BRANCH   7   8
ATOM      8  C   UNL     1      12.856  18.411  51.842  1.00  0.00     0.282 C 
ATOM      9  C   UNL     1      13.421  19.348  48.937  1.00  0.00     0.041 C 
ATOM     10  C   UNL     1      13.428  17.944  49.564  1.00  0.00     0.150 C 
ATOM     11  C   UNL     1      12.105  17.169  49.328  1.00  0.00     0.174 C 
ATOM     12  O   UNL     1      13.843  17.954  50.926  1.00  0.00    -0.344 OA
ATOM     13  C   UNL     1      11.011  17.598  50.322  1.00  0.00     0.179 C 
ATOM     14  C   UNL     1      11.557  17.588  51.755  1.00  0.00     0.202 C 
BRANCH  11  15
ATOM     15  O   UNL     1      12.320  15.778  49.382  1.00  0.00    -0.388 OA
ATOM     16  H   UNL     1      12.986  15.594  50.094  1.00  0.00     0.211 HD
ENDBRANCH  11  15
BRANCH  13  17
ATOM     17  O   UNL     1       9.908  16.734  50.232  1.00  0.00    -0.387 OA
ATOM     18  H   UNL     1       9.299  17.116  49.548  1.00  0.00     0.211 HD
ENDBRANCH  13  17
BRANCH  14  19
ATOM     19  O   UNL     1      10.604  18.126  52.635  1.00  0.00    -0.385 OA
ATOM     20  H   UNL     1      10.434  19.060  52.344  1.00  0.00     0.211 HD
ENDBRANCH  14  19
ENDBRANCH   7   8
ENDBRANCH   1   7
BRANCH   2  21
ATOM     21  O   UNL     1      13.681  21.459  54.666  1.00  0.00    -0.387 OA
ATOM     22  H   UNL     1      14.251  20.734  55.033  1.00  0.00     0.211 HD
ENDBRANCH   2  21
BRANCH   6  23
ATOM     23  O   UNL     1      14.696  22.716  52.325  1.00  0.00    -0.462 OA
BRANCH  23  24
ATOM     24  C   UNL     1      16.066  22.425  52.215  1.00  0.00     0.130 A 
ATOM     25  C   UNL     1      16.971  22.619  53.275  1.00  0.00     0.093 A 
ATOM     26  C   UNL     1      16.533  21.914  51.002  1.00  0.00     0.094 A 
ATOM     27  C   UNL     1      18.332  22.316  53.116  1.00  0.00     0.133 A 
ATOM     28  C   UNL     1      17.882  21.589  50.839  1.00  0.00     0.138 A 
ATOM     29  C   UNL     1      18.796  21.802  51.887  1.00  0.00     0.102 A 
ATOM     30  O   UNL     1      18.316  21.051  49.622  1.00  0.00    -0.484 OA
ATOM     31  C   UNL     1      20.226  21.507  51.628  1.00  0.00     0.174 C 
ATOM     32  C   UNL     1      19.587  20.410  49.485  1.00  0.00     0.211 C 
ATOM     33  O   UNL     1      21.081  21.559  52.553  1.00  0.00    -0.294 OA
ATOM     34  C   UNL     1      20.675  21.203  50.227  1.00  0.00     0.131 C 
BRANCH  27  35
ATOM     35  O   UNL     1      19.214  22.531  54.175  1.00  0.00    -0.507 OA
ATOM     36  H   UNL     1      19.998  23.169  54.094  1.00  0.00     0.293 HD
ENDBRANCH  27  35
BRANCH  32  37
ATOM     37  C   UNL     1      19.939  20.259  48.025  1.00  0.00    -0.007 A 
ATOM     38  C   UNL     1      18.945  20.351  47.035  1.00  0.00     0.011 A 
ATOM     39  C   UNL     1      21.278  20.085  47.637  1.00  0.00     0.011 A 
ATOM     40  C   UNL     1      19.283  20.241  45.683  1.00  0.00     0.046 A 
ATOM     41  C   UNL     1      21.614  19.979  46.284  1.00  0.00     0.046 A 
ATOM     42  C   UNL     1      20.616  20.055  45.303  1.00  0.00     0.115 A 
BRANCH  42  43
ATOM     43  O   UNL     1      20.938  19.948  43.952  1.00  0.00    -0.508 OA
ATOM     44  H   UNL     1      20.246  20.107  43.229  1.00  0.00     0.293 HD
ENDBRANCH  42  43
ENDBRANCH  32  37
ENDBRANCH  23  24
ENDBRANCH   6  23
BRANCH   3  45
ATOM     45  O   UNL     1      10.483  20.979  53.018  1.00  0.00    -0.387 OA
ATOM     46  H   UNL     1      10.701  20.019  53.147  1.00  0.00     0.211 HD
ENDBRANCH   3  45
BRANCH   4  47
ATOM     47  C   UNL     1      12.385  24.151  53.634  1.00  0.00     0.191 C 
BRANCH  47  48
ATOM     48  O   UNL     1      12.085  23.996  54.996  1.00  0.00    -0.394 OA
ATOM     49  H   UNL     1      11.232  23.495  55.047  1.00  0.00     0.210 HD
ENDBRANCH  47  48
ENDBRANCH   4  47
TORSDOF 14
ENDMDL
MODEL 8
REMARK VINA RESULT:     0.001      8.607     12.540
REMARK INTER + INTRA:          -2.388
REMARK INTER:                   0.000
REMARK INTRA:                  -2.388
REMARK UNBOUND:                -2.389
REMARK SMILES C[C@H]1O[C@@H](O[C@H]2[C@H](Oc3cc(O)c4c(c3)O[C@@H](c3ccc(O)cc3)CC4=O)O[C@H](CO)[C@@H](O)[C@@H]2O)[C@@H](O)[C@H](O)[C@@H]1O
REMARK SMILES IDX 6 1 34 2 32 3 29 4 28 5 7 6 5 7 4 8 1 9 2 10 40 11 3 12
REMARK SMILES IDX 38 13 36 14 41 15 39 17 37 19 35 21 8 23 9 24 10 25 15 26
REMARK SMILES IDX 11 27 14 28 13 29 16 30 26 31 17 32 27 33 25 34 12 35 18 37
REMARK SMILES IDX 19 38 24 39 20 40 23 41 21 42 22 43 33 45 30 47 31 48
REMARK H PARENT 41 16 39 18 37 20 35 22 12 36 22 44 33 46 31 49
REMARK Flexibility Score: inf
ROOT
ATOM      1  C   UNL     1      17.838  20.723  49.718  1.00  0.00     0.221 C 
ATOM      2  C   UNL     1      18.349  20.263  48.350  1.00  0.00     0.181 C 
ATOM      3  C   UNL     1      19.887  20.286  48.313  1.00  0.00     0.177 C 
ATOM      4  C   UNL     1      20.456  21.632  48.826  1.00  0.00     0.179 C 
ATOM      5  O   UNL     1      19.898  22.063  50.066  1.00  0.00    -0.332 OA
ATOM      6  C   UNL     1      18.474  22.073  50.111  1.00  0.00     0.339 C 
ENDROOT
BRANCH   1   7
ATOM      7  O   UNL     1      18.162  19.737  50.688  1.00  0.00    -0.337 OA
BRANCH   7   8
ATOM      8  C   UNL     1      17.167  18.726  50.798  1.00  0.00     0.282 C 
ATOM      9  C   UNL     1      17.540  20.371  53.404  1.00  0.00     0.041 C 
ATOM     10  C   UNL     1      16.698  19.118  53.114  1.00  0.00     0.150 C 
ATOM     11  C   UNL     1      17.402  17.802  53.541  1.00  0.00     0.174 C 
ATOM     12  O   UNL     1      16.203  19.087  51.779  1.00  0.00    -0.344 OA
ATOM     13  C   UNL     1      18.431  17.344  52.492  1.00  0.00     0.179 C 
ATOM     14  C   UNL     1      17.808  17.356  51.091  1.00  0.00     0.202 C 
BRANCH  11  15
ATOM     15  O   UNL     1      16.460  16.789  53.801  1.00  0.00    -0.388 OA
ATOM     16  H   UNL     1      15.822  16.754  53.042  1.00  0.00     0.211 HD
ENDBRANCH  11  15
BRANCH  13  17
ATOM     17  O   UNL     1      18.887  16.050  52.793  1.00  0.00    -0.387 OA
ATOM     18  H   UNL     1      18.482  15.440  52.123  1.00  0.00     0.211 HD
ENDBRANCH  13  17
BRANCH  14  19
ATOM     19  O   UNL     1      18.792  17.086  50.125  1.00  0.00    -0.385 OA
ATOM     20  H   UNL     1      18.753  16.112  49.935  1.00  0.00     0.211 HD
ENDBRANCH  14  19
ENDBRANCH   7   8
ENDBRANCH   1   7
BRANCH   2  21
ATOM     21  O   UNL     1      17.818  21.086  47.342  1.00  0.00    -0.387 OA
ATOM     22  H   UNL     1      17.345  20.492  46.703  1.00  0.00     0.211 HD
ENDBRANCH   2  21
BRANCH   6  23
ATOM     23  O   UNL     1      17.928  23.129  49.319  1.00  0.00    -0.462 OA
BRANCH  23  24
ATOM     24  C   UNL     1      16.645  23.678  49.472  1.00  0.00     0.130 A 
ATOM     25  C   UNL     1      15.876  24.128  48.382  1.00  0.00     0.093 A 
ATOM     26  C   UNL     1      16.117  23.766  50.763  1.00  0.00     0.094 A 
ATOM     27  C   UNL     1      14.599  24.672  48.586  1.00  0.00     0.133 A 
ATOM     28  C   UNL     1      14.838  24.286  50.975  1.00  0.00     0.138 A 
ATOM     29  C   UNL     1      14.075  24.760  49.893  1.00  0.00     0.102 A 
ATOM     30  O   UNL     1      14.324  24.335  52.277  1.00  0.00    -0.484 OA
ATOM     31  C   UNL     1      12.756  25.368  50.191  1.00  0.00     0.174 C 
ATOM     32  C   UNL     1      12.935  24.551  52.537  1.00  0.00     0.211 C 
ATOM     33  O   UNL     1      11.968  25.704  49.266  1.00  0.00    -0.294 OA
ATOM     34  C   UNL     1      12.379  25.650  51.618  1.00  0.00     0.131 C 
BRANCH  27  35
ATOM     35  O   UNL     1      13.861  25.128  47.493  1.00  0.00    -0.507 OA
ATOM     36  H   UNL     1      14.222  25.838  46.866  1.00  0.00     0.293 HD
ENDBRANCH  27  35
BRANCH  32  37
ATOM     37  C   UNL     1      12.728  24.914  53.987  1.00  0.00    -0.007 A 
ATOM     38  C   UNL     1      13.718  24.631  54.945  1.00  0.00     0.011 A 
ATOM     39  C   UNL     1      11.566  25.596  54.385  1.00  0.00     0.011 A 
ATOM     40  C   UNL     1      13.533  24.998  56.282  1.00  0.00     0.046 A 
ATOM     41  C   UNL     1      11.385  25.965  55.721  1.00  0.00     0.046 A 
ATOM     42  C   UNL     1      12.368  25.664  56.674  1.00  0.00     0.115 A 
BRANCH  42  43
ATOM     43  O   UNL     1      12.198  26.025  58.008  1.00  0.00    -0.508 OA
ATOM     44  H   UNL     1      12.195  25.331  58.748  1.00  0.00     0.293 HD
ENDBRANCH  42  43
ENDBRANCH  32  37
ENDBRANCH  23  24
ENDBRANCH   6  23
BRANCH   3  45
ATOM     45  O   UNL     1      20.402  19.245  49.104  1.00  0.00    -0.387 OA
ATOM     46  H   UNL     1      20.170  19.455  50.046  1.00  0.00     0.211 HD
ENDBRANCH   3  45
BRANCH   4  47
ATOM     47  C   UNL     1      20.479  22.742  47.752  1.00  0.00     0.191 C 
BRANCH  47  48
ATOM     48  O   UNL     1      20.489  22.181  46.466  1.00  0.00    -0.394 OA
ATOM     49  H   UNL     1      19.773  22.632  45.950  1.00  0.00     0.210 HD
ENDBRANCH  47  48
ENDBRANCH   4  47
TORSDOF 14
ENDMDL
MODEL 9
REMARK VINA RESULT:     0.001      8.060     10.953
REMARK INTER + INTRA:          -2.388
REMARK INTER:                   0.000
REMARK INTRA:                  -2.388
REMARK UNBOUND:                -2.389
REMARK SMILES C[C@H]1O[C@@H](O[C@H]2[C@H](Oc3cc(O)c4c(c3)O[C@@H](c3ccc(O)cc3)CC4=O)O[C@H](CO)[C@@H](O)[C@@H]2O)[C@@H](O)[C@H](O)[C@@H]1O
REMARK SMILES IDX 6 1 34 2 32 3 29 4 28 5 7 6 5 7 4 8 1 9 2 10 40 11 3 12
REMARK SMILES IDX 38 13 36 14 41 15 39 17 37 19 35 21 8 23 9 24 10 25 15 26
REMARK SMILES IDX 11 27 14 28 13 29 16 30 26 31 17 32 27 33 25 34 12 35 18 37
REMARK SMILES IDX 19 38 24 39 20 40 23 41 21 42 22 43 33 45 30 47 31 48
REMARK H PARENT 41 16 39 18 37 20 35 22 12 36 22 44 33 46 31 49
REMARK Flexibility Score: inf
ROOT
ATOM      1  C   UNL     1      10.244  23.051  46.108  1.00  0.00     0.221 C 
ATOM      2  C   UNL     1       8.846  23.535  45.713  1.00  0.00     0.181 C 
ATOM      3  C   UNL     1       8.184  24.283  46.884  1.00  0.00     0.177 C 
ATOM      4  C   UNL     1       8.270  23.478  48.205  1.00  0.00     0.179 C 
ATOM      5  O   UNL     1       9.574  22.980  48.496  1.00  0.00    -0.332 OA
ATOM      6  C   UNL     1      10.194  22.262  47.433  1.00  0.00     0.339 C 
ENDROOT
BRANCH   1   7
ATOM      7  O   UNL     1      11.099  24.176  46.249  1.00  0.00    -0.337 OA
BRANCH   7   8
ATOM      8  C   UNL     1      11.717  24.555  45.024  1.00  0.00     0.282 C 
ATOM      9  C   UNL     1      13.746  23.652  47.193  1.00  0.00     0.041 C 
ATOM     10  C   UNL     1      13.964  24.266  45.801  1.00  0.00     0.150 C 
ATOM     11  C   UNL     1      14.209  25.798  45.845  1.00  0.00     0.174 C 
ATOM     12  O   UNL     1      12.959  23.882  44.867  1.00  0.00    -0.344 OA
ATOM     13  C   UNL     1      12.889  26.580  45.975  1.00  0.00     0.179 C 
ATOM     14  C   UNL     1      11.872  26.086  44.940  1.00  0.00     0.202 C 
BRANCH  11  15
ATOM     15  O   UNL     1      14.941  26.224  44.721  1.00  0.00    -0.388 OA
ATOM     16  H   UNL     1      15.579  25.506  44.474  1.00  0.00     0.211 HD
ENDBRANCH  11  15
BRANCH  13  17
ATOM     17  O   UNL     1      13.119  27.953  45.791  1.00  0.00    -0.387 OA
ATOM     18  H   UNL     1      13.431  28.311  46.662  1.00  0.00     0.211 HD
ENDBRANCH  13  17
BRANCH  14  19
ATOM     19  O   UNL     1      10.625  26.694  45.163  1.00  0.00    -0.385 OA
ATOM     20  H   UNL     1      10.413  27.226  44.352  1.00  0.00     0.211 HD
ENDBRANCH  14  19
ENDBRANCH   7   8
ENDBRANCH   1   7
BRANCH   2  21
ATOM     21  O   UNL     1       8.058  22.441  45.317  1.00  0.00    -0.387 OA
ATOM     22  H   UNL     1       7.112  22.739  45.349  1.00  0.00     0.211 HD
ENDBRANCH   2  21
BRANCH   6  23
ATOM     23  O   UNL     1       9.582  20.988  47.230  1.00  0.00    -0.462 OA
BRANCH  23  24
ATOM     24  C   UNL     1      10.182  19.892  46.588  1.00  0.00     0.130 A 
ATOM     25  C   UNL     1       9.458  18.988  45.789  1.00  0.00     0.093 A 
ATOM     26  C   UNL     1      11.558  19.710  46.751  1.00  0.00     0.094 A 
ATOM     27  C   UNL     1      10.102  17.906  45.171  1.00  0.00     0.133 A 
ATOM     28  C   UNL     1      12.214  18.649  46.123  1.00  0.00     0.138 A 
ATOM     29  C   UNL     1      11.492  17.727  45.343  1.00  0.00     0.102 A 
ATOM     30  O   UNL     1      13.598  18.507  46.280  1.00  0.00    -0.484 OA
ATOM     31  C   UNL     1      12.232  16.581  44.764  1.00  0.00     0.174 C 
ATOM     32  C   UNL     1      14.376  17.656  45.434  1.00  0.00     0.211 C 
ATOM     33  O   UNL     1      11.677  15.786  43.958  1.00  0.00    -0.294 OA
ATOM     34  C   UNL     1      13.648  16.324  45.193  1.00  0.00     0.131 C 
BRANCH  27  35
ATOM     35  O   UNL     1       9.362  17.013  44.398  1.00  0.00    -0.507 OA
ATOM     36  H   UNL     1       8.452  16.679  44.694  1.00  0.00     0.293 HD
ENDBRANCH  27  35
BRANCH  32  37
ATOM     37  C   UNL     1      15.736  17.418  46.044  1.00  0.00    -0.007 A 
ATOM     38  C   UNL     1      16.231  18.271  47.048  1.00  0.00     0.011 A 
ATOM     39  C   UNL     1      16.497  16.302  45.658  1.00  0.00     0.011 A 
ATOM     40  C   UNL     1      17.478  18.027  47.630  1.00  0.00     0.046 A 
ATOM     41  C   UNL     1      17.742  16.058  46.245  1.00  0.00     0.046 A 
ATOM     42  C   UNL     1      18.236  16.922  47.232  1.00  0.00     0.115 A 
BRANCH  42  43
ATOM     43  O   UNL     1      19.477  16.690  47.822  1.00  0.00    -0.508 OA
ATOM     44  H   UNL     1      19.981  17.427  48.301  1.00  0.00     0.293 HD
ENDBRANCH  42  43
ENDBRANCH  32  37
ENDBRANCH  23  24
ENDBRANCH   6  23
BRANCH   3  45
ATOM     45  O   UNL     1       8.805  25.529  47.071  1.00  0.00    -0.387 OA
ATOM     46  H   UNL     1       8.374  26.166  46.443  1.00  0.00     0.211 HD
ENDBRANCH   3  45
BRANCH   4  47
ATOM     47  C   UNL     1       7.165  22.409  48.348  1.00  0.00     0.191 C 
BRANCH  47  48
ATOM     48  O   UNL     1       6.057  22.737  47.554  1.00  0.00    -0.394 OA
ATOM     49  H   UNL     1       5.400  23.184  48.147  1.00  0.00     0.210 HD
ENDBRANCH  47  48
ENDBRANCH   4  47
TORSDOF 14
ENDMDL
