MODEL 1
REMARK VINA RESULT:    -4.608      0.000      0.000
REMARK INTER + INTRA:         -10.252
REMARK INTER:                  -8.379
REMARK INTRA:                  -1.873
REMARK UNBOUND:                -1.873
REMARK SMILES CCCCCC=CCC=CCCCCCCCC(=O)[O-]
REMARK SMILES IDX 11 1 12 2 13 3 14 4 15 5 16 6 17 7 18 8 19 9 20 10 10 11
REMARK SMILES IDX 9 12 8 13 7 14 6 15 5 16 4 17 3 18 2 19 1 20
REMARK H PARENT
REMARK Flexibility Score: inf
ROOT
ATOM      1  C   UNL     1     103.742  85.901  95.712  1.00  0.00     0.027 C 
ENDROOT
BRANCH   1   2
ATOM      2  C   UNL     1     104.094  86.764  96.937  1.00  0.00     0.004 C 
BRANCH   2   3
ATOM      3  C   UNL     1     103.639  86.172  98.284  1.00  0.00     0.000 C 
BRANCH   3   4
ATOM      4  C   UNL     1     102.178  86.512  98.622  1.00  0.00     0.000 C 
BRANCH   4   5
ATOM      5  C   UNL     1     101.295  85.259  98.743  1.00  0.00     0.000 C 
BRANCH   5   6
ATOM      6  C   UNL     1     102.094  84.009  99.153  1.00  0.00     0.006 C 
BRANCH   6   7
ATOM      7  C   UNL     1     101.865  82.836  98.190  1.00  0.00     0.053 C 
BRANCH   7   8
ATOM      8  C   UNL     1     102.304  81.535  98.786  1.00  0.00     0.041 C 
ATOM      9  O   UNL     1     102.210  81.342 100.027  1.00  0.00    -0.550 OA
ATOM     10  O   UNL     1     102.849  80.548  97.976  1.00  0.00    -0.550 OA
ENDBRANCH   7   8
ENDBRANCH   6   7
ENDBRANCH   5   6
ENDBRANCH   4   5
ENDBRANCH   3   4
ENDBRANCH   2   3
ENDBRANCH   1   2
BRANCH   1  11
ATOM     11  C   UNL     1     104.631  86.196  94.529  1.00  0.00    -0.031 C 
ATOM     12  C   UNL     1     104.257  86.911  93.450  1.00  0.00    -0.027 C 
BRANCH  12  13
ATOM     13  C   UNL     1     102.917  87.583  93.298  1.00  0.00     0.054 C 
BRANCH  13  14
ATOM     14  C   UNL     1     102.857  88.860  94.100  1.00  0.00    -0.027 C 
ATOM     15  C   UNL     1     101.967  89.080  95.084  1.00  0.00    -0.031 C 
BRANCH  15  16
ATOM     16  C   UNL     1     100.883  88.110  95.489  1.00  0.00     0.027 C 
BRANCH  16  17
ATOM     17  C   UNL     1      99.489  88.581  95.046  1.00  0.00     0.004 C 
BRANCH  17  18
ATOM     18  C   UNL     1      99.088  87.996  93.682  1.00  0.00     0.000 C 
BRANCH  18  19
ATOM     19  C   UNL     1      98.500  89.054  92.737  1.00  0.00    -0.003 C 
ATOM     20  C   UNL     1      98.121  90.348  93.457  1.00  0.00     0.004 C 
ENDBRANCH  18  19
ENDBRANCH  17  18
ENDBRANCH  16  17
ENDBRANCH  15  16
ENDBRANCH  13  14
ENDBRANCH  12  13
ENDBRANCH   1  11
TORSDOF 14
ENDMDL
MODEL 2
REMARK VINA RESULT:    -4.572      4.635      7.793
REMARK INTER + INTRA:         -10.187
REMARK INTER:                  -8.083
REMARK INTRA:                  -2.103
REMARK UNBOUND:                -1.873
REMARK SMILES CCCCCC=CCC=CCCCCCCCC(=O)[O-]
REMARK SMILES IDX 11 1 12 2 13 3 14 4 15 5 16 6 17 7 18 8 19 9 20 10 10 11
REMARK SMILES IDX 9 12 8 13 7 14 6 15 5 16 4 17 3 18 2 19 1 20
REMARK H PARENT
REMARK Flexibility Score: inf
ROOT
ATOM      1  C   UNL     1     100.653  88.591  96.296  1.00  0.00     0.027 C 
ENDROOT
BRANCH   1   2
ATOM      2  C   UNL     1      99.788  89.837  96.556  1.00  0.00     0.004 C 
BRANCH   2   3
ATOM      3  C   UNL     1      98.270  89.571  96.550  1.00  0.00     0.000 C 
BRANCH   3   4
ATOM      4  C   UNL     1      97.498  90.543  95.642  1.00  0.00     0.000 C 
BRANCH   4   5
ATOM      5  C   UNL     1      98.287  90.920  94.378  1.00  0.00     0.000 C 
BRANCH   5   6
ATOM      6  C   UNL     1      97.972  89.997  93.186  1.00  0.00     0.006 C 
BRANCH   6   7
ATOM      7  C   UNL     1      98.705  90.432  91.910  1.00  0.00     0.053 C 
BRANCH   7   8
ATOM      8  C   UNL     1      97.869  90.212  90.687  1.00  0.00     0.041 C 
ATOM      9  O   UNL     1      98.396  90.251  89.544  1.00  0.00    -0.550 OA
ATOM     10  O   UNL     1      96.503  89.998  90.808  1.00  0.00    -0.550 OA
ENDBRANCH   7   8
ENDBRANCH   6   7
ENDBRANCH   5   6
ENDBRANCH   4   5
ENDBRANCH   3   4
ENDBRANCH   2   3
ENDBRANCH   1   2
BRANCH   1  11
ATOM     11  C   UNL     1     100.351  87.952  94.962  1.00  0.00    -0.031 C 
ATOM     12  C   UNL     1     101.202  87.920  93.919  1.00  0.00    -0.027 C 
BRANCH  12  13
ATOM     13  C   UNL     1     102.610  88.456  93.952  1.00  0.00     0.054 C 
BRANCH  13  14
ATOM     14  C   UNL     1     103.573  87.489  93.308  1.00  0.00    -0.027 C 
ATOM     15  C   UNL     1     104.297  86.589  93.995  1.00  0.00    -0.031 C 
BRANCH  15  16
ATOM     16  C   UNL     1     104.285  86.452  95.499  1.00  0.00     0.027 C 
BRANCH  16  17
ATOM     17  C   UNL     1     103.132  85.563  95.990  1.00  0.00     0.004 C 
BRANCH  17  18
ATOM     18  C   UNL     1     102.800  85.813  97.470  1.00  0.00     0.000 C 
BRANCH  18  19
ATOM     19  C   UNL     1     103.869  86.658  98.180  1.00  0.00    -0.003 C 
ATOM     20  C   UNL     1     104.368  86.017  99.474  1.00  0.00     0.004 C 
ENDBRANCH  18  19
ENDBRANCH  17  18
ENDBRANCH  16  17
ENDBRANCH  15  16
ENDBRANCH  13  14
ENDBRANCH  12  13
ENDBRANCH   1  11
TORSDOF 14
ENDMDL
MODEL 3
REMARK VINA RESULT:    -4.528      4.034      7.004
REMARK INTER + INTRA:         -10.107
REMARK INTER:                  -8.403
REMARK INTRA:                  -1.704
REMARK UNBOUND:                -1.873
REMARK SMILES CCCCCC=CCC=CCCCCCCCC(=O)[O-]
REMARK SMILES IDX 11 1 12 2 13 3 14 4 15 5 16 6 17 7 18 8 19 9 20 10 10 11
REMARK SMILES IDX 9 12 8 13 7 14 6 15 5 16 4 17 3 18 2 19 1 20
REMARK H PARENT
REMARK Flexibility Score: inf
ROOT
ATOM      1  C   UNL     1     102.429  87.931  93.624  1.00  0.00     0.027 C 
ENDROOT
BRANCH   1   2
ATOM      2  C   UNL     1     102.458  89.272  94.378  1.00  0.00     0.004 C 
BRANCH   2   3
ATOM      3  C   UNL     1     101.798  89.233  95.770  1.00  0.00     0.000 C 
BRANCH   3   4
ATOM      4  C   UNL     1     100.591  88.282  95.832  1.00  0.00     0.000 C 
BRANCH   4   5
ATOM      5  C   UNL     1      99.387  88.906  96.557  1.00  0.00     0.000 C 
BRANCH   5   6
ATOM      6  C   UNL     1      98.232  89.251  95.600  1.00  0.00     0.006 C 
BRANCH   6   7
ATOM      7  C   UNL     1      98.617  89.035  94.130  1.00  0.00     0.053 C 
BRANCH   7   8
ATOM      8  C   UNL     1      98.405  90.273  93.314  1.00  0.00     0.041 C 
ATOM      9  O   UNL     1      97.503  90.306  92.435  1.00  0.00    -0.550 OA
ATOM     10  O   UNL     1      99.226  91.377  93.499  1.00  0.00    -0.550 OA
ENDBRANCH   7   8
ENDBRANCH   6   7
ENDBRANCH   5   6
ENDBRANCH   4   5
ENDBRANCH   3   4
ENDBRANCH   2   3
ENDBRANCH   1   2
BRANCH   1  11
ATOM     11  C   UNL     1     103.713  87.666  92.876  1.00  0.00    -0.031 C 
ATOM     12  C   UNL     1     104.620  86.732  93.221  1.00  0.00    -0.027 C 
BRANCH  12  13
ATOM     13  C   UNL     1     104.454  85.765  94.363  1.00  0.00     0.054 C 
BRANCH  13  14
ATOM     14  C   UNL     1     104.563  86.471  95.693  1.00  0.00    -0.027 C 
ATOM     15  C   UNL     1     103.728  86.251  96.724  1.00  0.00    -0.031 C 
BRANCH  15  16
ATOM     16  C   UNL     1     102.548  85.310  96.682  1.00  0.00     0.027 C 
BRANCH  16  17
ATOM     17  C   UNL     1     102.212  84.740  98.068  1.00  0.00     0.004 C 
BRANCH  17  18
ATOM     18  C   UNL     1     102.007  83.217  98.032  1.00  0.00     0.000 C 
BRANCH  18  19
ATOM     19  C   UNL     1     102.042  82.583  99.431  1.00  0.00    -0.003 C 
ATOM     20  C   UNL     1     100.713  81.938  99.823  1.00  0.00     0.004 C 
ENDBRANCH  18  19
ENDBRANCH  17  18
ENDBRANCH  16  17
ENDBRANCH  15  16
ENDBRANCH  13  14
ENDBRANCH  12  13
ENDBRANCH   1  11
TORSDOF 14
ENDMDL
MODEL 4
REMARK VINA RESULT:    -4.525      5.586      8.607
REMARK INTER + INTRA:         -10.101
REMARK INTER:                  -7.616
REMARK INTRA:                  -2.485
REMARK UNBOUND:                -1.873
REMARK SMILES CCCCCC=CCC=CCCCCCCCC(=O)[O-]
REMARK SMILES IDX 11 1 12 2 13 3 14 4 15 5 16 6 17 7 18 8 19 9 20 10 10 11
REMARK SMILES IDX 9 12 8 13 7 14 6 15 5 16 4 17 3 18 2 19 1 20
REMARK H PARENT
REMARK Flexibility Score: inf
ROOT
ATOM      1  C   UNL     1     100.025  91.756  96.146  1.00  0.00     0.027 C 
ENDROOT
BRANCH   1   2
ATOM      2  C   UNL     1     100.924  92.199  94.978  1.00  0.00     0.004 C 
BRANCH   2   3
ATOM      3  C   UNL     1     100.157  92.630  93.713  1.00  0.00     0.000 C 
BRANCH   3   4
ATOM      4  C   UNL     1     100.115  91.531  92.638  1.00  0.00     0.000 C 
BRANCH   4   5
ATOM      5  C   UNL     1      98.795  91.529  91.849  1.00  0.00     0.000 C 
BRANCH   5   6
ATOM      6  C   UNL     1      98.560  90.210  91.091  1.00  0.00     0.006 C 
BRANCH   6   7
ATOM      7  C   UNL     1      97.177  89.614  91.385  1.00  0.00     0.053 C 
BRANCH   7   8
ATOM      8  C   UNL     1      96.083  90.409  90.743  1.00  0.00     0.041 C 
ATOM      9  O   UNL     1      96.045  90.539  89.491  1.00  0.00    -0.550 OA
ATOM     10  O   UNL     1      95.125  91.035  91.529  1.00  0.00    -0.550 OA
ENDBRANCH   7   8
ENDBRANCH   6   7
ENDBRANCH   5   6
ENDBRANCH   4   5
ENDBRANCH   3   4
ENDBRANCH   2   3
ENDBRANCH   1   2
BRANCH   1  11
ATOM     11  C   UNL     1      98.583  91.597  95.731  1.00  0.00    -0.031 C 
ATOM     12  C   UNL     1      97.973  90.415  95.519  1.00  0.00    -0.027 C 
BRANCH  12  13
ATOM     13  C   UNL     1      98.623  89.072  95.732  1.00  0.00     0.054 C 
BRANCH  13  14
ATOM     14  C   UNL     1      98.986  88.430  94.416  1.00  0.00    -0.027 C 
ATOM     15  C   UNL     1     100.251  88.180  94.032  1.00  0.00    -0.031 C 
BRANCH  15  16
ATOM     16  C   UNL     1     101.475  88.548  94.834  1.00  0.00     0.027 C 
BRANCH  16  17
ATOM     17  C   UNL     1     102.775  88.301  94.054  1.00  0.00     0.004 C 
BRANCH  17  18
ATOM     18  C   UNL     1     103.576  87.119  94.624  1.00  0.00     0.000 C 
BRANCH  18  19
ATOM     19  C   UNL     1     104.492  86.468  93.577  1.00  0.00    -0.003 C 
ATOM     20  C   UNL     1     104.482  87.206  92.239  1.00  0.00     0.004 C 
ENDBRANCH  18  19
ENDBRANCH  17  18
ENDBRANCH  16  17
ENDBRANCH  15  16
ENDBRANCH  13  14
ENDBRANCH  12  13
ENDBRANCH   1  11
TORSDOF 14
ENDMDL
MODEL 5
REMARK VINA RESULT:    -4.465      4.234      6.820
REMARK INTER + INTRA:          -9.992
REMARK INTER:                  -7.334
REMARK INTRA:                  -2.658
REMARK UNBOUND:                -1.873
REMARK SMILES CCCCCC=CCC=CCCCCCCCC(=O)[O-]
REMARK SMILES IDX 11 1 12 2 13 3 14 4 15 5 16 6 17 7 18 8 19 9 20 10 10 11
REMARK SMILES IDX 9 12 8 13 7 14 6 15 5 16 4 17 3 18 2 19 1 20
REMARK H PARENT
REMARK Flexibility Score: inf
ROOT
ATOM      1  C   UNL     1     102.338  87.854  93.528  1.00  0.00     0.027 C 
ENDROOT
BRANCH   1   2
ATOM      2  C   UNL     1     102.334  89.121  94.401  1.00  0.00     0.004 C 
BRANCH   2   3
ATOM      3  C   UNL     1     101.338  89.082  95.576  1.00  0.00     0.000 C 
BRANCH   3   4
ATOM      4  C   UNL     1     100.103  88.214  95.282  1.00  0.00     0.000 C 
BRANCH   4   5
ATOM      5  C   UNL     1      98.786  88.931  95.621  1.00  0.00     0.000 C 
BRANCH   5   6
ATOM      6  C   UNL     1      98.627  90.265  94.869  1.00  0.00     0.006 C 
BRANCH   6   7
ATOM      7  C   UNL     1      98.182  90.058  93.415  1.00  0.00     0.053 C 
BRANCH   7   8
ATOM      8  C   UNL     1      98.922  90.959  92.474  1.00  0.00     0.041 C 
ATOM      9  O   UNL     1     100.108  91.300  92.725  1.00  0.00    -0.550 OA
ATOM     10  O   UNL     1      98.290  91.449  91.339  1.00  0.00    -0.550 OA
ENDBRANCH   7   8
ENDBRANCH   6   7
ENDBRANCH   5   6
ENDBRANCH   4   5
ENDBRANCH   3   4
ENDBRANCH   2   3
ENDBRANCH   1   2
BRANCH   1  11
ATOM     11  C   UNL     1     103.653  87.653  92.815  1.00  0.00    -0.031 C 
ATOM     12  C   UNL     1     104.603  86.777  93.194  1.00  0.00    -0.027 C 
BRANCH  12  13
ATOM     13  C   UNL     1     104.463  85.815  94.346  1.00  0.00     0.054 C 
BRANCH  13  14
ATOM     14  C   UNL     1     104.667  86.518  95.666  1.00  0.00    -0.027 C 
ATOM     15  C   UNL     1     103.812  86.423  96.700  1.00  0.00    -0.031 C 
BRANCH  15  16
ATOM     16  C   UNL     1     102.517  85.648  96.670  1.00  0.00     0.027 C 
BRANCH  16  17
ATOM     17  C   UNL     1     101.709  85.819  97.965  1.00  0.00     0.004 C 
BRANCH  17  18
ATOM     18  C   UNL     1     102.271  86.942  98.852  1.00  0.00     0.000 C 
BRANCH  18  19
ATOM     19  C   UNL     1     101.225  88.020  99.172  1.00  0.00    -0.003 C 
ATOM     20  C   UNL     1      99.792  87.545  98.935  1.00  0.00     0.004 C 
ENDBRANCH  18  19
ENDBRANCH  17  18
ENDBRANCH  16  17
ENDBRANCH  15  16
ENDBRANCH  13  14
ENDBRANCH  12  13
ENDBRANCH   1  11
TORSDOF 14
ENDMDL
MODEL 6
REMARK VINA RESULT:    -4.463      6.382      9.410
REMARK INTER + INTRA:          -9.988
REMARK INTER:                  -6.972
REMARK INTRA:                  -3.015
REMARK UNBOUND:                -1.873
REMARK SMILES CCCCCC=CCC=CCCCCCCCC(=O)[O-]
REMARK SMILES IDX 11 1 12 2 13 3 14 4 15 5 16 6 17 7 18 8 19 9 20 10 10 11
REMARK SMILES IDX 9 12 8 13 7 14 6 15 5 16 4 17 3 18 2 19 1 20
REMARK H PARENT
REMARK Flexibility Score: inf
ROOT
ATOM      1  C   UNL     1     100.304  91.668  92.677  1.00  0.00     0.027 C 
ENDROOT
BRANCH   1   2
ATOM      2  C   UNL     1      99.624  92.485  91.565  1.00  0.00     0.004 C 
BRANCH   2   3
ATOM      3  C   UNL     1      98.908  91.635  90.497  1.00  0.00     0.000 C 
BRANCH   3   4
ATOM      4  C   UNL     1      98.506  90.243  91.015  1.00  0.00     0.000 C 
BRANCH   4   5
ATOM      5  C   UNL     1      97.010  89.950  90.811  1.00  0.00     0.000 C 
BRANCH   5   6
ATOM      6  C   UNL     1      96.121  90.658  91.850  1.00  0.00     0.006 C 
BRANCH   6   7
ATOM      7  C   UNL     1      94.818  91.184  91.231  1.00  0.00     0.053 C 
BRANCH   7   8
ATOM      8  C   UNL     1      95.083  92.101  90.077  1.00  0.00     0.041 C 
ATOM      9  O   UNL     1      95.643  93.213  90.267  1.00  0.00    -0.550 OA
ATOM     10  O   UNL     1      94.680  91.743  88.798  1.00  0.00    -0.550 OA
ENDBRANCH   7   8
ENDBRANCH   6   7
ENDBRANCH   5   6
ENDBRANCH   4   5
ENDBRANCH   3   4
ENDBRANCH   2   3
ENDBRANCH   1   2
BRANCH   1  11
ATOM     11  C   UNL     1     100.198  92.335  94.026  1.00  0.00    -0.031 C 
ATOM     12  C   UNL     1      99.274  92.035  94.958  1.00  0.00    -0.027 C 
BRANCH  12  13
ATOM     13  C   UNL     1      98.251  90.937  94.819  1.00  0.00     0.054 C 
BRANCH  13  14
ATOM     14  C   UNL     1      98.585  89.770  95.715  1.00  0.00    -0.027 C 
ATOM     15  C   UNL     1      98.927  88.552  95.256  1.00  0.00    -0.031 C 
BRANCH  15  16
ATOM     16  C   UNL     1      98.979  88.174  93.796  1.00  0.00     0.027 C 
BRANCH  16  17
ATOM     17  C   UNL     1     100.418  87.967  93.302  1.00  0.00     0.004 C 
BRANCH  17  18
ATOM     18  C   UNL     1     101.428  87.936  94.461  1.00  0.00     0.000 C 
BRANCH  18  19
ATOM     19  C   UNL     1     102.472  89.059  94.364  1.00  0.00    -0.003 C 
ATOM     20  C   UNL     1     102.544  89.913  95.629  1.00  0.00     0.004 C 
ENDBRANCH  18  19
ENDBRANCH  17  18
ENDBRANCH  16  17
ENDBRANCH  15  16
ENDBRANCH  13  14
ENDBRANCH  12  13
ENDBRANCH   1  11
TORSDOF 14
ENDMDL
MODEL 7
REMARK VINA RESULT:    -4.345      4.787      8.109
REMARK INTER + INTRA:          -9.775
REMARK INTER:                  -7.457
REMARK INTRA:                  -2.318
REMARK UNBOUND:                -1.873
REMARK SMILES CCCCCC=CCC=CCCCCCCCC(=O)[O-]
REMARK SMILES IDX 11 1 12 2 13 3 14 4 15 5 16 6 17 7 18 8 19 9 20 10 10 11
REMARK SMILES IDX 9 12 8 13 7 14 6 15 5 16 4 17 3 18 2 19 1 20
REMARK H PARENT
REMARK Flexibility Score: inf
ROOT
ATOM      1  C   UNL     1      99.651  89.079  96.583  1.00  0.00     0.027 C 
ENDROOT
BRANCH   1   2
ATOM      2  C   UNL     1      98.640  88.927  95.433  1.00  0.00     0.004 C 
BRANCH   2   3
ATOM      3  C   UNL     1      99.143  88.076  94.251  1.00  0.00     0.000 C 
BRANCH   3   4
ATOM      4  C   UNL     1      99.176  88.856  92.926  1.00  0.00     0.000 C 
BRANCH   4   5
ATOM      5  C   UNL     1      98.391  90.176  93.001  1.00  0.00     0.000 C 
BRANCH   5   6
ATOM      6  C   UNL     1      99.285  91.410  92.782  1.00  0.00     0.006 C 
BRANCH   6   7
ATOM      7  C   UNL     1      99.530  91.688  91.293  1.00  0.00     0.053 C 
BRANCH   7   8
ATOM      8  C   UNL     1      98.347  91.312  90.456  1.00  0.00     0.041 C 
ATOM      9  O   UNL     1      98.421  90.344  89.653  1.00  0.00    -0.550 OA
ATOM     10  O   UNL     1      97.174  92.051  90.538  1.00  0.00    -0.550 OA
ENDBRANCH   7   8
ENDBRANCH   6   7
ENDBRANCH   5   6
ENDBRANCH   4   5
ENDBRANCH   3   4
ENDBRANCH   2   3
ENDBRANCH   1   2
BRANCH   1  11
ATOM     11  C   UNL     1     100.119  90.504  96.749  1.00  0.00    -0.031 C 
ATOM     12  C   UNL     1     101.385  90.921  96.552  1.00  0.00    -0.027 C 
BRANCH  12  13
ATOM     13  C   UNL     1     102.506  90.040  96.067  1.00  0.00     0.054 C 
BRANCH  13  14
ATOM     14  C   UNL     1     102.839  90.330  94.624  1.00  0.00    -0.027 C 
ATOM     15  C   UNL     1     102.908  89.384  93.670  1.00  0.00    -0.031 C 
BRANCH  15  16
ATOM     16  C   UNL     1     102.711  87.908  93.915  1.00  0.00     0.027 C 
BRANCH  16  17
ATOM     17  C   UNL     1     103.934  87.082  93.490  1.00  0.00     0.004 C 
BRANCH  17  18
ATOM     18  C   UNL     1     104.398  86.123  94.598  1.00  0.00     0.000 C 
BRANCH  18  19
ATOM     19  C   UNL     1     103.742  86.428  95.954  1.00  0.00    -0.003 C 
ATOM     20  C   UNL     1     102.774  85.334  96.403  1.00  0.00     0.004 C 
ENDBRANCH  18  19
ENDBRANCH  17  18
ENDBRANCH  16  17
ENDBRANCH  15  16
ENDBRANCH  13  14
ENDBRANCH  12  13
ENDBRANCH   1  11
TORSDOF 14
ENDMDL
MODEL 8
REMARK VINA RESULT:    -4.344      5.992      8.690
REMARK INTER + INTRA:          -9.771
REMARK INTER:                  -6.726
REMARK INTRA:                  -3.045
REMARK UNBOUND:                -1.873
REMARK SMILES CCCCCC=CCC=CCCCCCCCC(=O)[O-]
REMARK SMILES IDX 11 1 12 2 13 3 14 4 15 5 16 6 17 7 18 8 19 9 20 10 10 11
REMARK SMILES IDX 9 12 8 13 7 14 6 15 5 16 4 17 3 18 2 19 1 20
REMARK H PARENT
REMARK Flexibility Score: inf
ROOT
ATOM      1  C   UNL     1      98.404  89.239  96.737  1.00  0.00     0.027 C 
ENDROOT
BRANCH   1   2
ATOM      2  C   UNL     1      99.277  88.656  95.612  1.00  0.00     0.004 C 
BRANCH   2   3
ATOM      3  C   UNL     1      98.678  88.805  94.200  1.00  0.00     0.000 C 
BRANCH   3   4
ATOM      4  C   UNL     1      99.566  89.637  93.260  1.00  0.00     0.000 C 
BRANCH   4   5
ATOM      5  C   UNL     1      98.755  90.619  92.399  1.00  0.00     0.000 C 
BRANCH   5   6
ATOM      6  C   UNL     1      97.237  90.486  92.620  1.00  0.00     0.006 C 
BRANCH   6   7
ATOM      7  C   UNL     1      96.484  90.226  91.308  1.00  0.00     0.053 C 
BRANCH   7   8
ATOM      8  C   UNL     1      95.715  91.430  90.862  1.00  0.00     0.041 C 
ATOM      9  O   UNL     1      96.303  92.374  90.269  1.00  0.00    -0.550 OA
ATOM     10  O   UNL     1      94.356  91.527  91.130  1.00  0.00    -0.550 OA
ENDBRANCH   7   8
ENDBRANCH   6   7
ENDBRANCH   5   6
ENDBRANCH   4   5
ENDBRANCH   3   4
ENDBRANCH   2   3
ENDBRANCH   1   2
BRANCH   1  11
ATOM     11  C   UNL     1      97.365  90.202  96.216  1.00  0.00    -0.031 C 
ATOM     12  C   UNL     1      97.477  91.544  96.257  1.00  0.00    -0.027 C 
BRANCH  12  13
ATOM     13  C   UNL     1      98.688  92.282  96.764  1.00  0.00     0.054 C 
BRANCH  13  14
ATOM     14  C   UNL     1      99.692  92.500  95.658  1.00  0.00    -0.027 C 
ATOM     15  C   UNL     1     100.955  92.037  95.696  1.00  0.00    -0.031 C 
BRANCH  15  16
ATOM     16  C   UNL     1     101.554  91.285  96.860  1.00  0.00     0.027 C 
BRANCH  16  17
ATOM     17  C   UNL     1     102.839  90.541  96.468  1.00  0.00     0.004 C 
BRANCH  17  18
ATOM     18  C   UNL     1     102.752  89.943  95.054  1.00  0.00     0.000 C 
BRANCH  18  19
ATOM     19  C   UNL     1     102.916  88.415  95.049  1.00  0.00    -0.003 C 
ATOM     20  C   UNL     1     102.840  87.815  93.646  1.00  0.00     0.004 C 
ENDBRANCH  18  19
ENDBRANCH  17  18
ENDBRANCH  16  17
ENDBRANCH  15  16
ENDBRANCH  13  14
ENDBRANCH  12  13
ENDBRANCH   1  11
TORSDOF 14
ENDMDL
MODEL 9
REMARK VINA RESULT:    -4.314      5.388      8.859
REMARK INTER + INTRA:          -9.718
REMARK INTER:                  -7.697
REMARK INTRA:                  -2.021
REMARK UNBOUND:                -1.873
REMARK SMILES CCCCCC=CCC=CCCCCCCCC(=O)[O-]
REMARK SMILES IDX 11 1 12 2 13 3 14 4 15 5 16 6 17 7 18 8 19 9 20 10 10 11
REMARK SMILES IDX 9 12 8 13 7 14 6 15 5 16 4 17 3 18 2 19 1 20
REMARK H PARENT
REMARK Flexibility Score: inf
ROOT
ATOM      1  C   UNL     1      97.642  89.357  96.298  1.00  0.00     0.027 C 
ENDROOT
BRANCH   1   2
ATOM      2  C   UNL     1      97.527  90.724  95.600  1.00  0.00     0.004 C 
BRANCH   2   3
ATOM      3  C   UNL     1      98.325  90.836  94.287  1.00  0.00     0.000 C 
BRANCH   3   4
ATOM      4  C   UNL     1      98.615  89.468  93.646  1.00  0.00     0.000 C 
BRANCH   4   5
ATOM      5  C   UNL     1      98.043  89.351  92.224  1.00  0.00     0.000 C 
BRANCH   5   6
ATOM      6  C   UNL     1      97.397  90.660  91.735  1.00  0.00     0.006 C 
BRANCH   6   7
ATOM      7  C   UNL     1      96.113  90.406  90.934  1.00  0.00     0.053 C 
BRANCH   7   8
ATOM      8  C   UNL     1      95.378  91.678  90.645  1.00  0.00     0.041 C 
ATOM      9  O   UNL     1      95.969  92.637  90.080  1.00  0.00    -0.550 OA
ATOM     10  O   UNL     1      94.052  91.818  91.031  1.00  0.00    -0.550 OA
ENDBRANCH   7   8
ENDBRANCH   6   7
ENDBRANCH   5   6
ENDBRANCH   4   5
ENDBRANCH   3   4
ENDBRANCH   2   3
ENDBRANCH   1   2
BRANCH   1  11
ATOM     11  C   UNL     1      98.422  89.435  97.587  1.00  0.00    -0.031 C 
ATOM     12  C   UNL     1      99.684  88.991  97.745  1.00  0.00    -0.027 C 
BRANCH  12  13
ATOM     13  C   UNL     1     100.529  88.415  96.639  1.00  0.00     0.054 C 
BRANCH  13  14
ATOM     14  C   UNL     1     101.411  89.474  96.023  1.00  0.00    -0.027 C 
ATOM     15  C   UNL     1     102.099  89.298  94.881  1.00  0.00    -0.031 C 
BRANCH  15  16
ATOM     16  C   UNL     1     102.125  88.014  94.088  1.00  0.00     0.027 C 
BRANCH  16  17
ATOM     17  C   UNL     1     103.555  87.582  93.731  1.00  0.00     0.004 C 
BRANCH  17  18
ATOM     18  C   UNL     1     103.969  86.294  94.462  1.00  0.00     0.000 C 
BRANCH  18  19
ATOM     19  C   UNL     1     103.868  86.426  95.990  1.00  0.00    -0.003 C 
ATOM     20  C   UNL     1     102.826  85.488  96.598  1.00  0.00     0.004 C 
ENDBRANCH  18  19
ENDBRANCH  17  18
ENDBRANCH  16  17
ENDBRANCH  15  16
ENDBRANCH  13  14
ENDBRANCH  12  13
ENDBRANCH   1  11
TORSDOF 14
ENDMDL
