MODEL 1
REMARK VINA RESULT:    -6.704      0.000      0.000
REMARK INTER + INTRA:          -7.488
REMARK INTER:                  -7.292
REMARK INTRA:                  -0.197
REMARK UNBOUND:                -0.197
REMARK SMILES C=C1C[C@@]2(O)O[C@@]3(C[C@H]2C(C)C)[C@@H](C)CC[C@@H]13
REMARK SMILES IDX 14 1 13 2 15 3 16 4 17 5 7 6 8 7 9 8 4 9 6 10 3 11 2 12 1 13
REMARK SMILES IDX 10 14 11 15 12 16 5 17
REMARK H PARENT 5 18
REMARK Flexibility Score: inf
ROOT
ATOM      1  C   UNL     1     -15.008  -7.587  -1.016  1.00  0.00     0.011 C 
ATOM      2  C   UNL     1     -15.921  -6.466  -1.534  1.00  0.00     0.019 C 
ATOM      3  C   UNL     1     -15.445  -5.072  -1.100  1.00  0.00     0.007 C 
ATOM      4  C   UNL     1     -15.650  -4.136  -2.294  1.00  0.00     0.011 C 
ATOM      5  C   UNL     1     -16.408  -4.944  -3.347  1.00  0.00     0.047 C 
ATOM      6  C   UNL     1     -16.017  -6.403  -3.066  1.00  0.00     0.081 C 
ATOM      7  C   UNL     1     -17.013  -7.392  -3.682  1.00  0.00     0.046 C 
ATOM      8  C   UNL     1     -16.342  -7.795  -4.994  1.00  0.00     0.054 C 
ATOM      9  C   UNL     1     -15.083  -6.879  -5.022  1.00  0.00     0.173 C 
ATOM     10  O   UNL     1     -14.769  -6.658  -3.670  1.00  0.00    -0.342 OA
ATOM     11  C   UNL     1     -15.285  -5.475  -5.674  1.00  0.00     0.096 C 
ATOM     12  C   UNL     1     -16.065  -4.536  -4.771  1.00  0.00    -0.066 C 
ATOM     13  C   UNL     1     -16.439  -3.335  -5.233  1.00  0.00     0.008 C 
ENDROOT
BRANCH   8  14
ATOM     14  C   UNL     1     -17.314  -7.771  -6.219  1.00  0.00    -0.009 C 
ATOM     15  C   UNL     1     -16.673  -8.380  -7.481  1.00  0.00     0.008 C 
ATOM     16  C   UNL     1     -18.601  -8.562  -5.909  1.00  0.00     0.008 C 
ENDBRANCH   8  14
BRANCH   9  17
ATOM     17  O   UNL     1     -13.998  -7.556  -5.611  1.00  0.00    -0.365 OA
ATOM     18  H   UNL     1     -13.187  -6.999  -5.504  1.00  0.00     0.214 HD
ENDBRANCH   9  17
TORSDOF 2
ENDMDL
MODEL 2
REMARK VINA RESULT:    -6.221      1.744      3.416
REMARK INTER + INTRA:          -6.963
REMARK INTER:                  -6.594
REMARK INTRA:                  -0.369
REMARK UNBOUND:                -0.197
REMARK SMILES C=C1C[C@@]2(O)O[C@@]3(C[C@H]2C(C)C)[C@@H](C)CC[C@@H]13
REMARK SMILES IDX 14 1 13 2 15 3 16 4 17 5 7 6 8 7 9 8 4 9 6 10 3 11 2 12 1 13
REMARK SMILES IDX 10 14 11 15 12 16 5 17
REMARK H PARENT 5 18
REMARK Flexibility Score: inf
ROOT
ATOM      1  C   UNL     1     -16.162  -3.144  -5.229  1.00  0.00     0.011 C 
ATOM      2  C   UNL     1     -15.462  -4.149  -4.302  1.00  0.00     0.019 C 
ATOM      3  C   UNL     1     -15.823  -3.934  -2.824  1.00  0.00     0.007 C 
ATOM      4  C   UNL     1     -15.992  -5.322  -2.199  1.00  0.00     0.011 C 
ATOM      5  C   UNL     1     -15.554  -6.329  -3.262  1.00  0.00     0.047 C 
ATOM      6  C   UNL     1     -15.815  -5.614  -4.597  1.00  0.00     0.081 C 
ATOM      7  C   UNL     1     -15.018  -6.240  -5.747  1.00  0.00     0.046 C 
ATOM      8  C   UNL     1     -16.031  -7.174  -6.409  1.00  0.00     0.054 C 
ATOM      9  C   UNL     1     -17.264  -7.054  -5.465  1.00  0.00     0.173 C 
ATOM     10  O   UNL     1     -17.179  -5.759  -4.925  1.00  0.00    -0.342 OA
ATOM     11  C   UNL     1     -17.290  -8.045  -4.260  1.00  0.00     0.096 C 
ATOM     12  C   UNL     1     -16.303  -7.649  -3.176  1.00  0.00    -0.066 C 
ATOM     13  C   UNL     1     -16.104  -8.465  -2.133  1.00  0.00     0.008 C 
ENDROOT
BRANCH   8  14
ATOM     14  C   UNL     1     -15.455  -8.596  -6.713  1.00  0.00    -0.009 C 
ATOM     15  C   UNL     1     -15.586  -8.968  -8.203  1.00  0.00     0.008 C 
ATOM     16  C   UNL     1     -13.964  -8.673  -6.331  1.00  0.00     0.008 C 
ENDBRANCH   8  14
BRANCH   9  17
ATOM     17  O   UNL     1     -18.458  -7.132  -6.207  1.00  0.00    -0.365 OA
ATOM     18  H   UNL     1     -18.679  -6.227  -6.541  1.00  0.00     0.214 HD
ENDBRANCH   9  17
TORSDOF 2
ENDMDL
MODEL 3
REMARK VINA RESULT:    -5.800      1.716      2.825
REMARK INTER + INTRA:          -6.506
REMARK INTER:                  -6.120
REMARK INTRA:                  -0.385
REMARK UNBOUND:                -0.197
REMARK SMILES C=C1C[C@@]2(O)O[C@@]3(C[C@H]2C(C)C)[C@@H](C)CC[C@@H]13
REMARK SMILES IDX 14 1 13 2 15 3 16 4 17 5 7 6 8 7 9 8 4 9 6 10 3 11 2 12 1 13
REMARK SMILES IDX 10 14 11 15 12 16 5 17
REMARK H PARENT 5 18
REMARK Flexibility Score: inf
ROOT
ATOM      1  C   UNL     1     -12.247  -8.765  -4.293  1.00  0.00     0.011 C 
ATOM      2  C   UNL     1     -13.595  -8.981  -3.589  1.00  0.00     0.019 C 
ATOM      3  C   UNL     1     -13.550  -8.594  -2.103  1.00  0.00     0.007 C 
ATOM      4  C   UNL     1     -14.873  -7.892  -1.783  1.00  0.00     0.011 C 
ATOM      5  C   UNL     1     -15.747  -8.035  -3.028  1.00  0.00     0.047 C 
ATOM      6  C   UNL     1     -14.746  -8.160  -4.187  1.00  0.00     0.081 C 
ATOM      7  C   UNL     1     -15.388  -8.779  -5.434  1.00  0.00     0.046 C 
ATOM      8  C   UNL     1     -15.744  -7.562  -6.287  1.00  0.00     0.054 C 
ATOM      9  C   UNL     1     -15.366  -6.375  -5.353  1.00  0.00     0.173 C 
ATOM     10  O   UNL     1     -14.319  -6.866  -4.553  1.00  0.00    -0.342 OA
ATOM     11  C   UNL     1     -16.490  -5.897  -4.381  1.00  0.00     0.096 C 
ATOM     12  C   UNL     1     -16.695  -6.863  -3.228  1.00  0.00    -0.066 C 
ATOM     13  C   UNL     1     -17.710  -6.670  -2.376  1.00  0.00     0.008 C 
ENDROOT
BRANCH   8  14
ATOM     14  C   UNL     1     -17.192  -7.621  -6.876  1.00  0.00    -0.009 C 
ATOM     15  C   UNL     1     -17.190  -7.873  -8.396  1.00  0.00     0.008 C 
ATOM     16  C   UNL     1     -18.007  -8.746  -6.207  1.00  0.00     0.008 C 
ENDBRANCH   8  14
BRANCH   9  17
ATOM     17  O   UNL     1     -14.862  -5.299  -6.107  1.00  0.00    -0.365 OA
ATOM     18  H   UNL     1     -14.251  -4.772  -5.532  1.00  0.00     0.214 HD
ENDBRANCH   9  17
TORSDOF 2
ENDMDL
MODEL 4
REMARK VINA RESULT:    -5.365      1.592      4.398
REMARK INTER + INTRA:          -6.032
REMARK INTER:                  -5.862
REMARK INTRA:                  -0.170
REMARK UNBOUND:                -0.197
REMARK SMILES C=C1C[C@@]2(O)O[C@@]3(C[C@H]2C(C)C)[C@@H](C)CC[C@@H]13
REMARK SMILES IDX 14 1 13 2 15 3 16 4 17 5 7 6 8 7 9 8 4 9 6 10 3 11 2 12 1 13
REMARK SMILES IDX 10 14 11 15 12 16 5 17
REMARK H PARENT 5 18
REMARK Flexibility Score: inf
ROOT
ATOM      1  C   UNL     1     -16.218  -7.193  -6.218  1.00  0.00     0.011 C 
ATOM      2  C   UNL     1     -15.488  -6.113  -5.405  1.00  0.00     0.019 C 
ATOM      3  C   UNL     1     -16.115  -4.722  -5.582  1.00  0.00     0.007 C 
ATOM      4  C   UNL     1     -16.101  -4.046  -4.208  1.00  0.00     0.011 C 
ATOM      5  C   UNL     1     -15.308  -4.969  -3.284  1.00  0.00     0.047 C 
ATOM      6  C   UNL     1     -15.490  -6.368  -3.891  1.00  0.00     0.081 C 
ATOM      7  C   UNL     1     -14.412  -7.346  -3.410  1.00  0.00     0.046 C 
ATOM      8  C   UNL     1     -15.100  -8.095  -2.269  1.00  0.00     0.054 C 
ATOM      9  C   UNL     1     -16.466  -7.356  -2.159  1.00  0.00     0.173 C 
ATOM     10  O   UNL     1     -16.728  -6.888  -3.459  1.00  0.00    -0.342 OA
ATOM     11  C   UNL     1     -16.485  -6.111  -1.219  1.00  0.00     0.096 C 
ATOM     12  C   UNL     1     -15.782  -4.917  -1.840  1.00  0.00    -0.066 C 
ATOM     13  C   UNL     1     -15.593  -3.808  -1.113  1.00  0.00     0.008 C 
ENDROOT
BRANCH   8  14
ATOM     14  C   UNL     1     -14.211  -8.224  -0.989  1.00  0.00    -0.009 C 
ATOM     15  C   UNL     1     -14.873  -9.101   0.091  1.00  0.00     0.008 C 
ATOM     16  C   UNL     1     -12.843  -8.844  -1.336  1.00  0.00     0.008 C 
ENDBRANCH   8  14
BRANCH   9  17
ATOM     17  O   UNL     1     -17.487  -8.262  -1.815  1.00  0.00    -0.365 OA
ATOM     18  H   UNL     1     -18.024  -8.451  -2.625  1.00  0.00     0.214 HD
ENDBRANCH   9  17
TORSDOF 2
ENDMDL
MODEL 5
REMARK VINA RESULT:    -5.288      1.785      3.429
REMARK INTER + INTRA:          -5.949
REMARK INTER:                  -5.760
REMARK INTRA:                  -0.189
REMARK UNBOUND:                -0.197
REMARK SMILES C=C1C[C@@]2(O)O[C@@]3(C[C@H]2C(C)C)[C@@H](C)CC[C@@H]13
REMARK SMILES IDX 14 1 13 2 15 3 16 4 17 5 7 6 8 7 9 8 4 9 6 10 3 11 2 12 1 13
REMARK SMILES IDX 10 14 11 15 12 16 5 17
REMARK H PARENT 5 18
REMARK Flexibility Score: inf
ROOT
ATOM      1  C   UNL     1     -15.339  -3.941  -1.418  1.00  0.00     0.011 C 
ATOM      2  C   UNL     1     -16.124  -4.270  -2.695  1.00  0.00     0.019 C 
ATOM      3  C   UNL     1     -15.403  -3.798  -3.967  1.00  0.00     0.007 C 
ATOM      4  C   UNL     1     -15.591  -4.892  -5.021  1.00  0.00     0.011 C 
ATOM      5  C   UNL     1     -16.567  -5.904  -4.421  1.00  0.00     0.047 C 
ATOM      6  C   UNL     1     -16.370  -5.772  -2.903  1.00  0.00     0.081 C 
ATOM      7  C   UNL     1     -17.561  -6.335  -2.120  1.00  0.00     0.046 C 
ATOM      8  C   UNL     1     -17.099  -7.742  -1.741  1.00  0.00     0.054 C 
ATOM      9  C   UNL     1     -15.727  -7.852  -2.470  1.00  0.00     0.173 C 
ATOM     10  O   UNL     1     -15.244  -6.533  -2.528  1.00  0.00    -0.342 OA
ATOM     11  C   UNL     1     -15.786  -8.376  -3.939  1.00  0.00     0.096 C 
ATOM     12  C   UNL     1     -16.318  -7.326  -4.898  1.00  0.00    -0.066 C 
ATOM     13  C   UNL     1     -16.556  -7.656  -6.174  1.00  0.00     0.008 C 
ENDROOT
BRANCH   8  14
ATOM     14  C   UNL     1     -18.179  -8.841  -2.005  1.00  0.00    -0.009 C 
ATOM     15  C   UNL     1     -19.036  -9.125  -0.756  1.00  0.00     0.008 C 
ATOM     16  C   UNL     1     -19.125  -8.412  -3.145  1.00  0.00     0.008 C 
ENDBRANCH   8  14
BRANCH   9  17
ATOM     17  O   UNL     1     -14.823  -8.608  -1.702  1.00  0.00    -0.365 OA
ATOM     18  H   UNL     1     -13.954  -8.134  -1.684  1.00  0.00     0.214 HD
ENDBRANCH   9  17
TORSDOF 2
ENDMDL
MODEL 6
REMARK VINA RESULT:    -5.190      1.574      4.154
REMARK INTER + INTRA:          -5.842
REMARK INTER:                  -5.460
REMARK INTRA:                  -0.382
REMARK UNBOUND:                -0.197
REMARK SMILES C=C1C[C@@]2(O)O[C@@]3(C[C@H]2C(C)C)[C@@H](C)CC[C@@H]13
REMARK SMILES IDX 14 1 13 2 15 3 16 4 17 5 7 6 8 7 9 8 4 9 6 10 3 11 2 12 1 13
REMARK SMILES IDX 10 14 11 15 12 16 5 17
REMARK H PARENT 5 18
REMARK Flexibility Score: inf
ROOT
ATOM      1  C   UNL     1     -15.036  -3.669  -4.465  1.00  0.00     0.011 C 
ATOM      2  C   UNL     1     -16.248  -4.522  -4.064  1.00  0.00     0.019 C 
ATOM      3  C   UNL     1     -17.303  -4.602  -5.178  1.00  0.00     0.007 C 
ATOM      4  C   UNL     1     -17.828  -6.041  -5.196  1.00  0.00     0.011 C 
ATOM      5  C   UNL     1     -17.212  -6.737  -3.983  1.00  0.00     0.047 C 
ATOM      6  C   UNL     1     -15.899  -5.980  -3.732  1.00  0.00     0.081 C 
ATOM      7  C   UNL     1     -15.375  -6.198  -2.308  1.00  0.00     0.046 C 
ATOM      8  C   UNL     1     -14.336  -7.306  -2.482  1.00  0.00     0.054 C 
ATOM      9  C   UNL     1     -14.486  -7.673  -3.988  1.00  0.00     0.173 C 
ATOM     10  O   UNL     1     -14.914  -6.485  -4.606  1.00  0.00    -0.342 OA
ATOM     11  C   UNL     1     -15.555  -8.762  -4.314  1.00  0.00     0.096 C 
ATOM     12  C   UNL     1     -16.970  -8.222  -4.207  1.00  0.00    -0.066 C 
ATOM     13  C   UNL     1     -18.008  -9.059  -4.326  1.00  0.00     0.008 C 
ENDROOT
BRANCH   8  14
ATOM     14  C   UNL     1     -14.461  -8.445  -1.417  1.00  0.00    -0.009 C 
ATOM     15  C   UNL     1     -13.321  -8.399  -0.382  1.00  0.00     0.008 C 
ATOM     16  C   UNL     1     -15.799  -8.337  -0.659  1.00  0.00     0.008 C 
ENDBRANCH   8  14
BRANCH   9  17
ATOM     17  O   UNL     1     -13.235  -8.015  -4.536  1.00  0.00    -0.365 OA
ATOM     18  H   UNL     1     -12.755  -8.588  -3.887  1.00  0.00     0.214 HD
ENDBRANCH   9  17
TORSDOF 2
ENDMDL
MODEL 7
REMARK VINA RESULT:    -5.055      1.407      4.722
REMARK INTER + INTRA:          -5.694
REMARK INTER:                  -5.401
REMARK INTRA:                  -0.293
REMARK UNBOUND:                -0.197
REMARK SMILES C=C1C[C@@]2(O)O[C@@]3(C[C@H]2C(C)C)[C@@H](C)CC[C@@H]13
REMARK SMILES IDX 14 1 13 2 15 3 16 4 17 5 7 6 8 7 9 8 4 9 6 10 3 11 2 12 1 13
REMARK SMILES IDX 10 14 11 15 12 16 5 17
REMARK H PARENT 5 18
REMARK Flexibility Score: inf
ROOT
ATOM      1  C   UNL     1     -13.402  -8.310  -6.354  1.00  0.00     0.011 C 
ATOM      2  C   UNL     1     -14.881  -7.930  -6.520  1.00  0.00     0.019 C 
ATOM      3  C   UNL     1     -15.746  -9.118  -6.969  1.00  0.00     0.007 C 
ATOM      4  C   UNL     1     -17.065  -9.029  -6.196  1.00  0.00     0.011 C 
ATOM      5  C   UNL     1     -17.033  -7.699  -5.444  1.00  0.00     0.047 C 
ATOM      6  C   UNL     1     -15.538  -7.415  -5.232  1.00  0.00     0.081 C 
ATOM      7  C   UNL     1     -15.274  -5.935  -4.931  1.00  0.00     0.046 C 
ATOM      8  C   UNL     1     -15.176  -5.898  -3.407  1.00  0.00     0.054 C 
ATOM      9  C   UNL     1     -15.523  -7.364  -3.012  1.00  0.00     0.173 C 
ATOM     10  O   UNL     1     -15.098  -8.140  -4.105  1.00  0.00    -0.342 OA
ATOM     11  C   UNL     1     -17.040  -7.665  -2.807  1.00  0.00     0.096 C 
ATOM     12  C   UNL     1     -17.789  -7.743  -4.126  1.00  0.00    -0.066 C 
ATOM     13  C   UNL     1     -19.123  -7.863  -4.122  1.00  0.00     0.008 C 
ENDROOT
BRANCH   8  14
ATOM     14  C   UNL     1     -15.997  -4.734  -2.762  1.00  0.00    -0.009 C 
ATOM     15  C   UNL     1     -15.375  -4.248  -1.439  1.00  0.00     0.008 C 
ATOM     16  C   UNL     1     -16.079  -3.529  -3.721  1.00  0.00     0.008 C 
ENDBRANCH   8  14
BRANCH   9  17
ATOM     17  O   UNL     1     -14.775  -7.760  -1.888  1.00  0.00    -0.365 OA
ATOM     18  H   UNL     1     -13.827  -7.848  -2.158  1.00  0.00     0.214 HD
ENDBRANCH   9  17
TORSDOF 2
ENDMDL
MODEL 8
REMARK VINA RESULT:    -4.265      1.377      4.750
REMARK INTER + INTRA:          -4.835
REMARK INTER:                  -5.096
REMARK INTRA:                   0.261
REMARK UNBOUND:                -0.197
REMARK SMILES C=C1C[C@@]2(O)O[C@@]3(C[C@H]2C(C)C)[C@@H](C)CC[C@@H]13
REMARK SMILES IDX 14 1 13 2 15 3 16 4 17 5 7 6 8 7 9 8 4 9 6 10 3 11 2 12 1 13
REMARK SMILES IDX 10 14 11 15 12 16 5 17
REMARK H PARENT 5 18
REMARK Flexibility Score: inf
ROOT
ATOM      1  C   UNL     1     -16.821  -8.353  -7.273  1.00  0.00     0.011 C 
ATOM      2  C   UNL     1     -17.966  -7.928  -6.342  1.00  0.00     0.019 C 
ATOM      3  C   UNL     1     -18.798  -9.122  -5.851  1.00  0.00     0.007 C 
ATOM      4  C   UNL     1     -19.125  -8.865  -4.377  1.00  0.00     0.011 C 
ATOM      5  C   UNL     1     -18.641  -7.448  -4.071  1.00  0.00     0.047 C 
ATOM      6  C   UNL     1     -17.497  -7.210  -5.068  1.00  0.00     0.081 C 
ATOM      7  C   UNL     1     -17.199  -5.718  -5.253  1.00  0.00     0.046 C 
ATOM      8  C   UNL     1     -16.014  -5.478  -4.318  1.00  0.00     0.054 C 
ATOM      9  C   UNL     1     -15.858  -6.858  -3.613  1.00  0.00     0.173 C 
ATOM     10  O   UNL     1     -16.322  -7.796  -4.552  1.00  0.00    -0.342 OA
ATOM     11  C   UNL     1     -16.709  -7.054  -2.320  1.00  0.00     0.096 C 
ATOM     12  C   UNL     1     -18.178  -7.274  -2.634  1.00  0.00    -0.066 C 
ATOM     13  C   UNL     1     -19.067  -7.328  -1.633  1.00  0.00     0.008 C 
ENDROOT
BRANCH   8  14
ATOM     14  C   UNL     1     -16.173  -4.198  -3.434  1.00  0.00    -0.009 C 
ATOM     15  C   UNL     1     -15.310  -4.262  -2.159  1.00  0.00     0.008 C 
ATOM     16  C   UNL     1     -15.766  -2.937  -4.222  1.00  0.00     0.008 C 
ENDBRANCH   8  14
BRANCH   9  17
ATOM     17  O   UNL     1     -14.499  -7.132  -3.368  1.00  0.00    -0.365 OA
ATOM     18  H   UNL     1     -13.965  -6.350  -3.654  1.00  0.00     0.214 HD
ENDBRANCH   9  17
TORSDOF 2
ENDMDL
