MODEL 1
REMARK VINA RESULT:    -3.141      0.000      0.000
REMARK INTER + INTRA:          -4.224
REMARK INTER:                  -4.151
REMARK INTRA:                  -0.073
REMARK UNBOUND:                -0.073
REMARK SMILES CCCCCCCO
REMARK SMILES IDX 5 1 4 2 3 3 2 4 1 5 6 6 7 7 8 8
REMARK H PARENT 8 9
REMARK Flexibility Score: inf
ROOT
ATOM      1  C   UNL     1     140.175 140.162 129.408  1.00  0.00     0.002 C 
ENDROOT
BRANCH   1   2
ATOM      2  C   UNL     1     138.693 139.913 129.743  1.00  0.00     0.000 C 
BRANCH   2   3
ATOM      3  C   UNL     1     137.766 140.168 128.545  1.00  0.00    -0.000 C 
BRANCH   3   4
ATOM      4  C   UNL     1     136.612 141.121 128.884  1.00  0.00    -0.003 C 
ATOM      5  C   UNL     1     135.304 140.356 129.072  1.00  0.00     0.004 C 
ENDBRANCH   3   4
ENDBRANCH   2   3
ENDBRANCH   1   2
BRANCH   1   6
ATOM      6  C   UNL     1     140.937 138.863 129.103  1.00  0.00     0.028 C 
BRANCH   6   7
ATOM      7  C   UNL     1     141.849 138.986 127.877  1.00  0.00     0.156 C 
BRANCH   7   8
ATOM      8  O   UNL     1     143.147 138.566 128.198  1.00  0.00    -0.396 OA
ATOM      9  H   UNL     1     143.053 137.814 128.840  1.00  0.00     0.210 HD
ENDBRANCH   7   8
ENDBRANCH   6   7
ENDBRANCH   1   6
TORSDOF 6
ENDMDL
MODEL 2
REMARK VINA RESULT:    -3.070      2.992      4.424
REMARK INTER + INTRA:          -4.129
REMARK INTER:                  -3.958
REMARK INTRA:                  -0.171
REMARK UNBOUND:                -0.073
REMARK SMILES CCCCCCCO
REMARK SMILES IDX 5 1 4 2 3 3 2 4 1 5 6 6 7 7 8 8
REMARK H PARENT 8 9
REMARK Flexibility Score: inf
ROOT
ATOM      1  C   UNL     1     140.216 137.452 128.767  1.00  0.00     0.002 C 
ENDROOT
BRANCH   1   2
ATOM      2  C   UNL     1     140.071 136.830 130.168  1.00  0.00     0.000 C 
BRANCH   2   3
ATOM      3  C   UNL     1     140.282 135.309 130.163  1.00  0.00    -0.000 C 
BRANCH   3   4
ATOM      4  C   UNL     1     139.916 134.667 128.817  1.00  0.00    -0.003 C 
ATOM      5  C   UNL     1     138.573 133.946 128.900  1.00  0.00     0.004 C 
ENDBRANCH   3   4
ENDBRANCH   2   3
ENDBRANCH   1   2
BRANCH   1   6
ATOM      6  C   UNL     1     140.652 138.924 128.817  1.00  0.00     0.028 C 
BRANCH   6   7
ATOM      7  C   UNL     1     141.832 139.223 127.885  1.00  0.00     0.156 C 
BRANCH   7   8
ATOM      8  O   UNL     1     142.949 138.465 128.263  1.00  0.00    -0.396 OA
ATOM      9  H   UNL     1     143.749 138.960 127.948  1.00  0.00     0.210 HD
ENDBRANCH   7   8
ENDBRANCH   6   7
ENDBRANCH   1   6
TORSDOF 6
ENDMDL
MODEL 3
REMARK VINA RESULT:    -3.062      2.534      3.477
REMARK INTER + INTRA:          -4.119
REMARK INTER:                  -3.901
REMARK INTRA:                  -0.218
REMARK UNBOUND:                -0.073
REMARK SMILES CCCCCCCO
REMARK SMILES IDX 5 1 4 2 3 3 2 4 1 5 6 6 7 7 8 8
REMARK H PARENT 8 9
REMARK Flexibility Score: inf
ROOT
ATOM      1  C   UNL     1     140.307 137.327 129.623  1.00  0.00     0.002 C 
ENDROOT
BRANCH   1   2
ATOM      2  C   UNL     1     141.268 138.398 129.075  1.00  0.00     0.000 C 
BRANCH   2   3
ATOM      3  C   UNL     1     140.541 139.685 128.657  1.00  0.00    -0.000 C 
BRANCH   3   4
ATOM      4  C   UNL     1     139.749 140.316 129.811  1.00  0.00    -0.003 C 
ATOM      5  C   UNL     1     138.263 140.408 129.472  1.00  0.00     0.004 C 
ENDBRANCH   3   4
ENDBRANCH   2   3
ENDBRANCH   1   2
BRANCH   1   6
ATOM      6  C   UNL     1     139.762 136.403 128.523  1.00  0.00     0.028 C 
BRANCH   6   7
ATOM      7  C   UNL     1     139.843 134.921 128.902  1.00  0.00     0.156 C 
BRANCH   7   8
ATOM      8  O   UNL     1     141.027 134.667 129.609  1.00  0.00    -0.396 OA
ATOM      9  H   UNL     1     140.862 134.942 130.548  1.00  0.00     0.210 HD
ENDBRANCH   7   8
ENDBRANCH   6   7
ENDBRANCH   1   6
TORSDOF 6
ENDMDL
MODEL 4
REMARK VINA RESULT:    -3.057      3.092      4.825
REMARK INTER + INTRA:          -4.112
REMARK INTER:                  -3.865
REMARK INTRA:                  -0.247
REMARK UNBOUND:                -0.073
REMARK SMILES CCCCCCCO
REMARK SMILES IDX 5 1 4 2 3 3 2 4 1 5 6 6 7 7 8 8
REMARK H PARENT 8 9
REMARK Flexibility Score: inf
ROOT
ATOM      1  C   UNL     1     137.261 139.746 129.356  1.00  0.00     0.002 C 
ENDROOT
BRANCH   1   2
ATOM      2  C   UNL     1     138.456 139.782 128.386  1.00  0.00     0.000 C 
BRANCH   2   3
ATOM      3  C   UNL     1     139.797 139.525 129.092  1.00  0.00    -0.000 C 
BRANCH   3   4
ATOM      4  C   UNL     1     140.185 140.659 130.052  1.00  0.00    -0.003 C 
ATOM      5  C   UNL     1     140.337 140.141 131.480  1.00  0.00     0.004 C 
ENDBRANCH   3   4
ENDBRANCH   2   3
ENDBRANCH   1   2
BRANCH   1   6
ATOM      6  C   UNL     1     136.522 141.091 129.434  1.00  0.00     0.028 C 
BRANCH   6   7
ATOM      7  C   UNL     1     136.394 141.775 128.069  1.00  0.00     0.156 C 
BRANCH   7   8
ATOM      8  O   UNL     1     136.650 143.148 128.192  1.00  0.00    -0.396 OA
ATOM      9  H   UNL     1     136.165 143.457 129.001  1.00  0.00     0.210 HD
ENDBRANCH   7   8
ENDBRANCH   6   7
ENDBRANCH   1   6
TORSDOF 6
ENDMDL
MODEL 5
REMARK VINA RESULT:    -3.048      5.105      6.275
REMARK INTER + INTRA:          -4.101
REMARK INTER:                  -3.960
REMARK INTRA:                  -0.141
REMARK UNBOUND:                -0.073
REMARK SMILES CCCCCCCO
REMARK SMILES IDX 5 1 4 2 3 3 2 4 1 5 6 6 7 7 8 8
REMARK H PARENT 8 9
REMARK Flexibility Score: inf
ROOT
ATOM      1  C   UNL     1     135.370 137.308 129.321  1.00  0.00     0.002 C 
ENDROOT
BRANCH   1   2
ATOM      2  C   UNL     1     135.125 138.823 129.198  1.00  0.00     0.000 C 
BRANCH   2   3
ATOM      3  C   UNL     1     135.680 139.406 127.890  1.00  0.00    -0.000 C 
BRANCH   3   4
ATOM      4  C   UNL     1     135.807 140.936 127.933  1.00  0.00    -0.003 C 
ATOM      5  C   UNL     1     136.783 141.376 129.021  1.00  0.00     0.004 C 
ENDBRANCH   3   4
ENDBRANCH   2   3
ENDBRANCH   1   2
BRANCH   1   6
ATOM      6  C   UNL     1     134.064 136.500 129.355  1.00  0.00     0.028 C 
BRANCH   6   7
ATOM      7  C   UNL     1     133.378 136.425 127.987  1.00  0.00     0.156 C 
BRANCH   7   8
ATOM      8  O   UNL     1     131.997 136.621 128.128  1.00  0.00    -0.396 OA
ATOM      9  H   UNL     1     131.855 137.002 129.033  1.00  0.00     0.210 HD
ENDBRANCH   7   8
ENDBRANCH   6   7
ENDBRANCH   1   6
TORSDOF 6
ENDMDL
MODEL 6
REMARK VINA RESULT:    -3.043      4.419      5.545
REMARK INTER + INTRA:          -4.094
REMARK INTER:                  -3.899
REMARK INTRA:                  -0.195
REMARK UNBOUND:                -0.073
REMARK SMILES CCCCCCCO
REMARK SMILES IDX 5 1 4 2 3 3 2 4 1 5 6 6 7 7 8 8
REMARK H PARENT 8 9
REMARK Flexibility Score: inf
ROOT
ATOM      1  C   UNL     1     140.105 134.980 129.528  1.00  0.00     0.002 C 
ENDROOT
BRANCH   1   2
ATOM      2  C   UNL     1     139.881 136.377 130.135  1.00  0.00     0.000 C 
BRANCH   2   3
ATOM      3  C   UNL     1     139.294 137.373 129.123  1.00  0.00    -0.000 C 
BRANCH   3   4
ATOM      4  C   UNL     1     140.285 137.734 128.008  1.00  0.00    -0.003 C 
ATOM      5  C   UNL     1     141.440 138.573 128.550  1.00  0.00     0.004 C 
ENDBRANCH   3   4
ENDBRANCH   2   3
ENDBRANCH   1   2
BRANCH   1   6
ATOM      6  C   UNL     1     138.794 134.306 129.096  1.00  0.00     0.028 C 
BRANCH   6   7
ATOM      7  C   UNL     1     138.971 133.396 127.876  1.00  0.00     0.156 C 
BRANCH   7   8
ATOM      8  O   UNL     1     138.581 132.087 128.191  1.00  0.00    -0.396 OA
ATOM      9  H   UNL     1     139.155 131.792 128.945  1.00  0.00     0.210 HD
ENDBRANCH   7   8
ENDBRANCH   6   7
ENDBRANCH   1   6
TORSDOF 6
ENDMDL
MODEL 7
REMARK VINA RESULT:    -3.037      4.824      6.298
REMARK INTER + INTRA:          -4.086
REMARK INTER:                  -3.834
REMARK INTRA:                  -0.252
REMARK UNBOUND:                -0.073
REMARK SMILES CCCCCCCO
REMARK SMILES IDX 5 1 4 2 3 3 2 4 1 5 6 6 7 7 8 8
REMARK H PARENT 8 9
REMARK Flexibility Score: inf
ROOT
ATOM      1  C   UNL     1     134.799 137.989 129.391  1.00  0.00     0.002 C 
ENDROOT
BRANCH   1   2
ATOM      2  C   UNL     1     133.849 136.870 128.927  1.00  0.00     0.000 C 
BRANCH   2   3
ATOM      3  C   UNL     1     134.599 135.602 128.491  1.00  0.00    -0.000 C 
BRANCH   3   4
ATOM      4  C   UNL     1     135.396 134.965 129.638  1.00  0.00    -0.003 C 
ATOM      5  C   UNL     1     136.875 134.844 129.278  1.00  0.00     0.004 C 
ENDBRANCH   3   4
ENDBRANCH   2   3
ENDBRANCH   1   2
BRANCH   1   6
ATOM      6  C   UNL     1     135.603 138.599 128.233  1.00  0.00     0.028 C 
BRANCH   6   7
ATOM      7  C   UNL     1     135.693 140.127 128.316  1.00  0.00     0.156 C 
BRANCH   7   8
ATOM      8  O   UNL     1     134.608 140.635 129.043  1.00  0.00    -0.396 OA
ATOM      9  H   UNL     1     134.071 141.180 128.411  1.00  0.00     0.210 HD
ENDBRANCH   7   8
ENDBRANCH   6   7
ENDBRANCH   1   6
TORSDOF 6
ENDMDL
MODEL 8
REMARK VINA RESULT:    -3.031      4.046      5.117
REMARK INTER + INTRA:          -4.078
REMARK INTER:                  -3.987
REMARK INTRA:                  -0.091
REMARK UNBOUND:                -0.073
REMARK SMILES CCCCCCCO
REMARK SMILES IDX 5 1 4 2 3 3 2 4 1 5 6 6 7 7 8 8
REMARK H PARENT 8 9
REMARK Flexibility Score: inf
ROOT
ATOM      1  C   UNL     1     136.040 140.506 130.073  1.00  0.00     0.002 C 
ENDROOT
BRANCH   1   2
ATOM      2  C   UNL     1     134.891 139.576 129.645  1.00  0.00     0.000 C 
BRANCH   2   3
ATOM      3  C   UNL     1     135.281 138.091 129.701  1.00  0.00    -0.000 C 
BRANCH   3   4
ATOM      4  C   UNL     1     134.333 137.201 128.885  1.00  0.00    -0.003 C 
ATOM      5  C   UNL     1     134.710 135.728 129.021  1.00  0.00     0.004 C 
ENDBRANCH   3   4
ENDBRANCH   2   3
ENDBRANCH   1   2
BRANCH   1   6
ATOM      6  C   UNL     1     136.954 140.893 128.901  1.00  0.00     0.028 C 
BRANCH   6   7
ATOM      7  C   UNL     1     136.271 141.836 127.904  1.00  0.00     0.156 C 
BRANCH   7   8
ATOM      8  O   UNL     1     136.615 143.166 128.184  1.00  0.00    -0.396 OA
ATOM      9  H   UNL     1     135.828 143.577 128.627  1.00  0.00     0.210 HD
ENDBRANCH   7   8
ENDBRANCH   6   7
ENDBRANCH   1   6
TORSDOF 6
ENDMDL
MODEL 9
REMARK VINA RESULT:    -3.021      5.357      5.705
REMARK INTER + INTRA:          -4.065
REMARK INTER:                  -3.848
REMARK INTRA:                  -0.217
REMARK UNBOUND:                -0.073
REMARK SMILES CCCCCCCO
REMARK SMILES IDX 5 1 4 2 3 3 2 4 1 5 6 6 7 7 8 8
REMARK H PARENT 8 9
REMARK Flexibility Score: inf
ROOT
ATOM      1  C   UNL     1     137.459 134.845 129.589  1.00  0.00     0.002 C 
ENDROOT
BRANCH   1   2
ATOM      2  C   UNL     1     135.939 134.842 129.836  1.00  0.00     0.000 C 
BRANCH   2   3
ATOM      3  C   UNL     1     135.151 135.456 128.669  1.00  0.00    -0.000 C 
BRANCH   3   4
ATOM      4  C   UNL     1     134.183 136.557 129.126  1.00  0.00    -0.003 C 
ATOM      5  C   UNL     1     134.939 137.813 129.551  1.00  0.00     0.004 C 
ENDBRANCH   3   4
ENDBRANCH   2   3
ENDBRANCH   1   2
BRANCH   1   6
ATOM      6  C   UNL     1     137.818 134.605 128.114  1.00  0.00     0.028 C 
BRANCH   6   7
ATOM      7  C   UNL     1     138.912 133.547 127.937  1.00  0.00     0.156 C 
BRANCH   7   8
ATOM      8  O   UNL     1     138.433 132.288 128.327  1.00  0.00    -0.396 OA
ATOM      9  H   UNL     1     138.621 132.201 129.298  1.00  0.00     0.210 HD
ENDBRANCH   7   8
ENDBRANCH   6   7
ENDBRANCH   1   6
TORSDOF 6
ENDMDL
