MODEL 1
REMARK VINA RESULT:    -3.914      0.000      0.000
REMARK INTER + INTRA:          -4.637
REMARK INTER:                  -4.601
REMARK INTRA:                  -0.036
REMARK UNBOUND:                -0.036
REMARK SMILES O=C([O-])CCC(=O)[O-]
REMARK SMILES IDX 4 1 2 2 1 3 3 4 5 5 6 6 7 7 8 8
REMARK H PARENT
REMARK Flexibility Score: inf
ROOT
ATOM      1  C   UNL     1      78.460  55.867   9.777  1.00  0.00     0.059 C 
ENDROOT
BRANCH   1   2
ATOM      2  C   UNL     1      78.934  56.658  10.954  1.00  0.00     0.042 C 
ATOM      3  O   UNL     1      78.541  56.367  12.114  1.00  0.00    -0.550 OA
ATOM      4  O   UNL     1      79.774  57.750  10.765  1.00  0.00    -0.550 OA
ENDBRANCH   1   2
BRANCH   1   5
ATOM      5  C   UNL     1      77.677  56.759   8.812  1.00  0.00     0.059 C 
BRANCH   5   6
ATOM      6  C   UNL     1      77.727  56.201   7.426  1.00  0.00     0.042 C 
ATOM      7  O   UNL     1      77.738  54.956   7.243  1.00  0.00    -0.550 OA
ATOM      8  O   UNL     1      77.714  57.058   6.331  1.00  0.00    -0.550 OA
ENDBRANCH   5   6
ENDBRANCH   1   5
TORSDOF 3
ENDMDL
MODEL 2
REMARK VINA RESULT:    -3.839      1.026      4.022
REMARK INTER + INTRA:          -4.548
REMARK INTER:                  -4.469
REMARK INTRA:                  -0.079
REMARK UNBOUND:                -0.036
REMARK SMILES O=C([O-])CCC(=O)[O-]
REMARK SMILES IDX 4 1 2 2 1 3 3 4 5 5 6 6 7 7 8 8
REMARK H PARENT
REMARK Flexibility Score: inf
ROOT
ATOM      1  C   UNL     1      77.479  56.826   8.994  1.00  0.00     0.059 C 
ENDROOT
BRANCH   1   2
ATOM      2  C   UNL     1      77.688  56.290   7.614  1.00  0.00     0.042 C 
ATOM      3  O   UNL     1      77.775  55.048   7.423  1.00  0.00    -0.550 OA
ATOM      4  O   UNL     1      77.835  57.164   6.543  1.00  0.00    -0.550 OA
ENDBRANCH   1   2
BRANCH   1   5
ATOM      5  C   UNL     1      78.401  56.118   9.989  1.00  0.00     0.059 C 
BRANCH   5   6
ATOM      6  C   UNL     1      79.537  57.011  10.377  1.00  0.00     0.042 C 
ATOM      7  O   UNL     1      79.385  58.260  10.392  1.00  0.00    -0.550 OA
ATOM      8  O   UNL     1      80.752  56.460  10.768  1.00  0.00    -0.550 OA
ENDBRANCH   5   6
ENDBRANCH   1   5
TORSDOF 3
ENDMDL
MODEL 3
REMARK VINA RESULT:    -3.821      1.031      4.025
REMARK INTER + INTRA:          -4.527
REMARK INTER:                  -4.460
REMARK INTRA:                  -0.067
REMARK UNBOUND:                -0.036
REMARK SMILES O=C([O-])CCC(=O)[O-]
REMARK SMILES IDX 4 1 2 2 1 3 3 4 5 5 6 6 7 7 8 8
REMARK H PARENT
REMARK Flexibility Score: inf
ROOT
ATOM      1  C   UNL     1      77.551  56.779   8.971  1.00  0.00     0.059 C 
ENDROOT
BRANCH   1   2
ATOM      2  C   UNL     1      77.706  56.183   7.609  1.00  0.00     0.042 C 
ATOM      3  O   UNL     1      77.724  56.923   6.591  1.00  0.00    -0.550 OA
ATOM      4  O   UNL     1      77.783  54.803   7.458  1.00  0.00    -0.550 OA
ENDBRANCH   1   2
BRANCH   1   5
ATOM      5  C   UNL     1      78.465  56.071   9.973  1.00  0.00     0.059 C 
BRANCH   5   6
ATOM      6  C   UNL     1      79.585  56.971  10.386  1.00  0.00     0.042 C 
ATOM      7  O   UNL     1      80.705  56.487  10.699  1.00  0.00    -0.550 OA
ATOM      8  O   UNL     1      79.409  58.350  10.379  1.00  0.00    -0.550 OA
ENDBRANCH   5   6
ENDBRANCH   1   5
TORSDOF 3
ENDMDL
MODEL 4
REMARK VINA RESULT:    -3.689     12.574     13.885
REMARK INTER + INTRA:          -4.372
REMARK INTER:                  -4.282
REMARK INTRA:                  -0.091
REMARK UNBOUND:                -0.036
REMARK SMILES O=C([O-])CCC(=O)[O-]
REMARK SMILES IDX 4 1 2 2 1 3 3 4 5 5 6 6 7 7 8 8
REMARK H PARENT
REMARK Flexibility Score: inf
ROOT
ATOM      1  C   UNL     1      84.737  64.464  17.269  1.00  0.00     0.059 C 
ENDROOT
BRANCH   1   2
ATOM      2  C   UNL     1      84.326  65.152  16.006  1.00  0.00     0.042 C 
ATOM      3  O   UNL     1      84.934  64.914  14.929  1.00  0.00    -0.550 OA
ATOM      4  O   UNL     1      83.303  66.093  16.027  1.00  0.00    -0.550 OA
ENDBRANCH   1   2
BRANCH   1   5
ATOM      5  C   UNL     1      84.544  65.392  18.471  1.00  0.00     0.059 C 
BRANCH   5   6
ATOM      6  C   UNL     1      83.471  64.866  19.371  1.00  0.00     0.042 C 
ATOM      7  O   UNL     1      82.481  65.586  19.665  1.00  0.00    -0.550 OA
ATOM      8  O   UNL     1      83.540  63.562  19.847  1.00  0.00    -0.550 OA
ENDBRANCH   5   6
ENDBRANCH   1   5
TORSDOF 3
ENDMDL
MODEL 5
REMARK VINA RESULT:    -3.654     12.617     13.428
REMARK INTER + INTRA:          -4.331
REMARK INTER:                  -4.257
REMARK INTRA:                  -0.074
REMARK UNBOUND:                -0.036
REMARK SMILES O=C([O-])CCC(=O)[O-]
REMARK SMILES IDX 4 1 2 2 1 3 3 4 5 5 6 6 7 7 8 8
REMARK H PARENT
REMARK Flexibility Score: inf
ROOT
ATOM      1  C   UNL     1      84.529  65.372  18.445  1.00  0.00     0.059 C 
ENDROOT
BRANCH   1   2
ATOM      2  C   UNL     1      83.544  64.755  19.386  1.00  0.00     0.042 C 
ATOM      3  O   UNL     1      83.715  63.579  19.801  1.00  0.00    -0.550 OA
ATOM      4  O   UNL     1      82.409  65.462  19.768  1.00  0.00    -0.550 OA
ENDBRANCH   1   2
BRANCH   1   5
ATOM      5  C   UNL     1      84.747  64.468  17.230  1.00  0.00     0.059 C 
BRANCH   5   6
ATOM      6  C   UNL     1      84.404  65.194  15.968  1.00  0.00     0.042 C 
ATOM      7  O   UNL     1      85.014  64.930  14.899  1.00  0.00    -0.550 OA
ATOM      8  O   UNL     1      83.377  66.131  15.963  1.00  0.00    -0.550 OA
ENDBRANCH   5   6
ENDBRANCH   1   5
TORSDOF 3
ENDMDL
MODEL 6
REMARK VINA RESULT:    -3.582     10.491     12.022
REMARK INTER + INTRA:          -4.247
REMARK INTER:                  -4.210
REMARK INTRA:                  -0.037
REMARK UNBOUND:                -0.036
REMARK SMILES O=C([O-])CCC(=O)[O-]
REMARK SMILES IDX 4 1 2 2 1 3 3 4 5 5 6 6 7 7 8 8
REMARK H PARENT
REMARK Flexibility Score: inf
ROOT
ATOM      1  C   UNL     1      84.867  64.116  16.387  1.00  0.00     0.059 C 
ENDROOT
BRANCH   1   2
ATOM      2  C   UNL     1      84.456  65.269  15.528  1.00  0.00     0.042 C 
ATOM      3  O   UNL     1      85.080  65.519  14.463  1.00  0.00    -0.550 OA
ATOM      4  O   UNL     1      83.414  66.097  15.927  1.00  0.00    -0.550 OA
ENDBRANCH   1   2
BRANCH   1   5
ATOM      5  C   UNL     1      85.385  62.963  15.525  1.00  0.00     0.059 C 
BRANCH   5   6
ATOM      6  C   UNL     1      84.896  61.653  16.055  1.00  0.00     0.042 C 
ATOM      7  O   UNL     1      83.941  61.057  15.490  1.00  0.00    -0.550 OA
ATOM      8  O   UNL     1      85.527  61.064  17.144  1.00  0.00    -0.550 OA
ENDBRANCH   5   6
ENDBRANCH   1   5
TORSDOF 3
ENDMDL
MODEL 7
REMARK VINA RESULT:    -3.571     10.666     12.037
REMARK INTER + INTRA:          -4.234
REMARK INTER:                  -4.194
REMARK INTRA:                  -0.040
REMARK UNBOUND:                -0.036
REMARK SMILES O=C([O-])CCC(=O)[O-]
REMARK SMILES IDX 4 1 2 2 1 3 3 4 5 5 6 6 7 7 8 8
REMARK H PARENT
REMARK Flexibility Score: inf
ROOT
ATOM      1  C   UNL     1      85.446  63.182  15.644  1.00  0.00     0.059 C 
ENDROOT
BRANCH   1   2
ATOM      2  C   UNL     1      84.996  61.854  16.164  1.00  0.00     0.042 C 
ATOM      3  O   UNL     1      85.637  61.282  17.085  1.00  0.00    -0.550 OA
ATOM      4  O   UNL     1      83.894  61.223  15.598  1.00  0.00    -0.550 OA
ENDBRANCH   1   2
BRANCH   1   5
ATOM      5  C   UNL     1      84.837  64.315  16.472  1.00  0.00     0.059 C 
BRANCH   5   6
ATOM      6  C   UNL     1      84.280  65.376  15.576  1.00  0.00     0.042 C 
ATOM      7  O   UNL     1      83.312  66.084  15.958  1.00  0.00    -0.550 OA
ATOM      8  O   UNL     1      84.862  65.615  14.337  1.00  0.00    -0.550 OA
ENDBRANCH   5   6
ENDBRANCH   1   5
TORSDOF 3
ENDMDL
MODEL 8
REMARK VINA RESULT:    -3.488      2.547      3.892
REMARK INTER + INTRA:          -4.136
REMARK INTER:                  -4.103
REMARK INTRA:                  -0.033
REMARK UNBOUND:                -0.036
REMARK SMILES O=C([O-])CCC(=O)[O-]
REMARK SMILES IDX 4 1 2 2 1 3 3 4 5 5 6 6 7 7 8 8
REMARK H PARENT
REMARK Flexibility Score: inf
ROOT
ATOM      1  C   UNL     1      77.844  54.779   7.562  1.00  0.00     0.059 C 
ENDROOT
BRANCH   1   2
ATOM      2  C   UNL     1      77.742  56.264   7.703  1.00  0.00     0.042 C 
ATOM      3  O   UNL     1      77.620  56.786   8.843  1.00  0.00    -0.550 OA
ATOM      4  O   UNL     1      77.732  57.071   6.571  1.00  0.00    -0.550 OA
ENDBRANCH   1   2
BRANCH   1   5
ATOM      5  C   UNL     1      79.141  54.270   8.195  1.00  0.00     0.059 C 
BRANCH   5   6
ATOM      6  C   UNL     1      79.293  52.800   7.966  1.00  0.00     0.042 C 
ATOM      7  O   UNL     1      78.830  52.269   6.922  1.00  0.00    -0.550 OA
ATOM      8  O   UNL     1      79.988  52.021   8.884  1.00  0.00    -0.550 OA
ENDBRANCH   5   6
ENDBRANCH   1   5
TORSDOF 3
ENDMDL
MODEL 9
REMARK VINA RESULT:    -3.453      2.544      3.851
REMARK INTER + INTRA:          -4.094
REMARK INTER:                  -4.065
REMARK INTRA:                  -0.030
REMARK UNBOUND:                -0.036
REMARK SMILES O=C([O-])CCC(=O)[O-]
REMARK SMILES IDX 4 1 2 2 1 3 3 4 5 5 6 6 7 7 8 8
REMARK H PARENT
REMARK Flexibility Score: inf
ROOT
ATOM      1  C   UNL     1      79.270  54.346   7.978  1.00  0.00     0.059 C 
ENDROOT
BRANCH   1   2
ATOM      2  C   UNL     1      79.372  52.854   7.947  1.00  0.00     0.042 C 
ATOM      3  O   UNL     1      79.986  52.241   8.859  1.00  0.00    -0.550 OA
ATOM      4  O   UNL     1      78.828  52.142   6.884  1.00  0.00    -0.550 OA
ENDBRANCH   1   2
BRANCH   1   5
ATOM      5  C   UNL     1      77.876  54.797   7.538  1.00  0.00     0.059 C 
BRANCH   5   6
ATOM      6  C   UNL     1      77.724  56.274   7.715  1.00  0.00     0.042 C 
ATOM      7  O   UNL     1      77.657  56.771   8.870  1.00  0.00    -0.550 OA
ATOM      8  O   UNL     1      77.705  57.109   6.603  1.00  0.00    -0.550 OA
ENDBRANCH   5   6
ENDBRANCH   1   5
TORSDOF 3
ENDMDL
