MODEL 1
REMARK VINA RESULT:    -3.863      0.000      0.000
REMARK INTER + INTRA:          -4.848
REMARK INTER:                  -4.766
REMARK INTRA:                  -0.082
REMARK UNBOUND:                -0.082
REMARK SMILES CCCCCC(=O)[O-]
REMARK SMILES IDX 4 1 5 2 6 3 7 4 8 5 3 6 2 7 1 8
REMARK H PARENT
REMARK Flexibility Score: inf
ROOT
ATOM      1  C   UNL     1      31.908  18.207  25.298  1.00  0.00     0.006 C 
ENDROOT
BRANCH   1   2
ATOM      2  C   UNL     1      31.754  18.675  23.845  1.00  0.00     0.053 C 
BRANCH   2   3
ATOM      3  C   UNL     1      33.096  18.913  23.229  1.00  0.00     0.041 C 
ATOM      4  O   UNL     1      33.325  19.979  22.597  1.00  0.00    -0.550 OA
ATOM      5  O   UNL     1      34.081  17.937  23.308  1.00  0.00    -0.550 OA
ENDBRANCH   2   3
ENDBRANCH   1   2
BRANCH   1   6
ATOM      6  C   UNL     1      30.880  18.855  26.239  1.00  0.00     0.000 C 
BRANCH   6   7
ATOM      7  C   UNL     1      30.915  18.258  27.654  1.00  0.00    -0.003 C 
ATOM      8  C   UNL     1      31.961  17.153  27.758  1.00  0.00     0.004 C 
ENDBRANCH   6   7
ENDBRANCH   1   6
TORSDOF 4
ENDMDL
MODEL 2
REMARK VINA RESULT:    -3.658      3.022      4.438
REMARK INTER + INTRA:          -4.595
REMARK INTER:                  -4.490
REMARK INTRA:                  -0.105
REMARK UNBOUND:                -0.082
REMARK SMILES CCCCCC(=O)[O-]
REMARK SMILES IDX 4 1 5 2 6 3 7 4 8 5 3 6 2 7 1 8
REMARK H PARENT
REMARK Flexibility Score: inf
ROOT
ATOM      1  C   UNL     1      31.442  18.777  25.346  1.00  0.00     0.006 C 
ENDROOT
BRANCH   1   2
ATOM      2  C   UNL     1      31.850  17.537  26.152  1.00  0.00     0.053 C 
BRANCH   2   3
ATOM      3  C   UNL     1      31.483  17.708  27.592  1.00  0.00     0.041 C 
ATOM      4  O   UNL     1      30.675  18.611  27.938  1.00  0.00    -0.550 OA
ATOM      5  O   UNL     1      32.072  16.905  28.560  1.00  0.00    -0.550 OA
ENDBRANCH   2   3
ENDBRANCH   1   2
BRANCH   1   6
ATOM      6  C   UNL     1      31.695  18.611  23.838  1.00  0.00     0.000 C 
BRANCH   6   7
ATOM      7  C   UNL     1      33.045  19.197  23.398  1.00  0.00    -0.003 C 
ATOM      8  C   UNL     1      34.045  18.092  23.074  1.00  0.00     0.004 C 
ENDBRANCH   6   7
ENDBRANCH   1   6
TORSDOF 4
ENDMDL
MODEL 3
REMARK VINA RESULT:    -3.608      2.900      4.596
REMARK INTER + INTRA:          -4.533
REMARK INTER:                  -4.462
REMARK INTRA:                  -0.071
REMARK UNBOUND:                -0.082
REMARK SMILES CCCCCC(=O)[O-]
REMARK SMILES IDX 4 1 5 2 6 3 7 4 8 5 3 6 2 7 1 8
REMARK H PARENT
REMARK Flexibility Score: inf
ROOT
ATOM      1  C   UNL     1      31.729  18.506  24.540  1.00  0.00     0.006 C 
ENDROOT
BRANCH   1   2
ATOM      2  C   UNL     1      31.809  17.929  25.959  1.00  0.00     0.053 C 
BRANCH   2   3
ATOM      3  C   UNL     1      30.787  18.572  26.842  1.00  0.00     0.041 C 
ATOM      4  O   UNL     1      29.940  19.368  26.356  1.00  0.00    -0.550 OA
ATOM      5  O   UNL     1      30.799  18.332  28.209  1.00  0.00    -0.550 OA
ENDBRANCH   2   3
ENDBRANCH   1   2
BRANCH   1   6
ATOM      6  C   UNL     1      33.053  18.369  23.770  1.00  0.00     0.000 C 
BRANCH   6   7
ATOM      7  C   UNL     1      33.202  19.418  22.659  1.00  0.00    -0.003 C 
ATOM      8  C   UNL     1      31.978  19.432  21.748  1.00  0.00     0.004 C 
ENDBRANCH   6   7
ENDBRANCH   1   6
TORSDOF 4
ENDMDL
MODEL 4
REMARK VINA RESULT:    -3.374      1.442      1.975
REMARK INTER + INTRA:          -4.244
REMARK INTER:                  -4.163
REMARK INTRA:                  -0.081
REMARK UNBOUND:                -0.082
REMARK SMILES CCCCCC(=O)[O-]
REMARK SMILES IDX 4 1 5 2 6 3 7 4 8 5 3 6 2 7 1 8
REMARK H PARENT
REMARK Flexibility Score: inf
ROOT
ATOM      1  C   UNL     1      32.195  18.017  23.985  1.00  0.00     0.006 C 
ENDROOT
BRANCH   1   2
ATOM      2  C   UNL     1      33.200  19.112  23.607  1.00  0.00     0.053 C 
BRANCH   2   3
ATOM      3  C   UNL     1      32.735  19.850  22.391  1.00  0.00     0.041 C 
ATOM      4  O   UNL     1      31.860  19.344  21.638  1.00  0.00    -0.550 OA
ATOM      5  O   UNL     1      33.302  21.073  22.060  1.00  0.00    -0.550 OA
ENDBRANCH   2   3
ENDBRANCH   1   2
BRANCH   1   6
ATOM      6  C   UNL     1      31.988  17.904  25.504  1.00  0.00     0.000 C 
BRANCH   6   7
ATOM      7  C   UNL     1      30.973  18.925  26.040  1.00  0.00    -0.003 C 
ATOM      8  C   UNL     1      30.548  18.582  27.464  1.00  0.00     0.004 C 
ENDBRANCH   6   7
ENDBRANCH   1   6
TORSDOF 4
ENDMDL
MODEL 5
REMARK VINA RESULT:    -3.365     10.413     11.240
REMARK INTER + INTRA:          -4.234
REMARK INTER:                  -4.130
REMARK INTRA:                  -0.104
REMARK UNBOUND:                -0.082
REMARK SMILES CCCCCC(=O)[O-]
REMARK SMILES IDX 4 1 5 2 6 3 7 4 8 5 3 6 2 7 1 8
REMARK H PARENT
REMARK Flexibility Score: inf
ROOT
ATOM      1  C   UNL     1      29.434   9.388  20.774  1.00  0.00     0.006 C 
ENDROOT
BRANCH   1   2
ATOM      2  C   UNL     1      28.609   8.876  21.961  1.00  0.00     0.053 C 
BRANCH   2   3
ATOM      3  C   UNL     1      27.800   9.988  22.552  1.00  0.00     0.041 C 
ATOM      4  O   UNL     1      27.076  10.707  21.813  1.00  0.00    -0.550 OA
ATOM      5  O   UNL     1      27.884  10.263  23.910  1.00  0.00    -0.550 OA
ENDBRANCH   2   3
ENDBRANCH   1   2
BRANCH   1   6
ATOM      6  C   UNL     1      28.875   8.922  19.420  1.00  0.00     0.000 C 
BRANCH   6   7
ATOM      7  C   UNL     1      29.946   8.880  18.321  1.00  0.00    -0.003 C 
ATOM      8  C   UNL     1      31.286   9.393  18.839  1.00  0.00     0.004 C 
ENDBRANCH   6   7
ENDBRANCH   1   6
TORSDOF 4
ENDMDL
MODEL 6
REMARK VINA RESULT:    -3.078     10.022     10.758
REMARK INTER + INTRA:          -3.879
REMARK INTER:                  -3.808
REMARK INTRA:                  -0.072
REMARK UNBOUND:                -0.082
REMARK SMILES CCCCCC(=O)[O-]
REMARK SMILES IDX 4 1 5 2 6 3 7 4 8 5 3 6 2 7 1 8
REMARK H PARENT
REMARK Flexibility Score: inf
ROOT
ATOM      1  C   UNL     1      28.908   9.978  22.046  1.00  0.00     0.006 C 
ENDROOT
BRANCH   1   2
ATOM      2  C   UNL     1      27.521   9.996  22.702  1.00  0.00     0.053 C 
BRANCH   2   3
ATOM      3  C   UNL     1      26.760  11.213  22.277  1.00  0.00     0.041 C 
ATOM      4  O   UNL     1      25.799  11.110  21.470  1.00  0.00    -0.550 OA
ATOM      5  O   UNL     1      27.143  12.467  22.734  1.00  0.00    -0.550 OA
ENDBRANCH   2   3
ENDBRANCH   1   2
BRANCH   1   6
ATOM      6  C   UNL     1      29.033   8.895  20.961  1.00  0.00     0.000 C 
BRANCH   6   7
ATOM      7  C   UNL     1      30.064   9.257  19.882  1.00  0.00    -0.003 C 
ATOM      8  C   UNL     1      29.456   9.159  18.486  1.00  0.00     0.004 C 
ENDBRANCH   6   7
ENDBRANCH   1   6
TORSDOF 4
ENDMDL
MODEL 7
REMARK VINA RESULT:    -3.033     10.435     10.779
REMARK INTER + INTRA:          -3.824
REMARK INTER:                  -3.759
REMARK INTRA:                  -0.065
REMARK UNBOUND:                -0.082
REMARK SMILES CCCCCC(=O)[O-]
REMARK SMILES IDX 4 1 5 2 6 3 7 4 8 5 3 6 2 7 1 8
REMARK H PARENT
REMARK Flexibility Score: inf
ROOT
ATOM      1  C   UNL     1      29.133  28.042  23.019  1.00  0.00     0.006 C 
ENDROOT
BRANCH   1   2
ATOM      2  C   UNL     1      28.556  28.580  21.703  1.00  0.00     0.053 C 
BRANCH   2   3
ATOM      3  C   UNL     1      29.509  28.331  20.576  1.00  0.00     0.041 C 
ATOM      4  O   UNL     1      29.075  28.003  19.440  1.00  0.00    -0.550 OA
ATOM      5  O   UNL     1      30.878  28.412  20.792  1.00  0.00    -0.550 OA
ENDBRANCH   2   3
ENDBRANCH   1   2
BRANCH   1   6
ATOM      6  C   UNL     1      29.081  29.077  24.154  1.00  0.00     0.000 C 
BRANCH   6   7
ATOM      7  C   UNL     1      30.108  28.794  25.259  1.00  0.00    -0.003 C 
ATOM      8  C   UNL     1      29.535  29.110  26.637  1.00  0.00     0.004 C 
ENDBRANCH   6   7
ENDBRANCH   1   6
TORSDOF 4
ENDMDL
MODEL 8
REMARK VINA RESULT:    -2.983     10.819     11.305
REMARK INTER + INTRA:          -3.762
REMARK INTER:                  -3.533
REMARK INTRA:                  -0.229
REMARK UNBOUND:                -0.082
REMARK SMILES CCCCCC(=O)[O-]
REMARK SMILES IDX 4 1 5 2 6 3 7 4 8 5 3 6 2 7 1 8
REMARK H PARENT
REMARK Flexibility Score: inf
ROOT
ATOM      1  C   UNL     1      25.144  11.798  20.345  1.00  0.00     0.006 C 
ENDROOT
BRANCH   1   2
ATOM      2  C   UNL     1      25.836  12.252  21.637  1.00  0.00     0.053 C 
BRANCH   2   3
ATOM      3  C   UNL     1      26.288  11.067  22.430  1.00  0.00     0.041 C 
ATOM      4  O   UNL     1      25.790  10.836  23.564  1.00  0.00    -0.550 OA
ATOM      5  O   UNL     1      27.294  10.245  21.940  1.00  0.00    -0.550 OA
ENDBRANCH   2   3
ENDBRANCH   1   2
BRANCH   1   6
ATOM      6  C   UNL     1      23.611  11.796  20.465  1.00  0.00     0.000 C 
BRANCH   6   7
ATOM      7  C   UNL     1      23.047  10.408  20.805  1.00  0.00    -0.003 C 
ATOM      8  C   UNL     1      22.473  10.379  22.218  1.00  0.00     0.004 C 
ENDBRANCH   6   7
ENDBRANCH   1   6
TORSDOF 4
ENDMDL
