MODEL 1
REMARK VINA RESULT:    -5.148      0.000      0.000
REMARK INTER + INTRA:          -5.600
REMARK INTER:                  -5.600
REMARK INTRA:                   0.000
REMARK UNBOUND:                 0.000
REMARK SMILES Oc1cccc(O)c1O
REMARK SMILES IDX 4 1 5 2 6 3 8 4 2 5 3 6 7 7 1 9 9 11
REMARK H PARENT 7 8 1 10 9 12
REMARK Flexibility Score: inf
ROOT
ATOM      1  C   UNL     1    -108.817  31.195  25.006  1.00  0.00     0.008 A 
ATOM      2  C   UNL     1    -109.134  31.333  26.358  1.00  0.00     0.050 A 
ATOM      3  C   UNL     1    -108.123  31.542  27.301  1.00  0.00     0.161 A 
ATOM      4  C   UNL     1    -106.777  31.616  26.892  1.00  0.00     0.200 A 
ATOM      5  C   UNL     1    -106.459  31.477  25.517  1.00  0.00     0.161 A 
ATOM      6  C   UNL     1    -107.488  31.267  24.590  1.00  0.00     0.050 A 
ENDROOT
BRANCH   3   7
ATOM      7  O   UNL     1    -108.477  31.674  28.644  1.00  0.00    -0.504 OA
ATOM      8  H   UNL     1    -109.400  31.976  28.932  1.00  0.00     0.293 HD
ENDBRANCH   3   7
BRANCH   5   9
ATOM      9  O   UNL     1    -105.151  31.538  25.033  1.00  0.00    -0.504 OA
ATOM     10  H   UNL     1    -104.375  31.929  25.547  1.00  0.00     0.293 HD
ENDBRANCH   5   9
BRANCH   4  11
ATOM     11  O   UNL     1    -105.797  31.826  27.865  1.00  0.00    -0.502 OA
ATOM     12  H   UNL     1    -105.678  32.691  28.373  1.00  0.00     0.293 HD
ENDBRANCH   4  11
TORSDOF 3
ENDMDL
MODEL 2
REMARK VINA RESULT:    -5.116      0.076      2.826
REMARK INTER + INTRA:          -5.565
REMARK INTER:                  -5.565
REMARK INTRA:                   0.000
REMARK UNBOUND:                 0.000
REMARK SMILES Oc1cccc(O)c1O
REMARK SMILES IDX 4 1 5 2 6 3 8 4 2 5 3 6 7 7 1 9 9 11
REMARK H PARENT 7 8 1 10 9 12
REMARK Flexibility Score: inf
ROOT
ATOM      1  C   UNL     1    -108.867  31.220  24.971  1.00  0.00     0.008 A 
ATOM      2  C   UNL     1    -107.535  31.291  24.562  1.00  0.00     0.050 A 
ATOM      3  C   UNL     1    -106.517  31.473  25.504  1.00  0.00     0.161 A 
ATOM      4  C   UNL     1    -106.831  31.587  26.873  1.00  0.00     0.200 A 
ATOM      5  C   UNL     1    -108.186  31.513  27.284  1.00  0.00     0.161 A 
ATOM      6  C   UNL     1    -109.189  31.331  26.324  1.00  0.00     0.050 A 
ENDROOT
BRANCH   3   7
ATOM      7  O   UNL     1    -105.197  31.541  25.058  1.00  0.00    -0.504 OA
ATOM      8  H   UNL     1    -104.740  32.421  24.853  1.00  0.00     0.293 HD
ENDBRANCH   3   7
BRANCH   5   9
ATOM      9  O   UNL     1    -108.577  31.617  28.620  1.00  0.00    -0.504 OA
ATOM     10  H   UNL     1    -109.528  31.773  28.921  1.00  0.00     0.293 HD
ENDBRANCH   5   9
BRANCH   4  11
ATOM     11  O   UNL     1    -105.785  31.768  27.781  1.00  0.00    -0.502 OA
ATOM     12  H   UNL     1    -105.876  31.653  28.781  1.00  0.00     0.293 HD
ENDBRANCH   4  11
TORSDOF 3
ENDMDL
MODEL 3
REMARK VINA RESULT:    -4.959      1.119      2.751
REMARK INTER + INTRA:          -5.394
REMARK INTER:                  -5.394
REMARK INTRA:                   0.000
REMARK UNBOUND:                 0.000
REMARK SMILES Oc1cccc(O)c1O
REMARK SMILES IDX 4 1 5 2 6 3 8 4 2 5 3 6 7 7 1 9 9 11
REMARK H PARENT 7 8 1 10 9 12
REMARK Flexibility Score: inf
ROOT
ATOM      1  C   UNL     1    -109.186  31.495  27.184  1.00  0.00     0.008 A 
ATOM      2  C   UNL     1    -109.014  31.375  25.805  1.00  0.00     0.050 A 
ATOM      3  C   UNL     1    -107.741  31.499  25.239  1.00  0.00     0.161 A 
ATOM      4  C   UNL     1    -106.623  31.745  26.060  1.00  0.00     0.200 A 
ATOM      5  C   UNL     1    -106.801  31.865  27.461  1.00  0.00     0.161 A 
ATOM      6  C   UNL     1    -108.085  31.738  28.006  1.00  0.00     0.050 A 
ENDROOT
BRANCH   3   7
ATOM      7  O   UNL     1    -107.608  31.374  23.856  1.00  0.00    -0.504 OA
ATOM      8  H   UNL     1    -107.197  30.556  23.424  1.00  0.00     0.293 HD
ENDBRANCH   3   7
BRANCH   5   9
ATOM      9  O   UNL     1    -105.744  32.109  28.340  1.00  0.00    -0.504 OA
ATOM     10  H   UNL     1    -105.814  32.690  29.162  1.00  0.00     0.293 HD
ENDBRANCH   5   9
BRANCH   4  11
ATOM     11  O   UNL     1    -105.368  31.862  25.456  1.00  0.00    -0.502 OA
ATOM     12  H   UNL     1    -104.731  32.630  25.615  1.00  0.00     0.293 HD
ENDBRANCH   4  11
TORSDOF 3
ENDMDL
MODEL 4
REMARK VINA RESULT:    -4.928      1.136      2.069
REMARK INTER + INTRA:          -5.360
REMARK INTER:                  -5.360
REMARK INTRA:                   0.000
REMARK UNBOUND:                 0.000
REMARK SMILES Oc1cccc(O)c1O
REMARK SMILES IDX 4 1 5 2 6 3 8 4 2 5 3 6 7 7 1 9 9 11
REMARK H PARENT 7 8 1 10 9 12
REMARK Flexibility Score: inf
ROOT
ATOM      1  C   UNL     1    -109.256  31.509  27.174  1.00  0.00     0.008 A 
ATOM      2  C   UNL     1    -108.147  31.724  27.992  1.00  0.00     0.050 A 
ATOM      3  C   UNL     1    -106.870  31.833  27.435  1.00  0.00     0.161 A 
ATOM      4  C   UNL     1    -106.695  31.728  26.041  1.00  0.00     0.200 A 
ATOM      5  C   UNL     1    -107.824  31.510  25.213  1.00  0.00     0.161 A 
ATOM      6  C   UNL     1    -109.094  31.403  25.793  1.00  0.00     0.050 A 
ENDROOT
BRANCH   3   7
ATOM      7  O   UNL     1    -105.784  32.047  28.285  1.00  0.00    -0.504 OA
ATOM      8  H   UNL     1    -104.880  32.347  27.941  1.00  0.00     0.293 HD
ENDBRANCH   3   7
BRANCH   5   9
ATOM      9  O   UNL     1    -107.733  31.395  23.824  1.00  0.00    -0.504 OA
ATOM     10  H   UNL     1    -108.491  31.595  23.188  1.00  0.00     0.293 HD
ENDBRANCH   5   9
BRANCH   4  11
ATOM     11  O   UNL     1    -105.402  31.843  25.523  1.00  0.00    -0.502 OA
ATOM     12  H   UNL     1    -104.778  31.063  25.376  1.00  0.00     0.293 HD
ENDBRANCH   4  11
TORSDOF 3
ENDMDL
MODEL 5
REMARK VINA RESULT:    -4.843      1.091      2.732
REMARK INTER + INTRA:          -5.268
REMARK INTER:                  -5.268
REMARK INTRA:                   0.000
REMARK UNBOUND:                 0.000
REMARK SMILES Oc1cccc(O)c1O
REMARK SMILES IDX 4 1 5 2 6 3 8 4 2 5 3 6 7 7 1 9 9 11
REMARK H PARENT 7 8 1 10 9 12
REMARK Flexibility Score: inf
ROOT
ATOM      1  C   UNL     1    -106.891  31.030  24.595  1.00  0.00     0.008 A 
ATOM      2  C   UNL     1    -106.039  31.283  25.671  1.00  0.00     0.050 A 
ATOM      3  C   UNL     1    -106.564  31.521  26.945  1.00  0.00     0.161 A 
ATOM      4  C   UNL     1    -107.958  31.508  27.150  1.00  0.00     0.200 A 
ATOM      5  C   UNL     1    -108.819  31.250  26.055  1.00  0.00     0.161 A 
ATOM      6  C   UNL     1    -108.272  31.015  24.788  1.00  0.00     0.050 A 
ENDROOT
BRANCH   3   7
ATOM      7  O   UNL     1    -105.682  31.771  27.997  1.00  0.00    -0.504 OA
ATOM      8  H   UNL     1    -104.822  31.250  28.116  1.00  0.00     0.293 HD
ENDBRANCH   3   7
BRANCH   5   9
ATOM      9  O   UNL     1    -110.210  31.220  26.177  1.00  0.00    -0.504 OA
ATOM     10  H   UNL     1    -110.713  30.575  26.769  1.00  0.00     0.293 HD
ENDBRANCH   5   9
BRANCH   4  11
ATOM     11  O   UNL     1    -108.442  31.751  28.439  1.00  0.00    -0.502 OA
ATOM     12  H   UNL     1    -108.513  31.047  29.160  1.00  0.00     0.293 HD
ENDBRANCH   4  11
TORSDOF 3
ENDMDL
MODEL 6
REMARK VINA RESULT:    -4.802      1.064      2.147
REMARK INTER + INTRA:          -5.223
REMARK INTER:                  -5.223
REMARK INTRA:                   0.000
REMARK UNBOUND:                 0.000
REMARK SMILES Oc1cccc(O)c1O
REMARK SMILES IDX 4 1 5 2 6 3 8 4 2 5 3 6 7 7 1 9 9 11
REMARK H PARENT 7 8 1 10 9 12
REMARK Flexibility Score: inf
ROOT
ATOM      1  C   UNL     1    -106.947  31.008  24.608  1.00  0.00     0.008 A 
ATOM      2  C   UNL     1    -108.326  31.004  24.815  1.00  0.00     0.050 A 
ATOM      3  C   UNL     1    -108.849  31.259  26.087  1.00  0.00     0.161 A 
ATOM      4  C   UNL     1    -107.984  31.521  27.168  1.00  0.00     0.200 A 
ATOM      5  C   UNL     1    -106.583  31.524  26.953  1.00  0.00     0.161 A 
ATOM      6  C   UNL     1    -106.082  31.266  25.671  1.00  0.00     0.050 A 
ENDROOT
BRANCH   3   7
ATOM      7  O   UNL     1    -110.234  31.246  26.257  1.00  0.00    -0.504 OA
ATOM      8  H   UNL     1    -110.692  30.623  26.910  1.00  0.00     0.293 HD
ENDBRANCH   3   7
BRANCH   5   9
ATOM      9  O   UNL     1    -105.662  31.775  27.972  1.00  0.00    -0.504 OA
ATOM     10  H   UNL     1    -105.896  31.795  28.954  1.00  0.00     0.293 HD
ENDBRANCH   5   9
BRANCH   4  11
ATOM     11  O   UNL     1    -108.546  31.771  28.423  1.00  0.00    -0.502 OA
ATOM     12  H   UNL     1    -109.009  32.632  28.675  1.00  0.00     0.293 HD
ENDBRANCH   4  11
TORSDOF 3
ENDMDL
MODEL 7
REMARK VINA RESULT:    -4.452      1.914      2.677
REMARK INTER + INTRA:          -4.842
REMARK INTER:                  -4.842
REMARK INTRA:                   0.000
REMARK UNBOUND:                 0.000
REMARK SMILES Oc1cccc(O)c1O
REMARK SMILES IDX 4 1 5 2 6 3 8 4 2 5 3 6 7 7 1 9 9 11
REMARK H PARENT 7 8 1 10 9 12
REMARK Flexibility Score: inf
ROOT
ATOM      1  C   UNL     1    -107.260  31.968  27.559  1.00  0.00     0.008 A 
ATOM      2  C   UNL     1    -108.635  31.732  27.566  1.00  0.00     0.050 A 
ATOM      3  C   UNL     1    -109.274  31.247  26.421  1.00  0.00     0.161 A 
ATOM      4  C   UNL     1    -108.531  30.991  25.251  1.00  0.00     0.200 A 
ATOM      5  C   UNL     1    -107.134  31.231  25.248  1.00  0.00     0.161 A 
ATOM      6  C   UNL     1    -106.516  31.718  26.406  1.00  0.00     0.050 A 
ENDROOT
BRANCH   3   7
ATOM      7  O   UNL     1    -110.651  31.025  26.465  1.00  0.00    -0.504 OA
ATOM      8  H   UNL     1    -111.095  30.281  25.941  1.00  0.00     0.293 HD
ENDBRANCH   3   7
BRANCH   5   9
ATOM      9  O   UNL     1    -106.330  31.003  24.129  1.00  0.00    -0.504 OA
ATOM     10  H   UNL     1    -105.995  31.730  23.515  1.00  0.00     0.293 HD
ENDBRANCH   5   9
BRANCH   4  11
ATOM     11  O   UNL     1    -109.207  30.507  24.128  1.00  0.00    -0.502 OA
ATOM     12  H   UNL     1    -110.180  30.690  23.928  1.00  0.00     0.293 HD
ENDBRANCH   4  11
TORSDOF 3
ENDMDL
MODEL 8
REMARK VINA RESULT:    -4.234      8.268      8.586
REMARK INTER + INTRA:          -4.606
REMARK INTER:                  -4.606
REMARK INTRA:                   0.000
REMARK UNBOUND:                 0.000
REMARK SMILES Oc1cccc(O)c1O
REMARK SMILES IDX 4 1 5 2 6 3 8 4 2 5 3 6 7 7 1 9 9 11
REMARK H PARENT 7 8 1 10 9 12
REMARK Flexibility Score: inf
ROOT
ATOM      1  C   UNL     1    -109.955  22.789  24.708  1.00  0.00     0.008 A 
ATOM      2  C   UNL     1    -109.109  22.359  25.730  1.00  0.00     0.050 A 
ATOM      3  C   UNL     1    -107.751  22.690  25.708  1.00  0.00     0.161 A 
ATOM      4  C   UNL     1    -107.227  23.462  24.651  1.00  0.00     0.200 A 
ATOM      5  C   UNL     1    -108.090  23.897  23.615  1.00  0.00     0.161 A 
ATOM      6  C   UNL     1    -109.447  23.553  23.657  1.00  0.00     0.050 A 
ENDROOT
BRANCH   3   7
ATOM      7  O   UNL     1    -106.935  22.242  26.747  1.00  0.00    -0.504 OA
ATOM      8  H   UNL     1    -106.122  21.660  26.583  1.00  0.00     0.293 HD
ENDBRANCH   3   7
BRANCH   5   9
ATOM      9  O   UNL     1    -107.648  24.664  22.535  1.00  0.00    -0.504 OA
ATOM     10  H   UNL     1    -106.677  24.858  22.338  1.00  0.00     0.293 HD
ENDBRANCH   5   9
BRANCH   4  11
ATOM     11  O   UNL     1    -105.865  23.771  24.666  1.00  0.00    -0.502 OA
ATOM     12  H   UNL     1    -105.414  24.313  25.390  1.00  0.00     0.293 HD
ENDBRANCH   4  11
TORSDOF 3
ENDMDL
MODEL 9
REMARK VINA RESULT:    -4.150      8.296      8.858
REMARK INTER + INTRA:          -4.513
REMARK INTER:                  -4.513
REMARK INTRA:                   0.000
REMARK UNBOUND:                 0.000
REMARK SMILES Oc1cccc(O)c1O
REMARK SMILES IDX 4 1 5 2 6 3 8 4 2 5 3 6 7 7 1 9 9 11
REMARK H PARENT 7 8 1 10 9 12
REMARK Flexibility Score: inf
ROOT
ATOM      1  C   UNL     1    -110.018  22.802  24.700  1.00  0.00     0.008 A 
ATOM      2  C   UNL     1    -109.495  23.543  23.640  1.00  0.00     0.050 A 
ATOM      3  C   UNL     1    -108.132  23.855  23.602  1.00  0.00     0.161 A 
ATOM      4  C   UNL     1    -107.278  23.421  24.635  1.00  0.00     0.200 A 
ATOM      5  C   UNL     1    -107.813  22.668  25.710  1.00  0.00     0.161 A 
ATOM      6  C   UNL     1    -109.181  22.368  25.728  1.00  0.00     0.050 A 
ENDROOT
BRANCH   3   7
ATOM      7  O   UNL     1    -107.645  24.598  22.527  1.00  0.00    -0.504 OA
ATOM      8  H   UNL     1    -107.304  24.162  21.679  1.00  0.00     0.293 HD
ENDBRANCH   3   7
BRANCH   5   9
ATOM      9  O   UNL     1    -107.032  22.203  26.770  1.00  0.00    -0.504 OA
ATOM     10  H   UNL     1    -106.085  21.868  26.672  1.00  0.00     0.293 HD
ENDBRANCH   5   9
BRANCH   4  11
ATOM     11  O   UNL     1    -105.922  23.753  24.560  1.00  0.00    -0.502 OA
ATOM     12  H   UNL     1    -105.183  23.085  24.398  1.00  0.00     0.293 HD
ENDBRANCH   4  11
TORSDOF 3
ENDMDL
