MODEL 1
REMARK VINA RESULT:    -2.837      0.000      0.000
REMARK INTER + INTRA:          -3.709
REMARK INTER:                  -3.501
REMARK INTRA:                  -0.208
REMARK UNBOUND:                -0.208
REMARK SMILES CCCCCC(=O)[O-]
REMARK SMILES IDX 4 1 5 2 6 3 7 4 8 5 3 6 2 7 1 8
REMARK H PARENT
REMARK Flexibility Score: inf
ROOT
ATOM      1  C   UNL     1     -47.263 -47.061  70.399  1.00  0.00     0.006 C 
ENDROOT
BRANCH   1   2
ATOM      2  C   UNL     1     -48.381 -47.831  71.109  1.00  0.00     0.053 C 
BRANCH   2   3
ATOM      3  C   UNL     1     -48.628 -49.140  70.430  1.00  0.00     0.041 C 
ATOM      4  O   UNL     1     -48.243 -50.214  70.965  1.00  0.00    -0.550 OA
ATOM      5  O   UNL     1     -49.328 -49.182  69.231  1.00  0.00    -0.550 OA
ENDBRANCH   2   3
ENDBRANCH   1   2
BRANCH   1   6
ATOM      6  C   UNL     1     -45.968 -47.088  71.220  1.00  0.00     0.000 C 
BRANCH   6   7
ATOM      7  C   UNL     1     -44.830 -47.743  70.432  1.00  0.00    -0.003 C 
ATOM      8  C   UNL     1     -44.872 -49.263  70.562  1.00  0.00     0.004 C 
ENDBRANCH   6   7
ENDBRANCH   1   6
TORSDOF 4
ENDMDL
MODEL 2
REMARK VINA RESULT:    -2.747      1.788      2.356
REMARK INTER + INTRA:          -3.598
REMARK INTER:                  -3.363
REMARK INTRA:                  -0.235
REMARK UNBOUND:                -0.208
REMARK SMILES CCCCCC(=O)[O-]
REMARK SMILES IDX 4 1 5 2 6 3 7 4 8 5 3 6 2 7 1 8
REMARK H PARENT
REMARK Flexibility Score: inf
ROOT
ATOM      1  C   UNL     1     -46.002 -48.712  69.812  1.00  0.00     0.006 C 
ENDROOT
BRANCH   1   2
ATOM      2  C   UNL     1     -47.162 -49.033  70.759  1.00  0.00     0.053 C 
BRANCH   2   3
ATOM      3  C   UNL     1     -48.071 -47.854  70.894  1.00  0.00     0.041 C 
ATOM      4  O   UNL     1     -47.740 -46.739  70.410  1.00  0.00    -0.550 OA
ATOM      5  O   UNL     1     -49.308 -47.995  71.511  1.00  0.00    -0.550 OA
ENDBRANCH   2   3
ENDBRANCH   1   2
BRANCH   1   6
ATOM      6  C   UNL     1     -44.684 -48.577  70.582  1.00  0.00     0.000 C 
BRANCH   6   7
ATOM      7  C   UNL     1     -44.092 -47.173  70.420  1.00  0.00    -0.003 C 
ATOM      8  C   UNL     1     -44.345 -46.321  71.661  1.00  0.00     0.004 C 
ENDBRANCH   6   7
ENDBRANCH   1   6
TORSDOF 4
ENDMDL
MODEL 3
REMARK VINA RESULT:    -2.691      1.836      2.508
REMARK INTER + INTRA:          -3.528
REMARK INTER:                  -3.253
REMARK INTRA:                  -0.275
REMARK UNBOUND:                -0.208
REMARK SMILES CCCCCC(=O)[O-]
REMARK SMILES IDX 4 1 5 2 6 3 7 4 8 5 3 6 2 7 1 8
REMARK H PARENT
REMARK Flexibility Score: inf
ROOT
ATOM      1  C   UNL     1     -47.968 -48.779  70.439  1.00  0.00     0.006 C 
ENDROOT
BRANCH   1   2
ATOM      2  C   UNL     1     -49.025 -48.618  69.342  1.00  0.00     0.053 C 
BRANCH   2   3
ATOM      3  C   UNL     1     -48.438 -47.946  68.142  1.00  0.00     0.041 C 
ATOM      4  O   UNL     1     -49.026 -46.966  67.613  1.00  0.00    -0.550 OA
ATOM      5  O   UNL     1     -47.215 -48.369  67.636  1.00  0.00    -0.550 OA
ENDBRANCH   2   3
ENDBRANCH   1   2
BRANCH   1   6
ATOM      6  C   UNL     1     -47.608 -47.425  71.060  1.00  0.00     0.000 C 
BRANCH   6   7
ATOM      7  C   UNL     1     -46.091 -47.209  71.067  1.00  0.00    -0.003 C 
ATOM      8  C   UNL     1     -45.349 -48.495  70.714  1.00  0.00     0.004 C 
ENDBRANCH   6   7
ENDBRANCH   1   6
TORSDOF 4
ENDMDL
MODEL 4
REMARK VINA RESULT:    -2.630      3.907      4.937
REMARK INTER + INTRA:          -3.453
REMARK INTER:                  -3.337
REMARK INTRA:                  -0.116
REMARK UNBOUND:                -0.208
REMARK SMILES CCCCCC(=O)[O-]
REMARK SMILES IDX 4 1 5 2 6 3 7 4 8 5 3 6 2 7 1 8
REMARK H PARENT
REMARK Flexibility Score: inf
ROOT
ATOM      1  C   UNL     1     -45.467 -46.806  71.073  1.00  0.00     0.006 C 
ENDROOT
BRANCH   1   2
ATOM      2  C   UNL     1     -44.038 -46.442  71.488  1.00  0.00     0.053 C 
BRANCH   2   3
ATOM      3  C   UNL     1     -43.404 -45.557  70.462  1.00  0.00     0.041 C 
ATOM      4  O   UNL     1     -43.182 -44.344  70.721  1.00  0.00    -0.550 OA
ATOM      5  O   UNL     1     -43.011 -46.082  69.237  1.00  0.00    -0.550 OA
ENDBRANCH   2   3
ENDBRANCH   1   2
BRANCH   1   6
ATOM      6  C   UNL     1     -45.577 -48.295  70.728  1.00  0.00     0.000 C 
BRANCH   6   7
ATOM      7  C   UNL     1     -47.040 -48.752  70.726  1.00  0.00    -0.003 C 
ATOM      8  C   UNL     1     -47.985 -47.579  70.973  1.00  0.00     0.004 C 
ENDBRANCH   6   7
ENDBRANCH   1   6
TORSDOF 4
ENDMDL
MODEL 5
REMARK VINA RESULT:    -2.601      0.840      1.707
REMARK INTER + INTRA:          -3.418
REMARK INTER:                  -3.276
REMARK INTRA:                  -0.142
REMARK UNBOUND:                -0.208
REMARK SMILES CCCCCC(=O)[O-]
REMARK SMILES IDX 4 1 5 2 6 3 7 4 8 5 3 6 2 7 1 8
REMARK H PARENT
REMARK Flexibility Score: inf
ROOT
ATOM      1  C   UNL     1     -46.684 -47.218  70.538  1.00  0.00     0.006 C 
ENDROOT
BRANCH   1   2
ATOM      2  C   UNL     1     -48.013 -47.655  71.163  1.00  0.00     0.053 C 
BRANCH   2   3
ATOM      3  C   UNL     1     -48.583 -48.822  70.421  1.00  0.00     0.041 C 
ATOM      4  O   UNL     1     -49.007 -48.678  69.243  1.00  0.00    -0.550 OA
ATOM      5  O   UNL     1     -48.600 -50.080  71.009  1.00  0.00    -0.550 OA
ENDBRANCH   2   3
ENDBRANCH   1   2
BRANCH   1   6
ATOM      6  C   UNL     1     -45.635 -48.331  70.641  1.00  0.00     0.000 C 
BRANCH   6   7
ATOM      7  C   UNL     1     -44.232 -47.747  70.843  1.00  0.00    -0.003 C 
ATOM      8  C   UNL     1     -44.286 -46.233  71.024  1.00  0.00     0.004 C 
ENDBRANCH   6   7
ENDBRANCH   1   6
TORSDOF 4
ENDMDL
MODEL 6
REMARK VINA RESULT:    -2.592      3.950      5.077
REMARK INTER + INTRA:          -3.407
REMARK INTER:                  -3.310
REMARK INTRA:                  -0.097
REMARK UNBOUND:                -0.208
REMARK SMILES CCCCCC(=O)[O-]
REMARK SMILES IDX 4 1 5 2 6 3 7 4 8 5 3 6 2 7 1 8
REMARK H PARENT
REMARK Flexibility Score: inf
ROOT
ATOM      1  C   UNL     1     -45.161 -46.972  70.962  1.00  0.00     0.006 C 
ENDROOT
BRANCH   1   2
ATOM      2  C   UNL     1     -43.698 -46.752  71.355  1.00  0.00     0.053 C 
BRANCH   2   3
ATOM      3  C   UNL     1     -43.574 -45.588  72.286  1.00  0.00     0.041 C 
ATOM      4  O   UNL     1     -44.295 -45.521  73.317  1.00  0.00    -0.550 OA
ATOM      5  O   UNL     1     -42.628 -44.600  72.043  1.00  0.00    -0.550 OA
ENDBRANCH   2   3
ENDBRANCH   1   2
BRANCH   1   6
ATOM      6  C   UNL     1     -45.453 -48.460  70.735  1.00  0.00     0.000 C 
BRANCH   6   7
ATOM      7  C   UNL     1     -46.962 -48.728  70.712  1.00  0.00    -0.003 C 
ATOM      8  C   UNL     1     -47.752 -47.459  71.022  1.00  0.00     0.004 C 
ENDBRANCH   6   7
ENDBRANCH   1   6
TORSDOF 4
ENDMDL
MODEL 7
REMARK VINA RESULT:    -2.536      3.260      4.388
REMARK INTER + INTRA:          -3.337
REMARK INTER:                  -3.192
REMARK INTRA:                  -0.145
REMARK UNBOUND:                -0.208
REMARK SMILES CCCCCC(=O)[O-]
REMARK SMILES IDX 4 1 5 2 6 3 7 4 8 5 3 6 2 7 1 8
REMARK H PARENT
REMARK Flexibility Score: inf
ROOT
ATOM      1  C   UNL     1     -45.436 -48.359  70.713  1.00  0.00     0.006 C 
ENDROOT
BRANCH   1   2
ATOM      2  C   UNL     1     -43.946 -48.005  70.718  1.00  0.00     0.053 C 
BRANCH   2   3
ATOM      3  C   UNL     1     -43.604 -47.160  69.532  1.00  0.00     0.041 C 
ATOM      4  O   UNL     1     -43.166 -45.989  69.693  1.00  0.00    -0.550 OA
ATOM      5  O   UNL     1     -43.720 -47.680  68.249  1.00  0.00    -0.550 OA
ENDBRANCH   2   3
ENDBRANCH   1   2
BRANCH   1   6
ATOM      6  C   UNL     1     -46.295 -47.131  71.038  1.00  0.00     0.000 C 
BRANCH   6   7
ATOM      7  C   UNL     1     -47.787 -47.474  70.985  1.00  0.00    -0.003 C 
ATOM      8  C   UNL     1     -48.002 -48.961  70.714  1.00  0.00     0.004 C 
ENDBRANCH   6   7
ENDBRANCH   1   6
TORSDOF 4
ENDMDL
MODEL 8
REMARK VINA RESULT:    -2.411      9.827     10.887
REMARK INTER + INTRA:          -3.183
REMARK INTER:                  -3.114
REMARK INTRA:                  -0.069
REMARK UNBOUND:                -0.208
REMARK SMILES CCCCCC(=O)[O-]
REMARK SMILES IDX 4 1 5 2 6 3 7 4 8 5 3 6 2 7 1 8
REMARK H PARENT
REMARK Flexibility Score: inf
ROOT
ATOM      1  C   UNL     1     -48.043 -37.893  72.746  1.00  0.00     0.006 C 
ENDROOT
BRANCH   1   2
ATOM      2  C   UNL     1     -46.602 -38.025  72.245  1.00  0.00     0.053 C 
BRANCH   2   3
ATOM      3  C   UNL     1     -46.064 -39.387  72.546  1.00  0.00     0.041 C 
ATOM      4  O   UNL     1     -46.481 -40.026  73.549  1.00  0.00    -0.550 OA
ATOM      5  O   UNL     1     -45.138 -39.975  71.693  1.00  0.00    -0.550 OA
ENDBRANCH   2   3
ENDBRANCH   1   2
BRANCH   1   6
ATOM      6  C   UNL     1     -48.953 -37.309  71.659  1.00  0.00     0.000 C 
BRANCH   6   7
ATOM      7  C   UNL     1     -50.413 -37.712  71.888  1.00  0.00    -0.003 C 
ATOM      8  C   UNL     1     -50.942 -37.146  73.203  1.00  0.00     0.004 C 
ENDBRANCH   6   7
ENDBRANCH   1   6
TORSDOF 4
ENDMDL
MODEL 9
REMARK VINA RESULT:    -2.400     10.096     10.920
REMARK INTER + INTRA:          -3.169
REMARK INTER:                  -3.036
REMARK INTRA:                  -0.133
REMARK UNBOUND:                -0.208
REMARK SMILES CCCCCC(=O)[O-]
REMARK SMILES IDX 4 1 5 2 6 3 7 4 8 5 3 6 2 7 1 8
REMARK H PARENT
REMARK Flexibility Score: inf
ROOT
ATOM      1  C   UNL     1     -48.570 -36.953  72.759  1.00  0.00     0.006 C 
ENDROOT
BRANCH   1   2
ATOM      2  C   UNL     1     -48.815 -36.954  71.247  1.00  0.00     0.053 C 
BRANCH   2   3
ATOM      3  C   UNL     1     -50.201 -37.422  70.940  1.00  0.00     0.041 C 
ATOM      4  O   UNL     1     -50.601 -37.483  69.747  1.00  0.00    -0.550 OA
ATOM      5  O   UNL     1     -51.038 -37.840  71.967  1.00  0.00    -0.550 OA
ENDBRANCH   2   3
ENDBRANCH   1   2
BRANCH   1   6
ATOM      6  C   UNL     1     -47.743 -38.172  73.184  1.00  0.00     0.000 C 
BRANCH   6   7
ATOM      7  C   UNL     1     -46.482 -38.308  72.323  1.00  0.00    -0.003 C 
ATOM      8  C   UNL     1     -45.882 -39.706  72.441  1.00  0.00     0.004 C 
ENDBRANCH   6   7
ENDBRANCH   1   6
TORSDOF 4
ENDMDL
