MODEL 1
REMARK VINA RESULT:    -3.919      0.000      0.000
REMARK INTER + INTRA:          -5.294
REMARK INTER:                  -5.065
REMARK INTRA:                  -0.230
REMARK UNBOUND:                -0.230
REMARK SMILES CCCCCCC(=O)[O-]
REMARK SMILES IDX 5 1 6 2 7 3 8 4 9 5 4 6 3 7 2 8 1 9
REMARK H PARENT
REMARK Flexibility Score: inf
ROOT
ATOM      1  C   UNL     1       3.087  28.541  56.813  1.00  0.00     0.006 C 
ENDROOT
BRANCH   1   2
ATOM      2  C   UNL     1       4.302  27.621  56.999  1.00  0.00     0.053 C 
BRANCH   2   3
ATOM      3  C   UNL     1       4.334  27.015  58.369  1.00  0.00     0.041 C 
ATOM      4  O   UNL     1       3.261  26.758  58.973  1.00  0.00    -0.550 OA
ATOM      5  O   UNL     1       5.551  26.767  58.992  1.00  0.00    -0.550 OA
ENDBRANCH   2   3
ENDBRANCH   1   2
BRANCH   1   6
ATOM      6  C   UNL     1       2.388  28.314  55.461  1.00  0.00     0.000 C 
BRANCH   6   7
ATOM      7  C   UNL     1       0.860  28.229  55.594  1.00  0.00    -0.000 C 
BRANCH   7   8
ATOM      8  C   UNL     1       0.378  28.469  57.031  1.00  0.00    -0.003 C 
ATOM      9  C   UNL     1      -0.675  29.572  57.081  1.00  0.00     0.004 C 
ENDBRANCH   7   8
ENDBRANCH   6   7
ENDBRANCH   1   6
TORSDOF 5
ENDMDL
MODEL 2
REMARK VINA RESULT:    -3.729      2.084      2.461
REMARK INTER + INTRA:          -5.048
REMARK INTER:                  -4.830
REMARK INTRA:                  -0.218
REMARK UNBOUND:                -0.230
REMARK SMILES CCCCCCC(=O)[O-]
REMARK SMILES IDX 5 1 6 2 7 3 8 4 9 5 4 6 3 7 2 8 1 9
REMARK H PARENT
REMARK Flexibility Score: inf
ROOT
ATOM      1  C   UNL     1       3.540  27.666  57.567  1.00  0.00     0.006 C 
ENDROOT
BRANCH   1   2
ATOM      2  C   UNL     1       4.411  27.800  56.310  1.00  0.00     0.053 C 
BRANCH   2   3
ATOM      3  C   UNL     1       5.359  28.956  56.412  1.00  0.00     0.041 C 
ATOM      4  O   UNL     1       5.747  29.359  57.539  1.00  0.00    -0.550 OA
ATOM      5  O   UNL     1       5.784  29.611  55.262  1.00  0.00    -0.550 OA
ENDBRANCH   2   3
ENDBRANCH   1   2
BRANCH   1   6
ATOM      6  C   UNL     1       2.230  28.464  57.454  1.00  0.00     0.000 C 
BRANCH   6   7
ATOM      7  C   UNL     1       1.662  28.467  56.027  1.00  0.00    -0.000 C 
BRANCH   7   8
ATOM      8  C   UNL     1       0.259  29.087  55.951  1.00  0.00    -0.003 C 
ATOM      9  C   UNL     1      -0.237  29.495  57.336  1.00  0.00     0.004 C 
ENDBRANCH   7   8
ENDBRANCH   6   7
ENDBRANCH   1   6
TORSDOF 5
ENDMDL
MODEL 3
REMARK VINA RESULT:    -3.660      3.284      4.969
REMARK INTER + INTRA:          -4.959
REMARK INTER:                  -4.660
REMARK INTRA:                  -0.299
REMARK UNBOUND:                -0.230
REMARK SMILES CCCCCCC(=O)[O-]
REMARK SMILES IDX 5 1 6 2 7 3 8 4 9 5 4 6 3 7 2 8 1 9
REMARK H PARENT
REMARK Flexibility Score: inf
ROOT
ATOM      1  C   UNL     1       1.344  29.282  57.363  1.00  0.00     0.006 C 
ENDROOT
BRANCH   1   2
ATOM      2  C   UNL     1       0.046  28.882  56.647  1.00  0.00     0.053 C 
BRANCH   2   3
ATOM      3  C   UNL     1       0.021  29.370  55.230  1.00  0.00     0.041 C 
ATOM      4  O   UNL     1       0.914  30.152  54.814  1.00  0.00    -0.550 OA
ATOM      5  O   UNL     1      -1.011  28.988  54.381  1.00  0.00    -0.550 OA
ENDBRANCH   2   3
ENDBRANCH   1   2
BRANCH   1   6
ATOM      6  C   UNL     1       2.351  28.121  57.432  1.00  0.00     0.000 C 
BRANCH   6   7
ATOM      7  C   UNL     1       3.791  28.570  57.139  1.00  0.00    -0.000 C 
BRANCH   7   8
ATOM      8  C   UNL     1       4.431  27.782  55.987  1.00  0.00    -0.003 C 
ATOM      9  C   UNL     1       3.799  28.154  54.649  1.00  0.00     0.004 C 
ENDBRANCH   7   8
ENDBRANCH   6   7
ENDBRANCH   1   6
TORSDOF 5
ENDMDL
MODEL 4
REMARK VINA RESULT:    -3.625      3.057      4.829
REMARK INTER + INTRA:          -4.914
REMARK INTER:                  -4.728
REMARK INTRA:                  -0.186
REMARK UNBOUND:                -0.230
REMARK SMILES CCCCCCC(=O)[O-]
REMARK SMILES IDX 5 1 6 2 7 3 8 4 9 5 4 6 3 7 2 8 1 9
REMARK H PARENT
REMARK Flexibility Score: inf
ROOT
ATOM      1  C   UNL     1       2.241  28.348  55.012  1.00  0.00     0.006 C 
ENDROOT
BRANCH   1   2
ATOM      2  C   UNL     1       0.731  28.134  55.184  1.00  0.00     0.053 C 
BRANCH   2   3
ATOM      3  C   UNL     1       0.025  29.412  55.522  1.00  0.00     0.041 C 
ATOM      4  O   UNL     1      -0.076  30.326  54.663  1.00  0.00    -0.550 OA
ATOM      5  O   UNL     1      -0.490  29.607  56.798  1.00  0.00    -0.550 OA
ENDBRANCH   2   3
ENDBRANCH   1   2
BRANCH   1   6
ATOM      6  C   UNL     1       2.979  28.392  56.362  1.00  0.00     0.000 C 
BRANCH   6   7
ATOM      7  C   UNL     1       4.367  27.738  56.298  1.00  0.00    -0.000 C 
BRANCH   7   8
ATOM      8  C   UNL     1       4.898  27.344  57.683  1.00  0.00    -0.003 C 
ATOM      9  C   UNL     1       3.760  26.929  58.610  1.00  0.00     0.004 C 
ENDBRANCH   7   8
ENDBRANCH   6   7
ENDBRANCH   1   6
TORSDOF 5
ENDMDL
MODEL 5
REMARK VINA RESULT:    -3.617      1.295      2.454
REMARK INTER + INTRA:          -4.903
REMARK INTER:                  -4.617
REMARK INTRA:                  -0.286
REMARK UNBOUND:                -0.230
REMARK SMILES CCCCCCC(=O)[O-]
REMARK SMILES IDX 5 1 6 2 7 3 8 4 9 5 4 6 3 7 2 8 1 9
REMARK H PARENT
REMARK Flexibility Score: inf
ROOT
ATOM      1  C   UNL     1       2.416  28.682  57.432  1.00  0.00     0.006 C 
ENDROOT
BRANCH   1   2
ATOM      2  C   UNL     1       2.934  27.446  58.179  1.00  0.00     0.053 C 
BRANCH   2   3
ATOM      3  C   UNL     1       4.407  27.254  57.980  1.00  0.00     0.041 C 
ATOM      4  O   UNL     1       4.898  27.280  56.822  1.00  0.00    -0.550 OA
ATOM      5  O   UNL     1       5.231  27.010  59.072  1.00  0.00    -0.550 OA
ENDBRANCH   2   3
ENDBRANCH   1   2
BRANCH   1   6
ATOM      6  C   UNL     1       1.102  28.400  56.683  1.00  0.00     0.000 C 
BRANCH   6   7
ATOM      7  C   UNL     1       1.317  28.168  55.180  1.00  0.00    -0.000 C 
BRANCH   7   8
ATOM      8  C   UNL     1       2.263  29.201  54.553  1.00  0.00    -0.003 C 
ATOM      9  C   UNL     1       3.470  28.523  53.911  1.00  0.00     0.004 C 
ENDBRANCH   7   8
ENDBRANCH   6   7
ENDBRANCH   1   6
TORSDOF 5
ENDMDL
MODEL 6
REMARK VINA RESULT:    -3.460      3.470      3.942
REMARK INTER + INTRA:          -4.701
REMARK INTER:                  -4.541
REMARK INTRA:                  -0.160
REMARK UNBOUND:                -0.230
REMARK SMILES CCCCCCC(=O)[O-]
REMARK SMILES IDX 5 1 6 2 7 3 8 4 9 5 4 6 3 7 2 8 1 9
REMARK H PARENT
REMARK Flexibility Score: inf
ROOT
ATOM      1  C   UNL     1       2.640  28.373  55.289  1.00  0.00     0.006 C 
ENDROOT
BRANCH   1   2
ATOM      2  C   UNL     1       3.995  28.161  54.600  1.00  0.00     0.053 C 
BRANCH   2   3
ATOM      3  C   UNL     1       4.072  28.888  53.291  1.00  0.00     0.041 C 
ATOM      4  O   UNL     1       3.672  30.077  53.203  1.00  0.00    -0.550 OA
ATOM      5  O   UNL     1       4.553  28.237  52.161  1.00  0.00    -0.550 OA
ENDBRANCH   2   3
ENDBRANCH   1   2
BRANCH   1   6
ATOM      6  C   UNL     1       2.769  28.420  56.821  1.00  0.00     0.000 C 
BRANCH   6   7
ATOM      7  C   UNL     1       1.488  28.922  57.506  1.00  0.00    -0.000 C 
BRANCH   7   8
ATOM      8  C   UNL     1       0.366  29.230  56.505  1.00  0.00    -0.003 C 
ATOM      9  C   UNL     1      -0.872  29.770  57.216  1.00  0.00     0.004 C 
ENDBRANCH   7   8
ENDBRANCH   6   7
ENDBRANCH   1   6
TORSDOF 5
ENDMDL
MODEL 7
REMARK VINA RESULT:    -3.371      8.603     10.788
REMARK INTER + INTRA:          -4.586
REMARK INTER:                  -4.414
REMARK INTRA:                  -0.173
REMARK UNBOUND:                -0.230
REMARK SMILES CCCCCCC(=O)[O-]
REMARK SMILES IDX 5 1 6 2 7 3 8 4 9 5 4 6 3 7 2 8 1 9
REMARK H PARENT
REMARK Flexibility Score: inf
ROOT
ATOM      1  C   UNL     1      -6.881  32.063  58.454  1.00  0.00     0.006 C 
ENDROOT
BRANCH   1   2
ATOM      2  C   UNL     1      -6.274  31.508  59.750  1.00  0.00     0.053 C 
BRANCH   2   3
ATOM      3  C   UNL     1      -4.904  30.945  59.525  1.00  0.00     0.041 C 
ATOM      4  O   UNL     1      -3.904  31.472  60.077  1.00  0.00    -0.550 OA
ATOM      5  O   UNL     1      -4.728  29.860  58.674  1.00  0.00    -0.550 OA
ENDBRANCH   2   3
ENDBRANCH   1   2
BRANCH   1   6
ATOM      6  C   UNL     1      -8.081  31.230  57.971  1.00  0.00     0.000 C 
BRANCH   6   7
ATOM      7  C   UNL     1      -9.397  32.023  57.991  1.00  0.00    -0.000 C 
BRANCH   7   8
ATOM      8  C   UNL     1      -9.964  32.188  59.408  1.00  0.00    -0.003 C 
ATOM      9  C   UNL     1     -11.421  32.642  59.367  1.00  0.00     0.004 C 
ENDBRANCH   7   8
ENDBRANCH   6   7
ENDBRANCH   1   6
TORSDOF 5
ENDMDL
MODEL 8
REMARK VINA RESULT:    -3.265     10.861     13.026
REMARK INTER + INTRA:          -4.449
REMARK INTER:                  -4.304
REMARK INTRA:                  -0.145
REMARK UNBOUND:                -0.230
REMARK SMILES CCCCCCC(=O)[O-]
REMARK SMILES IDX 5 1 6 2 7 3 8 4 9 5 4 6 3 7 2 8 1 9
REMARK H PARENT
REMARK Flexibility Score: inf
ROOT
ATOM      1  C   UNL     1      -9.028  31.817  58.112  1.00  0.00     0.006 C 
ENDROOT
BRANCH   1   2
ATOM      2  C   UNL     1      -9.696  32.134  59.457  1.00  0.00     0.053 C 
BRANCH   2   3
ATOM      3  C   UNL     1     -11.118  32.573  59.280  1.00  0.00     0.041 C 
ATOM      4  O   UNL     1     -12.062  31.827  59.647  1.00  0.00    -0.550 OA
ATOM      5  O   UNL     1     -11.400  33.793  58.676  1.00  0.00    -0.550 OA
ENDBRANCH   2   3
ENDBRANCH   1   2
BRANCH   1   6
ATOM      6  C   UNL     1      -7.628  32.446  57.997  1.00  0.00     0.000 C 
BRANCH   6   7
ATOM      7  C   UNL     1      -6.503  31.436  58.270  1.00  0.00    -0.000 C 
BRANCH   7   8
ATOM      8  C   UNL     1      -6.014  31.476  59.724  1.00  0.00    -0.003 C 
ATOM      9  C   UNL     1      -4.515  31.201  59.808  1.00  0.00     0.004 C 
ENDBRANCH   7   8
ENDBRANCH   6   7
ENDBRANCH   1   6
TORSDOF 5
ENDMDL
MODEL 9
REMARK VINA RESULT:    -3.194      8.349      9.610
REMARK INTER + INTRA:          -4.357
REMARK INTER:                  -4.256
REMARK INTRA:                  -0.101
REMARK UNBOUND:                -0.230
REMARK SMILES CCCCCCC(=O)[O-]
REMARK SMILES IDX 5 1 6 2 7 3 8 4 9 5 4 6 3 7 2 8 1 9
REMARK H PARENT
REMARK Flexibility Score: inf
ROOT
ATOM      1  C   UNL     1      -6.295  29.483  57.846  1.00  0.00     0.006 C 
ENDROOT
BRANCH   1   2
ATOM      2  C   UNL     1      -5.017  29.821  58.626  1.00  0.00     0.053 C 
BRANCH   2   3
ATOM      3  C   UNL     1      -5.171  31.079  59.425  1.00  0.00     0.041 C 
ATOM      4  O   UNL     1      -4.216  31.506  60.125  1.00  0.00    -0.550 OA
ATOM      5  O   UNL     1      -6.382  31.761  59.425  1.00  0.00    -0.550 OA
ENDBRANCH   2   3
ENDBRANCH   1   2
BRANCH   1   6
ATOM      6  C   UNL     1      -6.615  27.978  57.878  1.00  0.00     0.000 C 
BRANCH   6   7
ATOM      7  C   UNL     1      -7.733  27.592  56.899  1.00  0.00    -0.000 C 
BRANCH   7   8
ATOM      8  C   UNL     1      -7.192  27.100  55.549  1.00  0.00    -0.003 C 
ATOM      9  C   UNL     1      -7.658  25.677  55.255  1.00  0.00     0.004 C 
ENDBRANCH   7   8
ENDBRANCH   6   7
ENDBRANCH   1   6
TORSDOF 5
ENDMDL
