MODEL 1
REMARK VINA RESULT:    -4.806      0.000      0.000
REMARK INTER + INTRA:         -13.558
REMARK INTER:                 -10.425
REMARK INTRA:                  -3.133
REMARK UNBOUND:                -3.133
REMARK SMILES CCCCCCCCCCCCCCCCCCCCCC(=O)[O-]
REMARK SMILES IDX 12 1 11 2 10 3 9 4 8 5 7 6 6 7 5 8 4 9 3 10 2 11 1 12 13 13
REMARK SMILES IDX 14 14 15 15 16 16 17 17 18 18 19 19 20 20 21 21 22 22 23 23
REMARK SMILES IDX 24 24
REMARK H PARENT
REMARK Flexibility Score: inf
ROOT
ATOM      1  C   UNL     1     -20.241  23.373 -24.622  1.00  0.00     0.000 C 
ENDROOT
BRANCH   1   2
ATOM      2  C   UNL     1     -21.376  22.848 -25.514  1.00  0.00     0.000 C 
BRANCH   2   3
ATOM      3  C   UNL     1     -21.868  21.448 -25.102  1.00  0.00     0.000 C 
BRANCH   3   4
ATOM      4  C   UNL     1     -23.104  21.437 -24.181  1.00  0.00    -0.000 C 
BRANCH   4   5
ATOM      5  C   UNL     1     -22.906  20.712 -22.836  1.00  0.00    -0.000 C 
BRANCH   5   6
ATOM      6  C   UNL     1     -23.293  19.216 -22.871  1.00  0.00    -0.000 C 
BRANCH   6   7
ATOM      7  C   UNL     1     -22.208  18.276 -22.314  1.00  0.00    -0.000 C 
BRANCH   7   8
ATOM      8  C   UNL     1     -21.864  17.134 -23.283  1.00  0.00    -0.000 C 
BRANCH   8   9
ATOM      9  C   UNL     1     -20.430  17.278 -23.810  1.00  0.00    -0.000 C 
BRANCH   9  10
ATOM     10  C   UNL     1     -20.374  18.257 -24.993  1.00  0.00    -0.000 C 
BRANCH  10  11
ATOM     11  C   UNL     1     -21.430  17.947 -26.065  1.00  0.00    -0.003 C 
ATOM     12  C   UNL     1     -20.840  17.879 -27.473  1.00  0.00     0.004 C 
ENDBRANCH  10  11
ENDBRANCH   9  10
ENDBRANCH   8   9
ENDBRANCH   7   8
ENDBRANCH   6   7
ENDBRANCH   5   6
ENDBRANCH   4   5
ENDBRANCH   3   4
ENDBRANCH   2   3
ENDBRANCH   1   2
BRANCH   1  13
ATOM     13  C   UNL     1     -20.606  24.740 -24.022  1.00  0.00     0.000 C 
BRANCH  13  14
ATOM     14  C   UNL     1     -21.771  24.656 -23.023  1.00  0.00     0.000 C 
BRANCH  14  15
ATOM     15  C   UNL     1     -22.894  25.657 -23.343  1.00  0.00     0.000 C 
BRANCH  15  16
ATOM     16  C   UNL     1     -24.153  24.983 -23.921  1.00  0.00     0.000 C 
BRANCH  16  17
ATOM     17  C   UNL     1     -24.284  25.049 -25.453  1.00  0.00     0.000 C 
BRANCH  17  18
ATOM     18  C   UNL     1     -23.205  25.922 -26.112  1.00  0.00     0.000 C 
BRANCH  18  19
ATOM     19  C   UNL     1     -22.965  25.495 -27.567  1.00  0.00     0.000 C 
BRANCH  19  20
ATOM     20  C   UNL     1     -21.748  26.185 -28.206  1.00  0.00     0.006 C 
BRANCH  20  21
ATOM     21  C   UNL     1     -20.492  26.189 -27.315  1.00  0.00     0.053 C 
BRANCH  21  22
ATOM     22  C   UNL     1     -19.320  25.522 -27.970  1.00  0.00     0.041 C 
ATOM     23  O   UNL     1     -19.162  24.277 -27.870  1.00  0.00    -0.550 OA
ATOM     24  O   UNL     1     -18.421  26.269 -28.721  1.00  0.00    -0.550 OA
ENDBRANCH  21  22
ENDBRANCH  20  21
ENDBRANCH  19  20
ENDBRANCH  18  19
ENDBRANCH  17  18
ENDBRANCH  16  17
ENDBRANCH  15  16
ENDBRANCH  14  15
ENDBRANCH  13  14
ENDBRANCH   1  13
TORSDOF 20
ENDMDL
MODEL 2
REMARK VINA RESULT:    -4.804      2.265      5.229
REMARK INTER + INTRA:         -13.554
REMARK INTER:                 -10.442
REMARK INTRA:                  -3.112
REMARK UNBOUND:                -3.133
REMARK SMILES CCCCCCCCCCCCCCCCCCCCCC(=O)[O-]
REMARK SMILES IDX 12 1 11 2 10 3 9 4 8 5 7 6 6 7 5 8 4 9 3 10 2 11 1 12 13 13
REMARK SMILES IDX 14 14 15 15 16 16 17 17 18 18 19 19 20 20 21 21 22 22 23 23
REMARK SMILES IDX 24 24
REMARK H PARENT
REMARK Flexibility Score: inf
ROOT
ATOM      1  C   UNL     1     -22.545  18.306 -25.392  1.00  0.00     0.000 C 
ENDROOT
BRANCH   1   2
ATOM      2  C   UNL     1     -22.752  17.265 -24.282  1.00  0.00     0.000 C 
BRANCH   2   3
ATOM      3  C   UNL     1     -24.054  17.483 -23.487  1.00  0.00     0.000 C 
BRANCH   3   4
ATOM      4  C   UNL     1     -23.859  17.783 -21.989  1.00  0.00    -0.000 C 
BRANCH   4   5
ATOM      5  C   UNL     1     -22.589  18.586 -21.647  1.00  0.00    -0.000 C 
BRANCH   5   6
ATOM      6  C   UNL     1     -22.868  20.052 -21.245  1.00  0.00    -0.000 C 
BRANCH   6   7
ATOM      7  C   UNL     1     -24.358  20.437 -21.274  1.00  0.00    -0.000 C 
BRANCH   7   8
ATOM      8  C   UNL     1     -24.639  21.763 -20.551  1.00  0.00    -0.000 C 
BRANCH   8   9
ATOM      9  C   UNL     1     -23.344  22.366 -19.992  1.00  0.00    -0.000 C 
BRANCH   9  10
ATOM     10  C   UNL     1     -23.212  23.846 -20.381  1.00  0.00    -0.000 C 
BRANCH  10  11
ATOM     11  C   UNL     1     -22.930  24.750 -19.172  1.00  0.00    -0.003 C 
ATOM     12  C   UNL     1     -23.591  24.247 -17.890  1.00  0.00     0.004 C 
ENDBRANCH  10  11
ENDBRANCH   9  10
ENDBRANCH   8   9
ENDBRANCH   7   8
ENDBRANCH   6   7
ENDBRANCH   5   6
ENDBRANCH   4   5
ENDBRANCH   3   4
ENDBRANCH   2   3
ENDBRANCH   1   2
BRANCH   1  13
ATOM     13  C   UNL     1     -21.289  19.150 -25.121  1.00  0.00     0.000 C 
BRANCH  13  14
ATOM     14  C   UNL     1     -21.533  20.655 -25.321  1.00  0.00     0.000 C 
BRANCH  14  15
ATOM     15  C   UNL     1     -22.903  21.105 -24.786  1.00  0.00     0.000 C 
BRANCH  15  16
ATOM     16  C   UNL     1     -22.824  22.388 -23.939  1.00  0.00     0.000 C 
BRANCH  16  17
ATOM     17  C   UNL     1     -24.119  23.218 -23.888  1.00  0.00     0.000 C 
BRANCH  17  18
ATOM     18  C   UNL     1     -24.506  23.812 -25.250  1.00  0.00     0.000 C 
BRANCH  18  19
ATOM     19  C   UNL     1     -24.119  25.296 -25.334  1.00  0.00     0.000 C 
BRANCH  19  20
ATOM     20  C   UNL     1     -23.026  25.577 -26.380  1.00  0.00     0.006 C 
BRANCH  20  21
ATOM     21  C   UNL     1     -21.619  25.753 -25.781  1.00  0.00     0.053 C 
BRANCH  21  22
ATOM     22  C   UNL     1     -20.785  24.513 -25.899  1.00  0.00     0.041 C 
ATOM     23  O   UNL     1     -19.983  24.199 -24.980  1.00  0.00    -0.550 OA
ATOM     24  O   UNL     1     -20.917  23.684 -27.007  1.00  0.00    -0.550 OA
ENDBRANCH  21  22
ENDBRANCH  20  21
ENDBRANCH  19  20
ENDBRANCH  18  19
ENDBRANCH  17  18
ENDBRANCH  16  17
ENDBRANCH  15  16
ENDBRANCH  14  15
ENDBRANCH  13  14
ENDBRANCH   1  13
TORSDOF 20
ENDMDL
MODEL 3
REMARK VINA RESULT:    -4.763      1.264      3.014
REMARK INTER + INTRA:         -13.464
REMARK INTER:                 -10.612
REMARK INTRA:                  -2.852
REMARK UNBOUND:                -3.133
REMARK SMILES CCCCCCCCCCCCCCCCCCCCCC(=O)[O-]
REMARK SMILES IDX 12 1 11 2 10 3 9 4 8 5 7 6 6 7 5 8 4 9 3 10 2 11 1 12 13 13
REMARK SMILES IDX 14 14 15 15 16 16 17 17 18 18 19 19 20 20 21 21 22 22 23 23
REMARK SMILES IDX 24 24
REMARK H PARENT
REMARK Flexibility Score: inf
ROOT
ATOM      1  C   UNL     1     -21.906  22.067 -24.702  1.00  0.00     0.000 C 
ENDROOT
BRANCH   1   2
ATOM      2  C   UNL     1     -21.656  20.973 -25.750  1.00  0.00     0.000 C 
BRANCH   2   3
ATOM      3  C   UNL     1     -21.789  19.549 -25.177  1.00  0.00     0.000 C 
BRANCH   3   4
ATOM      4  C   UNL     1     -20.667  18.575 -25.586  1.00  0.00    -0.000 C 
BRANCH   4   5
ATOM      5  C   UNL     1     -19.975  17.852 -24.414  1.00  0.00    -0.000 C 
BRANCH   5   6
ATOM      6  C   UNL     1     -20.690  16.555 -23.972  1.00  0.00    -0.000 C 
BRANCH   6   7
ATOM      7  C   UNL     1     -20.619  16.285 -22.458  1.00  0.00    -0.000 C 
BRANCH   7   8
ATOM      8  C   UNL     1     -21.620  17.136 -21.661  1.00  0.00    -0.000 C 
BRANCH   8   9
ATOM      9  C   UNL     1     -22.986  17.171 -22.358  1.00  0.00    -0.000 C 
BRANCH   9  10
ATOM     10  C   UNL     1     -23.616  18.568 -22.266  1.00  0.00    -0.000 C 
BRANCH  10  11
ATOM     11  C   UNL     1     -22.671  19.600 -21.633  1.00  0.00    -0.003 C 
ATOM     12  C   UNL     1     -23.416  20.708 -20.889  1.00  0.00     0.004 C 
ENDBRANCH  10  11
ENDBRANCH   9  10
ENDBRANCH   8   9
ENDBRANCH   7   8
ENDBRANCH   6   7
ENDBRANCH   5   6
ENDBRANCH   4   5
ENDBRANCH   3   4
ENDBRANCH   2   3
ENDBRANCH   1   2
BRANCH   1  13
ATOM     13  C   UNL     1     -23.406  22.190 -24.388  1.00  0.00     0.000 C 
BRANCH  13  14
ATOM     14  C   UNL     1     -23.693  23.197 -23.263  1.00  0.00     0.000 C 
BRANCH  14  15
ATOM     15  C   UNL     1     -22.521  24.164 -23.024  1.00  0.00     0.000 C 
BRANCH  15  16
ATOM     16  C   UNL     1     -22.863  25.622 -23.383  1.00  0.00     0.000 C 
BRANCH  16  17
ATOM     17  C   UNL     1     -24.047  25.796 -24.350  1.00  0.00     0.000 C 
BRANCH  17  18
ATOM     18  C   UNL     1     -23.685  25.478 -25.809  1.00  0.00     0.000 C 
BRANCH  18  19
ATOM     19  C   UNL     1     -22.215  25.816 -26.096  1.00  0.00     0.000 C 
BRANCH  19  20
ATOM     20  C   UNL     1     -21.628  25.011 -27.269  1.00  0.00     0.006 C 
BRANCH  20  21
ATOM     21  C   UNL     1     -20.228  24.433 -26.992  1.00  0.00     0.053 C 
BRANCH  21  22
ATOM     22  C   UNL     1     -19.192  24.958 -27.940  1.00  0.00     0.041 C 
ATOM     23  O   UNL     1     -18.565  24.169 -28.694  1.00  0.00    -0.550 OA
ATOM     24  O   UNL     1     -18.943  26.323 -28.017  1.00  0.00    -0.550 OA
ENDBRANCH  21  22
ENDBRANCH  20  21
ENDBRANCH  19  20
ENDBRANCH  18  19
ENDBRANCH  17  18
ENDBRANCH  16  17
ENDBRANCH  15  16
ENDBRANCH  14  15
ENDBRANCH  13  14
ENDBRANCH   1  13
TORSDOF 20
ENDMDL
MODEL 4
REMARK VINA RESULT:    -4.738      2.011      4.044
REMARK INTER + INTRA:         -13.410
REMARK INTER:                 -10.418
REMARK INTRA:                  -2.992
REMARK UNBOUND:                -3.133
REMARK SMILES CCCCCCCCCCCCCCCCCCCCCC(=O)[O-]
REMARK SMILES IDX 12 1 11 2 10 3 9 4 8 5 7 6 6 7 5 8 4 9 3 10 2 11 1 12 13 13
REMARK SMILES IDX 14 14 15 15 16 16 17 17 18 18 19 19 20 20 21 21 22 22 23 23
REMARK SMILES IDX 24 24
REMARK H PARENT
REMARK Flexibility Score: inf
ROOT
ATOM      1  C   UNL     1     -22.968  20.259 -21.261  1.00  0.00     0.000 C 
ENDROOT
BRANCH   1   2
ATOM      2  C   UNL     1     -22.657  18.805 -21.646  1.00  0.00     0.000 C 
BRANCH   2   3
ATOM      3  C   UNL     1     -23.916  17.999 -22.020  1.00  0.00     0.000 C 
BRANCH   3   4
ATOM      4  C   UNL     1     -23.946  17.473 -23.468  1.00  0.00    -0.000 C 
BRANCH   4   5
ATOM      5  C   UNL     1     -23.473  18.479 -24.534  1.00  0.00    -0.000 C 
BRANCH   5   6
ATOM      6  C   UNL     1     -22.080  18.156 -25.122  1.00  0.00    -0.000 C 
BRANCH   6   7
ATOM      7  C   UNL     1     -21.917  16.695 -25.578  1.00  0.00    -0.000 C 
BRANCH   7   8
ATOM      8  C   UNL     1     -20.966  15.897 -24.672  1.00  0.00    -0.000 C 
BRANCH   8   9
ATOM      9  C   UNL     1     -20.172  16.834 -23.753  1.00  0.00    -0.000 C 
BRANCH   9  10
ATOM     10  C   UNL     1     -20.261  16.376 -22.290  1.00  0.00    -0.000 C 
BRANCH  10  11
ATOM     11  C   UNL     1     -20.848  14.963 -22.149  1.00  0.00    -0.003 C 
ATOM     12  C   UNL     1     -22.004  14.899 -21.152  1.00  0.00     0.004 C 
ENDBRANCH  10  11
ENDBRANCH   9  10
ENDBRANCH   8   9
ENDBRANCH   7   8
ENDBRANCH   6   7
ENDBRANCH   5   6
ENDBRANCH   4   5
ENDBRANCH   3   4
ENDBRANCH   2   3
ENDBRANCH   1   2
BRANCH   1  13
ATOM     13  C   UNL     1     -24.486  20.499 -21.213  1.00  0.00     0.000 C 
BRANCH  13  14
ATOM     14  C   UNL     1     -24.880  21.897 -21.715  1.00  0.00     0.000 C 
BRANCH  14  15
ATOM     15  C   UNL     1     -23.661  22.812 -21.926  1.00  0.00     0.000 C 
BRANCH  15  16
ATOM     16  C   UNL     1     -23.828  23.767 -23.123  1.00  0.00     0.000 C 
BRANCH  16  17
ATOM     17  C   UNL     1     -23.694  23.109 -24.507  1.00  0.00     0.000 C 
BRANCH  17  18
ATOM     18  C   UNL     1     -22.606  22.026 -24.555  1.00  0.00     0.000 C 
BRANCH  18  19
ATOM     19  C   UNL     1     -21.418  22.478 -25.417  1.00  0.00     0.000 C 
BRANCH  19  20
ATOM     20  C   UNL     1     -21.330  24.006 -25.570  1.00  0.00     0.006 C 
BRANCH  20  21
ATOM     21  C   UNL     1     -20.943  24.471 -26.986  1.00  0.00     0.053 C 
BRANCH  21  22
ATOM     22  C   UNL     1     -21.863  25.531 -27.514  1.00  0.00     0.041 C 
ATOM     23  O   UNL     1     -21.466  26.327 -28.405  1.00  0.00    -0.550 OA
ATOM     24  O   UNL     1     -23.169  25.619 -27.048  1.00  0.00    -0.550 OA
ENDBRANCH  21  22
ENDBRANCH  20  21
ENDBRANCH  19  20
ENDBRANCH  18  19
ENDBRANCH  17  18
ENDBRANCH  16  17
ENDBRANCH  15  16
ENDBRANCH  14  15
ENDBRANCH  13  14
ENDBRANCH   1  13
TORSDOF 20
ENDMDL
MODEL 5
REMARK VINA RESULT:    -4.726      1.686      4.171
REMARK INTER + INTRA:         -13.384
REMARK INTER:                 -10.518
REMARK INTRA:                  -2.866
REMARK UNBOUND:                -3.133
REMARK SMILES CCCCCCCCCCCCCCCCCCCCCC(=O)[O-]
REMARK SMILES IDX 12 1 11 2 10 3 9 4 8 5 7 6 6 7 5 8 4 9 3 10 2 11 1 12 13 13
REMARK SMILES IDX 14 14 15 15 16 16 17 17 18 18 19 19 20 20 21 21 22 22 23 23
REMARK SMILES IDX 24 24
REMARK H PARENT
REMARK Flexibility Score: inf
ROOT
ATOM      1  C   UNL     1     -21.390  18.664 -26.077  1.00  0.00     0.000 C 
ENDROOT
BRANCH   1   2
ATOM      2  C   UNL     1     -21.436  17.293 -25.385  1.00  0.00     0.000 C 
BRANCH   2   3
ATOM      3  C   UNL     1     -20.532  17.216 -24.140  1.00  0.00     0.000 C 
BRANCH   3   4
ATOM      4  C   UNL     1     -20.564  15.868 -23.395  1.00  0.00    -0.000 C 
BRANCH   4   5
ATOM      5  C   UNL     1     -20.983  15.955 -21.914  1.00  0.00    -0.000 C 
BRANCH   5   6
ATOM      6  C   UNL     1     -22.410  15.428 -21.638  1.00  0.00    -0.000 C 
BRANCH   6   7
ATOM      7  C   UNL     1     -23.450  16.536 -21.390  1.00  0.00    -0.000 C 
BRANCH   7   8
ATOM      8  C   UNL     1     -24.068  17.067 -22.692  1.00  0.00    -0.000 C 
BRANCH   8   9
ATOM      9  C   UNL     1     -23.931  18.592 -22.782  1.00  0.00    -0.000 C 
BRANCH   9  10
ATOM     10  C   UNL     1     -22.769  19.093 -21.911  1.00  0.00    -0.000 C 
BRANCH  10  11
ATOM     11  C   UNL     1     -23.111  20.390 -21.162  1.00  0.00    -0.003 C 
ATOM     12  C   UNL     1     -24.556  20.835 -21.379  1.00  0.00     0.004 C 
ENDBRANCH  10  11
ENDBRANCH   9  10
ENDBRANCH   8   9
ENDBRANCH   7   8
ENDBRANCH   6   7
ENDBRANCH   5   6
ENDBRANCH   4   5
ENDBRANCH   3   4
ENDBRANCH   2   3
ENDBRANCH   1   2
BRANCH   1  13
ATOM     13  C   UNL     1     -21.145  19.784 -25.054  1.00  0.00     0.000 C 
BRANCH  13  14
ATOM     14  C   UNL     1     -21.695  21.141 -25.520  1.00  0.00     0.000 C 
BRANCH  14  15
ATOM     15  C   UNL     1     -22.984  21.538 -24.782  1.00  0.00     0.000 C 
BRANCH  15  16
ATOM     16  C   UNL     1     -22.849  22.862 -24.006  1.00  0.00     0.000 C 
BRANCH  16  17
ATOM     17  C   UNL     1     -22.590  24.105 -24.876  1.00  0.00     0.000 C 
BRANCH  17  18
ATOM     18  C   UNL     1     -21.228  24.760 -24.598  1.00  0.00     0.000 C 
BRANCH  18  19
ATOM     19  C   UNL     1     -20.713  25.505 -25.837  1.00  0.00     0.000 C 
BRANCH  19  20
ATOM     20  C   UNL     1     -20.008  24.582 -26.847  1.00  0.00     0.006 C 
BRANCH  20  21
ATOM     21  C   UNL     1     -19.489  25.309 -28.101  1.00  0.00     0.053 C 
BRANCH  21  22
ATOM     22  C   UNL     1     -20.368  26.452 -28.508  1.00  0.00     0.041 C 
ATOM     23  O   UNL     1     -19.925  27.631 -28.487  1.00  0.00    -0.550 OA
ATOM     24  O   UNL     1     -21.666  26.215 -28.946  1.00  0.00    -0.550 OA
ENDBRANCH  21  22
ENDBRANCH  20  21
ENDBRANCH  19  20
ENDBRANCH  18  19
ENDBRANCH  17  18
ENDBRANCH  16  17
ENDBRANCH  15  16
ENDBRANCH  14  15
ENDBRANCH  13  14
ENDBRANCH   1  13
TORSDOF 20
ENDMDL
MODEL 6
REMARK VINA RESULT:    -4.679      4.174      8.326
REMARK INTER + INTRA:         -13.281
REMARK INTER:                 -10.431
REMARK INTRA:                  -2.851
REMARK UNBOUND:                -3.133
REMARK SMILES CCCCCCCCCCCCCCCCCCCCCC(=O)[O-]
REMARK SMILES IDX 12 1 11 2 10 3 9 4 8 5 7 6 6 7 5 8 4 9 3 10 2 11 1 12 13 13
REMARK SMILES IDX 14 14 15 15 16 16 17 17 18 18 19 19 20 20 21 21 22 22 23 23
REMARK SMILES IDX 24 24
REMARK H PARENT
REMARK Flexibility Score: inf
ROOT
ATOM      1  C   UNL     1     -22.891  19.882 -21.323  1.00  0.00     0.000 C 
ENDROOT
BRANCH   1   2
ATOM      2  C   UNL     1     -24.390  20.216 -21.285  1.00  0.00     0.000 C 
BRANCH   2   3
ATOM      3  C   UNL     1     -24.670  21.691 -20.941  1.00  0.00     0.000 C 
BRANCH   3   4
ATOM      4  C   UNL     1     -23.417  22.576 -20.800  1.00  0.00    -0.000 C 
BRANCH   4   5
ATOM      5  C   UNL     1     -23.155  23.526 -21.985  1.00  0.00    -0.000 C 
BRANCH   5   6
ATOM      6  C   UNL     1     -24.242  23.467 -23.083  1.00  0.00    -0.000 C 
BRANCH   6   7
ATOM      7  C   UNL     1     -23.702  23.099 -24.478  1.00  0.00    -0.000 C 
BRANCH   7   8
ATOM      8  C   UNL     1     -22.654  21.977 -24.427  1.00  0.00    -0.000 C 
BRANCH   8   9
ATOM      9  C   UNL     1     -21.500  22.263 -25.397  1.00  0.00    -0.000 C 
BRANCH   9  10
ATOM     10  C   UNL     1     -20.725  23.521 -24.976  1.00  0.00    -0.000 C 
BRANCH  10  11
ATOM     11  C   UNL     1     -20.257  24.353 -26.179  1.00  0.00    -0.003 C 
ATOM     12  C   UNL     1     -21.418  24.934 -26.985  1.00  0.00     0.004 C 
ENDBRANCH  10  11
ENDBRANCH   9  10
ENDBRANCH   8   9
ENDBRANCH   7   8
ENDBRANCH   6   7
ENDBRANCH   5   6
ENDBRANCH   4   5
ENDBRANCH   3   4
ENDBRANCH   2   3
ENDBRANCH   1   2
BRANCH   1  13
ATOM     13  C   UNL     1     -22.661  18.462 -21.865  1.00  0.00     0.000 C 
BRANCH  13  14
ATOM     14  C   UNL     1     -23.676  18.073 -22.952  1.00  0.00     0.000 C 
BRANCH  14  15
ATOM     15  C   UNL     1     -23.306  18.639 -24.333  1.00  0.00     0.000 C 
BRANCH  15  16
ATOM     16  C   UNL     1     -22.348  17.724 -25.119  1.00  0.00     0.000 C 
BRANCH  16  17
ATOM     17  C   UNL     1     -20.904  18.242 -25.241  1.00  0.00     0.000 C 
BRANCH  17  18
ATOM     18  C   UNL     1     -19.951  17.614 -24.212  1.00  0.00     0.000 C 
BRANCH  18  19
ATOM     19  C   UNL     1     -20.415  16.203 -23.823  1.00  0.00     0.000 C 
BRANCH  19  20
ATOM     20  C   UNL     1     -20.268  15.913 -22.319  1.00  0.00     0.006 C 
BRANCH  20  21
ATOM     21  C   UNL     1     -20.638  14.472 -21.921  1.00  0.00     0.053 C 
BRANCH  21  22
ATOM     22  C   UNL     1     -21.542  14.419 -20.727  1.00  0.00     0.041 C 
ATOM     23  O   UNL     1     -21.136  13.916 -19.646  1.00  0.00    -0.550 OA
ATOM     24  O   UNL     1     -22.822  14.958 -20.795  1.00  0.00    -0.550 OA
ENDBRANCH  21  22
ENDBRANCH  20  21
ENDBRANCH  19  20
ENDBRANCH  18  19
ENDBRANCH  17  18
ENDBRANCH  16  17
ENDBRANCH  15  16
ENDBRANCH  14  15
ENDBRANCH  13  14
ENDBRANCH   1  13
TORSDOF 20
ENDMDL
MODEL 7
REMARK VINA RESULT:    -4.672      2.014      4.214
REMARK INTER + INTRA:         -13.267
REMARK INTER:                 -10.311
REMARK INTRA:                  -2.955
REMARK UNBOUND:                -3.133
REMARK SMILES CCCCCCCCCCCCCCCCCCCCCC(=O)[O-]
REMARK SMILES IDX 12 1 11 2 10 3 9 4 8 5 7 6 6 7 5 8 4 9 3 10 2 11 1 12 13 13
REMARK SMILES IDX 14 14 15 15 16 16 17 17 18 18 19 19 20 20 21 21 22 22 23 23
REMARK SMILES IDX 24 24
REMARK H PARENT
REMARK Flexibility Score: inf
ROOT
ATOM      1  C   UNL     1     -22.960  18.887 -21.623  1.00  0.00     0.000 C 
ENDROOT
BRANCH   1   2
ATOM      2  C   UNL     1     -24.297  18.144 -21.758  1.00  0.00     0.000 C 
BRANCH   2   3
ATOM      3  C   UNL     1     -24.129  16.676 -22.192  1.00  0.00     0.000 C 
BRANCH   3   4
ATOM      4  C   UNL     1     -23.960  15.671 -21.036  1.00  0.00    -0.000 C 
BRANCH   4   5
ATOM      5  C   UNL     1     -22.816  14.655 -21.221  1.00  0.00    -0.000 C 
BRANCH   5   6
ATOM      6  C   UNL     1     -21.408  15.255 -21.004  1.00  0.00    -0.000 C 
BRANCH   6   7
ATOM      7  C   UNL     1     -20.519  15.235 -22.261  1.00  0.00    -0.000 C 
BRANCH   7   8
ATOM      8  C   UNL     1     -20.275  16.641 -22.832  1.00  0.00    -0.000 C 
BRANCH   8   9
ATOM      9  C   UNL     1     -20.797  16.744 -24.271  1.00  0.00    -0.000 C 
BRANCH   9  10
ATOM     10  C   UNL     1     -20.409  18.090 -24.902  1.00  0.00    -0.000 C 
BRANCH  10  11
ATOM     11  C   UNL     1     -21.617  19.019 -25.097  1.00  0.00    -0.003 C 
ATOM     12  C   UNL     1     -22.911  18.255 -25.376  1.00  0.00     0.004 C 
ENDBRANCH  10  11
ENDBRANCH   9  10
ENDBRANCH   8   9
ENDBRANCH   7   8
ENDBRANCH   6   7
ENDBRANCH   5   6
ENDBRANCH   4   5
ENDBRANCH   3   4
ENDBRANCH   2   3
ENDBRANCH   1   2
BRANCH   1  13
ATOM     13  C   UNL     1     -23.103  20.354 -22.061  1.00  0.00     0.000 C 
BRANCH  13  14
ATOM     14  C   UNL     1     -23.290  21.310 -20.872  1.00  0.00     0.000 C 
BRANCH  14  15
ATOM     15  C   UNL     1     -24.604  22.105 -20.956  1.00  0.00     0.000 C 
BRANCH  15  16
ATOM     16  C   UNL     1     -24.481  23.378 -21.815  1.00  0.00     0.000 C 
BRANCH  16  17
ATOM     17  C   UNL     1     -23.168  24.160 -21.639  1.00  0.00     0.000 C 
BRANCH  17  18
ATOM     18  C   UNL     1     -22.386  24.322 -22.951  1.00  0.00     0.000 C 
BRANCH  18  19
ATOM     19  C   UNL     1     -23.068  23.561 -24.097  1.00  0.00     0.000 C 
BRANCH  19  20
ATOM     20  C   UNL     1     -22.080  22.762 -24.964  1.00  0.00     0.006 C 
BRANCH  20  21
ATOM     21  C   UNL     1     -20.717  23.451 -25.155  1.00  0.00     0.053 C 
BRANCH  21  22
ATOM     22  C   UNL     1     -20.634  24.215 -26.442  1.00  0.00     0.041 C 
ATOM     23  O   UNL     1     -21.684  24.617 -27.009  1.00  0.00    -0.550 OA
ATOM     24  O   UNL     1     -19.397  24.514 -26.999  1.00  0.00    -0.550 OA
ENDBRANCH  21  22
ENDBRANCH  20  21
ENDBRANCH  19  20
ENDBRANCH  18  19
ENDBRANCH  17  18
ENDBRANCH  16  17
ENDBRANCH  15  16
ENDBRANCH  14  15
ENDBRANCH  13  14
ENDBRANCH   1  13
TORSDOF 20
ENDMDL
MODEL 8
REMARK VINA RESULT:    -4.625      3.025      6.051
REMARK INTER + INTRA:         -13.165
REMARK INTER:                 -10.323
REMARK INTRA:                  -2.842
REMARK UNBOUND:                -3.133
REMARK SMILES CCCCCCCCCCCCCCCCCCCCCC(=O)[O-]
REMARK SMILES IDX 12 1 11 2 10 3 9 4 8 5 7 6 6 7 5 8 4 9 3 10 2 11 1 12 13 13
REMARK SMILES IDX 14 14 15 15 16 16 17 17 18 18 19 19 20 20 21 21 22 22 23 23
REMARK SMILES IDX 24 24
REMARK H PARENT
REMARK Flexibility Score: inf
ROOT
ATOM      1  C   UNL     1     -21.666  15.922 -22.935  1.00  0.00     0.000 C 
ENDROOT
BRANCH   1   2
ATOM      2  C   UNL     1     -21.507  17.133 -22.004  1.00  0.00     0.000 C 
BRANCH   2   3
ATOM      3  C   UNL     1     -22.780  17.997 -21.916  1.00  0.00     0.000 C 
BRANCH   3   4
ATOM      4  C   UNL     1     -24.019  17.402 -22.613  1.00  0.00    -0.000 C 
BRANCH   4   5
ATOM      5  C   UNL     1     -25.124  16.907 -21.660  1.00  0.00    -0.000 C 
BRANCH   5   6
ATOM      6  C   UNL     1     -24.613  15.963 -20.548  1.00  0.00    -0.000 C 
BRANCH   6   7
ATOM      7  C   UNL     1     -24.984  14.484 -20.762  1.00  0.00    -0.000 C 
BRANCH   7   8
ATOM      8  C   UNL     1     -23.750  13.579 -20.893  1.00  0.00    -0.000 C 
BRANCH   8   9
ATOM      9  C   UNL     1     -22.894  13.634 -19.621  1.00  0.00    -0.000 C 
BRANCH   9  10
ATOM     10  C   UNL     1     -21.401  13.735 -19.965  1.00  0.00    -0.000 C 
BRANCH  10  11
ATOM     11  C   UNL     1     -20.999  12.809 -21.123  1.00  0.00    -0.003 C 
ATOM     12  C   UNL     1     -19.595  13.099 -21.653  1.00  0.00     0.004 C 
ENDBRANCH  10  11
ENDBRANCH   9  10
ENDBRANCH   8   9
ENDBRANCH   7   8
ENDBRANCH   6   7
ENDBRANCH   5   6
ENDBRANCH   4   5
ENDBRANCH   3   4
ENDBRANCH   2   3
ENDBRANCH   1   2
BRANCH   1  13
ATOM     13  C   UNL     1     -20.759  16.059 -24.168  1.00  0.00     0.000 C 
BRANCH  13  14
ATOM     14  C   UNL     1     -21.555  16.174 -25.478  1.00  0.00     0.000 C 
BRANCH  14  15
ATOM     15  C   UNL     1     -22.066  17.602 -25.732  1.00  0.00     0.000 C 
BRANCH  15  16
ATOM     16  C   UNL     1     -20.972  18.671 -25.554  1.00  0.00     0.000 C 
BRANCH  16  17
ATOM     17  C   UNL     1     -21.468  20.127 -25.598  1.00  0.00     0.000 C 
BRANCH  17  18
ATOM     18  C   UNL     1     -22.596  20.408 -24.594  1.00  0.00     0.000 C 
BRANCH  18  19
ATOM     19  C   UNL     1     -22.975  21.896 -24.595  1.00  0.00     0.000 C 
BRANCH  19  20
ATOM     20  C   UNL     1     -21.787  22.822 -24.908  1.00  0.00     0.006 C 
BRANCH  20  21
ATOM     21  C   UNL     1     -21.909  24.227 -24.291  1.00  0.00     0.053 C 
BRANCH  21  22
ATOM     22  C   UNL     1     -21.811  25.316 -25.316  1.00  0.00     0.041 C 
ATOM     23  O   UNL     1     -20.702  25.863 -25.555  1.00  0.00    -0.550 OA
ATOM     24  O   UNL     1     -22.935  25.703 -26.035  1.00  0.00    -0.550 OA
ENDBRANCH  21  22
ENDBRANCH  20  21
ENDBRANCH  19  20
ENDBRANCH  18  19
ENDBRANCH  17  18
ENDBRANCH  16  17
ENDBRANCH  15  16
ENDBRANCH  14  15
ENDBRANCH  13  14
ENDBRANCH   1  13
TORSDOF 20
ENDMDL
MODEL 9
REMARK VINA RESULT:    -4.618      2.641      6.499
REMARK INTER + INTRA:         -13.151
REMARK INTER:                  -9.396
REMARK INTRA:                  -3.755
REMARK UNBOUND:                -3.133
REMARK SMILES CCCCCCCCCCCCCCCCCCCCCC(=O)[O-]
REMARK SMILES IDX 12 1 11 2 10 3 9 4 8 5 7 6 6 7 5 8 4 9 3 10 2 11 1 12 13 13
REMARK SMILES IDX 14 14 15 15 16 16 17 17 18 18 19 19 20 20 21 21 22 22 23 23
REMARK SMILES IDX 24 24
REMARK H PARENT
REMARK Flexibility Score: inf
ROOT
ATOM      1  C   UNL     1     -22.595  24.569 -21.539  1.00  0.00     0.000 C 
ENDROOT
BRANCH   1   2
ATOM      2  C   UNL     1     -23.257  25.854 -22.061  1.00  0.00     0.000 C 
BRANCH   2   3
ATOM      3  C   UNL     1     -24.185  25.607 -23.265  1.00  0.00     0.000 C 
BRANCH   3   4
ATOM      4  C   UNL     1     -24.683  24.157 -23.417  1.00  0.00    -0.000 C 
BRANCH   4   5
ATOM      5  C   UNL     1     -24.231  23.447 -24.708  1.00  0.00    -0.000 C 
BRANCH   5   6
ATOM      6  C   UNL     1     -23.265  22.265 -24.465  1.00  0.00    -0.000 C 
BRANCH   6   7
ATOM      7  C   UNL     1     -21.958  22.348 -25.275  1.00  0.00    -0.000 C 
BRANCH   7   8
ATOM      8  C   UNL     1     -20.851  23.109 -24.531  1.00  0.00    -0.000 C 
BRANCH   8   9
ATOM      9  C   UNL     1     -20.311  24.263 -25.385  1.00  0.00    -0.000 C 
BRANCH   9  10
ATOM     10  C   UNL     1     -20.896  25.608 -24.928  1.00  0.00    -0.000 C 
BRANCH  10  11
ATOM     11  C   UNL     1     -21.422  26.451 -26.099  1.00  0.00    -0.003 C 
ATOM     12  C   UNL     1     -22.337  25.660 -27.033  1.00  0.00     0.004 C 
ENDBRANCH  10  11
ENDBRANCH   9  10
ENDBRANCH   8   9
ENDBRANCH   7   8
ENDBRANCH   6   7
ENDBRANCH   5   6
ENDBRANCH   4   5
ENDBRANCH   3   4
ENDBRANCH   2   3
ENDBRANCH   1   2
BRANCH   1  13
ATOM     13  C   UNL     1     -22.875  24.381 -20.040  1.00  0.00     0.000 C 
BRANCH  13  14
ATOM     14  C   UNL     1     -23.612  23.067 -19.736  1.00  0.00     0.000 C 
BRANCH  14  15
ATOM     15  C   UNL     1     -23.280  21.958 -20.750  1.00  0.00     0.000 C 
BRANCH  15  16
ATOM     16  C   UNL     1     -24.512  21.127 -21.154  1.00  0.00     0.000 C 
BRANCH  16  17
ATOM     17  C   UNL     1     -24.209  19.690 -21.614  1.00  0.00     0.000 C 
BRANCH  17  18
ATOM     18  C   UNL     1     -22.705  19.385 -21.680  1.00  0.00     0.000 C 
BRANCH  18  19
ATOM     19  C   UNL     1     -22.414  18.273 -22.698  1.00  0.00     0.000 C 
BRANCH  19  20
ATOM     20  C   UNL     1     -22.570  18.734 -24.157  1.00  0.00     0.006 C 
BRANCH  20  21
ATOM     21  C   UNL     1     -21.248  18.775 -24.945  1.00  0.00     0.053 C 
BRANCH  21  22
ATOM     22  C   UNL     1     -21.314  17.989 -26.220  1.00  0.00     0.041 C 
ATOM     23  O   UNL     1     -21.119  18.558 -27.326  1.00  0.00    -0.550 OA
ATOM     24  O   UNL     1     -21.554  16.621 -26.186  1.00  0.00    -0.550 OA
ENDBRANCH  21  22
ENDBRANCH  20  21
ENDBRANCH  19  20
ENDBRANCH  18  19
ENDBRANCH  17  18
ENDBRANCH  16  17
ENDBRANCH  15  16
ENDBRANCH  14  15
ENDBRANCH  13  14
ENDBRANCH   1  13
TORSDOF 20
ENDMDL
