MODEL 1
REMARK VINA RESULT:    -5.361      0.000      0.000
REMARK INTER + INTRA:          -7.463
REMARK INTER:                  -6.928
REMARK INTRA:                  -0.535
REMARK UNBOUND:                -0.535
REMARK SMILES CO[C@]1(CO)O[C@H](CO)[C@@H](O)[C@H]1O
REMARK SMILES IDX 3 1 12 2 10 3 7 4 6 5 2 6 1 7 4 8 5 9 13 11 11 13 8 15 9 16
REMARK H PARENT 5 10 13 12 11 14 9 17
REMARK Flexibility Score: inf
ROOT
ATOM      1  C   UNL     1      25.072  20.991  84.738  1.00  0.00     0.221 C 
ATOM      2  C   UNL     1      25.562  20.275  86.018  1.00  0.00     0.207 C 
ATOM      3  C   UNL     1      24.459  20.597  87.000  1.00  0.00     0.180 C 
ATOM      4  C   UNL     1      23.235  20.717  86.094  1.00  0.00     0.179 C 
ATOM      5  O   UNL     1      23.659  20.940  84.763  1.00  0.00    -0.337 OA
ENDROOT
BRANCH   1   6
ATOM      6  O   UNL     1      25.432  22.374  84.774  1.00  0.00    -0.349 OA
ATOM      7  C   UNL     1      25.365  23.024  83.517  1.00  0.00     0.198 C 
ENDBRANCH   1   6
BRANCH   1   8
ATOM      8  C   UNL     1      25.529  20.286  83.432  1.00  0.00     0.224 C 
BRANCH   8   9
ATOM      9  O   UNL     1      26.886  19.947  83.521  1.00  0.00    -0.391 OA
ATOM     10  H   UNL     1      26.962  19.017  83.183  1.00  0.00     0.210 HD
ENDBRANCH   8   9
ENDBRANCH   1   8
BRANCH   2  11
ATOM     11  O   UNL     1      25.716  18.884  85.838  1.00  0.00    -0.385 OA
ATOM     12  H   UNL     1      26.118  18.501  86.663  1.00  0.00     0.211 HD
ENDBRANCH   2  11
BRANCH   3  13
ATOM     13  O   UNL     1      24.284  19.587  87.960  1.00  0.00    -0.387 OA
ATOM     14  H   UNL     1      24.792  19.873  88.764  1.00  0.00     0.211 HD
ENDBRANCH   3  13
BRANCH   4  15
ATOM     15  C   UNL     1      22.300  21.845  86.540  1.00  0.00     0.191 C 
BRANCH  15  16
ATOM     16  O   UNL     1      22.488  22.965  85.720  1.00  0.00    -0.394 OA
ATOM     17  H   UNL     1      23.420  23.268  85.878  1.00  0.00     0.210 HD
ENDBRANCH  15  16
ENDBRANCH   4  15
TORSDOF 7
ENDMDL
MODEL 2
REMARK VINA RESULT:    -5.265      1.633      3.413
REMARK INTER + INTRA:          -7.339
REMARK INTER:                  -6.782
REMARK INTRA:                  -0.556
REMARK UNBOUND:                -0.535
REMARK SMILES CO[C@]1(CO)O[C@H](CO)[C@@H](O)[C@H]1O
REMARK SMILES IDX 3 1 12 2 10 3 7 4 6 5 2 6 1 7 4 8 5 9 13 11 11 13 8 15 9 16
REMARK H PARENT 5 10 13 12 11 14 9 17
REMARK Flexibility Score: inf
ROOT
ATOM      1  C   UNL     1      24.044  20.717  85.834  1.00  0.00     0.221 C 
ATOM      2  C   UNL     1      22.709  21.419  85.491  1.00  0.00     0.207 C 
ATOM      3  C   UNL     1      22.032  21.484  86.842  1.00  0.00     0.180 C 
ATOM      4  C   UNL     1      23.218  21.577  87.801  1.00  0.00     0.179 C 
ATOM      5  O   UNL     1      24.385  21.118  87.147  1.00  0.00    -0.337 OA
ENDROOT
BRANCH   1   6
ATOM      6  O   UNL     1      23.863  19.299  85.874  1.00  0.00    -0.349 OA
ATOM      7  C   UNL     1      23.942  18.669  84.608  1.00  0.00     0.198 C 
ENDBRANCH   1   6
BRANCH   1   8
ATOM      8  C   UNL     1      25.214  21.147  84.908  1.00  0.00     0.224 C 
BRANCH   8   9
ATOM      9  O   UNL     1      25.578  22.473  85.182  1.00  0.00    -0.391 OA
ATOM     10  H   UNL     1      26.471  22.432  85.612  1.00  0.00     0.210 HD
ENDBRANCH   8   9
ENDBRANCH   1   8
BRANCH   2  11
ATOM     11  O   UNL     1      22.897  22.703  84.935  1.00  0.00    -0.385 OA
ATOM     12  H   UNL     1      22.067  22.961  84.452  1.00  0.00     0.211 HD
ENDBRANCH   2  11
BRANCH   3  13
ATOM     13  O   UNL     1      21.190  22.600  86.966  1.00  0.00    -0.387 OA
ATOM     14  H   UNL     1      21.733  23.391  86.712  1.00  0.00     0.211 HD
ENDBRANCH   3  13
BRANCH   4  15
ATOM     15  C   UNL     1      22.985  20.768  89.080  1.00  0.00     0.191 C 
BRANCH  15  16
ATOM     16  O   UNL     1      23.080  19.399  88.796  1.00  0.00    -0.394 OA
ATOM     17  H   UNL     1      23.818  19.051  89.362  1.00  0.00     0.210 HD
ENDBRANCH  15  16
ENDBRANCH   4  15
TORSDOF 7
ENDMDL
MODEL 3
REMARK VINA RESULT:    -5.241      1.526      3.995
REMARK INTER + INTRA:          -7.307
REMARK INTER:                  -6.748
REMARK INTRA:                  -0.559
REMARK UNBOUND:                -0.535
REMARK SMILES CO[C@]1(CO)O[C@H](CO)[C@@H](O)[C@H]1O
REMARK SMILES IDX 3 1 12 2 10 3 7 4 6 5 2 6 1 7 4 8 5 9 13 11 11 13 8 15 9 16
REMARK H PARENT 5 10 13 12 11 14 9 17
REMARK Flexibility Score: inf
ROOT
ATOM      1  C   UNL     1      23.471  20.979  86.457  1.00  0.00     0.221 C 
ATOM      2  C   UNL     1      24.985  21.053  86.150  1.00  0.00     0.207 C 
ATOM      3  C   UNL     1      25.204  19.793  85.344  1.00  0.00     0.180 C 
ATOM      4  C   UNL     1      23.854  19.604  84.653  1.00  0.00     0.179 C 
ATOM      5  O   UNL     1      22.866  20.337  85.350  1.00  0.00    -0.337 OA
ENDROOT
BRANCH   1   6
ATOM      6  O   UNL     1      23.234  20.144  87.593  1.00  0.00    -0.349 OA
ATOM      7  C   UNL     1      23.004  20.854  88.797  1.00  0.00     0.198 C 
ENDBRANCH   1   6
BRANCH   1   8
ATOM      8  C   UNL     1      22.806  22.376  86.590  1.00  0.00     0.224 C 
BRANCH   8   9
ATOM      9  O   UNL     1      22.702  22.979  85.329  1.00  0.00    -0.391 OA
ATOM     10  H   UNL     1      22.264  23.856  85.477  1.00  0.00     0.210 HD
ENDBRANCH   8   9
ENDBRANCH   1   8
BRANCH   2  11
ATOM     11  O   UNL     1      25.336  22.210  85.423  1.00  0.00    -0.385 OA
ATOM     12  H   UNL     1      25.401  21.971  84.461  1.00  0.00     0.211 HD
ENDBRANCH   2  11
BRANCH   3  13
ATOM     13  O   UNL     1      26.239  19.930  84.405  1.00  0.00    -0.387 OA
ATOM     14  H   UNL     1      26.686  20.794  84.605  1.00  0.00     0.211 HD
ENDBRANCH   3  13
BRANCH   4  15
ATOM     15  C   UNL     1      23.452  18.128  84.577  1.00  0.00     0.191 C 
BRANCH  15  16
ATOM     16  O   UNL     1      24.595  17.323  84.656  1.00  0.00    -0.394 OA
ATOM     17  H   UNL     1      24.704  16.910  83.760  1.00  0.00     0.210 HD
ENDBRANCH  15  16
ENDBRANCH   4  15
TORSDOF 7
ENDMDL
MODEL 4
REMARK VINA RESULT:    -5.231      2.142      3.922
REMARK INTER + INTRA:          -7.296
REMARK INTER:                  -6.936
REMARK INTRA:                  -0.359
REMARK UNBOUND:                -0.535
REMARK SMILES CO[C@]1(CO)O[C@H](CO)[C@@H](O)[C@H]1O
REMARK SMILES IDX 3 1 12 2 10 3 7 4 6 5 2 6 1 7 4 8 5 9 13 11 11 13 8 15 9 16
REMARK H PARENT 5 10 13 12 11 14 9 17
REMARK Flexibility Score: inf
ROOT
ATOM      1  C   UNL     1      23.801  20.181  87.044  1.00  0.00     0.221 C 
ATOM      2  C   UNL     1      23.962  21.699  86.795  1.00  0.00     0.207 C 
ATOM      3  C   UNL     1      23.109  21.907  85.565  1.00  0.00     0.180 C 
ATOM      4  C   UNL     1      22.036  20.831  85.720  1.00  0.00     0.179 C 
ATOM      5  O   UNL     1      22.497  19.838  86.615  1.00  0.00    -0.337 OA
ENDROOT
BRANCH   1   6
ATOM      6  O   UNL     1      24.708  19.443  86.221  1.00  0.00    -0.349 OA
ATOM      7  C   UNL     1      26.043  19.918  86.260  1.00  0.00     0.198 C 
ENDBRANCH   1   6
BRANCH   1   8
ATOM      8  C   UNL     1      23.902  19.794  88.545  1.00  0.00     0.224 C 
BRANCH   8   9
ATOM      9  O   UNL     1      22.722  20.153  89.211  1.00  0.00    -0.391 OA
ATOM     10  H   UNL     1      22.728  19.658  90.071  1.00  0.00     0.210 HD
ENDBRANCH   8   9
ENDBRANCH   1   8
BRANCH   2  11
ATOM     11  O   UNL     1      23.515  22.478  87.884  1.00  0.00    -0.385 OA
ATOM     12  H   UNL     1      22.546  22.662  87.763  1.00  0.00     0.211 HD
ENDBRANCH   2  11
BRANCH   3  13
ATOM     13  O   UNL     1      22.539  23.190  85.519  1.00  0.00    -0.387 OA
ATOM     14  H   UNL     1      22.732  23.614  86.396  1.00  0.00     0.211 HD
ENDBRANCH   3  13
BRANCH   4  15
ATOM     15  C   UNL     1      21.668  20.193  84.377  1.00  0.00     0.191 C 
BRANCH  15  16
ATOM     16  O   UNL     1      20.279  20.237  84.200  1.00  0.00    -0.394 OA
ATOM     17  H   UNL     1      20.128  20.652  83.311  1.00  0.00     0.210 HD
ENDBRANCH  15  16
ENDBRANCH   4  15
TORSDOF 7
ENDMDL
MODEL 5
REMARK VINA RESULT:    -5.150      2.128      2.890
REMARK INTER + INTRA:          -7.191
REMARK INTER:                  -6.727
REMARK INTRA:                  -0.464
REMARK UNBOUND:                -0.535
REMARK SMILES CO[C@]1(CO)O[C@H](CO)[C@@H](O)[C@H]1O
REMARK SMILES IDX 3 1 12 2 10 3 7 4 6 5 2 6 1 7 4 8 5 9 13 11 11 13 8 15 9 16
REMARK H PARENT 5 10 13 12 11 14 9 17
REMARK Flexibility Score: inf
ROOT
ATOM      1  C   UNL     1      23.608  19.781  86.257  1.00  0.00     0.221 C 
ATOM      2  C   UNL     1      23.671  19.547  87.784  1.00  0.00     0.207 C 
ATOM      3  C   UNL     1      23.090  20.834  88.323  1.00  0.00     0.180 C 
ATOM      4  C   UNL     1      22.119  21.246  87.219  1.00  0.00     0.179 C 
ATOM      5  O   UNL     1      22.468  20.584  86.018  1.00  0.00    -0.337 OA
ENDROOT
BRANCH   1   6
ATOM      6  O   UNL     1      24.740  20.539  85.823  1.00  0.00    -0.349 OA
ATOM      7  C   UNL     1      25.974  20.096  86.359  1.00  0.00     0.198 C 
ENDBRANCH   1   6
BRANCH   1   8
ATOM      8  C   UNL     1      23.417  18.470  85.446  1.00  0.00     0.224 C 
BRANCH   8   9
ATOM      9  O   UNL     1      22.063  18.109  85.432  1.00  0.00    -0.391 OA
ATOM     10  H   UNL     1      21.683  18.491  84.599  1.00  0.00     0.210 HD
ENDBRANCH   8   9
ENDBRANCH   1   8
BRANCH   2  11
ATOM     11  O   UNL     1      22.925  18.421  88.193  1.00  0.00    -0.385 OA
ATOM     12  H   UNL     1      22.677  18.537  89.148  1.00  0.00     0.211 HD
ENDBRANCH   2  11
BRANCH   3  13
ATOM     13  O   UNL     1      22.422  20.650  89.545  1.00  0.00    -0.387 OA
ATOM     14  H   UNL     1      22.499  19.685  89.764  1.00  0.00     0.211 HD
ENDBRANCH   3  13
BRANCH   4  15
ATOM     15  C   UNL     1      22.115  22.762  86.996  1.00  0.00     0.191 C 
BRANCH  15  16
ATOM     16  O   UNL     1      22.580  23.050  85.707  1.00  0.00    -0.394 OA
ATOM     17  H   UNL     1      23.569  23.098  85.775  1.00  0.00     0.210 HD
ENDBRANCH  15  16
ENDBRANCH   4  15
TORSDOF 7
ENDMDL
MODEL 6
REMARK VINA RESULT:    -5.126      2.077      4.301
REMARK INTER + INTRA:          -7.160
REMARK INTER:                  -6.643
REMARK INTRA:                  -0.516
REMARK UNBOUND:                -0.535
REMARK SMILES CO[C@]1(CO)O[C@H](CO)[C@@H](O)[C@H]1O
REMARK SMILES IDX 3 1 12 2 10 3 7 4 6 5 2 6 1 7 4 8 5 9 13 11 11 13 8 15 9 16
REMARK H PARENT 5 10 13 12 11 14 9 17
REMARK Flexibility Score: inf
ROOT
ATOM      1  C   UNL     1      22.270  19.775  86.208  1.00  0.00     0.221 C 
ATOM      2  C   UNL     1      22.093  20.902  87.252  1.00  0.00     0.207 C 
ATOM      3  C   UNL     1      23.525  21.296  87.535  1.00  0.00     0.180 C 
ATOM      4  C   UNL     1      24.218  20.997  86.206  1.00  0.00     0.179 C 
ATOM      5  O   UNL     1      23.425  20.098  85.457  1.00  0.00    -0.337 OA
ENDROOT
BRANCH   1   6
ATOM      6  O   UNL     1      22.542  18.532  86.860  1.00  0.00    -0.349 OA
ATOM      7  C   UNL     1      21.885  17.418  86.281  1.00  0.00     0.198 C 
ENDBRANCH   1   6
BRANCH   1   8
ATOM      8  C   UNL     1      21.088  19.681  85.205  1.00  0.00     0.224 C 
BRANCH   8   9
ATOM      9  O   UNL     1      21.329  20.511  84.101  1.00  0.00    -0.391 OA
ATOM     10  H   UNL     1      20.609  21.193  84.105  1.00  0.00     0.210 HD
ENDBRANCH   8   9
ENDBRANCH   1   8
BRANCH   2  11
ATOM     11  O   UNL     1      21.337  21.987  86.757  1.00  0.00    -0.385 OA
ATOM     12  H   UNL     1      20.604  21.628  86.190  1.00  0.00     0.211 HD
ENDBRANCH   2  11
BRANCH   3  13
ATOM     13  O   UNL     1      23.650  22.651  87.880  1.00  0.00    -0.387 OA
ATOM     14  H   UNL     1      24.144  22.677  88.741  1.00  0.00     0.211 HD
ENDBRANCH   3  13
BRANCH   4  15
ATOM     15  C   UNL     1      25.619  20.412  86.410  1.00  0.00     0.191 C 
BRANCH  15  16
ATOM     16  O   UNL     1      25.636  19.075  85.995  1.00  0.00    -0.394 OA
ATOM     17  H   UNL     1      26.488  18.692  86.331  1.00  0.00     0.210 HD
ENDBRANCH  15  16
ENDBRANCH   4  15
TORSDOF 7
ENDMDL
MODEL 7
REMARK VINA RESULT:    -5.102      1.264      3.812
REMARK INTER + INTRA:          -7.128
REMARK INTER:                  -6.534
REMARK INTRA:                  -0.594
REMARK UNBOUND:                -0.535
REMARK SMILES CO[C@]1(CO)O[C@H](CO)[C@@H](O)[C@H]1O
REMARK SMILES IDX 3 1 12 2 10 3 7 4 6 5 2 6 1 7 4 8 5 9 13 11 11 13 8 15 9 16
REMARK H PARENT 5 10 13 12 11 14 9 17
REMARK Flexibility Score: inf
ROOT
ATOM      1  C   UNL     1      23.146  20.695  85.389  1.00  0.00     0.221 C 
ATOM      2  C   UNL     1      24.156  20.296  86.491  1.00  0.00     0.207 C 
ATOM      3  C   UNL     1      25.395  19.986  85.684  1.00  0.00     0.180 C 
ATOM      4  C   UNL     1      25.248  20.917  84.481  1.00  0.00     0.179 C 
ATOM      5  O   UNL     1      23.895  21.314  84.361  1.00  0.00    -0.337 OA
ENDROOT
BRANCH   1   6
ATOM      6  O   UNL     1      22.549  19.530  84.816  1.00  0.00    -0.349 OA
ATOM      7  C   UNL     1      21.796  19.781  83.643  1.00  0.00     0.198 C 
ENDBRANCH   1   6
BRANCH   1   8
ATOM      8  C   UNL     1      22.095  21.733  85.872  1.00  0.00     0.224 C 
BRANCH   8   9
ATOM      9  O   UNL     1      22.555  23.032  85.619  1.00  0.00    -0.391 OA
ATOM     10  H   UNL     1      23.402  23.130  86.126  1.00  0.00     0.210 HD
ENDBRANCH   8   9
ENDBRANCH   1   8
BRANCH   2  11
ATOM     11  O   UNL     1      24.380  21.332  87.424  1.00  0.00    -0.385 OA
ATOM     12  H   UNL     1      23.568  21.430  87.988  1.00  0.00     0.211 HD
ENDBRANCH   2  11
BRANCH   3  13
ATOM     13  O   UNL     1      26.578  20.256  86.392  1.00  0.00    -0.387 OA
ATOM     14  H   UNL     1      26.305  20.725  87.224  1.00  0.00     0.211 HD
ENDBRANCH   3  13
BRANCH   4  15
ATOM     15  C   UNL     1      25.714  20.252  83.183  1.00  0.00     0.191 C 
BRANCH  15  16
ATOM     16  O   UNL     1      27.050  19.852  83.312  1.00  0.00    -0.394 OA
ATOM     17  H   UNL     1      27.329  19.530  82.415  1.00  0.00     0.210 HD
ENDBRANCH  15  16
ENDBRANCH   4  15
TORSDOF 7
ENDMDL
MODEL 8
REMARK VINA RESULT:    -5.066      2.366      4.283
REMARK INTER + INTRA:          -7.082
REMARK INTER:                  -6.500
REMARK INTRA:                  -0.582
REMARK UNBOUND:                -0.535
REMARK SMILES CO[C@]1(CO)O[C@H](CO)[C@@H](O)[C@H]1O
REMARK SMILES IDX 3 1 12 2 10 3 7 4 6 5 2 6 1 7 4 8 5 9 13 11 11 13 8 15 9 16
REMARK H PARENT 5 10 13 12 11 14 9 17
REMARK Flexibility Score: inf
ROOT
ATOM      1  C   UNL     1      23.355  20.916  86.958  1.00  0.00     0.221 C 
ATOM      2  C   UNL     1      22.255  21.480  86.028  1.00  0.00     0.207 C 
ATOM      3  C   UNL     1      21.842  20.252  85.249  1.00  0.00     0.180 C 
ATOM      4  C   UNL     1      22.097  19.126  86.249  1.00  0.00     0.179 C 
ATOM      5  O   UNL     1      22.993  19.578  87.245  1.00  0.00    -0.337 OA
ENDROOT
BRANCH   1   6
ATOM      6  O   UNL     1      24.607  20.862  86.271  1.00  0.00    -0.349 OA
ATOM      7  C   UNL     1      25.638  20.212  86.994  1.00  0.00     0.198 C 
ENDBRANCH   1   6
BRANCH   1   8
ATOM      8  C   UNL     1      23.447  21.662  88.317  1.00  0.00     0.224 C 
BRANCH   8   9
ATOM      9  O   UNL     1      23.495  23.046  88.100  1.00  0.00    -0.391 OA
ATOM     10  H   UNL     1      24.192  23.194  87.410  1.00  0.00     0.210 HD
ENDBRANCH   8   9
ENDBRANCH   1   8
BRANCH   2  11
ATOM     11  O   UNL     1      21.173  22.039  86.743  1.00  0.00    -0.385 OA
ATOM     12  H   UNL     1      20.434  22.220  86.104  1.00  0.00     0.211 HD
ENDBRANCH   2  11
BRANCH   3  13
ATOM     13  O   UNL     1      20.493  20.292  84.862  1.00  0.00    -0.387 OA
ATOM     14  H   UNL     1      20.430  20.966  84.135  1.00  0.00     0.211 HD
ENDBRANCH   3  13
BRANCH   4  15
ATOM     15  C   UNL     1      22.661  17.874  85.570  1.00  0.00     0.191 C 
BRANCH  15  16
ATOM     16  O   UNL     1      23.925  18.157  85.035  1.00  0.00    -0.394 OA
ATOM     17  H   UNL     1      23.846  19.043  84.595  1.00  0.00     0.210 HD
ENDBRANCH  15  16
ENDBRANCH   4  15
TORSDOF 7
ENDMDL
MODEL 9
REMARK VINA RESULT:    -5.036      2.108      3.605
REMARK INTER + INTRA:          -7.043
REMARK INTER:                  -6.655
REMARK INTRA:                  -0.388
REMARK UNBOUND:                -0.535
REMARK SMILES CO[C@]1(CO)O[C@H](CO)[C@@H](O)[C@H]1O
REMARK SMILES IDX 3 1 12 2 10 3 7 4 6 5 2 6 1 7 4 8 5 9 13 11 11 13 8 15 9 16
REMARK H PARENT 5 10 13 12 11 14 9 17
REMARK Flexibility Score: inf
ROOT
ATOM      1  C   UNL     1      22.710  19.421  86.267  1.00  0.00     0.221 C 
ATOM      2  C   UNL     1      24.006  19.701  85.470  1.00  0.00     0.207 C 
ATOM      3  C   UNL     1      24.628  20.825  86.268  1.00  0.00     0.180 C 
ATOM      4  C   UNL     1      24.137  20.535  87.685  1.00  0.00     0.179 C 
ATOM      5  O   UNL     1      23.004  19.691  87.624  1.00  0.00    -0.337 OA
ENDROOT
BRANCH   1   6
ATOM      6  O   UNL     1      21.683  20.338  85.881  1.00  0.00    -0.349 OA
ATOM      7  C   UNL     1      20.632  19.751  85.134  1.00  0.00     0.198 C 
ENDBRANCH   1   6
BRANCH   1   8
ATOM      8  C   UNL     1      22.253  17.939  86.187  1.00  0.00     0.224 C 
BRANCH   8   9
ATOM      9  O   UNL     1      22.233  17.375  87.470  1.00  0.00    -0.391 OA
ATOM     10  H   UNL     1      22.815  17.948  88.033  1.00  0.00     0.210 HD
ENDBRANCH   8   9
ENDBRANCH   1   8
BRANCH   2  11
ATOM     11  O   UNL     1      24.854  18.574  85.399  1.00  0.00    -0.385 OA
ATOM     12  H   UNL     1      24.747  18.155  84.505  1.00  0.00     0.211 HD
ENDBRANCH   2  11
BRANCH   3  13
ATOM     13  O   UNL     1      26.031  20.815  86.204  1.00  0.00    -0.387 OA
ATOM     14  H   UNL     1      26.324  19.960  86.616  1.00  0.00     0.211 HD
ENDBRANCH   3  13
BRANCH   4  15
ATOM     15  C   UNL     1      23.791  21.819  88.444  1.00  0.00     0.191 C 
BRANCH  15  16
ATOM     16  O   UNL     1      23.125  22.707  87.589  1.00  0.00    -0.394 OA
ATOM     17  H   UNL     1      22.326  22.222  87.256  1.00  0.00     0.210 HD
ENDBRANCH  15  16
ENDBRANCH   4  15
TORSDOF 7
ENDMDL
