MODEL 1
REMARK VINA RESULT:    -4.509      0.000      0.000
REMARK INTER + INTRA:          -5.589
REMARK INTER:                  -5.432
REMARK INTRA:                  -0.157
REMARK UNBOUND:                -0.157
REMARK SMILES [NH3+][C@H](Cc1cnc[nH]1)C(=O)[O-]
REMARK SMILES IDX 3 1 2 2 1 3 9 7 10 8 11 9 4 10 5 11 8 12 6 13 7 14
REMARK H PARENT 1 4 1 5 1 6 8 15
REMARK Flexibility Score: inf
ROOT
ATOM      1  C   UNL     1     -21.881 -16.200  33.995  1.00  0.00     0.127 C 
ENDROOT
BRANCH   1   2
ATOM      2  C   UNL     1     -22.865 -17.388  34.037  1.00  0.00     0.233 C 
BRANCH   2   3
ATOM      3  N   UNL     1     -24.104 -17.051  33.328  1.00  0.00    -0.350 N 
ATOM      4  H   UNL     1     -24.904 -16.968  33.998  1.00  0.00     0.345 HD
ATOM      5  H   UNL     1     -23.987 -16.146  32.817  1.00  0.00     0.345 HD
ATOM      6  H   UNL     1     -24.324 -17.796  32.625  1.00  0.00     0.345 HD
ENDBRANCH   2   3
BRANCH   2   7
ATOM      7  C   UNL     1     -22.244 -18.622  33.434  1.00  0.00     0.099 C 
ATOM      8  O   UNL     1     -20.992 -18.755  33.416  1.00  0.00    -0.544 OA
ATOM      9  O   UNL     1     -23.046 -19.612  32.880  1.00  0.00    -0.544 OA
ENDBRANCH   2   7
ENDBRANCH   1   2
BRANCH   1  10
ATOM     10  C   UNL     1     -22.268 -15.129  34.971  1.00  0.00     0.041 A 
ATOM     11  C   UNL     1     -22.250 -13.770  34.746  1.00  0.00     0.134 A 
ATOM     12  N   UNL     1     -22.774 -15.354  36.193  1.00  0.00    -0.348 N 
ATOM     13  N   UNL     1     -22.733 -13.138  35.833  1.00  0.00    -0.245 NA
ATOM     14  C   UNL     1     -23.041 -14.134  36.692  1.00  0.00     0.196 A 
ATOM     15  H   UNL     1     -22.940 -16.277  36.655  1.00  0.00     0.167 HD
ENDBRANCH   1  10
TORSDOF 4
ENDMDL
MODEL 2
REMARK VINA RESULT:    -4.491     12.117     13.267
REMARK INTER + INTRA:          -5.567
REMARK INTER:                  -5.270
REMARK INTRA:                  -0.297
REMARK UNBOUND:                -0.157
REMARK SMILES [NH3+][C@H](Cc1cnc[nH]1)C(=O)[O-]
REMARK SMILES IDX 3 1 2 2 1 3 9 7 10 8 11 9 4 10 5 11 8 12 6 13 7 14
REMARK H PARENT 1 4 1 5 1 6 8 15
REMARK Flexibility Score: inf
ROOT
ATOM      1  C   UNL     1     -18.163  -7.682  43.263  1.00  0.00     0.127 C 
ENDROOT
BRANCH   1   2
ATOM      2  C   UNL     1     -19.465  -8.068  43.994  1.00  0.00     0.233 C 
BRANCH   2   3
ATOM      3  N   UNL     1     -20.278  -6.875  44.256  1.00  0.00    -0.350 N 
ATOM      4  H   UNL     1     -20.230  -6.608  45.266  1.00  0.00     0.345 HD
ATOM      5  H   UNL     1     -19.937  -6.077  43.672  1.00  0.00     0.345 HD
ATOM      6  H   UNL     1     -21.276  -7.063  43.999  1.00  0.00     0.345 HD
ENDBRANCH   2   3
BRANCH   2   7
ATOM      7  C   UNL     1     -20.258  -9.066  43.189  1.00  0.00     0.099 C 
ATOM      8  O   UNL     1     -19.965 -10.290  43.235  1.00  0.00    -0.544 OA
ATOM      9  O   UNL     1     -21.305  -8.642  42.380  1.00  0.00    -0.544 OA
ENDBRANCH   2   7
ENDBRANCH   1   2
BRANCH   1  10
ATOM     10  C   UNL     1     -16.966  -8.337  43.887  1.00  0.00     0.041 A 
ATOM     11  C   UNL     1     -15.820  -7.707  44.320  1.00  0.00     0.134 A 
ATOM     12  N   UNL     1     -16.880  -9.641  44.190  1.00  0.00    -0.348 N 
ATOM     13  N   UNL     1     -15.005  -8.618  44.886  1.00  0.00    -0.245 NA
ATOM     14  C   UNL     1     -15.683  -9.783  44.788  1.00  0.00     0.196 A 
ATOM     15  H   UNL     1     -17.591 -10.386  44.015  1.00  0.00     0.167 HD
ENDBRANCH   1  10
TORSDOF 4
ENDMDL
MODEL 3
REMARK VINA RESULT:    -4.453     11.745     12.445
REMARK INTER + INTRA:          -5.521
REMARK INTER:                  -5.347
REMARK INTRA:                  -0.174
REMARK UNBOUND:                -0.157
REMARK SMILES [NH3+][C@H](Cc1cnc[nH]1)C(=O)[O-]
REMARK SMILES IDX 3 1 2 2 1 3 9 7 10 8 11 9 4 10 5 11 8 12 6 13 7 14
REMARK H PARENT 1 4 1 5 1 6 8 15
REMARK Flexibility Score: inf
ROOT
ATOM      1  C   UNL     1     -17.155  -8.008  42.922  1.00  0.00     0.127 C 
ENDROOT
BRANCH   1   2
ATOM      2  C   UNL     1     -16.637  -8.911  41.783  1.00  0.00     0.233 C 
BRANCH   2   3
ATOM      3  N   UNL     1     -16.243  -8.100  40.625  1.00  0.00    -0.350 N 
ATOM      4  H   UNL     1     -16.567  -7.111  40.738  1.00  0.00     0.345 HD
ATOM      5  H   UNL     1     -15.202  -8.112  40.520  1.00  0.00     0.345 HD
ATOM      6  H   UNL     1     -16.663  -8.500  39.753  1.00  0.00     0.345 HD
ENDBRANCH   2   3
BRANCH   2   7
ATOM      7  C   UNL     1     -15.472  -9.748  42.248  1.00  0.00     0.099 C 
ATOM      8  O   UNL     1     -14.330  -9.574  41.748  1.00  0.00    -0.544 OA
ATOM      9  O   UNL     1     -15.655 -10.726  43.218  1.00  0.00    -0.544 OA
ENDBRANCH   2   7
ENDBRANCH   1   2
BRANCH   1  10
ATOM     10  C   UNL     1     -18.613  -8.238  43.188  1.00  0.00     0.041 A 
ATOM     11  C   UNL     1     -19.331  -9.375  42.892  1.00  0.00     0.134 A 
ATOM     12  N   UNL     1     -19.415  -7.382  43.840  1.00  0.00    -0.348 N 
ATOM     13  N   UNL     1     -20.591  -9.230  43.346  1.00  0.00    -0.245 NA
ATOM     14  C   UNL     1     -20.605  -8.006  43.916  1.00  0.00     0.196 A 
ATOM     15  H   UNL     1     -19.169  -6.440  44.219  1.00  0.00     0.167 HD
ENDBRANCH   1  10
TORSDOF 4
ENDMDL
MODEL 4
REMARK VINA RESULT:    -4.418     11.435     13.200
REMARK INTER + INTRA:          -5.479
REMARK INTER:                  -5.298
REMARK INTRA:                  -0.181
REMARK UNBOUND:                -0.157
REMARK SMILES [NH3+][C@H](Cc1cnc[nH]1)C(=O)[O-]
REMARK SMILES IDX 3 1 2 2 1 3 9 7 10 8 11 9 4 10 5 11 8 12 6 13 7 14
REMARK H PARENT 1 4 1 5 1 6 8 15
REMARK Flexibility Score: inf
ROOT
ATOM      1  C   UNL     1     -15.969 -10.481  43.454  1.00  0.00     0.127 C 
ENDROOT
BRANCH   1   2
ATOM      2  C   UNL     1     -16.223  -9.479  44.599  1.00  0.00     0.233 C 
BRANCH   2   3
ATOM      3  N   UNL     1     -15.184  -9.602  45.627  1.00  0.00    -0.350 N 
ATOM      4  H   UNL     1     -14.796  -8.663  45.876  1.00  0.00     0.345 HD
ATOM      5  H   UNL     1     -15.584 -10.048  46.485  1.00  0.00     0.345 HD
ATOM      6  H   UNL     1     -14.408 -10.211  45.276  1.00  0.00     0.345 HD
ENDBRANCH   2   3
BRANCH   2   7
ATOM      7  C   UNL     1     -16.267  -8.066  44.076  1.00  0.00     0.099 C 
ATOM      8  O   UNL     1     -15.404  -7.227  44.447  1.00  0.00    -0.544 OA
ATOM      9  O   UNL     1     -17.268  -7.675  43.195  1.00  0.00    -0.544 OA
ENDBRANCH   2   7
ENDBRANCH   1   2
BRANCH   1  10
ATOM     10  C   UNL     1     -17.091 -11.470  43.327  1.00  0.00     0.041 A 
ATOM     11  C   UNL     1     -18.397 -11.282  43.721  1.00  0.00     0.134 A 
ATOM     12  N   UNL     1     -16.992 -12.665  42.725  1.00  0.00    -0.348 N 
ATOM     13  N   UNL     1     -19.120 -12.366  43.378  1.00  0.00    -0.245 NA
ATOM     14  C   UNL     1     -18.231 -13.186  42.776  1.00  0.00     0.196 A 
ATOM     15  H   UNL     1     -16.141 -13.095  42.296  1.00  0.00     0.167 HD
ENDBRANCH   1  10
TORSDOF 4
ENDMDL
MODEL 5
REMARK VINA RESULT:    -4.404     12.432     13.332
REMARK INTER + INTRA:          -5.462
REMARK INTER:                  -5.183
REMARK INTRA:                  -0.279
REMARK UNBOUND:                -0.157
REMARK SMILES [NH3+][C@H](Cc1cnc[nH]1)C(=O)[O-]
REMARK SMILES IDX 3 1 2 2 1 3 9 7 10 8 11 9 4 10 5 11 8 12 6 13 7 14
REMARK H PARENT 1 4 1 5 1 6 8 15
REMARK Flexibility Score: inf
ROOT
ATOM      1  C   UNL     1     -17.059  -9.171  42.714  1.00  0.00     0.127 C 
ENDROOT
BRANCH   1   2
ATOM      2  C   UNL     1     -16.389  -9.955  43.862  1.00  0.00     0.233 C 
BRANCH   2   3
ATOM      3  N   UNL     1     -15.569 -11.047  43.326  1.00  0.00    -0.350 N 
ATOM      4  H   UNL     1     -15.492 -10.976  42.285  1.00  0.00     0.345 HD
ATOM      5  H   UNL     1     -14.611 -11.011  43.746  1.00  0.00     0.345 HD
ATOM      6  H   UNL     1     -15.999 -11.968  43.576  1.00  0.00     0.345 HD
ENDBRANCH   2   3
BRANCH   2   7
ATOM      7  C   UNL     1     -15.544  -9.043  44.714  1.00  0.00     0.099 C 
ATOM      8  O   UNL     1     -14.753  -9.528  45.565  1.00  0.00    -0.544 OA
ATOM      9  O   UNL     1     -15.644  -7.664  44.577  1.00  0.00    -0.544 OA
ENDBRANCH   2   7
ENDBRANCH   1   2
BRANCH   1  10
ATOM     10  C   UNL     1     -18.437  -8.713  43.089  1.00  0.00     0.041 A 
ATOM     11  C   UNL     1     -19.614  -9.394  42.873  1.00  0.00     0.134 A 
ATOM     12  N   UNL     1     -18.710  -7.593  43.775  1.00  0.00    -0.348 N 
ATOM     13  N   UNL     1     -20.632  -8.696  43.412  1.00  0.00    -0.245 NA
ATOM     14  C   UNL     1     -20.044  -7.606  43.951  1.00  0.00     0.196 A 
ATOM     15  H   UNL     1     -18.034  -6.871  44.114  1.00  0.00     0.167 HD
ENDBRANCH   1  10
TORSDOF 4
ENDMDL
MODEL 6
REMARK VINA RESULT:    -4.402     12.872     13.993
REMARK INTER + INTRA:          -5.460
REMARK INTER:                  -5.286
REMARK INTRA:                  -0.174
REMARK UNBOUND:                -0.157
REMARK SMILES [NH3+][C@H](Cc1cnc[nH]1)C(=O)[O-]
REMARK SMILES IDX 3 1 2 2 1 3 9 7 10 8 11 9 4 10 5 11 8 12 6 13 7 14
REMARK H PARENT 1 4 1 5 1 6 8 15
REMARK Flexibility Score: inf
ROOT
ATOM      1  C   UNL     1     -15.644  -9.591  42.123  1.00  0.00     0.127 C 
ENDROOT
BRANCH   1   2
ATOM      2  C   UNL     1     -15.578  -8.125  41.648  1.00  0.00     0.233 C 
BRANCH   2   3
ATOM      3  N   UNL     1     -16.219  -7.982  40.336  1.00  0.00    -0.350 N 
ATOM      4  H   UNL     1     -16.485  -6.985  40.160  1.00  0.00     0.345 HD
ATOM      5  H   UNL     1     -15.565  -8.301  39.584  1.00  0.00     0.345 HD
ATOM      6  H   UNL     1     -17.078  -8.578  40.294  1.00  0.00     0.345 HD
ENDBRANCH   2   3
BRANCH   2   7
ATOM      7  C   UNL     1     -16.235  -7.206  42.646  1.00  0.00     0.099 C 
ATOM      8  O   UNL     1     -16.344  -5.976  42.397  1.00  0.00    -0.544 OA
ATOM      9  O   UNL     1     -16.708  -7.705  43.853  1.00  0.00    -0.544 OA
ENDBRANCH   2   7
ENDBRANCH   1   2
BRANCH   1  10
ATOM     10  C   UNL     1     -14.321 -10.060  42.651  1.00  0.00     0.041 A 
ATOM     11  C   UNL     1     -14.037 -10.416  43.951  1.00  0.00     0.134 A 
ATOM     12  N   UNL     1     -13.233 -10.282  41.898  1.00  0.00    -0.348 N 
ATOM     13  N   UNL     1     -12.763 -10.850  44.020  1.00  0.00    -0.245 NA
ATOM     14  C   UNL     1     -12.307 -10.753  42.752  1.00  0.00     0.196 A 
ATOM     15  H   UNL     1     -13.128 -10.135  40.869  1.00  0.00     0.167 HD
ENDBRANCH   1  10
TORSDOF 4
ENDMDL
MODEL 7
REMARK VINA RESULT:    -4.342     11.587     12.762
REMARK INTER + INTRA:          -5.387
REMARK INTER:                  -5.248
REMARK INTRA:                  -0.138
REMARK UNBOUND:                -0.157
REMARK SMILES [NH3+][C@H](Cc1cnc[nH]1)C(=O)[O-]
REMARK SMILES IDX 3 1 2 2 1 3 9 7 10 8 11 9 4 10 5 11 8 12 6 13 7 14
REMARK H PARENT 1 4 1 5 1 6 8 15
REMARK Flexibility Score: inf
ROOT
ATOM      1  C   UNL     1     -18.497  -8.469  43.782  1.00  0.00     0.127 C 
ENDROOT
BRANCH   1   2
ATOM      2  C   UNL     1     -17.393  -7.690  43.036  1.00  0.00     0.233 C 
BRANCH   2   3
ATOM      3  N   UNL     1     -16.424  -7.136  43.989  1.00  0.00    -0.350 N 
ATOM      4  H   UNL     1     -16.345  -7.748  44.834  1.00  0.00     0.345 HD
ATOM      5  H   UNL     1     -15.486  -7.054  43.534  1.00  0.00     0.345 HD
ATOM      6  H   UNL     1     -16.727  -6.179  44.286  1.00  0.00     0.345 HD
ENDBRANCH   2   3
BRANCH   2   7
ATOM      7  C   UNL     1     -16.690  -8.576  42.040  1.00  0.00     0.099 C 
ATOM      8  O   UNL     1     -16.139  -8.073  41.025  1.00  0.00    -0.544 OA
ATOM      9  O   UNL     1     -16.658  -9.952  42.225  1.00  0.00    -0.544 OA
ENDBRANCH   2   7
ENDBRANCH   1   2
BRANCH   1  10
ATOM     10  C   UNL     1     -19.866  -7.995  43.392  1.00  0.00     0.041 A 
ATOM     11  C   UNL     1     -20.822  -8.719  42.716  1.00  0.00     0.134 A 
ATOM     12  N   UNL     1     -20.387  -6.805  43.730  1.00  0.00    -0.348 N 
ATOM     13  N   UNL     1     -21.944  -7.979  42.615  1.00  0.00    -0.245 NA
ATOM     14  C   UNL     1     -21.641  -6.822  43.242  1.00  0.00     0.196 A 
ATOM     15  H   UNL     1     -19.927  -6.036  44.266  1.00  0.00     0.167 HD
ENDBRANCH   1  10
TORSDOF 4
ENDMDL
MODEL 8
REMARK VINA RESULT:    -4.309      9.810     10.696
REMARK INTER + INTRA:          -5.348
REMARK INTER:                  -5.241
REMARK INTRA:                  -0.107
REMARK UNBOUND:                -0.157
REMARK SMILES [NH3+][C@H](Cc1cnc[nH]1)C(=O)[O-]
REMARK SMILES IDX 3 1 2 2 1 3 9 7 10 8 11 9 4 10 5 11 8 12 6 13 7 14
REMARK H PARENT 1 4 1 5 1 6 8 15
REMARK Flexibility Score: inf
ROOT
ATOM      1  C   UNL     1     -18.036 -12.246  43.672  1.00  0.00     0.127 C 
ENDROOT
BRANCH   1   2
ATOM      2  C   UNL     1     -18.205 -13.445  42.717  1.00  0.00     0.233 C 
BRANCH   2   3
ATOM      3  N   UNL     1     -17.052 -14.347  42.817  1.00  0.00    -0.350 N 
ATOM      4  H   UNL     1     -16.196 -13.900  42.414  1.00  0.00     0.345 HD
ATOM      5  H   UNL     1     -16.875 -14.588  43.820  1.00  0.00     0.345 HD
ATOM      6  H   UNL     1     -17.251 -15.235  42.299  1.00  0.00     0.345 HD
ENDBRANCH   2   3
BRANCH   2   7
ATOM      7  C   UNL     1     -19.476 -14.197  43.018  1.00  0.00     0.099 C 
ATOM      8  O   UNL     1     -19.492 -15.455  42.974  1.00  0.00    -0.544 OA
ATOM      9  O   UNL     1     -20.642 -13.507  43.330  1.00  0.00    -0.544 OA
ENDBRANCH   2   7
ENDBRANCH   1   2
BRANCH   1  10
ATOM     10  C   UNL     1     -17.333 -11.102  43.003  1.00  0.00     0.041 A 
ATOM     11  C   UNL     1     -17.899  -9.908  42.614  1.00  0.00     0.134 A 
ATOM     12  N   UNL     1     -16.014 -11.050  42.762  1.00  0.00    -0.348 N 
ATOM     13  N   UNL     1     -16.936  -9.108  42.114  1.00  0.00    -0.245 NA
ATOM     14  C   UNL     1     -15.804  -9.837  42.221  1.00  0.00     0.196 A 
ATOM     15  H   UNL     1     -15.300 -11.786  42.963  1.00  0.00     0.167 HD
ENDBRANCH   1  10
TORSDOF 4
ENDMDL
MODEL 9
REMARK VINA RESULT:    -4.261     12.210     13.731
REMARK INTER + INTRA:          -5.290
REMARK INTER:                  -4.988
REMARK INTRA:                  -0.301
REMARK UNBOUND:                -0.157
REMARK SMILES [NH3+][C@H](Cc1cnc[nH]1)C(=O)[O-]
REMARK SMILES IDX 3 1 2 2 1 3 9 7 10 8 11 9 4 10 5 11 8 12 6 13 7 14
REMARK H PARENT 1 4 1 5 1 6 8 15
REMARK Flexibility Score: inf
ROOT
ATOM      1  C   UNL     1     -15.978 -10.227  43.668  1.00  0.00     0.127 C 
ENDROOT
BRANCH   1   2
ATOM      2  C   UNL     1     -15.618  -9.298  44.845  1.00  0.00     0.233 C 
BRANCH   2   3
ATOM      3  N   UNL     1     -14.519  -9.870  45.632  1.00  0.00    -0.350 N 
ATOM      4  H   UNL     1     -13.837 -10.365  45.011  1.00  0.00     0.345 HD
ATOM      5  H   UNL     1     -14.022  -9.110  46.153  1.00  0.00     0.345 HD
ATOM      6  H   UNL     1     -14.900 -10.549  46.332  1.00  0.00     0.345 HD
ENDBRANCH   2   3
BRANCH   2   7
ATOM      7  C   UNL     1     -15.239  -7.926  44.350  1.00  0.00     0.099 C 
ATOM      8  O   UNL     1     -16.132  -7.066  44.126  1.00  0.00    -0.544 OA
ATOM      9  O   UNL     1     -13.906  -7.605  44.123  1.00  0.00    -0.544 OA
ENDBRANCH   2   7
ENDBRANCH   1   2
BRANCH   1  10
ATOM     10  C   UNL     1     -17.455 -10.239  43.406  1.00  0.00     0.041 A 
ATOM     11  C   UNL     1     -18.328 -11.268  43.679  1.00  0.00     0.134 A 
ATOM     12  N   UNL     1     -18.156  -9.195  42.938  1.00  0.00    -0.348 N 
ATOM     13  N   UNL     1     -19.580 -10.877  43.369  1.00  0.00    -0.245 NA
ATOM     14  C   UNL     1     -19.435  -9.611  42.921  1.00  0.00     0.196 A 
ATOM     15  H   UNL     1     -17.793  -8.256  42.659  1.00  0.00     0.167 HD
ENDBRANCH   1  10
TORSDOF 4
ENDMDL
