MODEL 1
REMARK VINA RESULT:    -3.652      0.000      0.000
REMARK INTER + INTRA:          -4.637
REMARK INTER:                  -4.400
REMARK INTRA:                  -0.237
REMARK UNBOUND:                -0.237
REMARK SMILES NC(=O)C[C@@H]([NH3+])C(=O)[O-]
REMARK SMILES IDX 4 1 5 2 6 3 7 7 8 8 9 9 2 10 3 11 1 12
REMARK H PARENT 6 4 6 5 6 6 1 13 1 14
REMARK Flexibility Score: inf
ROOT
ATOM      1  C   UNL     1      68.533  -5.782   8.881  1.00  0.00     0.171 C 
ENDROOT
BRANCH   1   2
ATOM      2  C   UNL     1      69.288  -6.557   7.783  1.00  0.00     0.237 C 
BRANCH   2   3
ATOM      3  N   UNL     1      68.412  -7.560   7.168  1.00  0.00    -0.350 N 
ATOM      4  H   UNL     1      68.554  -7.591   6.132  1.00  0.00     0.345 HD
ATOM      5  H   UNL     1      67.412  -7.327   7.370  1.00  0.00     0.345 HD
ATOM      6  H   UNL     1      68.614  -8.504   7.573  1.00  0.00     0.345 HD
ENDBRANCH   2   3
BRANCH   2   7
ATOM      7  C   UNL     1      69.818  -5.618   6.729  1.00  0.00     0.100 C 
ATOM      8  O   UNL     1      69.155  -4.600   6.398  1.00  0.00    -0.544 OA
ATOM      9  O   UNL     1      71.034  -5.875   6.107  1.00  0.00    -0.544 OA
ENDBRANCH   2   7
ENDBRANCH   1   2
BRANCH   1  10
ATOM     10  C   UNL     1      67.848  -6.709   9.843  1.00  0.00     0.223 C 
ATOM     11  O   UNL     1      68.520  -7.582  10.456  1.00  0.00    -0.275 OA
ATOM     12  N   UNL     1      66.449  -6.584  10.099  1.00  0.00    -0.369 N 
ATOM     13  H   UNL     1      65.980  -7.222  10.780  1.00  0.00     0.159 HD
ATOM     14  H   UNL     1      65.881  -5.855   9.614  1.00  0.00     0.159 HD
ENDBRANCH   1  10
TORSDOF 4
ENDMDL
MODEL 2
REMARK VINA RESULT:    -3.650      2.700      3.660
REMARK INTER + INTRA:          -4.634
REMARK INTER:                  -4.386
REMARK INTRA:                  -0.248
REMARK UNBOUND:                -0.237
REMARK SMILES NC(=O)C[C@@H]([NH3+])C(=O)[O-]
REMARK SMILES IDX 4 1 5 2 6 3 7 7 8 8 9 9 2 10 3 11 1 12
REMARK H PARENT 6 4 6 5 6 6 1 13 1 14
REMARK Flexibility Score: inf
ROOT
ATOM      1  C   UNL     1      71.017  -6.314   6.173  1.00  0.00     0.171 C 
ENDROOT
BRANCH   1   2
ATOM      2  C   UNL     1      70.932  -7.762   5.650  1.00  0.00     0.237 C 
BRANCH   2   3
ATOM      3  N   UNL     1      69.604  -8.326   5.915  1.00  0.00    -0.350 N 
ATOM      4  H   UNL     1      68.972  -7.604   6.334  1.00  0.00     0.345 HD
ATOM      5  H   UNL     1      69.688  -9.133   6.576  1.00  0.00     0.345 HD
ATOM      6  H   UNL     1      69.183  -8.677   5.024  1.00  0.00     0.345 HD
ENDBRANCH   2   3
BRANCH   2   7
ATOM      7  C   UNL     1      71.232  -7.819   4.174  1.00  0.00     0.100 C 
ATOM      8  O   UNL     1      72.251  -7.239   3.712  1.00  0.00    -0.544 OA
ATOM      9  O   UNL     1      70.382  -8.500   3.310  1.00  0.00    -0.544 OA
ENDBRANCH   2   7
ENDBRANCH   1   2
BRANCH   1  10
ATOM     10  C   UNL     1      69.804  -5.944   6.978  1.00  0.00     0.223 C 
ATOM     11  O   UNL     1      69.573  -6.533   8.067  1.00  0.00    -0.275 OA
ATOM     12  N   UNL     1      68.933  -4.902   6.538  1.00  0.00    -0.369 N 
ATOM     13  H   UNL     1      68.099  -4.637   7.108  1.00  0.00     0.159 HD
ATOM     14  H   UNL     1      69.120  -4.390   5.647  1.00  0.00     0.159 HD
ENDBRANCH   1  10
TORSDOF 4
ENDMDL
MODEL 3
REMARK VINA RESULT:    -3.542      3.875      5.560
REMARK INTER + INTRA:          -4.504
REMARK INTER:                  -4.233
REMARK INTRA:                  -0.271
REMARK UNBOUND:                -0.237
REMARK SMILES NC(=O)C[C@@H]([NH3+])C(=O)[O-]
REMARK SMILES IDX 4 1 5 2 6 3 7 7 8 8 9 9 2 10 3 11 1 12
REMARK H PARENT 6 4 6 5 6 6 1 13 1 14
REMARK Flexibility Score: inf
ROOT
ATOM      1  C   UNL     1      71.094  -8.626   4.747  1.00  0.00     0.171 C 
ENDROOT
BRANCH   1   2
ATOM      2  C   UNL     1      71.663  -7.486   5.614  1.00  0.00     0.237 C 
BRANCH   2   3
ATOM      3  N   UNL     1      72.302  -6.470   4.771  1.00  0.00    -0.350 N 
ATOM      4  H   UNL     1      71.911  -6.495   3.800  1.00  0.00     0.345 HD
ATOM      5  H   UNL     1      73.333  -6.644   4.728  1.00  0.00     0.345 HD
ATOM      6  H   UNL     1      72.149  -5.520   5.181  1.00  0.00     0.345 HD
ENDBRANCH   2   3
BRANCH   2   7
ATOM      7  C   UNL     1      70.578  -6.855   6.450  1.00  0.00     0.100 C 
ATOM      8  O   UNL     1      70.337  -5.623   6.349  1.00  0.00    -0.544 OA
ATOM      9  O   UNL     1      69.847  -7.624   7.348  1.00  0.00    -0.544 OA
ENDBRANCH   2   7
ENDBRANCH   1   2
BRANCH   1  10
ATOM     10  C   UNL     1      71.157  -8.294   3.284  1.00  0.00     0.223 C 
ATOM     11  O   UNL     1      72.261  -8.347   2.677  1.00  0.00    -0.275 OA
ATOM     12  N   UNL     1      69.970  -7.957   2.565  1.00  0.00    -0.369 N 
ATOM     13  H   UNL     1      70.017  -7.740   1.544  1.00  0.00     0.159 HD
ATOM     14  H   UNL     1      69.045  -7.926   3.047  1.00  0.00     0.159 HD
ENDBRANCH   1  10
TORSDOF 4
ENDMDL
MODEL 4
REMARK VINA RESULT:    -3.522     15.133     15.796
REMARK INTER + INTRA:          -4.480
REMARK INTER:                  -4.235
REMARK INTRA:                  -0.245
REMARK UNBOUND:                -0.237
REMARK SMILES NC(=O)C[C@@H]([NH3+])C(=O)[O-]
REMARK SMILES IDX 4 1 5 2 6 3 7 7 8 8 9 9 2 10 3 11 1 12
REMARK H PARENT 6 4 6 5 6 6 1 13 1 14
REMARK Flexibility Score: inf
ROOT
ATOM      1  C   UNL     1      62.793   7.533   8.451  1.00  0.00     0.171 C 
ENDROOT
BRANCH   1   2
ATOM      2  C   UNL     1      63.529   8.660   9.202  1.00  0.00     0.237 C 
BRANCH   2   3
ATOM      3  N   UNL     1      64.563   8.101  10.080  1.00  0.00    -0.350 N 
ATOM      4  H   UNL     1      65.274   7.571   9.525  1.00  0.00     0.345 HD
ATOM      5  H   UNL     1      64.124   7.457  10.778  1.00  0.00     0.345 HD
ATOM      6  H   UNL     1      65.039   8.872  10.604  1.00  0.00     0.345 HD
ENDBRANCH   2   3
BRANCH   2   7
ATOM      7  C   UNL     1      64.147   9.636   8.233  1.00  0.00     0.100 C 
ATOM      8  O   UNL     1      63.775   9.655   7.030  1.00  0.00    -0.544 OA
ATOM      9  O   UNL     1      65.138  10.514   8.657  1.00  0.00    -0.544 OA
ENDBRANCH   2   7
ENDBRANCH   1   2
BRANCH   1  10
ATOM     10  C   UNL     1      61.672   6.962   9.272  1.00  0.00     0.223 C 
ATOM     11  O   UNL     1      61.933   6.310  10.319  1.00  0.00    -0.275 OA
ATOM     12  N   UNL     1      60.312   7.185   8.898  1.00  0.00    -0.369 N 
ATOM     13  H   UNL     1      59.536   6.798   9.479  1.00  0.00     0.159 HD
ATOM     14  H   UNL     1      60.078   7.739   8.044  1.00  0.00     0.159 HD
ENDBRANCH   1  10
TORSDOF 4
ENDMDL
MODEL 5
REMARK VINA RESULT:    -3.471      1.976      4.090
REMARK INTER + INTRA:          -4.418
REMARK INTER:                  -4.296
REMARK INTRA:                  -0.122
REMARK UNBOUND:                -0.237
REMARK SMILES NC(=O)C[C@@H]([NH3+])C(=O)[O-]
REMARK SMILES IDX 4 1 5 2 6 3 7 7 8 8 9 9 2 10 3 11 1 12
REMARK H PARENT 6 4 6 5 6 6 1 13 1 14
REMARK Flexibility Score: inf
ROOT
ATOM      1  C   UNL     1      70.596  -7.638   6.672  1.00  0.00     0.171 C 
ENDROOT
BRANCH   1   2
ATOM      2  C   UNL     1      69.177  -7.087   6.917  1.00  0.00     0.237 C 
BRANCH   2   3
ATOM      3  N   UNL     1      68.428  -7.979   7.808  1.00  0.00    -0.350 N 
ATOM      4  H   UNL     1      67.557  -7.512   8.152  1.00  0.00     0.345 HD
ATOM      5  H   UNL     1      69.023  -8.240   8.629  1.00  0.00     0.345 HD
ATOM      6  H   UNL     1      68.172  -8.856   7.300  1.00  0.00     0.345 HD
ENDBRANCH   2   3
BRANCH   2   7
ATOM      7  C   UNL     1      69.234  -5.699   7.502  1.00  0.00     0.100 C 
ATOM      8  O   UNL     1      69.409  -5.540   8.739  1.00  0.00    -0.544 OA
ATOM      9  O   UNL     1      69.081  -4.586   6.684  1.00  0.00    -0.544 OA
ENDBRANCH   2   7
ENDBRANCH   1   2
BRANCH   1  10
ATOM     10  C   UNL     1      71.280  -6.925   5.541  1.00  0.00     0.223 C 
ATOM     11  O   UNL     1      72.208  -6.109   5.786  1.00  0.00    -0.275 OA
ATOM     12  N   UNL     1      70.914  -7.195   4.187  1.00  0.00    -0.369 N 
ATOM     13  H   UNL     1      71.402  -6.708   3.403  1.00  0.00     0.159 HD
ATOM     14  H   UNL     1      70.160  -7.882   3.965  1.00  0.00     0.159 HD
ENDBRANCH   1  10
TORSDOF 4
ENDMDL
MODEL 6
REMARK VINA RESULT:    -3.396      2.828      3.602
REMARK INTER + INTRA:          -4.328
REMARK INTER:                  -4.407
REMARK INTRA:                   0.079
REMARK UNBOUND:                -0.237
REMARK SMILES NC(=O)C[C@@H]([NH3+])C(=O)[O-]
REMARK SMILES IDX 4 1 5 2 6 3 7 7 8 8 9 9 2 10 3 11 1 12
REMARK H PARENT 6 4 6 5 6 6 1 13 1 14
REMARK Flexibility Score: inf
ROOT
ATOM      1  C   UNL     1      70.170  -9.018   5.780  1.00  0.00     0.171 C 
ENDROOT
BRANCH   1   2
ATOM      2  C   UNL     1      71.254  -8.182   5.071  1.00  0.00     0.237 C 
BRANCH   2   3
ATOM      3  N   UNL     1      70.652  -7.327   4.043  1.00  0.00    -0.350 N 
ATOM      4  H   UNL     1      70.109  -6.547   4.481  1.00  0.00     0.345 HD
ATOM      5  H   UNL     1      70.011  -7.894   3.442  1.00  0.00     0.345 HD
ATOM      6  H   UNL     1      71.400  -6.925   3.432  1.00  0.00     0.345 HD
ENDBRANCH   2   3
BRANCH   2   7
ATOM      7  C   UNL     1      72.016  -7.340   6.063  1.00  0.00     0.100 C 
ATOM      8  O   UNL     1      71.821  -6.098   6.121  1.00  0.00    -0.544 OA
ATOM      9  O   UNL     1      72.949  -7.927   6.911  1.00  0.00    -0.544 OA
ENDBRANCH   2   7
ENDBRANCH   1   2
BRANCH   1  10
ATOM     10  C   UNL     1      69.612  -8.302   6.976  1.00  0.00     0.223 C 
ATOM     11  O   UNL     1      69.862  -8.731   8.135  1.00  0.00    -0.275 OA
ATOM     12  N   UNL     1      68.834  -7.116   6.813  1.00  0.00    -0.369 N 
ATOM     13  H   UNL     1      68.460  -6.613   7.649  1.00  0.00     0.159 HD
ATOM     14  H   UNL     1      68.633  -6.736   5.862  1.00  0.00     0.159 HD
ENDBRANCH   1  10
TORSDOF 4
ENDMDL
MODEL 7
REMARK VINA RESULT:    -3.386     14.860     15.890
REMARK INTER + INTRA:          -4.317
REMARK INTER:                  -3.836
REMARK INTRA:                  -0.481
REMARK UNBOUND:                -0.237
REMARK SMILES NC(=O)C[C@@H]([NH3+])C(=O)[O-]
REMARK SMILES IDX 4 1 5 2 6 3 7 7 8 8 9 9 2 10 3 11 1 12
REMARK H PARENT 6 4 6 5 6 6 1 13 1 14
REMARK Flexibility Score: inf
ROOT
ATOM      1  C   UNL     1      62.904   7.701   8.533  1.00  0.00     0.171 C 
ENDROOT
BRANCH   1   2
ATOM      2  C   UNL     1      62.459   6.625   9.543  1.00  0.00     0.237 C 
BRANCH   2   3
ATOM      3  N   UNL     1      63.230   6.738  10.786  1.00  0.00    -0.350 N 
ATOM      4  H   UNL     1      64.242   6.906  10.580  1.00  0.00     0.345 HD
ATOM      5  H   UNL     1      63.136   5.857  11.343  1.00  0.00     0.345 HD
ATOM      6  H   UNL     1      62.860   7.529  11.363  1.00  0.00     0.345 HD
ENDBRANCH   2   3
BRANCH   2   7
ATOM      7  C   UNL     1      60.985   6.741   9.838  1.00  0.00     0.100 C 
ATOM      8  O   UNL     1      60.351   5.754  10.296  1.00  0.00    -0.544 OA
ATOM      9  O   UNL     1      60.312   7.933   9.594  1.00  0.00    -0.544 OA
ENDBRANCH   2   7
ENDBRANCH   1   2
BRANCH   1  10
ATOM     10  C   UNL     1      63.586   8.853   9.215  1.00  0.00     0.223 C 
ATOM     11  O   UNL     1      64.840   8.848   9.345  1.00  0.00    -0.275 OA
ATOM     12  N   UNL     1      62.830   9.970   9.681  1.00  0.00    -0.369 N 
ATOM     13  H   UNL     1      63.310  10.775  10.142  1.00  0.00     0.159 HD
ATOM     14  H   UNL     1      61.793   9.999   9.565  1.00  0.00     0.159 HD
ENDBRANCH   1  10
TORSDOF 4
ENDMDL
MODEL 8
REMARK VINA RESULT:    -3.290      2.259      3.007
REMARK INTER + INTRA:          -4.200
REMARK INTER:                  -3.935
REMARK INTRA:                  -0.265
REMARK UNBOUND:                -0.237
REMARK SMILES NC(=O)C[C@@H]([NH3+])C(=O)[O-]
REMARK SMILES IDX 4 1 5 2 6 3 7 7 8 8 9 9 2 10 3 11 1 12
REMARK H PARENT 6 4 6 5 6 6 1 13 1 14
REMARK Flexibility Score: inf
ROOT
ATOM      1  C   UNL     1      66.573  -6.559  10.861  1.00  0.00     0.171 C 
ENDROOT
BRANCH   1   2
ATOM      2  C   UNL     1      67.814  -6.950  10.035  1.00  0.00     0.237 C 
BRANCH   2   3
ATOM      3  N   UNL     1      67.426  -7.784   8.891  1.00  0.00    -0.350 N 
ATOM      4  H   UNL     1      67.600  -7.281   7.990  1.00  0.00     0.345 HD
ATOM      5  H   UNL     1      66.410  -8.025   8.958  1.00  0.00     0.345 HD
ATOM      6  H   UNL     1      67.973  -8.675   8.900  1.00  0.00     0.345 HD
ENDBRANCH   2   3
BRANCH   2   7
ATOM      7  C   UNL     1      68.549  -5.724   9.555  1.00  0.00     0.100 C 
ATOM      8  O   UNL     1      68.588  -5.450   8.327  1.00  0.00    -0.544 OA
ATOM      9  O   UNL     1      69.197  -4.895  10.463  1.00  0.00    -0.544 OA
ENDBRANCH   2   7
ENDBRANCH   1   2
BRANCH   1  10
ATOM     10  C   UNL     1      65.317  -7.154  10.291  1.00  0.00     0.223 C 
ATOM     11  O   UNL     1      65.073  -8.379  10.461  1.00  0.00    -0.275 OA
ATOM     12  N   UNL     1      64.379  -6.335   9.593  1.00  0.00    -0.369 N 
ATOM     13  H   UNL     1      63.500  -6.750   9.211  1.00  0.00     0.159 HD
ATOM     14  H   UNL     1      64.556  -5.315   9.459  1.00  0.00     0.159 HD
ENDBRANCH   1  10
TORSDOF 4
ENDMDL
MODEL 9
REMARK VINA RESULT:    -3.265     15.633     16.438
REMARK INTER + INTRA:          -4.170
REMARK INTER:                  -3.808
REMARK INTRA:                  -0.362
REMARK UNBOUND:                -0.237
REMARK SMILES NC(=O)C[C@@H]([NH3+])C(=O)[O-]
REMARK SMILES IDX 4 1 5 2 6 3 7 7 8 8 9 9 2 10 3 11 1 12
REMARK H PARENT 6 4 6 5 6 6 1 13 1 14
REMARK Flexibility Score: inf
ROOT
ATOM      1  C   UNL     1      65.009  10.436   9.534  1.00  0.00     0.171 C 
ENDROOT
BRANCH   1   2
ATOM      2  C   UNL     1      63.796   9.920   8.735  1.00  0.00     0.237 C 
BRANCH   2   3
ATOM      3  N   UNL     1      64.097   9.905   7.299  1.00  0.00    -0.350 N 
ATOM      4  H   UNL     1      65.126   9.999   7.136  1.00  0.00     0.345 HD
ATOM      5  H   UNL     1      63.602  10.695   6.825  1.00  0.00     0.345 HD
ATOM      6  H   UNL     1      63.761   9.009   6.875  1.00  0.00     0.345 HD
ENDBRANCH   2   3
BRANCH   2   7
ATOM      7  C   UNL     1      63.397   8.541   9.194  1.00  0.00     0.100 C 
ATOM      8  O   UNL     1      63.451   8.240  10.416  1.00  0.00    -0.544 OA
ATOM      9  O   UNL     1      62.978   7.588   8.273  1.00  0.00    -0.544 OA
ENDBRANCH   2   7
ENDBRANCH   1   2
BRANCH   1  10
ATOM     10  C   UNL     1      66.257   9.669   9.203  1.00  0.00     0.223 C 
ATOM     11  O   UNL     1      67.027  10.089   8.298  1.00  0.00    -0.275 OA
ATOM     12  N   UNL     1      66.599   8.491   9.933  1.00  0.00    -0.369 N 
ATOM     13  H   UNL     1      67.475   7.969   9.709  1.00  0.00     0.159 HD
ATOM     14  H   UNL     1      65.982   8.139  10.699  1.00  0.00     0.159 HD
ENDBRANCH   1  10
TORSDOF 4
ENDMDL
