MODEL 1
REMARK VINA RESULT:    -6.712      0.000      0.000
REMARK INTER + INTRA:         -11.555
REMARK INTER:                  -9.851
REMARK INTRA:                  -1.705
REMARK UNBOUND:                -1.705
REMARK SMILES O=c1c(O[C@H]2O[C@@H](CO)[C@H](O)[C@@H](O)[C@H]2O)c(-c2ccc(O)c(O)c2)oc2cc(O)cc(O)c12
REMARK SMILES IDX 4 1 3 2 16 3 25 4 2 5 26 6 1 7 33 8 27 9 31 10 28 11 30 12
REMARK SMILES IDX 17 13 18 14 19 15 20 16 24 17 22 18 21 19 23 21 32 23 29 25
REMARK SMILES IDX 5 27 14 28 6 29 12 30 7 31 10 32 15 33 13 35 8 37 9 38 11 40
REMARK H PARENT 21 20 23 22 32 24 29 26 15 34 13 36 9 39 11 41
REMARK Flexibility Score: inf
ROOT
ATOM      1  O   UNL     1     -13.629  36.632  -2.303  1.00  0.00    -0.454 OA
ENDROOT
BRANCH   1   2
ATOM      2  C   UNL     1     -13.257  37.666  -3.176  1.00  0.00     0.214 A 
ATOM      3  C   UNL     1     -14.095  38.773  -3.427  1.00  0.00     0.180 A 
ATOM      4  O   UNL     1     -13.645  39.783  -4.163  1.00  0.00    -0.452 OA
ATOM      5  C   UNL     1     -12.011  37.604  -3.808  1.00  0.00     0.239 A 
ATOM      6  C   UNL     1     -12.453  39.786  -4.747  1.00  0.00     0.146 A 
ATOM      7  O   UNL     1     -11.269  36.614  -3.576  1.00  0.00    -0.285 OA
ATOM      8  C   UNL     1     -11.588  38.665  -4.645  1.00  0.00     0.111 A 
ATOM      9  C   UNL     1     -12.066  40.917  -5.469  1.00  0.00     0.094 A 
ATOM     10  C   UNL     1     -10.345  38.698  -5.341  1.00  0.00     0.134 A 
ATOM     11  C   UNL     1     -10.821  40.964  -6.096  1.00  0.00     0.123 A 
ATOM     12  C   UNL     1      -9.967  39.860  -6.026  1.00  0.00     0.093 A 
BRANCH   3  13
ATOM     13  C   UNL     1     -15.476  38.853  -2.909  1.00  0.00     0.025 A 
ATOM     14  C   UNL     1     -15.716  39.421  -1.649  1.00  0.00     0.016 A 
ATOM     15  C   UNL     1     -17.017  39.496  -1.145  1.00  0.00     0.051 A 
ATOM     16  C   UNL     1     -18.095  39.016  -1.895  1.00  0.00     0.157 A 
ATOM     17  C   UNL     1     -16.564  38.400  -3.675  1.00  0.00     0.062 A 
ATOM     18  C   UNL     1     -17.869  38.469  -3.170  1.00  0.00     0.158 A 
BRANCH  16  19
ATOM     19  O   UNL     1     -19.381  39.096  -1.361  1.00  0.00    -0.504 OA
ATOM     20  H   UNL     1     -20.033  39.823  -1.634  1.00  0.00     0.293 HD
ENDBRANCH  16  19
BRANCH  18  21
ATOM     21  O   UNL     1     -18.941  38.003  -3.929  1.00  0.00    -0.504 OA
ATOM     22  H   UNL     1     -19.407  38.594  -4.608  1.00  0.00     0.293 HD
ENDBRANCH  18  21
ENDBRANCH   3  13
BRANCH  10  23
ATOM     23  O   UNL     1      -9.463  37.615  -5.409  1.00  0.00    -0.507 OA
ATOM     24  H   UNL     1      -9.480  36.826  -4.782  1.00  0.00     0.293 HD
ENDBRANCH  10  23
BRANCH  11  25
ATOM     25  O   UNL     1     -10.446  42.110  -6.794  1.00  0.00    -0.508 OA
ATOM     26  H   UNL     1     -10.934  42.990  -6.668  1.00  0.00     0.293 HD
ENDBRANCH  11  25
ENDBRANCH   1   2
BRANCH   1  27
ATOM     27  C   UNL     1     -13.303  36.620  -0.908  1.00  0.00     0.339 C 
ATOM     28  C   UNL     1     -12.520  35.351  -0.512  1.00  0.00     0.214 C 
ATOM     29  O   UNL     1     -14.467  36.813  -0.115  1.00  0.00    -0.332 OA
ATOM     30  C   UNL     1     -13.417  34.108  -0.547  1.00  0.00     0.180 C 
ATOM     31  C   UNL     1     -15.367  35.710  -0.117  1.00  0.00     0.179 C 
ATOM     32  C   UNL     1     -14.698  34.366   0.263  1.00  0.00     0.177 C 
BRANCH  28  33
ATOM     33  O   UNL     1     -11.413  35.164  -1.356  1.00  0.00    -0.384 OA
ATOM     34  H   UNL     1     -11.248  36.032  -1.809  1.00  0.00     0.211 HD
ENDBRANCH  28  33
BRANCH  30  35
ATOM     35  O   UNL     1     -13.748  33.764  -1.869  1.00  0.00    -0.387 OA
ATOM     36  H   UNL     1     -14.070  34.591  -2.318  1.00  0.00     0.211 HD
ENDBRANCH  30  35
BRANCH  31  37
ATOM     37  C   UNL     1     -16.229  35.634  -1.395  1.00  0.00     0.191 C 
BRANCH  37  38
ATOM     38  O   UNL     1     -17.591  35.733  -1.080  1.00  0.00    -0.394 OA
ATOM     39  H   UNL     1     -18.092  35.422  -1.880  1.00  0.00     0.210 HD
ENDBRANCH  37  38
ENDBRANCH  31  37
BRANCH  32  40
ATOM     40  O   UNL     1     -14.388  34.391   1.636  1.00  0.00    -0.387 OA
ATOM     41  H   UNL     1     -15.159  34.810   2.100  1.00  0.00     0.211 HD
ENDBRANCH  32  40
ENDBRANCH   1  27
TORSDOF 12
ENDMDL
MODEL 2
REMARK VINA RESULT:    -6.433      2.816      4.127
REMARK INTER + INTRA:         -11.147
REMARK INTER:                  -9.408
REMARK INTRA:                  -1.739
REMARK UNBOUND:                -1.705
REMARK SMILES O=c1c(O[C@H]2O[C@@H](CO)[C@H](O)[C@@H](O)[C@H]2O)c(-c2ccc(O)c(O)c2)oc2cc(O)cc(O)c12
REMARK SMILES IDX 4 1 3 2 16 3 25 4 2 5 26 6 1 7 33 8 27 9 31 10 28 11 30 12
REMARK SMILES IDX 17 13 18 14 19 15 20 16 24 17 22 18 21 19 23 21 32 23 29 25
REMARK SMILES IDX 5 27 14 28 6 29 12 30 7 31 10 32 15 33 13 35 8 37 9 38 11 40
REMARK H PARENT 21 20 23 22 32 24 29 26 15 34 13 36 9 39 11 41
REMARK Flexibility Score: inf
ROOT
ATOM      1  O   UNL     1     -14.753  36.546   0.207  1.00  0.00    -0.454 OA
ENDROOT
BRANCH   1   2
ATOM      2  C   UNL     1     -13.844  36.298  -0.833  1.00  0.00     0.214 A 
ATOM      3  C   UNL     1     -14.173  36.525  -2.186  1.00  0.00     0.180 A 
ATOM      4  O   UNL     1     -13.238  36.393  -3.120  1.00  0.00    -0.452 OA
ATOM      5  C   UNL     1     -12.566  35.824  -0.519  1.00  0.00     0.239 A 
ATOM      6  C   UNL     1     -12.001  35.987  -2.862  1.00  0.00     0.146 A 
ATOM      7  O   UNL     1     -12.280  35.627   0.692  1.00  0.00    -0.285 OA
ATOM      8  C   UNL     1     -11.612  35.625  -1.545  1.00  0.00     0.111 A 
ATOM      9  C   UNL     1     -11.087  35.918  -3.916  1.00  0.00     0.094 A 
ATOM     10  C   UNL     1     -10.289  35.139  -1.335  1.00  0.00     0.134 A 
ATOM     11  C   UNL     1      -9.777  35.499  -3.689  1.00  0.00     0.123 A 
ATOM     12  C   UNL     1      -9.384  35.117  -2.403  1.00  0.00     0.093 A 
BRANCH   3  13
ATOM     13  C   UNL     1     -15.537  36.896  -2.617  1.00  0.00     0.025 A 
ATOM     14  C   UNL     1     -15.855  38.244  -2.837  1.00  0.00     0.016 A 
ATOM     15  C   UNL     1     -17.143  38.608  -3.238  1.00  0.00     0.051 A 
ATOM     16  C   UNL     1     -18.126  37.633  -3.435  1.00  0.00     0.157 A 
ATOM     17  C   UNL     1     -16.516  35.914  -2.844  1.00  0.00     0.062 A 
ATOM     18  C   UNL     1     -17.811  36.277  -3.241  1.00  0.00     0.158 A 
BRANCH  16  19
ATOM     19  O   UNL     1     -19.405  38.029  -3.825  1.00  0.00    -0.504 OA
ATOM     20  H   UNL     1     -20.151  38.173  -3.156  1.00  0.00     0.293 HD
ENDBRANCH  16  19
BRANCH  18  21
ATOM     21  O   UNL     1     -18.781  35.298  -3.449  1.00  0.00    -0.504 OA
ATOM     22  H   UNL     1     -18.534  34.360  -3.740  1.00  0.00     0.293 HD
ENDBRANCH  18  21
ENDBRANCH   3  13
BRANCH  10  23
ATOM     23  O   UNL     1      -9.827  34.647  -0.111  1.00  0.00    -0.507 OA
ATOM     24  H   UNL     1     -10.003  35.082   0.782  1.00  0.00     0.293 HD
ENDBRANCH  10  23
BRANCH  11  25
ATOM     25  O   UNL     1      -8.875  35.458  -4.750  1.00  0.00    -0.508 OA
ATOM     26  H   UNL     1      -9.049  34.890  -5.571  1.00  0.00     0.293 HD
ENDBRANCH  11  25
ENDBRANCH   1   2
BRANCH   1  27
ATOM     27  C   UNL     1     -15.159  37.861   0.606  1.00  0.00     0.339 C 
ATOM     28  C   UNL     1     -14.735  38.179   2.055  1.00  0.00     0.214 C 
ATOM     29  O   UNL     1     -16.551  38.047   0.389  1.00  0.00    -0.332 OA
ATOM     30  C   UNL     1     -15.558  37.371   3.065  1.00  0.00     0.180 C 
ATOM     31  C   UNL     1     -17.386  37.306   1.275  1.00  0.00     0.179 C 
ATOM     32  C   UNL     1     -17.057  37.537   2.770  1.00  0.00     0.177 C 
BRANCH  28  33
ATOM     33  O   UNL     1     -13.367  37.926   2.242  1.00  0.00    -0.384 OA
ATOM     34  H   UNL     1     -12.937  38.001   1.350  1.00  0.00     0.211 HD
ENDBRANCH  28  33
BRANCH  30  35
ATOM     35  O   UNL     1     -15.209  36.010   3.024  1.00  0.00    -0.387 OA
ATOM     36  H   UNL     1     -15.966  35.523   2.600  1.00  0.00     0.211 HD
ENDBRANCH  30  35
BRANCH  31  37
ATOM     37  C   UNL     1     -17.507  35.816   0.888  1.00  0.00     0.191 C 
BRANCH  37  38
ATOM     38  O   UNL     1     -17.880  35.046   1.998  1.00  0.00    -0.394 OA
ATOM     39  H   UNL     1     -17.319  34.226   1.976  1.00  0.00     0.210 HD
ENDBRANCH  37  38
ENDBRANCH  31  37
BRANCH  32  40
ATOM     40  O   UNL     1     -17.465  38.836   3.125  1.00  0.00    -0.387 OA
ATOM     41  H   UNL     1     -16.697  39.266   3.584  1.00  0.00     0.211 HD
ENDBRANCH  32  40
ENDBRANCH   1  27
TORSDOF 12
ENDMDL
MODEL 3
REMARK VINA RESULT:    -6.413      1.561      3.062
REMARK INTER + INTRA:         -11.117
REMARK INTER:                  -9.840
REMARK INTRA:                  -1.277
REMARK UNBOUND:                -1.705
REMARK SMILES O=c1c(O[C@H]2O[C@@H](CO)[C@H](O)[C@@H](O)[C@H]2O)c(-c2ccc(O)c(O)c2)oc2cc(O)cc(O)c12
REMARK SMILES IDX 4 1 3 2 16 3 25 4 2 5 26 6 1 7 33 8 27 9 31 10 28 11 30 12
REMARK SMILES IDX 17 13 18 14 19 15 20 16 24 17 22 18 21 19 23 21 32 23 29 25
REMARK SMILES IDX 5 27 14 28 6 29 12 30 7 31 10 32 15 33 13 35 8 37 9 38 11 40
REMARK H PARENT 21 20 23 22 32 24 29 26 15 34 13 36 9 39 11 41
REMARK Flexibility Score: inf
ROOT
ATOM      1  O   UNL     1     -14.804  36.876  -0.504  1.00  0.00    -0.454 OA
ENDROOT
BRANCH   1   2
ATOM      2  C   UNL     1     -14.195  37.334  -1.682  1.00  0.00     0.214 A 
ATOM      3  C   UNL     1     -14.877  38.147  -2.612  1.00  0.00     0.180 A 
ATOM      4  O   UNL     1     -14.218  38.654  -3.648  1.00  0.00    -0.452 OA
ATOM      5  C   UNL     1     -12.865  36.984  -1.939  1.00  0.00     0.239 A 
ATOM      6  C   UNL     1     -12.945  38.384  -3.907  1.00  0.00     0.146 A 
ATOM      7  O   UNL     1     -12.263  36.259  -1.103  1.00  0.00    -0.285 OA
ATOM      8  C   UNL     1     -12.211  37.483  -3.090  1.00  0.00     0.111 A 
ATOM      9  C   UNL     1     -12.340  39.001  -5.004  1.00  0.00     0.094 A 
ATOM     10  C   UNL     1     -10.864  37.183  -3.449  1.00  0.00     0.134 A 
ATOM     11  C   UNL     1     -11.004  38.747  -5.310  1.00  0.00     0.123 A 
ATOM     12  C   UNL     1     -10.273  37.845  -4.531  1.00  0.00     0.093 A 
BRANCH   3  13
ATOM     13  C   UNL     1     -16.317  38.453  -2.488  1.00  0.00     0.025 A 
ATOM     14  C   UNL     1     -17.247  37.758  -3.276  1.00  0.00     0.016 A 
ATOM     15  C   UNL     1     -18.611  38.043  -3.173  1.00  0.00     0.051 A 
ATOM     16  C   UNL     1     -19.065  39.015  -2.276  1.00  0.00     0.157 A 
ATOM     17  C   UNL     1     -16.777  39.408  -1.565  1.00  0.00     0.062 A 
ATOM     18  C   UNL     1     -18.145  39.699  -1.464  1.00  0.00     0.158 A 
BRANCH  16  19
ATOM     19  O   UNL     1     -20.432  39.285  -2.204  1.00  0.00    -0.504 OA
ATOM     20  H   UNL     1     -21.130  38.597  -2.460  1.00  0.00     0.293 HD
ENDBRANCH  16  19
BRANCH  18  21
ATOM     21  O   UNL     1     -18.592  40.659  -0.558  1.00  0.00    -0.504 OA
ATOM     22  H   UNL     1     -18.857  40.412   0.389  1.00  0.00     0.293 HD
ENDBRANCH  18  21
ENDBRANCH   3  13
BRANCH  10  23
ATOM     23  O   UNL     1     -10.079  36.230  -2.792  1.00  0.00    -0.507 OA
ATOM     24  H   UNL     1      -9.793  35.351  -3.194  1.00  0.00     0.293 HD
ENDBRANCH  10  23
BRANCH  11  25
ATOM     25  O   UNL     1     -10.414  39.390  -6.396  1.00  0.00    -0.508 OA
ATOM     26  H   UNL     1      -9.752  40.147  -6.268  1.00  0.00     0.293 HD
ENDBRANCH  11  25
ENDBRANCH   1   2
BRANCH   1  27
ATOM     27  C   UNL     1     -15.176  35.511  -0.285  1.00  0.00     0.339 C 
ATOM     28  C   UNL     1     -16.632  35.384   0.210  1.00  0.00     0.214 C 
ATOM     29  O   UNL     1     -14.247  34.866   0.577  1.00  0.00    -0.332 OA
ATOM     30  C   UNL     1     -16.777  35.893   1.649  1.00  0.00     0.180 C 
ATOM     31  C   UNL     1     -14.302  35.305   1.931  1.00  0.00     0.179 C 
ATOM     32  C   UNL     1     -15.721  35.229   2.547  1.00  0.00     0.177 C 
BRANCH  28  33
ATOM     33  O   UNL     1     -17.508  36.083  -0.635  1.00  0.00    -0.384 OA
ATOM     34  H   UNL     1     -17.109  36.979  -0.785  1.00  0.00     0.211 HD
ENDBRANCH  28  33
BRANCH  30  35
ATOM     35  O   UNL     1     -16.643  37.290   1.703  1.00  0.00    -0.387 OA
ATOM     36  H   UNL     1     -15.800  37.488   2.192  1.00  0.00     0.211 HD
ENDBRANCH  30  35
BRANCH  31  37
ATOM     37  C   UNL     1     -13.598  36.660   2.157  1.00  0.00     0.191 C 
BRANCH  37  38
ATOM     38  O   UNL     1     -12.325  36.660   1.570  1.00  0.00    -0.394 OA
ATOM     39  H   UNL     1     -12.034  35.711   1.523  1.00  0.00     0.210 HD
ENDBRANCH  37  38
ENDBRANCH  31  37
BRANCH  32  40
ATOM     40  O   UNL     1     -16.054  33.876   2.744  1.00  0.00    -0.387 OA
ATOM     41  H   UNL     1     -16.209  33.754   3.717  1.00  0.00     0.211 HD
ENDBRANCH  32  40
ENDBRANCH   1  27
TORSDOF 12
ENDMDL
MODEL 4
REMARK VINA RESULT:    -6.311      1.639      6.226
REMARK INTER + INTRA:         -10.967
REMARK INTER:                  -9.400
REMARK INTRA:                  -1.567
REMARK UNBOUND:                -1.705
REMARK SMILES O=c1c(O[C@H]2O[C@@H](CO)[C@H](O)[C@@H](O)[C@H]2O)c(-c2ccc(O)c(O)c2)oc2cc(O)cc(O)c12
REMARK SMILES IDX 4 1 3 2 16 3 25 4 2 5 26 6 1 7 33 8 27 9 31 10 28 11 30 12
REMARK SMILES IDX 17 13 18 14 19 15 20 16 24 17 22 18 21 19 23 21 32 23 29 25
REMARK SMILES IDX 5 27 14 28 6 29 12 30 7 31 10 32 15 33 13 35 8 37 9 38 11 40
REMARK H PARENT 21 20 23 22 32 24 29 26 15 34 13 36 9 39 11 41
REMARK Flexibility Score: inf
ROOT
ATOM      1  O   UNL     1     -13.533  37.957  -2.294  1.00  0.00    -0.454 OA
ENDROOT
BRANCH   1   2
ATOM      2  C   UNL     1     -13.758  36.882  -1.421  1.00  0.00     0.214 A 
ATOM      3  C   UNL     1     -15.028  36.284  -1.280  1.00  0.00     0.180 A 
ATOM      4  O   UNL     1     -15.161  35.192  -0.536  1.00  0.00    -0.452 OA
ATOM      5  C   UNL     1     -12.687  36.377  -0.676  1.00  0.00     0.239 A 
ATOM      6  C   UNL     1     -14.163  34.654   0.154  1.00  0.00     0.146 A 
ATOM      7  O   UNL     1     -11.557  36.916  -0.809  1.00  0.00    -0.285 OA
ATOM      8  C   UNL     1     -12.877  35.254   0.165  1.00  0.00     0.111 A 
ATOM      9  C   UNL     1     -14.406  33.482   0.876  1.00  0.00     0.094 A 
ATOM     10  C   UNL     1     -11.858  34.667   0.971  1.00  0.00     0.134 A 
ATOM     11  C   UNL     1     -13.385  32.882   1.612  1.00  0.00     0.123 A 
ATOM     12  C   UNL     1     -12.119  33.473   1.653  1.00  0.00     0.093 A 
BRANCH   3  13
ATOM     13  C   UNL     1     -16.238  36.836  -1.925  1.00  0.00     0.025 A 
ATOM     14  C   UNL     1     -17.036  36.010  -2.730  1.00  0.00     0.016 A 
ATOM     15  C   UNL     1     -18.179  36.522  -3.351  1.00  0.00     0.051 A 
ATOM     16  C   UNL     1     -18.545  37.859  -3.167  1.00  0.00     0.157 A 
ATOM     17  C   UNL     1     -16.624  38.172  -1.716  1.00  0.00     0.062 A 
ATOM     18  C   UNL     1     -17.767  38.688  -2.342  1.00  0.00     0.158 A 
BRANCH  16  19
ATOM     19  O   UNL     1     -19.686  38.344  -3.808  1.00  0.00    -0.504 OA
ATOM     20  H   UNL     1     -20.565  38.469  -3.320  1.00  0.00     0.293 HD
ENDBRANCH  16  19
BRANCH  18  21
ATOM     21  O   UNL     1     -18.134  40.018  -2.142  1.00  0.00    -0.504 OA
ATOM     22  H   UNL     1     -19.100  40.285  -1.990  1.00  0.00     0.293 HD
ENDBRANCH  18  21
ENDBRANCH   3  13
BRANCH  10  23
ATOM     23  O   UNL     1     -10.590  35.229   1.151  1.00  0.00    -0.507 OA
ATOM     24  H   UNL     1     -10.357  35.890   1.875  1.00  0.00     0.293 HD
ENDBRANCH  10  23
BRANCH  11  25
ATOM     25  O   UNL     1     -13.643  31.702   2.307  1.00  0.00    -0.508 OA
ATOM     26  H   UNL     1     -14.094  30.913   1.861  1.00  0.00     0.293 HD
ENDBRANCH  11  25
ENDBRANCH   1   2
BRANCH   1  27
ATOM     27  C   UNL     1     -13.589  37.843  -3.720  1.00  0.00     0.339 C 
ATOM     28  C   UNL     1     -12.186  37.666  -4.339  1.00  0.00     0.214 C 
ATOM     29  O   UNL     1     -14.303  38.933  -4.287  1.00  0.00    -0.332 OA
ATOM     30  C   UNL     1     -11.370  38.960  -4.246  1.00  0.00     0.180 C 
ATOM     31  C   UNL     1     -13.620  40.181  -4.217  1.00  0.00     0.179 C 
ATOM     32  C   UNL     1     -12.188  40.135  -4.806  1.00  0.00     0.177 C 
BRANCH  28  33
ATOM     33  O   UNL     1     -11.493  36.619  -3.711  1.00  0.00    -0.384 OA
ATOM     34  H   UNL     1     -11.856  36.546  -2.790  1.00  0.00     0.211 HD
ENDBRANCH  28  33
BRANCH  30  35
ATOM     35  O   UNL     1     -10.997  39.226  -2.918  1.00  0.00    -0.387 OA
ATOM     36  H   UNL     1     -11.730  39.757  -2.505  1.00  0.00     0.211 HD
ENDBRANCH  30  35
BRANCH  31  37
ATOM     37  C   UNL     1     -13.695  40.835  -2.820  1.00  0.00     0.191 C 
BRANCH  37  38
ATOM     38  O   UNL     1     -15.018  40.862  -2.358  1.00  0.00    -0.394 OA
ATOM     39  H   UNL     1     -15.207  39.961  -1.983  1.00  0.00     0.210 HD
ENDBRANCH  37  38
ENDBRANCH  31  37
BRANCH  32  40
ATOM     40  O   UNL     1     -12.282  40.018  -6.205  1.00  0.00    -0.387 OA
ATOM     41  H   UNL     1     -12.783  39.183  -6.394  1.00  0.00     0.211 HD
ENDBRANCH  32  40
ENDBRANCH   1  27
TORSDOF 12
ENDMDL
MODEL 5
REMARK VINA RESULT:    -6.224      0.850      2.104
REMARK INTER + INTRA:         -10.840
REMARK INTER:                  -9.538
REMARK INTRA:                  -1.301
REMARK UNBOUND:                -1.705
REMARK SMILES O=c1c(O[C@H]2O[C@@H](CO)[C@H](O)[C@@H](O)[C@H]2O)c(-c2ccc(O)c(O)c2)oc2cc(O)cc(O)c12
REMARK SMILES IDX 4 1 3 2 16 3 25 4 2 5 26 6 1 7 33 8 27 9 31 10 28 11 30 12
REMARK SMILES IDX 17 13 18 14 19 15 20 16 24 17 22 18 21 19 23 21 32 23 29 25
REMARK SMILES IDX 5 27 14 28 6 29 12 30 7 31 10 32 15 33 13 35 8 37 9 38 11 40
REMARK H PARENT 21 20 23 22 32 24 29 26 15 34 13 36 9 39 11 41
REMARK Flexibility Score: inf
ROOT
ATOM      1  O   UNL     1     -13.486  36.826  -1.949  1.00  0.00    -0.454 OA
ENDROOT
BRANCH   1   2
ATOM      2  C   UNL     1     -13.147  37.761  -2.939  1.00  0.00     0.214 A 
ATOM      3  C   UNL     1     -14.024  38.798  -3.322  1.00  0.00     0.180 A 
ATOM      4  O   UNL     1     -13.608  39.729  -4.173  1.00  0.00    -0.452 OA
ATOM      5  C   UNL     1     -11.896  37.672  -3.557  1.00  0.00     0.239 A 
ATOM      6  C   UNL     1     -12.413  39.708  -4.751  1.00  0.00     0.146 A 
ATOM      7  O   UNL     1     -11.119  36.745  -3.207  1.00  0.00    -0.285 OA
ATOM      8  C   UNL     1     -11.508  38.640  -4.514  1.00  0.00     0.111 A 
ATOM      9  C   UNL     1     -12.064  40.758  -5.603  1.00  0.00     0.094 A 
ATOM     10  C   UNL     1     -10.262  38.637  -5.207  1.00  0.00     0.134 A 
ATOM     11  C   UNL     1     -10.819  40.776  -6.229  1.00  0.00     0.123 A 
ATOM     12  C   UNL     1      -9.924  39.722  -6.025  1.00  0.00     0.093 A 
BRANCH   3  13
ATOM     13  C   UNL     1     -15.411  38.887  -2.820  1.00  0.00     0.025 A 
ATOM     14  C   UNL     1     -15.660  39.449  -1.558  1.00  0.00     0.016 A 
ATOM     15  C   UNL     1     -16.966  39.532  -1.069  1.00  0.00     0.051 A 
ATOM     16  C   UNL     1     -18.040  39.068  -1.836  1.00  0.00     0.157 A 
ATOM     17  C   UNL     1     -16.494  38.449  -3.602  1.00  0.00     0.062 A 
ATOM     18  C   UNL     1     -17.804  38.528  -3.111  1.00  0.00     0.158 A 
BRANCH  16  19
ATOM     19  O   UNL     1     -19.331  39.156  -1.316  1.00  0.00    -0.504 OA
ATOM     20  H   UNL     1     -19.601  38.683  -0.462  1.00  0.00     0.293 HD
ENDBRANCH  16  19
BRANCH  18  21
ATOM     21  O   UNL     1     -18.871  38.076  -3.887  1.00  0.00    -0.504 OA
ATOM     22  H   UNL     1     -19.346  37.205  -3.680  1.00  0.00     0.293 HD
ENDBRANCH  18  21
ENDBRANCH   3  13
BRANCH  10  23
ATOM     23  O   UNL     1      -9.340  37.588  -5.144  1.00  0.00    -0.507 OA
ATOM     24  H   UNL     1      -9.587  36.618  -5.024  1.00  0.00     0.293 HD
ENDBRANCH  10  23
BRANCH  11  25
ATOM     25  O   UNL     1     -10.482  41.845  -7.058  1.00  0.00    -0.508 OA
ATOM     26  H   UNL     1      -9.609  41.862  -7.572  1.00  0.00     0.293 HD
ENDBRANCH  11  25
ENDBRANCH   1   2
BRANCH   1  27
ATOM     27  C   UNL     1     -13.630  35.424  -2.203  1.00  0.00     0.339 C 
ATOM     28  C   UNL     1     -14.963  34.874  -1.655  1.00  0.00     0.214 C 
ATOM     29  O   UNL     1     -12.502  34.705  -1.720  1.00  0.00    -0.332 OA
ATOM     30  C   UNL     1     -14.959  34.829  -0.123  1.00  0.00     0.180 C 
ATOM     31  C   UNL     1     -12.413  34.640  -0.300  1.00  0.00     0.179 C 
ATOM     32  C   UNL     1     -13.699  34.104   0.376  1.00  0.00     0.177 C 
BRANCH  28  33
ATOM     33  O   UNL     1     -16.045  35.647  -2.107  1.00  0.00    -0.384 OA
ATOM     34  H   UNL     1     -16.567  35.074  -2.728  1.00  0.00     0.211 HD
ENDBRANCH  28  33
BRANCH  30  35
ATOM     35  O   UNL     1     -15.012  36.125   0.419  1.00  0.00    -0.387 OA
ATOM     36  H   UNL     1     -14.322  36.669  -0.048  1.00  0.00     0.211 HD
ENDBRANCH  30  35
BRANCH  31  37
ATOM     37  C   UNL     1     -11.876  35.942   0.333  1.00  0.00     0.191 C 
BRANCH  37  38
ATOM     38  O   UNL     1     -10.792  36.439  -0.404  1.00  0.00    -0.394 OA
ATOM     39  H   UNL     1     -10.097  36.701   0.256  1.00  0.00     0.210 HD
ENDBRANCH  37  38
ENDBRANCH  31  37
BRANCH  32  40
ATOM     40  O   UNL     1     -13.810  32.728   0.103  1.00  0.00    -0.387 OA
ATOM     41  H   UNL     1     -13.029  32.479  -0.458  1.00  0.00     0.211 HD
ENDBRANCH  32  40
ENDBRANCH   1  27
TORSDOF 12
ENDMDL
MODEL 6
REMARK VINA RESULT:    -6.129      1.851      6.239
REMARK INTER + INTRA:         -10.701
REMARK INTER:                  -8.927
REMARK INTRA:                  -1.773
REMARK UNBOUND:                -1.705
REMARK SMILES O=c1c(O[C@H]2O[C@@H](CO)[C@H](O)[C@@H](O)[C@H]2O)c(-c2ccc(O)c(O)c2)oc2cc(O)cc(O)c12
REMARK SMILES IDX 4 1 3 2 16 3 25 4 2 5 26 6 1 7 33 8 27 9 31 10 28 11 30 12
REMARK SMILES IDX 17 13 18 14 19 15 20 16 24 17 22 18 21 19 23 21 32 23 29 25
REMARK SMILES IDX 5 27 14 28 6 29 12 30 7 31 10 32 15 33 13 35 8 37 9 38 11 40
REMARK H PARENT 21 20 23 22 32 24 29 26 15 34 13 36 9 39 11 41
REMARK Flexibility Score: inf
ROOT
ATOM      1  O   UNL     1     -12.972  36.616  -1.987  1.00  0.00    -0.454 OA
ENDROOT
BRANCH   1   2
ATOM      2  C   UNL     1     -14.050  37.513  -1.991  1.00  0.00     0.214 A 
ATOM      3  C   UNL     1     -14.116  38.602  -2.885  1.00  0.00     0.180 A 
ATOM      4  O   UNL     1     -15.215  39.347  -2.933  1.00  0.00    -0.452 OA
ATOM      5  C   UNL     1     -15.101  37.315  -1.089  1.00  0.00     0.239 A 
ATOM      6  C   UNL     1     -16.253  39.170  -2.126  1.00  0.00     0.146 A 
ATOM      7  O   UNL     1     -15.035  36.340  -0.296  1.00  0.00    -0.285 OA
ATOM      8  C   UNL     1     -16.228  38.171  -1.117  1.00  0.00     0.111 A 
ATOM      9  C   UNL     1     -17.373  39.989  -2.287  1.00  0.00     0.094 A 
ATOM     10  C   UNL     1     -17.346  38.063  -0.239  1.00  0.00     0.134 A 
ATOM     11  C   UNL     1     -18.486  39.834  -1.462  1.00  0.00     0.123 A 
ATOM     12  C   UNL     1     -18.470  38.872  -0.448  1.00  0.00     0.093 A 
BRANCH   3  13
ATOM     13  C   UNL     1     -12.994  38.963  -3.776  1.00  0.00     0.025 A 
ATOM     14  C   UNL     1     -13.064  38.658  -5.144  1.00  0.00     0.016 A 
ATOM     15  C   UNL     1     -12.006  38.987  -5.995  1.00  0.00     0.051 A 
ATOM     16  C   UNL     1     -10.871  39.634  -5.497  1.00  0.00     0.157 A 
ATOM     17  C   UNL     1     -11.866  39.641  -3.282  1.00  0.00     0.062 A 
ATOM     18  C   UNL     1     -10.802  39.968  -4.134  1.00  0.00     0.158 A 
BRANCH  16  19
ATOM     19  O   UNL     1      -9.828  39.941  -6.370  1.00  0.00    -0.504 OA
ATOM     20  H   UNL     1      -9.991  40.180  -7.340  1.00  0.00     0.293 HD
ENDBRANCH  16  19
BRANCH  18  21
ATOM     21  O   UNL     1      -9.680  40.626  -3.632  1.00  0.00    -0.504 OA
ATOM     22  H   UNL     1      -8.743  40.269  -3.784  1.00  0.00     0.293 HD
ENDBRANCH  18  21
ENDBRANCH   3  13
BRANCH  10  23
ATOM     23  O   UNL     1     -17.391  37.199   0.860  1.00  0.00    -0.507 OA
ATOM     24  H   UNL     1     -16.857  37.324   1.706  1.00  0.00     0.293 HD
ENDBRANCH  10  23
BRANCH  11  25
ATOM     25  O   UNL     1     -19.601  40.647  -1.654  1.00  0.00    -0.508 OA
ATOM     26  H   UNL     1     -20.525  40.357  -1.356  1.00  0.00     0.293 HD
ENDBRANCH  11  25
ENDBRANCH   1   2
BRANCH   1  27
ATOM     27  C   UNL     1     -12.701  35.700  -3.054  1.00  0.00     0.339 C 
ATOM     28  C   UNL     1     -13.249  34.289  -2.753  1.00  0.00     0.214 C 
ATOM     29  O   UNL     1     -11.317  35.692  -3.375  1.00  0.00    -0.332 OA
ATOM     30  C   UNL     1     -12.436  33.600  -1.650  1.00  0.00     0.180 C 
ATOM     31  C   UNL     1     -10.489  35.090  -2.384  1.00  0.00     0.179 C 
ATOM     32  C   UNL     1     -10.938  33.662  -1.989  1.00  0.00     0.177 C 
BRANCH  28  33
ATOM     33  O   UNL     1     -14.602  34.347  -2.384  1.00  0.00    -0.384 OA
ATOM     34  H   UNL     1     -14.736  35.215  -1.920  1.00  0.00     0.211 HD
ENDBRANCH  28  33
BRANCH  30  35
ATOM     35  O   UNL     1     -12.671  34.202  -0.403  1.00  0.00    -0.387 OA
ATOM     36  H   UNL     1     -12.769  33.471   0.265  1.00  0.00     0.211 HD
ENDBRANCH  30  35
BRANCH  31  37
ATOM     37  C   UNL     1     -10.222  36.014  -1.176  1.00  0.00     0.191 C 
BRANCH  37  38
ATOM     38  O   UNL     1      -9.996  37.330  -1.600  1.00  0.00    -0.394 OA
ATOM     39  H   UNL     1      -9.863  37.293  -2.584  1.00  0.00     0.210 HD
ENDBRANCH  37  38
ENDBRANCH  31  37
BRANCH  32  40
ATOM     40  O   UNL     1     -10.662  32.792  -3.060  1.00  0.00    -0.387 OA
ATOM     41  H   UNL     1      -9.760  32.410  -2.899  1.00  0.00     0.211 HD
ENDBRANCH  32  40
ENDBRANCH   1  27
TORSDOF 12
ENDMDL
MODEL 7
REMARK VINA RESULT:    -6.125      1.352      2.555
REMARK INTER + INTRA:         -10.695
REMARK INTER:                  -9.314
REMARK INTRA:                  -1.381
REMARK UNBOUND:                -1.705
REMARK SMILES O=c1c(O[C@H]2O[C@@H](CO)[C@H](O)[C@@H](O)[C@H]2O)c(-c2ccc(O)c(O)c2)oc2cc(O)cc(O)c12
REMARK SMILES IDX 4 1 3 2 16 3 25 4 2 5 26 6 1 7 33 8 27 9 31 10 28 11 30 12
REMARK SMILES IDX 17 13 18 14 19 15 20 16 24 17 22 18 21 19 23 21 32 23 29 25
REMARK SMILES IDX 5 27 14 28 6 29 12 30 7 31 10 32 15 33 13 35 8 37 9 38 11 40
REMARK H PARENT 21 20 23 22 32 24 29 26 15 34 13 36 9 39 11 41
REMARK Flexibility Score: inf
ROOT
ATOM      1  O   UNL     1     -13.479  37.135  -2.511  1.00  0.00    -0.454 OA
ENDROOT
BRANCH   1   2
ATOM      2  C   UNL     1     -13.412  38.345  -3.217  1.00  0.00     0.214 A 
ATOM      3  C   UNL     1     -14.375  39.363  -3.053  1.00  0.00     0.180 A 
ATOM      4  O   UNL     1     -14.198  40.536  -3.650  1.00  0.00    -0.452 OA
ATOM      5  C   UNL     1     -12.350  38.556  -4.103  1.00  0.00     0.239 A 
ATOM      6  C   UNL     1     -13.183  40.795  -4.466  1.00  0.00     0.146 A 
ATOM      7  O   UNL     1     -11.495  37.643  -4.242  1.00  0.00    -0.285 OA
ATOM      8  C   UNL     1     -12.229  39.793  -4.781  1.00  0.00     0.111 A 
ATOM      9  C   UNL     1     -13.075  42.076  -5.012  1.00  0.00     0.094 A 
ATOM     10  C   UNL     1     -11.193  40.107  -5.709  1.00  0.00     0.134 A 
ATOM     11  C   UNL     1     -12.023  42.391  -5.871  1.00  0.00     0.123 A 
ATOM     12  C   UNL     1     -11.087  41.410  -6.211  1.00  0.00     0.093 A 
BRANCH   3  13
ATOM     13  C   UNL     1     -15.596  39.174  -2.243  1.00  0.00     0.025 A 
ATOM     14  C   UNL     1     -15.512  39.187  -0.842  1.00  0.00     0.016 A 
ATOM     15  C   UNL     1     -16.658  39.002  -0.066  1.00  0.00     0.051 A 
ATOM     16  C   UNL     1     -17.903  38.813  -0.674  1.00  0.00     0.157 A 
ATOM     17  C   UNL     1     -16.852  39.014  -2.853  1.00  0.00     0.062 A 
ATOM     18  C   UNL     1     -18.003  38.823  -2.076  1.00  0.00     0.158 A 
BRANCH  16  19
ATOM     19  O   UNL     1     -19.028  38.621   0.128  1.00  0.00    -0.504 OA
ATOM     20  H   UNL     1     -18.978  38.141   1.019  1.00  0.00     0.293 HD
ENDBRANCH  16  19
BRANCH  18  21
ATOM     21  O   UNL     1     -19.242  38.649  -2.689  1.00  0.00    -0.504 OA
ATOM     22  H   UNL     1     -19.336  38.146  -3.563  1.00  0.00     0.293 HD
ENDBRANCH  18  21
ENDBRANCH   3  13
BRANCH  10  23
ATOM     23  O   UNL     1     -10.265  39.175  -6.183  1.00  0.00    -0.507 OA
ATOM     24  H   UNL     1      -9.453  38.867  -5.671  1.00  0.00     0.293 HD
ENDBRANCH  10  23
BRANCH  11  25
ATOM     25  O   UNL     1     -11.921  43.681  -6.388  1.00  0.00    -0.508 OA
ATOM     26  H   UNL     1     -12.573  44.410  -6.123  1.00  0.00     0.293 HD
ENDBRANCH  11  25
ENDBRANCH   1   2
BRANCH   1  27
ATOM     27  C   UNL     1     -13.690  35.864  -3.138  1.00  0.00     0.339 C 
ATOM     28  C   UNL     1     -14.843  35.081  -2.475  1.00  0.00     0.214 C 
ATOM     29  O   UNL     1     -12.481  35.119  -3.190  1.00  0.00    -0.332 OA
ATOM     30  C   UNL     1     -14.447  34.583  -1.080  1.00  0.00     0.180 C 
ATOM     31  C   UNL     1     -12.032  34.642  -1.925  1.00  0.00     0.179 C 
ATOM     32  C   UNL     1     -13.105  33.837  -1.152  1.00  0.00     0.177 C 
BRANCH  28  33
ATOM     33  O   UNL     1     -15.999  35.872  -2.390  1.00  0.00    -0.384 OA
ATOM     34  H   UNL     1     -16.684  35.443  -2.967  1.00  0.00     0.211 HD
ENDBRANCH  28  33
BRANCH  30  35
ATOM     35  O   UNL     1     -14.353  35.652  -0.173  1.00  0.00    -0.387 OA
ATOM     36  H   UNL     1     -14.895  35.412   0.625  1.00  0.00     0.211 HD
ENDBRANCH  30  35
BRANCH  31  37
ATOM     37  C   UNL     1     -11.344  35.733  -1.077  1.00  0.00     0.191 C 
BRANCH  37  38
ATOM     38  O   UNL     1     -10.504  36.523  -1.874  1.00  0.00    -0.394 OA
ATOM     39  H   UNL     1     -10.102  37.205  -1.274  1.00  0.00     0.210 HD
ENDBRANCH  37  38
ENDBRANCH  31  37
BRANCH  32  40
ATOM     40  O   UNL     1     -13.290  32.600  -1.797  1.00  0.00    -0.387 OA
ATOM     41  H   UNL     1     -14.265  32.414  -1.796  1.00  0.00     0.211 HD
ENDBRANCH  32  40
ENDBRANCH   1  27
TORSDOF 12
ENDMDL
MODEL 8
REMARK VINA RESULT:    -6.014      2.014      5.121
REMARK INTER + INTRA:         -10.531
REMARK INTER:                  -8.861
REMARK INTRA:                  -1.670
REMARK UNBOUND:                -1.705
REMARK SMILES O=c1c(O[C@H]2O[C@@H](CO)[C@H](O)[C@@H](O)[C@H]2O)c(-c2ccc(O)c(O)c2)oc2cc(O)cc(O)c12
REMARK SMILES IDX 4 1 3 2 16 3 25 4 2 5 26 6 1 7 33 8 27 9 31 10 28 11 30 12
REMARK SMILES IDX 17 13 18 14 19 15 20 16 24 17 22 18 21 19 23 21 32 23 29 25
REMARK SMILES IDX 5 27 14 28 6 29 12 30 7 31 10 32 15 33 13 35 8 37 9 38 11 40
REMARK H PARENT 21 20 23 22 32 24 29 26 15 34 13 36 9 39 11 41
REMARK Flexibility Score: inf
ROOT
ATOM      1  O   UNL     1     -14.165  38.006  -1.617  1.00  0.00    -0.454 OA
ENDROOT
BRANCH   1   2
ATOM      2  C   UNL     1     -13.482  38.774  -2.572  1.00  0.00     0.214 A 
ATOM      3  C   UNL     1     -12.495  38.219  -3.413  1.00  0.00     0.180 A 
ATOM      4  O   UNL     1     -11.968  38.958  -4.382  1.00  0.00    -0.452 OA
ATOM      5  C   UNL     1     -13.797  40.130  -2.703  1.00  0.00     0.239 A 
ATOM      6  C   UNL     1     -12.268  40.237  -4.572  1.00  0.00     0.146 A 
ATOM      7  O   UNL     1     -14.681  40.616  -1.949  1.00  0.00    -0.285 OA
ATOM      8  C   UNL     1     -13.165  40.910  -3.701  1.00  0.00     0.111 A 
ATOM      9  C   UNL     1     -11.681  40.910  -5.645  1.00  0.00     0.094 A 
ATOM     10  C   UNL     1     -13.407  42.299  -3.914  1.00  0.00     0.134 A 
ATOM     11  C   UNL     1     -11.972  42.253  -5.881  1.00  0.00     0.123 A 
ATOM     12  C   UNL     1     -12.834  42.938  -5.020  1.00  0.00     0.093 A 
BRANCH   3  13
ATOM     13  C   UNL     1     -12.006  36.834  -3.253  1.00  0.00     0.025 A 
ATOM     14  C   UNL     1     -12.584  35.799  -4.004  1.00  0.00     0.016 A 
ATOM     15  C   UNL     1     -12.136  34.484  -3.856  1.00  0.00     0.051 A 
ATOM     16  C   UNL     1     -11.099  34.186  -2.966  1.00  0.00     0.157 A 
ATOM     17  C   UNL     1     -10.943  36.537  -2.382  1.00  0.00     0.062 A 
ATOM     18  C   UNL     1     -10.495  35.218  -2.228  1.00  0.00     0.158 A 
BRANCH  16  19
ATOM     19  O   UNL     1     -10.680  32.862  -2.833  1.00  0.00    -0.504 OA
ATOM     20  H   UNL     1     -11.188  32.191  -2.271  1.00  0.00     0.293 HD
ENDBRANCH  16  19
BRANCH  18  21
ATOM     21  O   UNL     1      -9.451  34.930  -1.351  1.00  0.00    -0.504 OA
ATOM     22  H   UNL     1      -9.553  34.243  -0.612  1.00  0.00     0.293 HD
ENDBRANCH  18  21
ENDBRANCH   3  13
BRANCH  10  23
ATOM     23  O   UNL     1     -14.177  43.094  -3.060  1.00  0.00    -0.507 OA
ATOM     24  H   UNL     1     -15.167  43.253  -3.167  1.00  0.00     0.293 HD
ENDBRANCH  10  23
BRANCH  11  25
ATOM     25  O   UNL     1     -11.392  42.900  -6.971  1.00  0.00    -0.508 OA
ATOM     26  H   UNL     1     -11.291  43.908  -6.995  1.00  0.00     0.293 HD
ENDBRANCH  11  25
ENDBRANCH   1   2
BRANCH   1  27
ATOM     27  C   UNL     1     -15.178  37.049  -1.950  1.00  0.00     0.339 C 
ATOM     28  C   UNL     1     -16.593  37.660  -1.876  1.00  0.00     0.214 C 
ATOM     29  O   UNL     1     -15.047  35.877  -1.155  1.00  0.00    -0.332 OA
ATOM     30  C   UNL     1     -17.006  37.935  -0.426  1.00  0.00     0.180 C 
ATOM     31  C   UNL     1     -15.389  36.058   0.216  1.00  0.00     0.179 C 
ATOM     32  C   UNL     1     -16.795  36.673   0.425  1.00  0.00     0.177 C 
BRANCH  28  33
ATOM     33  O   UNL     1     -16.663  38.846  -2.626  1.00  0.00    -0.384 OA
ATOM     34  H   UNL     1     -15.839  38.885  -3.179  1.00  0.00     0.211 HD
ENDBRANCH  28  33
BRANCH  30  35
ATOM     35  O   UNL     1     -16.272  39.005   0.112  1.00  0.00    -0.387 OA
ATOM     36  H   UNL     1     -16.105  38.797   1.070  1.00  0.00     0.211 HD
ENDBRANCH  30  35
BRANCH  31  37
ATOM     37  C   UNL     1     -14.278  36.755   1.030  1.00  0.00     0.191 C 
BRANCH  37  38
ATOM     38  O   UNL     1     -13.012  36.340   0.596  1.00  0.00    -0.394 OA
ATOM     39  H   UNL     1     -12.353  36.958   1.009  1.00  0.00     0.210 HD
ENDBRANCH  37  38
ENDBRANCH  31  37
BRANCH  32  40
ATOM     40  O   UNL     1     -17.762  35.709   0.085  1.00  0.00    -0.387 OA
ATOM     41  H   UNL     1     -18.539  35.852   0.687  1.00  0.00     0.211 HD
ENDBRANCH  32  40
ENDBRANCH   1  27
TORSDOF 12
ENDMDL
MODEL 9
REMARK VINA RESULT:    -5.852      2.635      6.530
REMARK INTER + INTRA:         -10.294
REMARK INTER:                  -8.385
REMARK INTRA:                  -1.909
REMARK UNBOUND:                -1.705
REMARK SMILES O=c1c(O[C@H]2O[C@@H](CO)[C@H](O)[C@@H](O)[C@H]2O)c(-c2ccc(O)c(O)c2)oc2cc(O)cc(O)c12
REMARK SMILES IDX 4 1 3 2 16 3 25 4 2 5 26 6 1 7 33 8 27 9 31 10 28 11 30 12
REMARK SMILES IDX 17 13 18 14 19 15 20 16 24 17 22 18 21 19 23 21 32 23 29 25
REMARK SMILES IDX 5 27 14 28 6 29 12 30 7 31 10 32 15 33 13 35 8 37 9 38 11 40
REMARK H PARENT 21 20 23 22 32 24 29 26 15 34 13 36 9 39 11 41
REMARK Flexibility Score: inf
ROOT
ATOM      1  O   UNL     1     -13.906  37.216   0.204  1.00  0.00    -0.454 OA
ENDROOT
BRANCH   1   2
ATOM      2  C   UNL     1     -14.937  37.469  -0.713  1.00  0.00     0.214 A 
ATOM      3  C   UNL     1     -14.905  36.972  -2.033  1.00  0.00     0.180 A 
ATOM      4  O   UNL     1     -15.961  37.135  -2.821  1.00  0.00    -0.452 OA
ATOM      5  C   UNL     1     -16.039  38.227  -0.303  1.00  0.00     0.239 A 
ATOM      6  C   UNL     1     -17.045  37.810  -2.460  1.00  0.00     0.146 A 
ATOM      7  O   UNL     1     -16.060  38.665   0.877  1.00  0.00    -0.285 OA
ATOM      8  C   UNL     1     -17.119  38.444  -1.192  1.00  0.00     0.111 A 
ATOM      9  C   UNL     1     -18.114  37.888  -3.356  1.00  0.00     0.094 A 
ATOM     10  C   UNL     1     -18.282  39.206  -0.878  1.00  0.00     0.134 A 
ATOM     11  C   UNL     1     -19.272  38.585  -3.015  1.00  0.00     0.123 A 
ATOM     12  C   UNL     1     -19.353  39.235  -1.780  1.00  0.00     0.093 A 
BRANCH   3  13
ATOM     13  C   UNL     1     -13.724  36.279  -2.589  1.00  0.00     0.025 A 
ATOM     14  C   UNL     1     -13.689  34.877  -2.617  1.00  0.00     0.016 A 
ATOM     15  C   UNL     1     -12.575  34.210  -3.133  1.00  0.00     0.051 A 
ATOM     16  C   UNL     1     -11.489  34.931  -3.638  1.00  0.00     0.157 A 
ATOM     17  C   UNL     1     -12.645  37.003  -3.124  1.00  0.00     0.062 A 
ATOM     18  C   UNL     1     -11.525  36.336  -3.638  1.00  0.00     0.158 A 
BRANCH  16  19
ATOM     19  O   UNL     1     -10.387  34.237  -4.138  1.00  0.00    -0.504 OA
ATOM     20  H   UNL     1     -10.453  33.275  -4.449  1.00  0.00     0.293 HD
ENDBRANCH  16  19
BRANCH  18  21
ATOM     21  O   UNL     1     -10.452  37.062  -4.153  1.00  0.00    -0.504 OA
ATOM     22  H   UNL     1      -9.930  36.738  -4.959  1.00  0.00     0.293 HD
ENDBRANCH  18  21
ENDBRANCH   3  13
BRANCH  10  23
ATOM     23  O   UNL     1     -18.423  39.965   0.287  1.00  0.00    -0.507 OA
ATOM     24  H   UNL     1     -18.612  39.580   1.200  1.00  0.00     0.293 HD
ENDBRANCH  10  23
BRANCH  11  25
ATOM     25  O   UNL     1     -20.335  38.633  -3.915  1.00  0.00    -0.508 OA
ATOM     26  H   UNL     1     -20.861  39.485  -4.068  1.00  0.00     0.293 HD
ENDBRANCH  11  25
ENDBRANCH   1   2
BRANCH   1  27
ATOM     27  C   UNL     1     -13.777  35.988   0.930  1.00  0.00     0.339 C 
ATOM     28  C   UNL     1     -13.825  36.213   2.455  1.00  0.00     0.214 C 
ATOM     29  O   UNL     1     -12.616  35.278   0.518  1.00  0.00    -0.332 OA
ATOM     30  C   UNL     1     -12.554  36.908   2.956  1.00  0.00     0.180 C 
ATOM     31  C   UNL     1     -11.389  35.876   0.924  1.00  0.00     0.179 C 
ATOM     32  C   UNL     1     -11.313  36.159   2.445  1.00  0.00     0.177 C 
BRANCH  28  33
ATOM     33  O   UNL     1     -14.954  36.968   2.812  1.00  0.00    -0.384 OA
ATOM     34  H   UNL     1     -15.741  36.370   2.715  1.00  0.00     0.211 HD
ENDBRANCH  28  33
BRANCH  30  35
ATOM     35  O   UNL     1     -12.513  38.247   2.533  1.00  0.00    -0.387 OA
ATOM     36  H   UNL     1     -11.879  38.297   1.769  1.00  0.00     0.211 HD
ENDBRANCH  30  35
BRANCH  31  37
ATOM     37  C   UNL     1     -10.983  37.081   0.048  1.00  0.00     0.191 C 
BRANCH  37  38
ATOM     38  O   UNL     1     -10.100  37.921   0.740  1.00  0.00    -0.394 OA
ATOM     39  H   UNL     1      -9.826  38.632   0.102  1.00  0.00     0.210 HD
ENDBRANCH  37  38
ENDBRANCH  31  37
BRANCH  32  40
ATOM     40  O   UNL     1     -11.191  34.932   3.125  1.00  0.00    -0.387 OA
ATOM     41  H   UNL     1     -12.111  34.581   3.256  1.00  0.00     0.211 HD
ENDBRANCH  32  40
ENDBRANCH   1  27
TORSDOF 12
ENDMDL
