MODEL 1
REMARK VINA RESULT:    -3.761      0.000      0.000
REMARK INTER + INTRA:          -3.871
REMARK INTER:                  -3.871
REMARK INTRA:                   0.000
REMARK UNBOUND:                 0.000
REMARK SMILES Nc1ncnc2nc[nH]c12
REMARK SMILES IDX 8 1 7 2 6 3 5 4 4 5 3 6 2 7 10 8 9 9 1 11
REMARK H PARENT 9 10 1 12 1 13
REMARK Flexibility Score: inf
ROOT
ATOM      1  C   UNL     1     175.626 178.172 182.119  1.00  0.00     0.199 A 
ATOM      2  N   UNL     1     175.159 179.252 182.803  1.00  0.00    -0.217 NA
ATOM      3  C   UNL     1     175.446 178.930 184.075  1.00  0.00     0.182 A 
ATOM      4  N   UNL     1     175.187 179.675 185.176  1.00  0.00    -0.215 NA
ATOM      5  C   UNL     1     175.557 179.176 186.394  1.00  0.00     0.226 A 
ATOM      6  N   UNL     1     176.172 177.955 186.489  1.00  0.00    -0.217 NA
ATOM      7  C   UNL     1     176.436 177.202 185.379  1.00  0.00     0.152 A 
ATOM      8  C   UNL     1     176.053 177.723 184.146  1.00  0.00     0.127 A 
ATOM      9  N   UNL     1     176.178 177.220 182.912  1.00  0.00    -0.340 N 
ATOM     10  H   UNL     1     176.600 176.312 182.616  1.00  0.00     0.168 HD
ENDROOT
BRANCH   7  11
ATOM     11  N   UNL     1     177.078 175.932 185.502  1.00  0.00    -0.382 N 
ATOM     12  H   UNL     1     177.862 175.679 184.862  1.00  0.00     0.158 HD
ATOM     13  H   UNL     1     176.779 175.240 186.225  1.00  0.00     0.158 HD
ENDBRANCH   7  11
TORSDOF 1
ENDMDL
MODEL 2
REMARK VINA RESULT:    -3.728     15.343     15.377
REMARK INTER + INTRA:          -3.837
REMARK INTER:                  -3.837
REMARK INTRA:                   0.000
REMARK UNBOUND:                 0.000
REMARK SMILES Nc1ncnc2nc[nH]c12
REMARK SMILES IDX 8 1 7 2 6 3 5 4 4 5 3 6 2 7 10 8 9 9 1 11
REMARK H PARENT 9 10 1 12 1 13
REMARK Flexibility Score: inf
ROOT
ATOM      1  C   UNL     1     160.259 177.196 183.668  1.00  0.00     0.199 A 
ATOM      2  N   UNL     1     160.386 178.298 184.457  1.00  0.00    -0.217 NA
ATOM      3  C   UNL     1     160.595 177.758 185.669  1.00  0.00     0.182 A 
ATOM      4  N   UNL     1     160.788 178.429 186.830  1.00  0.00    -0.215 NA
ATOM      5  C   UNL     1     160.985 177.700 187.971  1.00  0.00     0.226 A 
ATOM      6  N   UNL     1     160.984 176.329 187.930  1.00  0.00    -0.217 NA
ATOM      7  C   UNL     1     160.791 175.651 186.760  1.00  0.00     0.152 A 
ATOM      8  C   UNL     1     160.592 176.406 185.607  1.00  0.00     0.127 A 
ATOM      9  N   UNL     1     160.379 176.025 184.342  1.00  0.00    -0.340 N 
ATOM     10  H   UNL     1     160.318 175.058 183.952  1.00  0.00     0.168 HD
ENDROOT
BRANCH   7  11
ATOM     11  N   UNL     1     160.794 174.223 186.742  1.00  0.00    -0.382 N 
ATOM     12  H   UNL     1     161.697 173.702 186.791  1.00  0.00     0.158 HD
ATOM     13  H   UNL     1     159.906 173.678 186.679  1.00  0.00     0.158 HD
ENDBRANCH   7  11
TORSDOF 1
ENDMDL
MODEL 3
REMARK VINA RESULT:    -3.725     15.263     15.789
REMARK INTER + INTRA:          -3.834
REMARK INTER:                  -3.834
REMARK INTRA:                   0.000
REMARK UNBOUND:                 0.000
REMARK SMILES Nc1ncnc2nc[nH]c12
REMARK SMILES IDX 8 1 7 2 6 3 5 4 4 5 3 6 2 7 10 8 9 9 1 11
REMARK H PARENT 9 10 1 12 1 13
REMARK Flexibility Score: inf
ROOT
ATOM      1  C   UNL     1     160.396 173.955 187.031  1.00  0.00     0.199 A 
ATOM      2  N   UNL     1     160.206 174.315 185.733  1.00  0.00    -0.217 NA
ATOM      3  C   UNL     1     160.395 175.644 185.775  1.00  0.00     0.182 A 
ATOM      4  N   UNL     1     160.320 176.505 184.732  1.00  0.00    -0.215 NA
ATOM      5  C   UNL     1     160.545 177.832 184.973  1.00  0.00     0.226 A 
ATOM      6  N   UNL     1     160.836 178.270 186.240  1.00  0.00    -0.217 NA
ATOM      7  C   UNL     1     160.912 177.403 187.293  1.00  0.00     0.152 A 
ATOM      8  C   UNL     1     160.681 176.056 187.032  1.00  0.00     0.127 A 
ATOM      9  N   UNL     1     160.687 174.997 187.850  1.00  0.00    -0.340 N 
ATOM     10  H   UNL     1     160.871 174.965 188.877  1.00  0.00     0.168 HD
ENDROOT
BRANCH   7  11
ATOM     11  N   UNL     1     161.217 177.882 188.604  1.00  0.00    -0.382 N 
ATOM     12  H   UNL     1     160.882 177.359 189.442  1.00  0.00     0.158 HD
ATOM     13  H   UNL     1     161.772 178.754 188.748  1.00  0.00     0.158 HD
ENDBRANCH   7  11
TORSDOF 1
ENDMDL
MODEL 4
REMARK VINA RESULT:    -3.658     19.713     20.427
REMARK INTER + INTRA:          -3.765
REMARK INTER:                  -3.765
REMARK INTRA:                   0.000
REMARK UNBOUND:                 0.000
REMARK SMILES Nc1ncnc2nc[nH]c12
REMARK SMILES IDX 8 1 7 2 6 3 5 4 4 5 3 6 2 7 10 8 9 9 1 11
REMARK H PARENT 9 10 1 12 1 13
REMARK Flexibility Score: inf
ROOT
ATOM      1  C   UNL     1     161.081 163.382 186.641  1.00  0.00     0.199 A 
ATOM      2  N   UNL     1     162.106 163.799 187.433  1.00  0.00    -0.217 NA
ATOM      3  C   UNL     1     163.140 163.082 186.963  1.00  0.00     0.182 A 
ATOM      4  N   UNL     1     164.418 163.118 187.410  1.00  0.00    -0.215 NA
ATOM      5  C   UNL     1     165.338 162.309 186.800  1.00  0.00     0.226 A 
ATOM      6  N   UNL     1     164.966 161.488 185.767  1.00  0.00    -0.217 NA
ATOM      7  C   UNL     1     163.678 161.451 185.314  1.00  0.00     0.152 A 
ATOM      8  C   UNL     1     162.753 162.280 185.944  1.00  0.00     0.127 A 
ATOM      9  N   UNL     1     161.445 162.453 185.721  1.00  0.00    -0.340 N 
ATOM     10  H   UNL     1     160.837 161.991 185.010  1.00  0.00     0.168 HD
ENDROOT
BRANCH   7  11
ATOM     11  N   UNL     1     163.314 160.588 184.235  1.00  0.00    -0.382 N 
ATOM     12  H   UNL     1     163.836 160.631 183.333  1.00  0.00     0.158 HD
ATOM     13  H   UNL     1     162.528 159.907 184.326  1.00  0.00     0.158 HD
ENDBRANCH   7  11
TORSDOF 1
ENDMDL
MODEL 5
REMARK VINA RESULT:    -3.648      1.359      3.365
REMARK INTER + INTRA:          -3.755
REMARK INTER:                  -3.755
REMARK INTRA:                   0.000
REMARK UNBOUND:                 0.000
REMARK SMILES Nc1ncnc2nc[nH]c12
REMARK SMILES IDX 8 1 7 2 6 3 5 4 4 5 3 6 2 7 10 8 9 9 1 11
REMARK H PARENT 9 10 1 12 1 13
REMARK Flexibility Score: inf
ROOT
ATOM      1  C   UNL     1     174.824 179.348 188.264  1.00  0.00     0.199 A 
ATOM      2  N   UNL     1     174.164 180.050 187.304  1.00  0.00    -0.217 NA
ATOM      3  C   UNL     1     174.661 179.524 186.173  1.00  0.00     0.182 A 
ATOM      4  N   UNL     1     174.333 179.874 184.906  1.00  0.00    -0.215 NA
ATOM      5  C   UNL     1     174.951 179.220 183.876  1.00  0.00     0.226 A 
ATOM      6  N   UNL     1     175.875 178.239 184.128  1.00  0.00    -0.217 NA
ATOM      7  C   UNL     1     176.206 177.884 185.405  1.00  0.00     0.152 A 
ATOM      8  C   UNL     1     175.569 178.558 186.443  1.00  0.00     0.127 A 
ATOM      9  N   UNL     1     175.690 178.428 187.770  1.00  0.00    -0.340 N 
ATOM     10  H   UNL     1     176.302 177.777 188.309  1.00  0.00     0.168 HD
ENDROOT
BRANCH   7  11
ATOM     11  N   UNL     1     177.172 176.858 185.644  1.00  0.00    -0.382 N 
ATOM     12  H   UNL     1     177.060 176.214 186.457  1.00  0.00     0.158 HD
ATOM     13  H   UNL     1     177.999 176.735 185.019  1.00  0.00     0.158 HD
ENDBRANCH   7  11
TORSDOF 1
ENDMDL
MODEL 6
REMARK VINA RESULT:    -3.644      4.732      6.740
REMARK INTER + INTRA:          -3.751
REMARK INTER:                  -3.751
REMARK INTRA:                   0.000
REMARK UNBOUND:                 0.000
REMARK SMILES Nc1ncnc2nc[nH]c12
REMARK SMILES IDX 8 1 7 2 6 3 5 4 4 5 3 6 2 7 10 8 9 9 1 11
REMARK H PARENT 9 10 1 12 1 13
REMARK Flexibility Score: inf
ROOT
ATOM      1  C   UNL     1     176.441 174.171 186.108  1.00  0.00     0.199 A 
ATOM      2  N   UNL     1     176.484 173.200 187.061  1.00  0.00    -0.217 NA
ATOM      3  C   UNL     1     177.628 172.561 186.765  1.00  0.00     0.182 A 
ATOM      4  N   UNL     1     178.150 171.495 187.418  1.00  0.00    -0.215 NA
ATOM      5  C   UNL     1     179.333 170.978 186.966  1.00  0.00     0.226 A 
ATOM      6  N   UNL     1     179.965 171.530 185.882  1.00  0.00    -0.217 NA
ATOM      7  C   UNL     1     179.440 172.606 185.222  1.00  0.00     0.152 A 
ATOM      8  C   UNL     1     178.236 173.121 185.694  1.00  0.00     0.127 A 
ATOM      9  N   UNL     1     177.498 174.149 185.257  1.00  0.00    -0.340 N 
ATOM     10  H   UNL     1     177.681 174.790 184.455  1.00  0.00     0.168 HD
ENDROOT
BRANCH   7  11
ATOM     11  N   UNL     1     180.117 173.164 184.095  1.00  0.00    -0.382 N 
ATOM     12  H   UNL     1     179.603 173.314 183.199  1.00  0.00     0.158 HD
ATOM     13  H   UNL     1     181.125 173.429 184.143  1.00  0.00     0.158 HD
ENDBRANCH   7  11
TORSDOF 1
ENDMDL
MODEL 7
REMARK VINA RESULT:    -3.642      2.873      4.447
REMARK INTER + INTRA:          -3.749
REMARK INTER:                  -3.749
REMARK INTRA:                   0.000
REMARK UNBOUND:                 0.000
REMARK SMILES Nc1ncnc2nc[nH]c12
REMARK SMILES IDX 8 1 7 2 6 3 5 4 4 5 3 6 2 7 10 8 9 9 1 11
REMARK H PARENT 9 10 1 12 1 13
REMARK Flexibility Score: inf
ROOT
ATOM      1  C   UNL     1     171.088 179.839 186.941  1.00  0.00     0.199 A 
ATOM      2  N   UNL     1     171.460 179.701 185.639  1.00  0.00    -0.217 NA
ATOM      3  C   UNL     1     172.800 179.649 185.730  1.00  0.00     0.182 A 
ATOM      4  N   UNL     1     173.674 179.513 184.705  1.00  0.00    -0.215 NA
ATOM      5  C   UNL     1     175.010 179.479 184.997  1.00  0.00     0.226 A 
ATOM      6  N   UNL     1     175.442 179.582 186.295  1.00  0.00    -0.217 NA
ATOM      7  C   UNL     1     174.561 179.717 187.330  1.00  0.00     0.152 A 
ATOM      8  C   UNL     1     173.205 179.750 187.017  1.00  0.00     0.127 A 
ATOM      9  N   UNL     1     172.131 179.873 187.807  1.00  0.00    -0.340 N 
ATOM     10  H   UNL     1     172.092 179.971 188.845  1.00  0.00     0.168 HD
ENDROOT
BRANCH   7  11
ATOM     11  N   UNL     1     175.034 179.822 188.674  1.00  0.00    -0.382 N 
ATOM     12  H   UNL     1     175.789 179.187 189.013  1.00  0.00     0.158 HD
ATOM     13  H   UNL     1     174.638 180.526 189.336  1.00  0.00     0.158 HD
ENDBRANCH   7  11
TORSDOF 1
ENDMDL
MODEL 8
REMARK VINA RESULT:    -3.622     14.614     16.217
REMARK INTER + INTRA:          -3.728
REMARK INTER:                  -3.728
REMARK INTRA:                   0.000
REMARK UNBOUND:                 0.000
REMARK SMILES Nc1ncnc2nc[nH]c12
REMARK SMILES IDX 8 1 7 2 6 3 5 4 4 5 3 6 2 7 10 8 9 9 1 11
REMARK H PARENT 9 10 1 12 1 13
REMARK Flexibility Score: inf
ROOT
ATOM      1  C   UNL     1     176.129 164.369 186.173  1.00  0.00     0.199 A 
ATOM      2  N   UNL     1     175.151 164.033 187.057  1.00  0.00    -0.217 NA
ATOM      3  C   UNL     1     174.829 162.788 186.667  1.00  0.00     0.182 A 
ATOM      4  N   UNL     1     173.893 161.983 187.224  1.00  0.00    -0.215 NA
ATOM      5  C   UNL     1     173.707 160.740 186.684  1.00  0.00     0.226 A 
ATOM      6  N   UNL     1     174.453 160.329 185.609  1.00  0.00    -0.217 NA
ATOM      7  C   UNL     1     175.399 161.140 185.047  1.00  0.00     0.152 A 
ATOM      8  C   UNL     1     175.576 162.402 185.607  1.00  0.00     0.127 A 
ATOM      9  N   UNL     1     176.412 163.393 185.274  1.00  0.00    -0.340 N 
ATOM     10  H   UNL     1     177.119 163.421 184.507  1.00  0.00     0.168 HD
ENDROOT
BRANCH   7  11
ATOM     11  N   UNL     1     176.164 160.690 183.927  1.00  0.00    -0.382 N 
ATOM     12  H   UNL     1     177.196 160.841 183.906  1.00  0.00     0.158 HD
ATOM     13  H   UNL     1     175.712 160.209 183.119  1.00  0.00     0.158 HD
ENDBRANCH   7  11
TORSDOF 1
ENDMDL
MODEL 9
REMARK VINA RESULT:    -3.608     20.419     20.858
REMARK INTER + INTRA:          -3.713
REMARK INTER:                  -3.713
REMARK INTRA:                   0.000
REMARK UNBOUND:                 0.000
REMARK SMILES Nc1ncnc2nc[nH]c12
REMARK SMILES IDX 8 1 7 2 6 3 5 4 4 5 3 6 2 7 10 8 9 9 1 11
REMARK H PARENT 9 10 1 12 1 13
REMARK Flexibility Score: inf
ROOT
ATOM      1  C   UNL     1     162.740 161.284 181.362  1.00  0.00     0.199 A 
ATOM      2  N   UNL     1     161.701 161.998 181.872  1.00  0.00    -0.217 NA
ATOM      3  C   UNL     1     162.069 162.160 183.154  1.00  0.00     0.182 A 
ATOM      4  N   UNL     1     161.376 162.813 184.118  1.00  0.00    -0.215 NA
ATOM      5  C   UNL     1     161.916 162.872 185.373  1.00  0.00     0.226 A 
ATOM      6  N   UNL     1     163.125 162.283 185.639  1.00  0.00    -0.217 NA
ATOM      7  C   UNL     1     163.826 161.625 184.668  1.00  0.00     0.152 A 
ATOM      8  C   UNL     1     163.264 161.573 183.396  1.00  0.00     0.127 A 
ATOM      9  N   UNL     1     163.711 161.007 182.268  1.00  0.00    -0.340 N 
ATOM     10  H   UNL     1     164.596 160.477 182.110  1.00  0.00     0.168 HD
ENDROOT
BRANCH   7  11
ATOM     11  N   UNL     1     165.084 161.019 184.969  1.00  0.00    -0.382 N 
ATOM     12  H   UNL     1     165.384 160.159 184.461  1.00  0.00     0.158 HD
ATOM     13  H   UNL     1     165.720 161.418 185.694  1.00  0.00     0.158 HD
ENDBRANCH   7  11
TORSDOF 1
ENDMDL
