MODEL 1
REMARK VINA RESULT:    -4.630      0.000      0.000
REMARK INTER + INTRA:          -7.386
REMARK INTER:                  -7.067
REMARK INTRA:                  -0.319
REMARK UNBOUND:                -0.319
REMARK SMILES O=C([O-])CCCCCCCCC(=O)[O-]
REMARK SMILES IDX 7 1 6 2 5 3 4 4 2 5 1 6 3 7 8 8 9 9 10 10 11 11 12 12 13 13
REMARK SMILES IDX 14 14
REMARK H PARENT
REMARK Flexibility Score: inf
ROOT
ATOM      1  C   UNL     1     254.541 260.870 245.902  1.00  0.00     0.000 C 
ENDROOT
BRANCH   1   2
ATOM      2  C   UNL     1     253.894 261.025 247.286  1.00  0.00     0.000 C 
BRANCH   2   3
ATOM      3  C   UNL     1     252.365 261.069 247.177  1.00  0.00     0.006 C 
BRANCH   3   4
ATOM      4  C   UNL     1     251.792 259.674 246.908  1.00  0.00     0.053 C 
BRANCH   4   5
ATOM      5  C   UNL     1     250.321 259.652 247.172  1.00  0.00     0.041 C 
ATOM      6  O   UNL     1     249.644 260.710 247.078  1.00  0.00    -0.550 OA
ATOM      7  O   UNL     1     249.686 258.453 247.474  1.00  0.00    -0.550 OA
ENDBRANCH   4   5
ENDBRANCH   3   4
ENDBRANCH   2   3
ENDBRANCH   1   2
BRANCH   1   8
ATOM      8  C   UNL     1     256.056 261.141 245.914  1.00  0.00     0.000 C 
BRANCH   8   9
ATOM      9  C   UNL     1     256.777 260.867 244.581  1.00  0.00     0.000 C 
BRANCH   9  10
ATOM     10  C   UNL     1     258.179 261.491 244.517  1.00  0.00     0.006 C 
BRANCH  10  11
ATOM     11  C   UNL     1     258.530 262.188 245.834  1.00  0.00     0.053 C 
BRANCH  11  12
ATOM     12  C   UNL     1     259.747 261.568 246.447  1.00  0.00     0.041 C 
ATOM     13  O   UNL     1     259.681 260.422 246.965  1.00  0.00    -0.550 OA
ATOM     14  O   UNL     1     260.941 262.276 246.490  1.00  0.00    -0.550 OA
ENDBRANCH  11  12
ENDBRANCH  10  11
ENDBRANCH   9  10
ENDBRANCH   8   9
ENDBRANCH   1   8
TORSDOF 9
ENDMDL
MODEL 2
REMARK VINA RESULT:    -4.606      1.484      2.005
REMARK INTER + INTRA:          -7.349
REMARK INTER:                  -6.728
REMARK INTRA:                  -0.621
REMARK UNBOUND:                -0.319
REMARK SMILES O=C([O-])CCCCCCCCC(=O)[O-]
REMARK SMILES IDX 7 1 6 2 5 3 4 4 2 5 1 6 3 7 8 8 9 9 10 10 11 11 12 12 13 13
REMARK SMILES IDX 14 14
REMARK H PARENT
REMARK Flexibility Score: inf
ROOT
ATOM      1  C   UNL     1     255.733 261.023 246.003  1.00  0.00     0.000 C 
ENDROOT
BRANCH   1   2
ATOM      2  C   UNL     1     255.823 260.657 247.491  1.00  0.00     0.000 C 
BRANCH   2   3
ATOM      3  C   UNL     1     254.462 260.821 248.181  1.00  0.00     0.006 C 
BRANCH   3   4
ATOM      4  C   UNL     1     253.332 260.922 247.153  1.00  0.00     0.053 C 
BRANCH   4   5
ATOM      5  C   UNL     1     252.419 259.743 247.260  1.00  0.00     0.041 C 
ATOM      6  O   UNL     1     251.207 259.848 246.935  1.00  0.00    -0.550 OA
ATOM      7  O   UNL     1     252.917 258.513 247.674  1.00  0.00    -0.550 OA
ENDBRANCH   4   5
ENDBRANCH   3   4
ENDBRANCH   2   3
ENDBRANCH   1   2
BRANCH   1   8
ATOM      8  C   UNL     1     256.890 261.925 245.535  1.00  0.00     0.000 C 
BRANCH   8   9
ATOM      9  C   UNL     1     257.896 261.252 244.585  1.00  0.00     0.000 C 
BRANCH   9  10
ATOM     10  C   UNL     1     259.169 260.772 245.298  1.00  0.00     0.006 C 
BRANCH  10  11
ATOM     11  C   UNL     1     259.394 261.548 246.598  1.00  0.00     0.053 C 
BRANCH  11  12
ATOM     12  C   UNL     1     259.718 260.611 247.719  1.00  0.00     0.041 C 
ATOM     13  O   UNL     1     259.570 260.978 248.914  1.00  0.00    -0.550 OA
ATOM     14  O   UNL     1     260.231 259.350 247.444  1.00  0.00    -0.550 OA
ENDBRANCH  11  12
ENDBRANCH  10  11
ENDBRANCH   9  10
ENDBRANCH   8   9
ENDBRANCH   1   8
TORSDOF 9
ENDMDL
MODEL 3
REMARK VINA RESULT:    -4.583      4.477      6.907
REMARK INTER + INTRA:          -7.313
REMARK INTER:                  -6.879
REMARK INTRA:                  -0.434
REMARK UNBOUND:                -0.319
REMARK SMILES O=C([O-])CCCCCCCCC(=O)[O-]
REMARK SMILES IDX 7 1 6 2 5 3 4 4 2 5 1 6 3 7 8 8 9 9 10 10 11 11 12 12 13 13
REMARK SMILES IDX 14 14
REMARK H PARENT
REMARK Flexibility Score: inf
ROOT
ATOM      1  C   UNL     1     256.385 261.134 249.555  1.00  0.00     0.000 C 
ENDROOT
BRANCH   1   2
ATOM      2  C   UNL     1     255.732 260.766 250.895  1.00  0.00     0.000 C 
BRANCH   2   3
ATOM      3  C   UNL     1     255.687 261.977 251.835  1.00  0.00     0.006 C 
BRANCH   3   4
ATOM      4  C   UNL     1     254.286 262.164 252.424  1.00  0.00     0.053 C 
BRANCH   4   5
ATOM      5  C   UNL     1     254.155 261.418 253.713  1.00  0.00     0.041 C 
ATOM      6  O   UNL     1     254.865 261.734 254.703  1.00  0.00    -0.550 OA
ATOM      7  O   UNL     1     253.213 260.404 253.837  1.00  0.00    -0.550 OA
ENDBRANCH   4   5
ENDBRANCH   3   4
ENDBRANCH   2   3
ENDBRANCH   1   2
BRANCH   1   8
ATOM      8  C   UNL     1     255.608 260.595 248.340  1.00  0.00     0.000 C 
BRANCH   8   9
ATOM      9  C   UNL     1     254.110 260.952 248.315  1.00  0.00     0.000 C 
BRANCH   9  10
ATOM     10  C   UNL     1     253.470 260.757 246.933  1.00  0.00     0.006 C 
BRANCH  10  11
ATOM     11  C   UNL     1     251.972 260.467 247.059  1.00  0.00     0.053 C 
BRANCH  11  12
ATOM     12  C   UNL     1     251.706 259.003 246.897  1.00  0.00     0.041 C 
ATOM     13  O   UNL     1     252.660 258.205 246.699  1.00  0.00    -0.550 OA
ATOM     14  O   UNL     1     250.401 258.527 246.916  1.00  0.00    -0.550 OA
ENDBRANCH  11  12
ENDBRANCH  10  11
ENDBRANCH   9  10
ENDBRANCH   8   9
ENDBRANCH   1   8
TORSDOF 9
ENDMDL
MODEL 4
REMARK VINA RESULT:    -4.577      5.043      7.819
REMARK INTER + INTRA:          -7.304
REMARK INTER:                  -7.023
REMARK INTRA:                  -0.282
REMARK UNBOUND:                -0.319
REMARK SMILES O=C([O-])CCCCCCCCC(=O)[O-]
REMARK SMILES IDX 7 1 6 2 5 3 4 4 2 5 1 6 3 7 8 8 9 9 10 10 11 11 12 12 13 13
REMARK SMILES IDX 14 14
REMARK H PARENT
REMARK Flexibility Score: inf
ROOT
ATOM      1  C   UNL     1     255.407 260.876 249.146  1.00  0.00     0.000 C 
ENDROOT
BRANCH   1   2
ATOM      2  C   UNL     1     256.852 261.098 248.677  1.00  0.00     0.000 C 
BRANCH   2   3
ATOM      3  C   UNL     1     256.994 260.811 247.177  1.00  0.00     0.006 C 
BRANCH   3   4
ATOM      4  C   UNL     1     257.629 261.997 246.447  1.00  0.00     0.053 C 
BRANCH   4   5
ATOM      5  C   UNL     1     257.668 261.745 244.974  1.00  0.00     0.041 C 
ATOM      6  O   UNL     1     256.933 260.860 244.462  1.00  0.00    -0.550 OA
ATOM      7  O   UNL     1     258.481 262.521 244.157  1.00  0.00    -0.550 OA
ENDBRANCH   4   5
ENDBRANCH   3   4
ENDBRANCH   2   3
ENDBRANCH   1   2
BRANCH   1   8
ATOM      8  C   UNL     1     255.298 260.635 250.663  1.00  0.00     0.000 C 
BRANCH   8   9
ATOM      9  C   UNL     1     255.597 261.864 251.541  1.00  0.00     0.000 C 
BRANCH   9  10
ATOM     10  C   UNL     1     254.417 262.264 252.437  1.00  0.00     0.006 C 
BRANCH  10  11
ATOM     11  C   UNL     1     254.769 262.091 253.917  1.00  0.00     0.053 C 
BRANCH  11  12
ATOM     12  C   UNL     1     254.154 260.839 254.460  1.00  0.00     0.041 C 
ATOM     13  O   UNL     1     253.133 260.346 253.911  1.00  0.00    -0.550 OA
ATOM     14  O   UNL     1     254.678 260.244 255.600  1.00  0.00    -0.550 OA
ENDBRANCH  11  12
ENDBRANCH  10  11
ENDBRANCH   9  10
ENDBRANCH   8   9
ENDBRANCH   1   8
TORSDOF 9
ENDMDL
MODEL 5
REMARK VINA RESULT:    -4.540      3.676      6.418
REMARK INTER + INTRA:          -7.249
REMARK INTER:                  -6.794
REMARK INTRA:                  -0.455
REMARK UNBOUND:                -0.319
REMARK SMILES O=C([O-])CCCCCCCCC(=O)[O-]
REMARK SMILES IDX 7 1 6 2 5 3 4 4 2 5 1 6 3 7 8 8 9 9 10 10 11 11 12 12 13 13
REMARK SMILES IDX 14 14
REMARK H PARENT
REMARK Flexibility Score: inf
ROOT
ATOM      1  C   UNL     1     254.853 260.742 245.709  1.00  0.00     0.000 C 
ENDROOT
BRANCH   1   2
ATOM      2  C   UNL     1     256.306 261.188 245.924  1.00  0.00     0.000 C 
BRANCH   2   3
ATOM      3  C   UNL     1     257.117 261.068 244.628  1.00  0.00     0.006 C 
BRANCH   3   4
ATOM      4  C   UNL     1     258.617 261.200 244.902  1.00  0.00     0.053 C 
BRANCH   4   5
ATOM      5  C   UNL     1     259.015 262.640 244.959  1.00  0.00     0.041 C 
ATOM      6  O   UNL     1     259.998 262.999 245.658  1.00  0.00    -0.550 OA
ATOM      7  O   UNL     1     258.329 263.582 244.200  1.00  0.00    -0.550 OA
ENDBRANCH   4   5
ENDBRANCH   3   4
ENDBRANCH   2   3
ENDBRANCH   1   2
BRANCH   1   8
ATOM      8  C   UNL     1     254.253 260.036 246.938  1.00  0.00     0.000 C 
BRANCH   8   9
ATOM      9  C   UNL     1     254.280 260.859 248.239  1.00  0.00     0.000 C 
BRANCH   9  10
ATOM     10  C   UNL     1     255.105 260.196 249.352  1.00  0.00     0.006 C 
BRANCH  10  11
ATOM     11  C   UNL     1     255.314 261.156 250.526  1.00  0.00     0.053 C 
BRANCH  11  12
ATOM     12  C   UNL     1     256.714 261.686 250.526  1.00  0.00     0.041 C 
ATOM     13  O   UNL     1     257.062 262.553 251.371  1.00  0.00    -0.550 OA
ATOM     14  O   UNL     1     257.619 261.260 249.562  1.00  0.00    -0.550 OA
ENDBRANCH  11  12
ENDBRANCH  10  11
ENDBRANCH   9  10
ENDBRANCH   8   9
ENDBRANCH   1   8
TORSDOF 9
ENDMDL
MODEL 6
REMARK VINA RESULT:    -4.530      5.118      5.635
REMARK INTER + INTRA:          -7.232
REMARK INTER:                  -6.832
REMARK INTRA:                  -0.400
REMARK UNBOUND:                -0.319
REMARK SMILES O=C([O-])CCCCCCCCC(=O)[O-]
REMARK SMILES IDX 7 1 6 2 5 3 4 4 2 5 1 6 3 7 8 8 9 9 10 10 11 11 12 12 13 13
REMARK SMILES IDX 14 14
REMARK H PARENT
REMARK Flexibility Score: inf
ROOT
ATOM      1  C   UNL     1     255.058 261.096 250.529  1.00  0.00     0.000 C 
ENDROOT
BRANCH   1   2
ATOM      2  C   UNL     1     255.558 261.976 251.683  1.00  0.00     0.000 C 
BRANCH   2   3
ATOM      3  C   UNL     1     254.422 262.297 252.662  1.00  0.00     0.006 C 
BRANCH   3   4
ATOM      4  C   UNL     1     254.822 261.960 254.100  1.00  0.00     0.053 C 
BRANCH   4   5
ATOM      5  C   UNL     1     254.076 260.758 254.583  1.00  0.00     0.041 C 
ATOM      6  O   UNL     1     253.185 260.233 253.864  1.00  0.00    -0.550 OA
ATOM      7  O   UNL     1     254.397 260.185 255.808  1.00  0.00    -0.550 OA
ENDBRANCH   4   5
ENDBRANCH   3   4
ENDBRANCH   2   3
ENDBRANCH   1   2
BRANCH   1   8
ATOM      8  C   UNL     1     256.157 260.775 249.499  1.00  0.00     0.000 C 
BRANCH   8   9
ATOM      9  C   UNL     1     257.414 261.660 249.590  1.00  0.00     0.000 C 
BRANCH   9  10
ATOM     10  C   UNL     1     258.170 261.769 248.259  1.00  0.00     0.006 C 
BRANCH  10  11
ATOM     11  C   UNL     1     257.320 261.240 247.100  1.00  0.00     0.053 C 
BRANCH  11  12
ATOM     12  C   UNL     1     258.061 261.366 245.806  1.00  0.00     0.041 C 
ATOM     13  O   UNL     1     257.473 261.144 244.715  1.00  0.00    -0.550 OA
ATOM     14  O   UNL     1     259.414 261.680 245.808  1.00  0.00    -0.550 OA
ENDBRANCH  11  12
ENDBRANCH  10  11
ENDBRANCH   9  10
ENDBRANCH   8   9
ENDBRANCH   1   8
TORSDOF 9
ENDMDL
MODEL 7
REMARK VINA RESULT:    -4.510      4.470      5.121
REMARK INTER + INTRA:          -7.202
REMARK INTER:                  -6.740
REMARK INTRA:                  -0.462
REMARK UNBOUND:                -0.319
REMARK SMILES O=C([O-])CCCCCCCCC(=O)[O-]
REMARK SMILES IDX 7 1 6 2 5 3 4 4 2 5 1 6 3 7 8 8 9 9 10 10 11 11 12 12 13 13
REMARK SMILES IDX 14 14
REMARK H PARENT
REMARK Flexibility Score: inf
ROOT
ATOM      1  C   UNL     1     255.306 260.482 249.966  1.00  0.00     0.000 C 
ENDROOT
BRANCH   1   2
ATOM      2  C   UNL     1     256.249 261.589 250.460  1.00  0.00     0.000 C 
BRANCH   2   3
ATOM      3  C   UNL     1     255.994 261.909 251.939  1.00  0.00     0.006 C 
BRANCH   3   4
ATOM      4  C   UNL     1     254.494 262.005 252.231  1.00  0.00     0.053 C 
BRANCH   4   5
ATOM      5  C   UNL     1     254.185 261.436 253.578  1.00  0.00     0.041 C 
ATOM      6  O   UNL     1     254.615 262.001 254.619  1.00  0.00    -0.550 OA
ATOM      7  O   UNL     1     253.380 260.309 253.689  1.00  0.00    -0.550 OA
ENDBRANCH   4   5
ENDBRANCH   3   4
ENDBRANCH   2   3
ENDBRANCH   1   2
BRANCH   1   8
ATOM      8  C   UNL     1     254.594 260.844 248.650  1.00  0.00     0.000 C 
BRANCH   8   9
ATOM      9  C   UNL     1     255.047 260.036 247.421  1.00  0.00     0.000 C 
BRANCH   9  10
ATOM     10  C   UNL     1     255.743 260.898 246.358  1.00  0.00     0.006 C 
BRANCH  10  11
ATOM     11  C   UNL     1     257.168 261.256 246.788  1.00  0.00     0.053 C 
BRANCH  11  12
ATOM     12  C   UNL     1     258.078 261.302 245.601  1.00  0.00     0.041 C 
ATOM     13  O   UNL     1     259.320 261.437 245.761  1.00  0.00    -0.550 OA
ATOM     14  O   UNL     1     257.550 261.245 244.318  1.00  0.00    -0.550 OA
ENDBRANCH  11  12
ENDBRANCH  10  11
ENDBRANCH   9  10
ENDBRANCH   8   9
ENDBRANCH   1   8
TORSDOF 9
ENDMDL
MODEL 8
REMARK VINA RESULT:    -4.491      3.200      3.720
REMARK INTER + INTRA:          -7.174
REMARK INTER:                  -6.507
REMARK INTRA:                  -0.666
REMARK UNBOUND:                -0.319
REMARK SMILES O=C([O-])CCCCCCCCC(=O)[O-]
REMARK SMILES IDX 7 1 6 2 5 3 4 4 2 5 1 6 3 7 8 8 9 9 10 10 11 11 12 12 13 13
REMARK SMILES IDX 14 14
REMARK H PARENT
REMARK Flexibility Score: inf
ROOT
ATOM      1  C   UNL     1     254.624 259.869 246.154  1.00  0.00     0.000 C 
ENDROOT
BRANCH   1   2
ATOM      2  C   UNL     1     253.737 260.869 246.909  1.00  0.00     0.000 C 
BRANCH   2   3
ATOM      3  C   UNL     1     254.134 260.949 248.388  1.00  0.00     0.006 C 
BRANCH   3   4
ATOM      4  C   UNL     1     255.278 259.982 248.705  1.00  0.00     0.053 C 
BRANCH   4   5
ATOM      5  C   UNL     1     256.373 260.687 249.440  1.00  0.00     0.041 C 
ATOM      6  O   UNL     1     257.427 261.022 248.839  1.00  0.00    -0.550 OA
ATOM      7  O   UNL     1     256.209 261.019 250.780  1.00  0.00    -0.550 OA
ENDBRANCH   4   5
ENDBRANCH   3   4
ENDBRANCH   2   3
ENDBRANCH   1   2
BRANCH   1   8
ATOM      8  C   UNL     1     255.430 260.520 245.016  1.00  0.00     0.000 C 
BRANCH   8   9
ATOM      9  C   UNL     1     256.584 261.431 245.473  1.00  0.00     0.000 C 
BRANCH   9  10
ATOM     10  C   UNL     1     257.853 261.264 244.626  1.00  0.00     0.006 C 
BRANCH  10  11
ATOM     11  C   UNL     1     258.983 262.155 245.149  1.00  0.00     0.053 C 
BRANCH  11  12
ATOM     12  C   UNL     1     259.769 261.440 246.203  1.00  0.00     0.041 C 
ATOM     13  O   UNL     1     259.982 260.203 246.104  1.00  0.00    -0.550 OA
ATOM     14  O   UNL     1     260.223 262.131 247.320  1.00  0.00    -0.550 OA
ENDBRANCH  11  12
ENDBRANCH  10  11
ENDBRANCH   9  10
ENDBRANCH   8   9
ENDBRANCH   1   8
TORSDOF 9
ENDMDL
MODEL 9
REMARK VINA RESULT:    -4.482      3.143      6.281
REMARK INTER + INTRA:          -7.160
REMARK INTER:                  -6.508
REMARK INTRA:                  -0.652
REMARK UNBOUND:                -0.319
REMARK SMILES O=C([O-])CCCCCCCCC(=O)[O-]
REMARK SMILES IDX 7 1 6 2 5 3 4 4 2 5 1 6 3 7 8 8 9 9 10 10 11 11 12 12 13 13
REMARK SMILES IDX 14 14
REMARK H PARENT
REMARK Flexibility Score: inf
ROOT
ATOM      1  C   UNL     1     254.356 260.096 245.590  1.00  0.00     0.000 C 
ENDROOT
BRANCH   1   2
ATOM      2  C   UNL     1     255.513 260.472 244.653  1.00  0.00     0.000 C 
BRANCH   2   3
ATOM      3  C   UNL     1     256.601 261.247 245.407  1.00  0.00     0.006 C 
BRANCH   3   4
ATOM      4  C   UNL     1     257.920 261.240 244.630  1.00  0.00     0.053 C 
BRANCH   4   5
ATOM      5  C   UNL     1     259.017 261.836 245.454  1.00  0.00     0.041 C 
ATOM      6  O   UNL     1     259.144 263.086 245.531  1.00  0.00    -0.550 OA
ATOM      7  O   UNL     1     259.869 261.011 246.178  1.00  0.00    -0.550 OA
ENDBRANCH   4   5
ENDBRANCH   3   4
ENDBRANCH   2   3
ENDBRANCH   1   2
BRANCH   1   8
ATOM      8  C   UNL     1     253.930 261.253 246.513  1.00  0.00     0.000 C 
BRANCH   8   9
ATOM      9  C   UNL     1     253.795 260.882 248.001  1.00  0.00     0.000 C 
BRANCH   9  10
ATOM     10  C   UNL     1     254.968 260.038 248.520  1.00  0.00     0.006 C 
BRANCH  10  11
ATOM     11  C   UNL     1     256.079 260.930 249.081  1.00  0.00     0.053 C 
BRANCH  11  12
ATOM     12  C   UNL     1     256.025 260.955 250.577  1.00  0.00     0.041 C 
ATOM     13  O   UNL     1     255.661 259.932 251.214  1.00  0.00    -0.550 OA
ATOM     14  O   UNL     1     256.329 262.123 251.264  1.00  0.00    -0.550 OA
ENDBRANCH  11  12
ENDBRANCH  10  11
ENDBRANCH   9  10
ENDBRANCH   8   9
ENDBRANCH   1   8
TORSDOF 9
ENDMDL
