MODEL 1
REMARK VINA RESULT:    31.119      0.000      0.000
REMARK INTER + INTRA:          37.465
REMARK INTER:                  37.486
REMARK INTRA:                  -0.021
REMARK UNBOUND:                -0.021
REMARK SMILES O=c1ccn([C@H]2O[C@H](CO)[C@H](O)[C@H]2O)c(=O)[nH]1
REMARK SMILES IDX 6 1 13 2 11 3 8 4 7 5 5 6 3 7 4 8 2 9 17 10 1 11 15 12 16 14
REMARK SMILES IDX 14 15 12 17 9 19 10 20
REMARK H PARENT 17 13 14 16 12 18 10 21
REMARK Flexibility Score: inf
ROOT
ATOM      1  C   UNL     1       5.400  32.509  19.077  1.00  0.00     0.255 C 
ATOM      2  C   UNL     1       6.055  31.166  19.405  1.00  0.00     0.196 C 
ATOM      3  C   UNL     1       7.479  31.575  19.689  1.00  0.00     0.179 C 
ATOM      4  C   UNL     1       7.298  32.995  20.239  1.00  0.00     0.178 C 
ATOM      5  O   UNL     1       6.103  33.547  19.728  1.00  0.00    -0.347 OA
ENDROOT
BRANCH   1   6
ATOM      6  N   UNL     1       3.960  32.530  19.421  1.00  0.00    -0.271 N 
ATOM      7  C   UNL     1       2.275  32.647  21.124  1.00  0.00     0.090 A 
ATOM      8  C   UNL     1       3.612  32.606  20.742  1.00  0.00     0.099 A 
ATOM      9  C   UNL     1       1.297  32.622  20.136  1.00  0.00     0.253 A 
ATOM     10  N   UNL     1       1.661  32.566  18.829  1.00  0.00    -0.274 N 
ATOM     11  O   UNL     1       0.078  32.657  20.454  1.00  0.00    -0.269 OA
ATOM     12  C   UNL     1       2.973  32.529  18.464  1.00  0.00     0.330 A 
ATOM     13  H   UNL     1       0.920  32.558  18.091  1.00  0.00     0.175 HD
ATOM     14  O   UNL     1       3.263  32.502  17.236  1.00  0.00    -0.248 OA
ENDBRANCH   1   6
BRANCH   2  15
ATOM     15  O   UNL     1       5.480  30.588  20.550  1.00  0.00    -0.386 OA
ATOM     16  H   UNL     1       4.660  31.111  20.749  1.00  0.00     0.211 HD
ENDBRANCH   2  15
BRANCH   3  17
ATOM     17  O   UNL     1       8.223  31.576  18.497  1.00  0.00    -0.387 OA
ATOM     18  H   UNL     1       7.736  32.159  17.859  1.00  0.00     0.211 HD
ENDBRANCH   3  17
BRANCH   4  19
ATOM     19  C   UNL     1       8.482  33.934  19.969  1.00  0.00     0.191 C 
BRANCH  19  20
ATOM     20  O   UNL     1       8.362  34.526  18.703  1.00  0.00    -0.394 OA
ATOM     21  H   UNL     1       9.276  34.539  18.318  1.00  0.00     0.210 HD
ENDBRANCH  19  20
ENDBRANCH   4  19
TORSDOF 5
ENDMDL
MODEL 2
REMARK VINA RESULT:    33.906      1.258      2.203
REMARK INTER + INTRA:          40.823
REMARK INTER:                  40.658
REMARK INTRA:                   0.165
REMARK UNBOUND:                -0.021
REMARK SMILES O=c1ccn([C@H]2O[C@H](CO)[C@H](O)[C@H]2O)c(=O)[nH]1
REMARK SMILES IDX 6 1 13 2 11 3 8 4 7 5 5 6 3 7 4 8 2 9 17 10 1 11 15 12 16 14
REMARK SMILES IDX 14 15 12 17 9 19 10 20
REMARK H PARENT 17 13 14 16 12 18 10 21
REMARK Flexibility Score: inf
ROOT
ATOM      1  C   UNL     1       4.731  32.612  20.119  1.00  0.00     0.255 C 
ATOM      2  C   UNL     1       5.302  33.982  19.747  1.00  0.00     0.196 C 
ATOM      3  C   UNL     1       6.677  33.619  19.243  1.00  0.00     0.179 C 
ATOM      4  C   UNL     1       6.447  32.214  18.674  1.00  0.00     0.178 C 
ATOM      5  O   UNL     1       5.352  31.615  19.335  1.00  0.00    -0.347 OA
ENDROOT
BRANCH   1   6
ATOM      6  N   UNL     1       3.257  32.564  19.989  1.00  0.00    -0.271 N 
ATOM      7  C   UNL     1       1.114  32.665  21.062  1.00  0.00     0.090 A 
ATOM      8  C   UNL     1       2.504  32.685  21.125  1.00  0.00     0.099 A 
ATOM      9  C   UNL     1       0.504  32.532  19.821  1.00  0.00     0.253 A 
ATOM     10  N   UNL     1       1.266  32.433  18.701  1.00  0.00    -0.274 N 
ATOM     11  O   UNL     1      -0.753  32.510  19.734  1.00  0.00    -0.269 OA
ATOM     12  C   UNL     1       2.627  32.456  18.771  1.00  0.00     0.330 A 
ATOM     13  H   UNL     1       0.800  32.344  17.770  1.00  0.00     0.175 HD
ATOM     14  O   UNL     1       3.294  32.385  17.702  1.00  0.00    -0.248 OA
ENDBRANCH   1   6
BRANCH   2  15
ATOM     15  O   UNL     1       4.552  34.582  18.720  1.00  0.00    -0.386 OA
ATOM     16  H   UNL     1       5.054  34.427  17.878  1.00  0.00     0.211 HD
ENDBRANCH   2  15
BRANCH   3  17
ATOM     17  O   UNL     1       7.589  33.599  20.312  1.00  0.00    -0.387 OA
ATOM     18  H   UNL     1       7.829  34.544  20.497  1.00  0.00     0.211 HD
ENDBRANCH   3  17
BRANCH   4  19
ATOM     19  C   UNL     1       7.677  31.298  18.734  1.00  0.00     0.191 C 
BRANCH  19  20
ATOM     20  O   UNL     1       7.864  30.809  20.035  1.00  0.00    -0.394 OA
ATOM     21  H   UNL     1       7.673  29.836  19.993  1.00  0.00     0.210 HD
ENDBRANCH  19  20
ENDBRANCH   4  19
TORSDOF 5
ENDMDL
