MODEL 1
REMARK VINA RESULT:    -6.856      0.000      0.000
REMARK INTER + INTRA:         -11.423
REMARK INTER:                 -10.062
REMARK INTRA:                  -1.361
REMARK UNBOUND:                -1.361
REMARK SMILES O=c1c(OC[C@H]2O[C@H](O)[C@@H](O)[C@H](O)[C@H]2O)c(-c2ccc(O)c(O)c2)oc2cc(O)cc(O)c12
REMARK SMILES IDX 4 1 3 2 16 3 25 4 2 5 26 6 1 7 33 8 27 9 31 10 28 11 30 12
REMARK SMILES IDX 17 13 18 14 19 15 20 16 24 17 22 18 21 19 23 21 32 23 29 25
REMARK SMILES IDX 5 27 6 28 14 29 7 30 12 31 8 32 10 33 15 34 13 36 9 38 11 40
REMARK H PARENT 21 20 23 22 32 24 29 26 15 35 13 37 9 39 11 41
REMARK Flexibility Score: inf
ROOT
ATOM      1  O   UNL     1      -9.100  32.498   7.465  1.00  0.00    -0.483 OA
ENDROOT
BRANCH   1   2
ATOM      2  C   UNL     1      -9.591  33.811   7.485  1.00  0.00     0.211 A 
ATOM      3  C   UNL     1     -10.668  34.198   8.311  1.00  0.00     0.180 A 
ATOM      4  O   UNL     1     -11.164  35.428   8.211  1.00  0.00    -0.452 OA
ATOM      5  C   UNL     1      -9.012  34.763   6.637  1.00  0.00     0.239 A 
ATOM      6  C   UNL     1     -10.670  36.351   7.392  1.00  0.00     0.146 A 
ATOM      7  O   UNL     1      -8.023  34.433   5.928  1.00  0.00    -0.285 OA
ATOM      8  C   UNL     1      -9.555  36.062   6.572  1.00  0.00     0.111 A 
ATOM      9  C   UNL     1     -11.261  37.617   7.357  1.00  0.00     0.094 A 
ATOM     10  C   UNL     1      -9.045  37.070   5.720  1.00  0.00     0.134 A 
ATOM     11  C   UNL     1     -10.757  38.609   6.515  1.00  0.00     0.123 A 
ATOM     12  C   UNL     1      -9.651  38.336   5.702  1.00  0.00     0.093 A 
BRANCH   3  13
ATOM     13  C   UNL     1     -11.270  33.287   9.309  1.00  0.00     0.025 A 
ATOM     14  C   UNL     1     -12.578  32.800   9.152  1.00  0.00     0.016 A 
ATOM     15  C   UNL     1     -13.123  31.926  10.096  1.00  0.00     0.051 A 
ATOM     16  C   UNL     1     -12.368  31.515  11.198  1.00  0.00     0.157 A 
ATOM     17  C   UNL     1     -10.505  32.857  10.405  1.00  0.00     0.062 A 
ATOM     18  C   UNL     1     -11.051  31.979  11.354  1.00  0.00     0.158 A 
BRANCH  16  19
ATOM     19  O   UNL     1     -12.939  30.641  12.123  1.00  0.00    -0.504 OA
ATOM     20  H   UNL     1     -13.040  30.884  13.101  1.00  0.00     0.293 HD
ENDBRANCH  16  19
BRANCH  18  21
ATOM     21  O   UNL     1     -10.290  31.568  12.446  1.00  0.00    -0.504 OA
ATOM     22  H   UNL     1      -9.326  31.858  12.561  1.00  0.00     0.293 HD
ENDBRANCH  18  21
ENDBRANCH   3  13
BRANCH  10  23
ATOM     23  O   UNL     1      -7.948  36.826   4.894  1.00  0.00    -0.507 OA
ATOM     24  H   UNL     1      -7.291  36.079   5.086  1.00  0.00     0.293 HD
ENDBRANCH  10  23
BRANCH  11  25
ATOM     25  O   UNL     1     -11.360  39.864   6.496  1.00  0.00    -0.508 OA
ATOM     26  H   UNL     1     -10.945  40.659   6.969  1.00  0.00     0.293 HD
ENDBRANCH  11  25
ENDBRANCH   1   2
BRANCH   1  27
ATOM     27  C   UNL     1      -9.864  31.394   6.973  1.00  0.00     0.265 C 
BRANCH  27  28
ATOM     28  C   UNL     1      -8.940  30.301   6.415  1.00  0.00     0.190 C 
ATOM     29  C   UNL     1      -7.719  30.919   5.705  1.00  0.00     0.178 C 
ATOM     30  O   UNL     1      -9.679  29.490   5.519  1.00  0.00    -0.340 OA
ATOM     31  C   UNL     1      -6.796  29.796   5.185  1.00  0.00     0.179 C 
ATOM     32  C   UNL     1      -8.942  28.345   5.123  1.00  0.00     0.279 C 
ATOM     33  C   UNL     1      -7.590  28.703   4.431  1.00  0.00     0.201 C 
BRANCH  29  34
ATOM     34  O   UNL     1      -8.142  31.735   4.643  1.00  0.00    -0.387 OA
ATOM     35  H   UNL     1      -8.938  32.234   4.963  1.00  0.00     0.211 HD
ENDBRANCH  29  34
BRANCH  31  36
ATOM     36  O   UNL     1      -6.101  29.213   6.259  1.00  0.00    -0.387 OA
ATOM     37  H   UNL     1      -6.707  29.241   7.046  1.00  0.00     0.211 HD
ENDBRANCH  31  36
BRANCH  32  38
ATOM     38  O   UNL     1      -8.810  27.430   6.187  1.00  0.00    -0.366 OA
ATOM     39  H   UNL     1      -7.980  26.905   6.062  1.00  0.00     0.213 HD
ENDBRANCH  32  38
BRANCH  33  40
ATOM     40  O   UNL     1      -7.802  29.086   3.093  1.00  0.00    -0.385 OA
ATOM     41  H   UNL     1      -7.549  30.040   3.003  1.00  0.00     0.211 HD
ENDBRANCH  33  40
ENDBRANCH  27  28
ENDBRANCH   1  27
TORSDOF 12
ENDMDL
MODEL 2
REMARK VINA RESULT:    -6.589      1.282      1.642
REMARK INTER + INTRA:         -11.031
REMARK INTER:                  -9.826
REMARK INTRA:                  -1.204
REMARK UNBOUND:                -1.361
REMARK SMILES O=c1c(OC[C@H]2O[C@H](O)[C@@H](O)[C@H](O)[C@H]2O)c(-c2ccc(O)c(O)c2)oc2cc(O)cc(O)c12
REMARK SMILES IDX 4 1 3 2 16 3 25 4 2 5 26 6 1 7 33 8 27 9 31 10 28 11 30 12
REMARK SMILES IDX 17 13 18 14 19 15 20 16 24 17 22 18 21 19 23 21 32 23 29 25
REMARK SMILES IDX 5 27 6 28 14 29 7 30 12 31 8 32 10 33 15 34 13 36 9 38 11 40
REMARK H PARENT 21 20 23 22 32 24 29 26 15 35 13 37 9 39 11 41
REMARK Flexibility Score: inf
ROOT
ATOM      1  O   UNL     1      -9.067  32.762   6.528  1.00  0.00    -0.483 OA
ENDROOT
BRANCH   1   2
ATOM      2  C   UNL     1      -9.506  34.012   6.983  1.00  0.00     0.211 A 
ATOM      3  C   UNL     1     -10.491  34.143   7.986  1.00  0.00     0.180 A 
ATOM      4  O   UNL     1     -10.950  35.350   8.304  1.00  0.00    -0.452 OA
ATOM      5  C   UNL     1      -8.972  35.170   6.406  1.00  0.00     0.239 A 
ATOM      6  C   UNL     1     -10.499  36.472   7.753  1.00  0.00     0.146 A 
ATOM      7  O   UNL     1      -8.062  35.060   5.539  1.00  0.00    -0.285 OA
ATOM      8  C   UNL     1      -9.472  36.433   6.781  1.00  0.00     0.111 A 
ATOM      9  C   UNL     1     -11.045  37.695   8.151  1.00  0.00     0.094 A 
ATOM     10  C   UNL     1      -9.004  37.646   6.223  1.00  0.00     0.134 A 
ATOM     11  C   UNL     1     -10.582  38.890   7.598  1.00  0.00     0.123 A 
ATOM     12  C   UNL     1      -9.563  38.864   6.639  1.00  0.00     0.093 A 
BRANCH   3  13
ATOM     13  C   UNL     1     -11.034  32.980   8.721  1.00  0.00     0.025 A 
ATOM     14  C   UNL     1     -10.825  32.831  10.103  1.00  0.00     0.016 A 
ATOM     15  C   UNL     1     -11.361  31.736  10.783  1.00  0.00     0.051 A 
ATOM     16  C   UNL     1     -12.123  30.783  10.101  1.00  0.00     0.157 A 
ATOM     17  C   UNL     1     -11.816  32.033   8.041  1.00  0.00     0.062 A 
ATOM     18  C   UNL     1     -12.355  30.932   8.723  1.00  0.00     0.158 A 
BRANCH  16  19
ATOM     19  O   UNL     1     -12.645  29.699  10.807  1.00  0.00    -0.504 OA
ATOM     20  H   UNL     1     -13.638  29.500  10.831  1.00  0.00     0.293 HD
ENDBRANCH  16  19
BRANCH  18  21
ATOM     21  O   UNL     1     -13.119  29.989   8.038  1.00  0.00    -0.504 OA
ATOM     22  H   UNL     1     -12.847  29.649   7.122  1.00  0.00     0.293 HD
ENDBRANCH  18  21
ENDBRANCH   3  13
BRANCH  10  23
ATOM     23  O   UNL     1      -7.994  37.652   5.260  1.00  0.00    -0.507 OA
ATOM     24  H   UNL     1      -8.053  37.088   4.421  1.00  0.00     0.293 HD
ENDBRANCH  10  23
BRANCH  11  25
ATOM     25  O   UNL     1     -11.139  40.098   8.011  1.00  0.00    -0.508 OA
ATOM     26  H   UNL     1     -10.967  40.960   7.507  1.00  0.00     0.293 HD
ENDBRANCH  11  25
ENDBRANCH   1   2
BRANCH   1  27
ATOM     27  C   UNL     1      -7.944  32.082   7.095  1.00  0.00     0.265 C 
BRANCH  27  28
ATOM     28  C   UNL     1      -7.833  30.657   6.535  1.00  0.00     0.190 C 
ATOM     29  C   UNL     1      -7.366  30.674   5.066  1.00  0.00     0.178 C 
ATOM     30  O   UNL     1      -9.094  30.021   6.648  1.00  0.00    -0.340 OA
ATOM     31  C   UNL     1      -7.235  29.227   4.543  1.00  0.00     0.179 C 
ATOM     32  C   UNL     1      -9.013  28.640   6.335  1.00  0.00     0.279 C 
ATOM     33  C   UNL     1      -8.479  28.376   4.893  1.00  0.00     0.201 C 
BRANCH  29  34
ATOM     34  O   UNL     1      -8.279  31.397   4.279  1.00  0.00    -0.387 OA
ATOM     35  H   UNL     1      -8.845  30.730   3.810  1.00  0.00     0.211 HD
ENDBRANCH  29  34
BRANCH  31  36
ATOM     36  O   UNL     1      -6.087  28.626   5.088  1.00  0.00    -0.387 OA
ATOM     37  H   UNL     1      -6.136  28.747   6.073  1.00  0.00     0.211 HD
ENDBRANCH  31  36
BRANCH  32  38
ATOM     38  O   UNL     1      -8.320  27.931   7.337  1.00  0.00    -0.366 OA
ATOM     39  H   UNL     1      -7.375  28.228   7.349  1.00  0.00     0.213 HD
ENDBRANCH  32  38
BRANCH  33  40
ATOM     40  O   UNL     1      -9.495  28.578   3.941  1.00  0.00    -0.385 OA
ATOM     41  H   UNL     1     -10.290  28.938   4.412  1.00  0.00     0.211 HD
ENDBRANCH  33  40
ENDBRANCH  27  28
ENDBRANCH   1  27
TORSDOF 12
ENDMDL
MODEL 3
REMARK VINA RESULT:    -6.525      1.299      2.258
REMARK INTER + INTRA:         -10.937
REMARK INTER:                 -10.118
REMARK INTRA:                  -0.819
REMARK UNBOUND:                -1.361
REMARK SMILES O=c1c(OC[C@H]2O[C@H](O)[C@@H](O)[C@H](O)[C@H]2O)c(-c2ccc(O)c(O)c2)oc2cc(O)cc(O)c12
REMARK SMILES IDX 4 1 3 2 16 3 25 4 2 5 26 6 1 7 33 8 27 9 31 10 28 11 30 12
REMARK SMILES IDX 17 13 18 14 19 15 20 16 24 17 22 18 21 19 23 21 32 23 29 25
REMARK SMILES IDX 5 27 6 28 14 29 7 30 12 31 8 32 10 33 15 34 13 36 9 38 11 40
REMARK H PARENT 21 20 23 22 32 24 29 26 15 35 13 37 9 39 11 41
REMARK Flexibility Score: inf
ROOT
ATOM      1  O   UNL     1      -8.821  32.271   6.356  1.00  0.00    -0.483 OA
ENDROOT
BRANCH   1   2
ATOM      2  C   UNL     1      -9.248  33.531   6.797  1.00  0.00     0.211 A 
ATOM      3  C   UNL     1     -10.195  33.684   7.832  1.00  0.00     0.180 A 
ATOM      4  O   UNL     1     -10.646  34.897   8.138  1.00  0.00    -0.452 OA
ATOM      5  C   UNL     1      -8.740  34.676   6.171  1.00  0.00     0.239 A 
ATOM      6  C   UNL     1     -10.220  36.006   7.543  1.00  0.00     0.146 A 
ATOM      7  O   UNL     1      -7.863  34.548   5.274  1.00  0.00    -0.285 OA
ATOM      8  C   UNL     1      -9.230  35.946   6.535  1.00  0.00     0.111 A 
ATOM      9  C   UNL     1     -10.756  37.237   7.932  1.00  0.00     0.094 A 
ATOM     10  C   UNL     1      -8.789  37.147   5.929  1.00  0.00     0.134 A 
ATOM     11  C   UNL     1     -10.319  38.419   7.333  1.00  0.00     0.123 A 
ATOM     12  C   UNL     1      -9.337  38.373   6.337  1.00  0.00     0.093 A 
BRANCH   3  13
ATOM     13  C   UNL     1     -10.705  32.537   8.616  1.00  0.00     0.025 A 
ATOM     14  C   UNL     1     -10.900  32.635  10.004  1.00  0.00     0.016 A 
ATOM     15  C   UNL     1     -11.400  31.547  10.723  1.00  0.00     0.051 A 
ATOM     16  C   UNL     1     -11.725  30.355  10.069  1.00  0.00     0.157 A 
ATOM     17  C   UNL     1     -11.051  31.346   7.957  1.00  0.00     0.062 A 
ATOM     18  C   UNL     1     -11.553  30.253   8.679  1.00  0.00     0.158 A 
BRANCH  16  19
ATOM     19  O   UNL     1     -12.222  29.286  10.815  1.00  0.00    -0.504 OA
ATOM     20  H   UNL     1     -12.139  29.248  11.823  1.00  0.00     0.293 HD
ENDBRANCH  16  19
BRANCH  18  21
ATOM     21  O   UNL     1     -11.881  29.070   8.019  1.00  0.00    -0.504 OA
ATOM     22  H   UNL     1     -12.815  28.680   8.061  1.00  0.00     0.293 HD
ENDBRANCH  18  21
ENDBRANCH   3  13
BRANCH  10  23
ATOM     23  O   UNL     1      -7.816  37.133   4.930  1.00  0.00    -0.507 OA
ATOM     24  H   UNL     1      -7.547  36.276   4.459  1.00  0.00     0.293 HD
ENDBRANCH  10  23
BRANCH  11  25
ATOM     25  O   UNL     1     -10.865  39.635   7.737  1.00  0.00    -0.508 OA
ATOM     26  H   UNL     1     -10.777  39.965   8.691  1.00  0.00     0.293 HD
ENDBRANCH  11  25
ENDBRANCH   1   2
BRANCH   1  27
ATOM     27  C   UNL     1      -7.536  31.734   6.676  1.00  0.00     0.265 C 
BRANCH  27  28
ATOM     28  C   UNL     1      -7.170  30.594   5.715  1.00  0.00     0.190 C 
ATOM     29  C   UNL     1      -8.426  29.813   5.279  1.00  0.00     0.178 C 
ATOM     30  O   UNL     1      -6.246  29.732   6.356  1.00  0.00    -0.340 OA
ATOM     31  C   UNL     1      -8.029  28.696   4.290  1.00  0.00     0.179 C 
ATOM     32  C   UNL     1      -5.715  28.773   5.456  1.00  0.00     0.279 C 
ATOM     33  C   UNL     1      -6.816  27.882   4.801  1.00  0.00     0.201 C 
BRANCH  29  34
ATOM     34  O   UNL     1      -9.066  29.264   6.403  1.00  0.00    -0.387 OA
ATOM     35  H   UNL     1      -9.135  28.287   6.247  1.00  0.00     0.211 HD
ENDBRANCH  29  34
BRANCH  31  36
ATOM     36  O   UNL     1      -7.723  29.255   3.037  1.00  0.00    -0.387 OA
ATOM     37  H   UNL     1      -6.858  28.862   2.747  1.00  0.00     0.211 HD
ENDBRANCH  31  36
BRANCH  32  38
ATOM     38  O   UNL     1      -4.843  29.374   4.526  1.00  0.00    -0.366 OA
ATOM     39  H   UNL     1      -5.348  30.037   3.990  1.00  0.00     0.213 HD
ENDBRANCH  32  38
BRANCH  33  40
ATOM     40  O   UNL     1      -7.239  26.878   5.692  1.00  0.00    -0.385 OA
ATOM     41  H   UNL     1      -8.120  26.545   5.383  1.00  0.00     0.211 HD
ENDBRANCH  33  40
ENDBRANCH  27  28
ENDBRANCH   1  27
TORSDOF 12
ENDMDL
MODEL 4
REMARK VINA RESULT:    -6.114      2.164      7.083
REMARK INTER + INTRA:         -10.334
REMARK INTER:                  -9.657
REMARK INTRA:                  -0.677
REMARK UNBOUND:                -1.361
REMARK SMILES O=c1c(OC[C@H]2O[C@H](O)[C@@H](O)[C@H](O)[C@H]2O)c(-c2ccc(O)c(O)c2)oc2cc(O)cc(O)c12
REMARK SMILES IDX 4 1 3 2 16 3 25 4 2 5 26 6 1 7 33 8 27 9 31 10 28 11 30 12
REMARK SMILES IDX 17 13 18 14 19 15 20 16 24 17 22 18 21 19 23 21 32 23 29 25
REMARK SMILES IDX 5 27 6 28 14 29 7 30 12 31 8 32 10 33 15 34 13 36 9 38 11 40
REMARK H PARENT 21 20 23 22 32 24 29 26 15 35 13 37 9 39 11 41
REMARK Flexibility Score: inf
ROOT
ATOM      1  O   UNL     1      -8.263  34.253   6.775  1.00  0.00    -0.483 OA
ENDROOT
BRANCH   1   2
ATOM      2  C   UNL     1      -8.868  32.993   6.668  1.00  0.00     0.211 A 
ATOM      3  C   UNL     1     -10.086  32.687   7.313  1.00  0.00     0.180 A 
ATOM      4  O   UNL     1     -10.561  31.446   7.268  1.00  0.00    -0.452 OA
ATOM      5  C   UNL     1      -8.231  31.996   5.919  1.00  0.00     0.239 A 
ATOM      6  C   UNL     1      -9.968  30.461   6.601  1.00  0.00     0.146 A 
ATOM      7  O   UNL     1      -7.165  32.276   5.306  1.00  0.00    -0.285 OA
ATOM      8  C   UNL     1      -8.775  30.697   5.880  1.00  0.00     0.111 A 
ATOM      9  C   UNL     1     -10.544  29.187   6.614  1.00  0.00     0.094 A 
ATOM     10  C   UNL     1      -8.175  29.629   5.170  1.00  0.00     0.134 A 
ATOM     11  C   UNL     1      -9.950  28.136   5.913  1.00  0.00     0.123 A 
ATOM     12  C   UNL     1      -8.771  28.359   5.192  1.00  0.00     0.093 A 
BRANCH   3  13
ATOM     13  C   UNL     1     -10.877  33.706   8.038  1.00  0.00     0.025 A 
ATOM     14  C   UNL     1     -12.260  33.838   7.826  1.00  0.00     0.016 A 
ATOM     15  C   UNL     1     -12.993  34.794   8.533  1.00  0.00     0.051 A 
ATOM     16  C   UNL     1     -12.363  35.619   9.469  1.00  0.00     0.157 A 
ATOM     17  C   UNL     1     -10.249  34.521   8.993  1.00  0.00     0.062 A 
ATOM     18  C   UNL     1     -10.985  35.482   9.703  1.00  0.00     0.158 A 
BRANCH  16  19
ATOM     19  O   UNL     1     -13.122  36.564  10.159  1.00  0.00    -0.504 OA
ATOM     20  H   UNL     1     -13.433  37.425   9.726  1.00  0.00     0.293 HD
ENDBRANCH  16  19
BRANCH  18  21
ATOM     21  O   UNL     1     -10.351  36.297  10.640  1.00  0.00    -0.504 OA
ATOM     22  H   UNL     1     -10.824  36.606  11.481  1.00  0.00     0.293 HD
ENDBRANCH  18  21
ENDBRANCH   3  13
BRANCH  10  23
ATOM     23  O   UNL     1      -6.997  29.819   4.448  1.00  0.00    -0.507 OA
ATOM     24  H   UNL     1      -6.918  30.534   3.734  1.00  0.00     0.293 HD
ENDBRANCH  10  23
BRANCH  11  25
ATOM     25  O   UNL     1     -10.540  26.876   5.938  1.00  0.00    -0.508 OA
ATOM     26  H   UNL     1     -10.138  26.092   5.435  1.00  0.00     0.293 HD
ENDBRANCH  11  25
ENDBRANCH   1   2
BRANCH   1  27
ATOM     27  C   UNL     1      -8.282  35.213   5.717  1.00  0.00     0.265 C 
BRANCH  27  28
ATOM     28  C   UNL     1      -8.797  36.568   6.224  1.00  0.00     0.190 C 
ATOM     29  C   UNL     1     -10.338  36.590   6.279  1.00  0.00     0.178 C 
ATOM     30  O   UNL     1      -8.316  37.590   5.370  1.00  0.00    -0.340 OA
ATOM     31  C   UNL     1     -10.821  37.952   6.822  1.00  0.00     0.179 C 
ATOM     32  C   UNL     1      -8.587  38.881   5.894  1.00  0.00     0.279 C 
ATOM     33  C   UNL     1     -10.109  39.134   6.122  1.00  0.00     0.201 C 
BRANCH  29  34
ATOM     34  O   UNL     1     -10.868  36.358   4.998  1.00  0.00    -0.387 OA
ATOM     35  H   UNL     1     -10.163  35.898   4.473  1.00  0.00     0.211 HD
ENDBRANCH  29  34
BRANCH  31  36
ATOM     36  O   UNL     1     -10.593  38.021   8.207  1.00  0.00    -0.387 OA
ATOM     37  H   UNL     1     -11.144  38.771   8.555  1.00  0.00     0.211 HD
ENDBRANCH  31  36
BRANCH  32  38
ATOM     38  O   UNL     1      -7.790  39.148   7.025  1.00  0.00    -0.366 OA
ATOM     39  H   UNL     1      -8.317  39.681   7.673  1.00  0.00     0.213 HD
ENDBRANCH  32  38
BRANCH  33  40
ATOM     40  O   UNL     1     -10.750  39.443   4.908  1.00  0.00    -0.385 OA
ATOM     41  H   UNL     1     -10.166  39.140   4.166  1.00  0.00     0.211 HD
ENDBRANCH  33  40
ENDBRANCH  27  28
ENDBRANCH   1  27
TORSDOF 12
ENDMDL
MODEL 5
REMARK VINA RESULT:    -6.050      2.005      5.087
REMARK INTER + INTRA:         -10.240
REMARK INTER:                  -8.890
REMARK INTRA:                  -1.351
REMARK UNBOUND:                -1.361
REMARK SMILES O=c1c(OC[C@H]2O[C@H](O)[C@@H](O)[C@H](O)[C@H]2O)c(-c2ccc(O)c(O)c2)oc2cc(O)cc(O)c12
REMARK SMILES IDX 4 1 3 2 16 3 25 4 2 5 26 6 1 7 33 8 27 9 31 10 28 11 30 12
REMARK SMILES IDX 17 13 18 14 19 15 20 16 24 17 22 18 21 19 23 21 32 23 29 25
REMARK SMILES IDX 5 27 6 28 14 29 7 30 12 31 8 32 10 33 15 34 13 36 9 38 11 40
REMARK H PARENT 21 20 23 22 32 24 29 26 15 35 13 37 9 39 11 41
REMARK Flexibility Score: inf
ROOT
ATOM      1  O   UNL     1     -10.197  31.906   7.998  1.00  0.00    -0.483 OA
ENDROOT
BRANCH   1   2
ATOM      2  C   UNL     1      -9.852  33.151   7.454  1.00  0.00     0.211 A 
ATOM      3  C   UNL     1      -8.724  33.321   6.623  1.00  0.00     0.180 A 
ATOM      4  O   UNL     1      -8.380  34.541   6.222  1.00  0.00    -0.452 OA
ATOM      5  C   UNL     1     -10.634  34.268   7.769  1.00  0.00     0.239 A 
ATOM      6  C   UNL     1      -9.072  35.633   6.529  1.00  0.00     0.146 A 
ATOM      7  O   UNL     1     -11.666  34.115   8.478  1.00  0.00    -0.285 OA
ATOM      8  C   UNL     1     -10.247  35.543   7.311  1.00  0.00     0.111 A 
ATOM      9  C   UNL     1      -8.629  36.874   6.063  1.00  0.00     0.094 A 
ATOM     10  C   UNL     1     -10.968  36.724   7.611  1.00  0.00     0.134 A 
ATOM     11  C   UNL     1      -9.342  38.036   6.360  1.00  0.00     0.123 A 
ATOM     12  C   UNL     1     -10.509  37.959   7.129  1.00  0.00     0.093 A 
BRANCH   3  13
ATOM     13  C   UNL     1      -7.904  32.181   6.157  1.00  0.00     0.025 A 
ATOM     14  C   UNL     1      -6.615  31.956   6.669  1.00  0.00     0.016 A 
ATOM     15  C   UNL     1      -5.862  30.865   6.230  1.00  0.00     0.051 A 
ATOM     16  C   UNL     1      -6.388  29.976   5.288  1.00  0.00     0.157 A 
ATOM     17  C   UNL     1      -8.438  31.276   5.226  1.00  0.00     0.062 A 
ATOM     18  C   UNL     1      -7.683  30.179   4.784  1.00  0.00     0.158 A 
BRANCH  16  19
ATOM     19  O   UNL     1      -5.612  28.894   4.869  1.00  0.00    -0.504 OA
ATOM     20  H   UNL     1      -5.944  28.229   4.182  1.00  0.00     0.293 HD
ENDBRANCH  16  19
BRANCH  18  21
ATOM     21  O   UNL     1      -8.216  29.294   3.849  1.00  0.00    -0.504 OA
ATOM     22  H   UNL     1      -9.031  29.533   3.295  1.00  0.00     0.293 HD
ENDBRANCH  18  21
ENDBRANCH   3  13
BRANCH  10  23
ATOM     23  O   UNL     1     -12.131  36.680   8.380  1.00  0.00    -0.507 OA
ATOM     24  H   UNL     1     -12.163  37.055   9.321  1.00  0.00     0.293 HD
ENDBRANCH  10  23
BRANCH  11  25
ATOM     25  O   UNL     1      -8.885  39.262   5.884  1.00  0.00    -0.508 OA
ATOM     26  H   UNL     1      -9.503  39.912   5.413  1.00  0.00     0.293 HD
ENDBRANCH  11  25
ENDBRANCH   1   2
BRANCH   1  27
ATOM     27  C   UNL     1     -11.383  31.200   7.625  1.00  0.00     0.265 C 
BRANCH  27  28
ATOM     28  C   UNL     1     -11.127  29.686   7.599  1.00  0.00     0.190 C 
ATOM     29  C   UNL     1     -11.781  28.994   8.812  1.00  0.00     0.178 C 
ATOM     30  O   UNL     1      -9.729  29.458   7.590  1.00  0.00    -0.340 OA
ATOM     31  C   UNL     1     -11.533  27.472   8.740  1.00  0.00     0.179 C 
ATOM     32  C   UNL     1      -9.424  28.091   7.365  1.00  0.00     0.279 C 
ATOM     33  C   UNL     1     -10.051  27.146   8.437  1.00  0.00     0.201 C 
BRANCH  29  34
ATOM     34  O   UNL     1     -11.257  29.518  10.005  1.00  0.00    -0.387 OA
ATOM     35  H   UNL     1     -11.292  28.790  10.679  1.00  0.00     0.211 HD
ENDBRANCH  29  34
BRANCH  31  36
ATOM     36  O   UNL     1     -12.350  26.902   7.747  1.00  0.00    -0.387 OA
ATOM     37  H   UNL     1     -13.218  26.682   8.177  1.00  0.00     0.211 HD
ENDBRANCH  31  36
BRANCH  32  38
ATOM     38  O   UNL     1      -9.716  27.716   6.038  1.00  0.00    -0.366 OA
ATOM     39  H   UNL     1     -10.075  26.793   6.033  1.00  0.00     0.213 HD
ENDBRANCH  32  38
BRANCH  33  40
ATOM     40  O   UNL     1      -9.293  27.166   9.622  1.00  0.00    -0.385 OA
ATOM     41  H   UNL     1      -9.384  26.282  10.061  1.00  0.00     0.211 HD
ENDBRANCH  33  40
ENDBRANCH  27  28
ENDBRANCH   1  27
TORSDOF 12
ENDMDL
MODEL 6
REMARK VINA RESULT:    -5.901     15.447     18.777
REMARK INTER + INTRA:         -10.021
REMARK INTER:                  -9.450
REMARK INTRA:                  -0.572
REMARK UNBOUND:                -1.361
REMARK SMILES O=c1c(OC[C@H]2O[C@H](O)[C@@H](O)[C@H](O)[C@H]2O)c(-c2ccc(O)c(O)c2)oc2cc(O)cc(O)c12
REMARK SMILES IDX 4 1 3 2 16 3 25 4 2 5 26 6 1 7 33 8 27 9 31 10 28 11 30 12
REMARK SMILES IDX 17 13 18 14 19 15 20 16 24 17 22 18 21 19 23 21 32 23 29 25
REMARK SMILES IDX 5 27 6 28 14 29 7 30 12 31 8 32 10 33 15 34 13 36 9 38 11 40
REMARK H PARENT 21 20 23 22 32 24 29 26 15 35 13 37 9 39 11 41
REMARK Flexibility Score: inf
ROOT
ATOM      1  O   UNL     1       2.159  46.076   1.063  1.00  0.00    -0.483 OA
ENDROOT
BRANCH   1   2
ATOM      2  C   UNL     1       2.913  44.996   0.585  1.00  0.00     0.211 A 
ATOM      3  C   UNL     1       2.330  43.936  -0.142  1.00  0.00     0.180 A 
ATOM      4  O   UNL     1       3.069  42.883  -0.478  1.00  0.00    -0.452 OA
ATOM      5  C   UNL     1       4.285  44.952   0.861  1.00  0.00     0.239 A 
ATOM      6  C   UNL     1       4.365  42.783  -0.201  1.00  0.00     0.146 A 
ATOM      7  O   UNL     1       4.818  45.916   1.474  1.00  0.00    -0.285 OA
ATOM      8  C   UNL     1       5.039  43.827   0.474  1.00  0.00     0.111 A 
ATOM      9  C   UNL     1       5.059  41.635  -0.594  1.00  0.00     0.094 A 
ATOM     10  C   UNL     1       6.423  43.695   0.742  1.00  0.00     0.134 A 
ATOM     11  C   UNL     1       6.423  41.507  -0.328  1.00  0.00     0.123 A 
ATOM     12  C   UNL     1       7.102  42.536   0.336  1.00  0.00     0.093 A 
BRANCH   3  13
ATOM     13  C   UNL     1       0.912  43.950  -0.566  1.00  0.00     0.025 A 
ATOM     14  C   UNL     1      -0.040  43.123   0.053  1.00  0.00     0.016 A 
ATOM     15  C   UNL     1      -1.377  43.164  -0.349  1.00  0.00     0.051 A 
ATOM     16  C   UNL     1      -1.785  44.038  -1.361  1.00  0.00     0.157 A 
ATOM     17  C   UNL     1       0.498  44.842  -1.568  1.00  0.00     0.062 A 
ATOM     18  C   UNL     1      -0.845  44.884  -1.973  1.00  0.00     0.158 A 
BRANCH  16  19
ATOM     19  O   UNL     1      -3.127  44.057  -1.741  1.00  0.00    -0.504 OA
ATOM     20  H   UNL     1      -3.835  43.532  -1.242  1.00  0.00     0.293 HD
ENDBRANCH  16  19
BRANCH  18  21
ATOM     21  O   UNL     1      -1.246  45.763  -2.978  1.00  0.00    -0.504 OA
ATOM     22  H   UNL     1      -1.716  46.635  -2.765  1.00  0.00     0.293 HD
ENDBRANCH  18  21
ENDBRANCH   3  13
BRANCH  10  23
ATOM     23  O   UNL     1       7.125  44.700   1.407  1.00  0.00    -0.507 OA
ATOM     24  H   UNL     1       7.974  44.506   1.925  1.00  0.00     0.293 HD
ENDBRANCH  10  23
BRANCH  11  25
ATOM     25  O   UNL     1       7.096  40.356  -0.729  1.00  0.00    -0.508 OA
ATOM     26  H   UNL     1       7.644  39.808  -0.077  1.00  0.00     0.293 HD
ENDBRANCH  11  25
ENDBRANCH   1   2
BRANCH   1  27
ATOM     27  C   UNL     1       2.241  46.541   2.413  1.00  0.00     0.265 C 
BRANCH  27  28
ATOM     28  C   UNL     1       1.301  45.736   3.321  1.00  0.00     0.190 C 
ATOM     29  C   UNL     1       1.127  46.426   4.689  1.00  0.00     0.178 C 
ATOM     30  O   UNL     1       1.830  44.432   3.487  1.00  0.00    -0.340 OA
ATOM     31  C   UNL     1       0.153  45.609   5.565  1.00  0.00     0.179 C 
ATOM     32  C   UNL     1       0.912  43.576   4.149  1.00  0.00     0.279 C 
ATOM     33  C   UNL     1       0.503  44.102   5.559  1.00  0.00     0.201 C 
BRANCH  29  34
ATOM     34  O   UNL     1       2.372  46.550   5.328  1.00  0.00    -0.387 OA
ATOM     35  H   UNL     1       3.065  46.507   4.618  1.00  0.00     0.211 HD
ENDBRANCH  29  34
BRANCH  31  36
ATOM     36  O   UNL     1      -1.164  45.786   5.107  1.00  0.00    -0.387 OA
ATOM     37  H   UNL     1      -1.415  44.959   4.617  1.00  0.00     0.211 HD
ENDBRANCH  31  36
BRANCH  32  38
ATOM     38  O   UNL     1      -0.183  43.264   3.319  1.00  0.00    -0.366 OA
ATOM     39  H   UNL     1       0.038  43.507   2.385  1.00  0.00     0.213 HD
ENDBRANCH  32  38
BRANCH  33  40
ATOM     40  O   UNL     1       1.509  43.828   6.504  1.00  0.00    -0.385 OA
ATOM     41  H   UNL     1       1.850  44.693   6.849  1.00  0.00     0.211 HD
ENDBRANCH  33  40
ENDBRANCH  27  28
ENDBRANCH   1  27
TORSDOF 12
ENDMDL
MODEL 7
REMARK VINA RESULT:    -5.863      2.110      5.045
REMARK INTER + INTRA:          -9.966
REMARK INTER:                  -9.152
REMARK INTRA:                  -0.814
REMARK UNBOUND:                -1.361
REMARK SMILES O=c1c(OC[C@H]2O[C@H](O)[C@@H](O)[C@H](O)[C@H]2O)c(-c2ccc(O)c(O)c2)oc2cc(O)cc(O)c12
REMARK SMILES IDX 4 1 3 2 16 3 25 4 2 5 26 6 1 7 33 8 27 9 31 10 28 11 30 12
REMARK SMILES IDX 17 13 18 14 19 15 20 16 24 17 22 18 21 19 23 21 32 23 29 25
REMARK SMILES IDX 5 27 6 28 14 29 7 30 12 31 8 32 10 33 15 34 13 36 9 38 11 40
REMARK H PARENT 21 20 23 22 32 24 29 26 15 35 13 37 9 39 11 41
REMARK Flexibility Score: inf
ROOT
ATOM      1  O   UNL     1     -10.641  32.377   7.408  1.00  0.00    -0.483 OA
ENDROOT
BRANCH   1   2
ATOM      2  C   UNL     1     -10.065  33.596   7.024  1.00  0.00     0.211 A 
ATOM      3  C   UNL     1      -8.756  33.678   6.503  1.00  0.00     0.180 A 
ATOM      4  O   UNL     1      -8.219  34.869   6.257  1.00  0.00    -0.452 OA
ATOM      5  C   UNL     1     -10.802  34.775   7.189  1.00  0.00     0.239 A 
ATOM      6  C   UNL     1      -8.869  36.014   6.436  1.00  0.00     0.146 A 
ATOM      7  O   UNL     1     -11.987  34.704   7.615  1.00  0.00    -0.285 OA
ATOM      8  C   UNL     1     -10.204  36.018   6.900  1.00  0.00     0.111 A 
ATOM      9  C   UNL     1      -8.218  37.218   6.151  1.00  0.00     0.094 A 
ATOM     10  C   UNL     1     -10.873  37.254   7.069  1.00  0.00     0.134 A 
ATOM     11  C   UNL     1      -8.880  38.436   6.318  1.00  0.00     0.123 A 
ATOM     12  C   UNL     1     -10.204  38.452   6.773  1.00  0.00     0.093 A 
BRANCH   3  13
ATOM     13  C   UNL     1      -7.946  32.477   6.200  1.00  0.00     0.025 A 
ATOM     14  C   UNL     1      -8.499  31.383   5.512  1.00  0.00     0.016 A 
ATOM     15  C   UNL     1      -7.714  30.266   5.219  1.00  0.00     0.051 A 
ATOM     16  C   UNL     1      -6.367  30.229   5.594  1.00  0.00     0.157 A 
ATOM     17  C   UNL     1      -6.589  32.447   6.558  1.00  0.00     0.062 A 
ATOM     18  C   UNL     1      -5.800  31.325   6.264  1.00  0.00     0.158 A 
BRANCH  16  19
ATOM     19  O   UNL     1      -5.609  29.099   5.287  1.00  0.00    -0.504 OA
ATOM     20  H   UNL     1      -4.965  29.079   4.506  1.00  0.00     0.293 HD
ENDBRANCH  16  19
BRANCH  18  21
ATOM     21  O   UNL     1      -4.457  31.298   6.635  1.00  0.00    -0.504 OA
ATOM     22  H   UNL     1      -3.760  31.851   6.149  1.00  0.00     0.293 HD
ENDBRANCH  18  21
ENDBRANCH   3  13
BRANCH  10  23
ATOM     23  O   UNL     1     -12.190  37.303   7.526  1.00  0.00    -0.507 OA
ATOM     24  H   UNL     1     -12.427  37.105   8.491  1.00  0.00     0.293 HD
ENDBRANCH  10  23
BRANCH  11  25
ATOM     25  O   UNL     1      -8.215  39.624   6.027  1.00  0.00    -0.508 OA
ATOM     26  H   UNL     1      -8.228  40.409   6.667  1.00  0.00     0.293 HD
ENDBRANCH  11  25
ENDBRANCH   1   2
BRANCH   1  27
ATOM     27  C   UNL     1     -10.989  32.077   8.761  1.00  0.00     0.265 C 
BRANCH  27  28
ATOM     28  C   UNL     1     -10.898  30.567   9.023  1.00  0.00     0.190 C 
ATOM     29  C   UNL     1     -11.071  29.767   7.717  1.00  0.00     0.178 C 
ATOM     30  O   UNL     1     -11.892  30.204   9.964  1.00  0.00    -0.340 OA
ATOM     31  C   UNL     1     -10.942  28.257   8.010  1.00  0.00     0.179 C 
ATOM     32  C   UNL     1     -11.734  28.864  10.402  1.00  0.00     0.279 C 
ATOM     33  C   UNL     1     -11.793  27.834   9.231  1.00  0.00     0.201 C 
BRANCH  29  34
ATOM     34  O   UNL     1     -12.322  30.048   7.143  1.00  0.00    -0.387 OA
ATOM     35  H   UNL     1     -12.269  29.777   6.190  1.00  0.00     0.211 HD
ENDBRANCH  29  34
BRANCH  31  36
ATOM     36  O   UNL     1      -9.595  27.929   8.241  1.00  0.00    -0.387 OA
ATOM     37  H   UNL     1      -9.549  26.941   8.340  1.00  0.00     0.211 HD
ENDBRANCH  31  36
BRANCH  32  38
ATOM     38  O   UNL     1     -10.596  28.727  11.222  1.00  0.00    -0.366 OA
ATOM     39  H   UNL     1     -10.385  27.764  11.326  1.00  0.00     0.213 HD
ENDBRANCH  32  38
BRANCH  33  40
ATOM     40  O   UNL     1     -13.124  27.598   8.842  1.00  0.00    -0.385 OA
ATOM     41  H   UNL     1     -13.538  28.470   8.617  1.00  0.00     0.211 HD
ENDBRANCH  33  40
ENDBRANCH  27  28
ENDBRANCH   1  27
TORSDOF 12
ENDMDL
MODEL 8
REMARK VINA RESULT:    -5.793     15.395     18.265
REMARK INTER + INTRA:          -9.863
REMARK INTER:                  -8.803
REMARK INTRA:                  -1.060
REMARK UNBOUND:                -1.361
REMARK SMILES O=c1c(OC[C@H]2O[C@H](O)[C@@H](O)[C@H](O)[C@H]2O)c(-c2ccc(O)c(O)c2)oc2cc(O)cc(O)c12
REMARK SMILES IDX 4 1 3 2 16 3 25 4 2 5 26 6 1 7 33 8 27 9 31 10 28 11 30 12
REMARK SMILES IDX 17 13 18 14 19 15 20 16 24 17 22 18 21 19 23 21 32 23 29 25
REMARK SMILES IDX 5 27 6 28 14 29 7 30 12 31 8 32 10 33 15 34 13 36 9 38 11 40
REMARK H PARENT 21 20 23 22 32 24 29 26 15 35 13 37 9 39 11 41
REMARK Flexibility Score: inf
ROOT
ATOM      1  O   UNL     1       3.293  45.386   0.097  1.00  0.00    -0.483 OA
ENDROOT
BRANCH   1   2
ATOM      2  C   UNL     1       3.826  44.193   0.605  1.00  0.00     0.211 A 
ATOM      3  C   UNL     1       3.793  43.881   1.981  1.00  0.00     0.180 A 
ATOM      4  O   UNL     1       4.408  42.789   2.423  1.00  0.00    -0.452 OA
ATOM      5  C   UNL     1       4.437  43.294  -0.277  1.00  0.00     0.239 A 
ATOM      6  C   UNL     1       5.033  41.929   1.625  1.00  0.00     0.146 A 
ATOM      7  O   UNL     1       4.433  43.548  -1.513  1.00  0.00    -0.285 OA
ATOM      8  C   UNL     1       5.064  42.138   0.227  1.00  0.00     0.111 A 
ATOM      9  C   UNL     1       5.654  40.809   2.184  1.00  0.00     0.094 A 
ATOM     10  C   UNL     1       5.727  41.197  -0.596  1.00  0.00     0.134 A 
ATOM     11  C   UNL     1       6.308  39.882   1.370  1.00  0.00     0.123 A 
ATOM     12  C   UNL     1       6.341  40.076  -0.016  1.00  0.00     0.093 A 
BRANCH   3  13
ATOM     13  C   UNL     1       3.079  44.721   2.968  1.00  0.00     0.025 A 
ATOM     14  C   UNL     1       3.565  45.990   3.329  1.00  0.00     0.016 A 
ATOM     15  C   UNL     1       2.867  46.776   4.249  1.00  0.00     0.051 A 
ATOM     16  C   UNL     1       1.672  46.317   4.809  1.00  0.00     0.157 A 
ATOM     17  C   UNL     1       1.868  44.270   3.516  1.00  0.00     0.062 A 
ATOM     18  C   UNL     1       1.166  45.059   4.440  1.00  0.00     0.158 A 
BRANCH  16  19
ATOM     19  O   UNL     1       0.998  47.125   5.725  1.00  0.00    -0.504 OA
ATOM     20  H   UNL     1       0.042  47.425   5.576  1.00  0.00     0.293 HD
ENDBRANCH  16  19
BRANCH  18  21
ATOM     21  O   UNL     1      -0.028  44.598   4.989  1.00  0.00    -0.504 OA
ATOM     22  H   UNL     1      -0.535  43.820   4.582  1.00  0.00     0.293 HD
ENDBRANCH  18  21
ENDBRANCH   3  13
BRANCH  10  23
ATOM     23  O   UNL     1       5.783  41.366  -1.980  1.00  0.00    -0.507 OA
ATOM     24  H   UNL     1       6.399  40.810  -2.562  1.00  0.00     0.293 HD
ENDBRANCH  10  23
BRANCH  11  25
ATOM     25  O   UNL     1       6.918  38.772   1.947  1.00  0.00    -0.508 OA
ATOM     26  H   UNL     1       7.769  38.376   1.563  1.00  0.00     0.293 HD
ENDBRANCH  11  25
ENDBRANCH   1   2
BRANCH   1  27
ATOM     27  C   UNL     1       1.901  45.555  -0.179  1.00  0.00     0.265 C 
BRANCH  27  28
ATOM     28  C   UNL     1       1.183  44.198  -0.198  1.00  0.00     0.190 C 
ATOM     29  C   UNL     1       0.589  43.904  -1.590  1.00  0.00     0.178 C 
ATOM     30  O   UNL     1       0.163  44.205   0.786  1.00  0.00    -0.340 OA
ATOM     31  C   UNL     1      -0.097  42.521  -1.584  1.00  0.00     0.179 C 
ATOM     32  C   UNL     1      -0.405  42.917   0.959  1.00  0.00     0.279 C 
ATOM     33  C   UNL     1      -1.021  42.345  -0.355  1.00  0.00     0.201 C 
BRANCH  29  34
ATOM     34  O   UNL     1      -0.333  44.905  -1.941  1.00  0.00    -0.387 OA
ATOM     35  H   UNL     1      -1.237  44.501  -1.871  1.00  0.00     0.211 HD
ENDBRANCH  29  34
BRANCH  31  36
ATOM     36  O   UNL     1       0.876  41.506  -1.588  1.00  0.00    -0.387 OA
ATOM     37  H   UNL     1       0.918  41.148  -2.513  1.00  0.00     0.211 HD
ENDBRANCH  31  36
BRANCH  32  38
ATOM     38  O   UNL     1       0.501  42.041   1.590  1.00  0.00    -0.366 OA
ATOM     39  H   UNL     1       0.559  41.202   1.067  1.00  0.00     0.213 HD
ENDBRANCH  32  38
BRANCH  33  40
ATOM     40  O   UNL     1      -2.282  42.917  -0.605  1.00  0.00    -0.385 OA
ATOM     41  H   UNL     1      -2.376  43.718  -0.027  1.00  0.00     0.211 HD
ENDBRANCH  33  40
ENDBRANCH  27  28
ENDBRANCH   1  27
TORSDOF 12
ENDMDL
MODEL 9
REMARK VINA RESULT:    -5.476     15.719     18.631
REMARK INTER + INTRA:          -9.398
REMARK INTER:                  -8.320
REMARK INTRA:                  -1.078
REMARK UNBOUND:                -1.361
REMARK SMILES O=c1c(OC[C@H]2O[C@H](O)[C@@H](O)[C@H](O)[C@H]2O)c(-c2ccc(O)c(O)c2)oc2cc(O)cc(O)c12
REMARK SMILES IDX 4 1 3 2 16 3 25 4 2 5 26 6 1 7 33 8 27 9 31 10 28 11 30 12
REMARK SMILES IDX 17 13 18 14 19 15 20 16 24 17 22 18 21 19 23 21 32 23 29 25
REMARK SMILES IDX 5 27 6 28 14 29 7 30 12 31 8 32 10 33 15 34 13 36 9 38 11 40
REMARK H PARENT 21 20 23 22 32 24 29 26 15 35 13 37 9 39 11 41
REMARK Flexibility Score: inf
ROOT
ATOM      1  O   UNL     1       0.757  45.088   2.780  1.00  0.00    -0.483 OA
ENDROOT
BRANCH   1   2
ATOM      2  C   UNL     1       1.730  45.500   3.700  1.00  0.00     0.211 A 
ATOM      3  C   UNL     1       3.107  45.498   3.389  1.00  0.00     0.180 A 
ATOM      4  O   UNL     1       3.996  45.795   4.333  1.00  0.00    -0.452 OA
ATOM      5  C   UNL     1       1.327  45.900   4.980  1.00  0.00     0.239 A 
ATOM      6  C   UNL     1       3.658  46.141   5.571  1.00  0.00     0.146 A 
ATOM      7  O   UNL     1       0.096  45.943   5.251  1.00  0.00    -0.285 OA
ATOM      8  C   UNL     1       2.298  46.224   5.949  1.00  0.00     0.111 A 
ATOM      9  C   UNL     1       4.665  46.433   6.495  1.00  0.00     0.094 A 
ATOM     10  C   UNL     1       1.972  46.608   7.271  1.00  0.00     0.134 A 
ATOM     11  C   UNL     1       4.340  46.812   7.798  1.00  0.00     0.123 A 
ATOM     12  C   UNL     1       2.997  46.901   8.183  1.00  0.00     0.093 A 
BRANCH   3  13
ATOM     13  C   UNL     1       3.613  45.191   2.033  1.00  0.00     0.025 A 
ATOM     14  C   UNL     1       4.083  46.208   1.185  1.00  0.00     0.016 A 
ATOM     15  C   UNL     1       4.574  45.896  -0.085  1.00  0.00     0.051 A 
ATOM     16  C   UNL     1       4.617  44.568  -0.520  1.00  0.00     0.157 A 
ATOM     17  C   UNL     1       3.676  43.856   1.603  1.00  0.00     0.062 A 
ATOM     18  C   UNL     1       4.169  43.541   0.328  1.00  0.00     0.158 A 
BRANCH  16  19
ATOM     19  O   UNL     1       5.113  44.287  -1.794  1.00  0.00    -0.504 OA
ATOM     20  H   UNL     1       4.597  44.517  -2.634  1.00  0.00     0.293 HD
ENDBRANCH  16  19
BRANCH  18  21
ATOM     21  O   UNL     1       4.215  42.215  -0.097  1.00  0.00    -0.504 OA
ATOM     22  H   UNL     1       4.614  41.957  -0.992  1.00  0.00     0.293 HD
ENDBRANCH  18  21
ENDBRANCH   3  13
BRANCH  10  23
ATOM     23  O   UNL     1       0.643  46.700   7.686  1.00  0.00    -0.507 OA
ATOM     24  H   UNL     1       0.005  45.915   7.613  1.00  0.00     0.293 HD
ENDBRANCH  10  23
BRANCH  11  25
ATOM     25  O   UNL     1       5.359  47.100   8.703  1.00  0.00    -0.508 OA
ATOM     26  H   UNL     1       5.367  46.705   9.636  1.00  0.00     0.293 HD
ENDBRANCH  11  25
ENDBRANCH   1   2
BRANCH   1  27
ATOM     27  C   UNL     1       0.411  45.855   1.624  1.00  0.00     0.265 C 
BRANCH  27  28
ATOM     28  C   UNL     1       0.028  44.933   0.457  1.00  0.00     0.190 C 
ATOM     29  C   UNL     1      -0.323  43.519   0.961  1.00  0.00     0.178 C 
ATOM     30  O   UNL     1       1.107  44.881  -0.459  1.00  0.00    -0.340 OA
ATOM     31  C   UNL     1      -0.733  42.628  -0.231  1.00  0.00     0.179 C 
ATOM     32  C   UNL     1       0.745  44.210  -1.655  1.00  0.00     0.279 C 
ATOM     33  C   UNL     1       0.266  42.746  -1.407  1.00  0.00     0.201 C 
BRANCH  29  34
ATOM     34  O   UNL     1       0.778  42.960   1.632  1.00  0.00    -0.387 OA
ATOM     35  H   UNL     1       0.518  42.040   1.896  1.00  0.00     0.211 HD
ENDBRANCH  29  34
BRANCH  31  36
ATOM     36  O   UNL     1      -2.020  42.984  -0.672  1.00  0.00    -0.387 OA
ATOM     37  H   UNL     1      -2.245  42.380  -1.429  1.00  0.00     0.211 HD
ENDBRANCH  31  36
BRANCH  32  38
ATOM     38  O   UNL     1      -0.154  44.980  -2.420  1.00  0.00    -0.366 OA
ATOM     39  H   UNL     1      -0.291  44.542  -3.298  1.00  0.00     0.213 HD
ENDBRANCH  32  38
BRANCH  33  40
ATOM     40  O   UNL     1       1.364  41.890  -1.205  1.00  0.00    -0.385 OA
ATOM     41  H   UNL     1       1.132  40.999  -1.574  1.00  0.00     0.211 HD
ENDBRANCH  33  40
ENDBRANCH  27  28
ENDBRANCH   1  27
TORSDOF 12
ENDMDL
