MODEL 1
REMARK VINA RESULT:    -5.668      0.000      0.000
REMARK INTER + INTRA:          -9.266
REMARK INTER:                  -7.656
REMARK INTRA:                  -1.611
REMARK UNBOUND:                -1.611
REMARK SMILES C=CC(C)=CCC=C(C)CCC=C(C)C
REMARK SMILES IDX 8 1 7 2 9 3 10 4 11 5 12 6 14 7 13 8 15 9 6 10 5 11 3 12
REMARK SMILES IDX 4 13 2 14 1 15
REMARK H PARENT
REMARK Flexibility Score: inf
ROOT
ATOM      1  C   UNL     1       3.192  13.449   4.401  1.00  0.00    -0.077 C 
ATOM      2  C   UNL     1       2.990  13.669   5.719  1.00  0.00    -0.024 C 
ATOM      3  C   UNL     1       4.366  14.115   3.732  1.00  0.00     0.039 C 
ENDROOT
BRANCH   1   4
ATOM      4  C   UNL     1       2.255  12.608   3.557  1.00  0.00     0.034 C 
BRANCH   4   5
ATOM      5  C   UNL     1       1.710  13.423   2.379  1.00  0.00     0.032 C 
BRANCH   5   6
ATOM      6  C   UNL     1       0.445  14.144   2.769  1.00  0.00    -0.028 C 
ATOM      7  C   UNL     1      -0.585  13.904   0.499  1.00  0.00     0.039 C 
ATOM      8  C   UNL     1      -0.605  14.348   1.943  1.00  0.00    -0.080 C 
ATOM      9  C   UNL     1      -1.821  15.052   2.487  1.00  0.00     0.039 C 
ENDBRANCH   5   6
ENDBRANCH   4   5
ENDBRANCH   1   4
BRANCH   2  10
ATOM     10  C   UNL     1       1.851  13.067   6.506  1.00  0.00     0.055 C 
BRANCH  10  11
ATOM     11  C   UNL     1       0.632  13.948   6.459  1.00  0.00    -0.020 C 
ATOM     12  C   UNL     1      -0.611  13.521   6.156  1.00  0.00    -0.055 C 
ATOM     13  C   UNL     1      -0.896  12.077   5.808  1.00  0.00     0.044 C 
BRANCH  12  14
ATOM     14  C   UNL     1      -1.697  14.533   6.100  1.00  0.00    -0.005 C 
ATOM     15  C   UNL     1      -2.994  14.225   6.111  1.00  0.00     0.009 C 
ENDBRANCH  12  14
ENDBRANCH  10  11
ENDBRANCH   2  10
TORSDOF 6
ENDMDL
MODEL 2
REMARK VINA RESULT:    -5.600      2.281      5.397
REMARK INTER + INTRA:          -9.175
REMARK INTER:                  -7.908
REMARK INTRA:                  -1.266
REMARK UNBOUND:                -1.611
REMARK SMILES C=CC(C)=CCC=C(C)CCC=C(C)C
REMARK SMILES IDX 8 1 7 2 9 3 10 4 11 5 12 6 14 7 13 8 15 9 6 10 5 11 3 12
REMARK SMILES IDX 4 13 2 14 1 15
REMARK H PARENT
REMARK Flexibility Score: inf
ROOT
ATOM      1  C   UNL     1       2.834  12.906   3.782  1.00  0.00    -0.077 C 
ATOM      2  C   UNL     1       2.217  13.402   2.687  1.00  0.00    -0.024 C 
ATOM      3  C   UNL     1       3.274  11.465   3.770  1.00  0.00     0.039 C 
ENDROOT
BRANCH   1   4
ATOM      4  C   UNL     1       3.050  13.721   5.042  1.00  0.00     0.034 C 
BRANCH   4   5
ATOM      5  C   UNL     1       2.150  13.214   6.175  1.00  0.00     0.032 C 
BRANCH   5   6
ATOM      6  C   UNL     1       0.822  13.929   6.162  1.00  0.00    -0.028 C 
ATOM      7  C   UNL     1      -0.463  11.872   5.537  1.00  0.00     0.039 C 
ATOM      8  C   UNL     1      -0.364  13.335   5.902  1.00  0.00    -0.080 C 
ATOM      9  C   UNL     1      -1.615  14.172   5.965  1.00  0.00     0.039 C 
ENDBRANCH   5   6
ENDBRANCH   4   5
ENDBRANCH   1   4
BRANCH   2  10
ATOM     10  C   UNL     1       1.725  14.825   2.573  1.00  0.00     0.055 C 
BRANCH  10  11
ATOM     11  C   UNL     1       2.000  15.388   1.205  1.00  0.00    -0.020 C 
ATOM     12  C   UNL     1       2.975  16.276   0.923  1.00  0.00    -0.055 C 
ATOM     13  C   UNL     1       3.897  16.815   1.994  1.00  0.00     0.044 C 
BRANCH  12  14
ATOM     14  C   UNL     1       3.076  16.775  -0.473  1.00  0.00    -0.005 C 
ATOM     15  C   UNL     1       3.158  15.977  -1.538  1.00  0.00     0.009 C 
ENDBRANCH  12  14
ENDBRANCH  10  11
ENDBRANCH   2  10
TORSDOF 6
ENDMDL
MODEL 3
REMARK VINA RESULT:    -5.598      1.432      5.281
REMARK INTER + INTRA:          -9.172
REMARK INTER:                  -7.384
REMARK INTRA:                  -1.788
REMARK UNBOUND:                -1.611
REMARK SMILES C=CC(C)=CCC=C(C)CCC=C(C)C
REMARK SMILES IDX 8 1 7 2 9 3 10 4 11 5 12 6 14 7 13 8 15 9 6 10 5 11 3 12
REMARK SMILES IDX 4 13 2 14 1 15
REMARK H PARENT
REMARK Flexibility Score: inf
ROOT
ATOM      1  C   UNL     1      -0.167  13.030   5.619  1.00  0.00    -0.077 C 
ATOM      2  C   UNL     1      -0.452  13.253   4.317  1.00  0.00    -0.024 C 
ATOM      3  C   UNL     1      -0.896  11.924   6.337  1.00  0.00     0.039 C 
ENDROOT
BRANCH   1   4
ATOM      4  C   UNL     1       0.812  13.883   6.402  1.00  0.00     0.034 C 
BRANCH   4   5
ATOM      5  C   UNL     1       2.175  13.189   6.500  1.00  0.00     0.032 C 
BRANCH   5   6
ATOM      6  C   UNL     1       3.154  13.797   5.529  1.00  0.00    -0.028 C 
ATOM      7  C   UNL     1       3.072  11.838   3.970  1.00  0.00     0.039 C 
ATOM      8  C   UNL     1       3.549  13.214   4.375  1.00  0.00    -0.080 C 
ATOM      9  C   UNL     1       4.506  13.961   3.483  1.00  0.00     0.039 C 
ENDBRANCH   5   6
ENDBRANCH   4   5
ENDBRANCH   1   4
BRANCH   2  10
ATOM     10  C   UNL     1       0.203  14.330   3.486  1.00  0.00     0.055 C 
BRANCH  10  11
ATOM     11  C   UNL     1       0.551  13.822   2.113  1.00  0.00    -0.020 C 
ATOM     12  C   UNL     1       1.384  14.443   1.254  1.00  0.00    -0.055 C 
ATOM     13  C   UNL     1       2.051  15.757   1.599  1.00  0.00     0.044 C 
BRANCH  12  14
ATOM     14  C   UNL     1       1.578  13.835  -0.087  1.00  0.00    -0.005 C 
ATOM     15  C   UNL     1       0.758  12.923  -0.609  1.00  0.00     0.009 C 
ENDBRANCH  12  14
ENDBRANCH  10  11
ENDBRANCH   2  10
TORSDOF 6
ENDMDL
MODEL 4
REMARK VINA RESULT:    -5.528      1.688      3.448
REMARK INTER + INTRA:          -9.078
REMARK INTER:                  -8.184
REMARK INTRA:                  -0.894
REMARK UNBOUND:                -1.611
REMARK SMILES C=CC(C)=CCC=C(C)CCC=C(C)C
REMARK SMILES IDX 8 1 7 2 9 3 10 4 11 5 12 6 14 7 13 8 15 9 6 10 5 11 3 12
REMARK SMILES IDX 4 13 2 14 1 15
REMARK H PARENT
REMARK Flexibility Score: inf
ROOT
ATOM      1  C   UNL     1       1.107  13.239   5.927  1.00  0.00    -0.077 C 
ATOM      2  C   UNL     1       0.040  13.907   6.419  1.00  0.00    -0.024 C 
ATOM      3  C   UNL     1       2.460  13.495   6.539  1.00  0.00     0.039 C 
ENDROOT
BRANCH   1   4
ATOM      4  C   UNL     1       1.010  12.290   4.750  1.00  0.00     0.034 C 
BRANCH   4   5
ATOM      5  C   UNL     1       2.240  12.422   3.845  1.00  0.00     0.032 C 
BRANCH   5   6
ATOM      6  C   UNL     1       2.090  13.596   2.909  1.00  0.00    -0.028 C 
ATOM      7  C   UNL     1       4.356  14.518   3.443  1.00  0.00     0.039 C 
ATOM      8  C   UNL     1       3.042  14.533   2.699  1.00  0.00    -0.080 C 
ATOM      9  C   UNL     1       2.764  15.627   1.702  1.00  0.00     0.039 C 
ENDBRANCH   5   6
ENDBRANCH   4   5
ENDBRANCH   1   4
BRANCH   2  10
ATOM     10  C   UNL     1      -1.366  13.745   5.893  1.00  0.00     0.055 C 
BRANCH  10  11
ATOM     11  C   UNL     1      -2.198  14.965   6.180  1.00  0.00    -0.020 C 
ATOM     12  C   UNL     1      -2.878  15.666   5.250  1.00  0.00    -0.055 C 
ATOM     13  C   UNL     1      -2.851  15.284   3.786  1.00  0.00     0.044 C 
BRANCH  12  14
ATOM     14  C   UNL     1      -3.607  16.882   5.693  1.00  0.00    -0.005 C 
ATOM     15  C   UNL     1      -4.793  17.251   5.207  1.00  0.00     0.009 C 
ENDBRANCH  12  14
ENDBRANCH  10  11
ENDBRANCH   2  10
TORSDOF 6
ENDMDL
MODEL 5
REMARK VINA RESULT:    -5.488      1.731      2.537
REMARK INTER + INTRA:          -9.023
REMARK INTER:                  -8.069
REMARK INTRA:                  -0.954
REMARK UNBOUND:                -1.611
REMARK SMILES C=CC(C)=CCC=C(C)CCC=C(C)C
REMARK SMILES IDX 8 1 7 2 9 3 10 4 11 5 12 6 14 7 13 8 15 9 6 10 5 11 3 12
REMARK SMILES IDX 4 13 2 14 1 15
REMARK H PARENT
REMARK Flexibility Score: inf
ROOT
ATOM      1  C   UNL     1       2.773  12.990   4.199  1.00  0.00    -0.077 C 
ATOM      2  C   UNL     1       2.841  13.327   5.506  1.00  0.00    -0.024 C 
ATOM      3  C   UNL     1       4.040  12.581   3.494  1.00  0.00     0.039 C 
ENDROOT
BRANCH   1   4
ATOM      4  C   UNL     1       1.487  13.061   3.400  1.00  0.00     0.034 C 
BRANCH   4   5
ATOM      5  C   UNL     1       1.160  14.512   3.031  1.00  0.00     0.032 C 
BRANCH   5   6
ATOM      6  C   UNL     1       1.384  14.752   1.559  1.00  0.00    -0.028 C 
ATOM      7  C   UNL     1       3.451  16.117   1.931  1.00  0.00     0.039 C 
ATOM      8  C   UNL     1       2.422  15.450   1.047  1.00  0.00    -0.080 C 
ATOM      9  C   UNL     1       2.537  15.573  -0.450  1.00  0.00     0.039 C 
ENDBRANCH   5   6
ENDBRANCH   4   5
ENDBRANCH   1   4
BRANCH   2  10
ATOM     10  C   UNL     1       1.648  13.757   6.325  1.00  0.00     0.055 C 
BRANCH  10  11
ATOM     11  C   UNL     1       0.682  12.620   6.518  1.00  0.00    -0.020 C 
ATOM     12  C   UNL     1      -0.646  12.696   6.294  1.00  0.00    -0.055 C 
ATOM     13  C   UNL     1      -1.305  13.977   5.832  1.00  0.00     0.044 C 
BRANCH  12  14
ATOM     14  C   UNL     1      -1.469  11.494   6.587  1.00  0.00    -0.005 C 
ATOM     15  C   UNL     1      -2.518  11.501   7.409  1.00  0.00     0.009 C 
ENDBRANCH  12  14
ENDBRANCH  10  11
ENDBRANCH   2  10
TORSDOF 6
ENDMDL
MODEL 6
REMARK VINA RESULT:    -5.460      0.951      4.002
REMARK INTER + INTRA:          -8.985
REMARK INTER:                  -7.436
REMARK INTRA:                  -1.549
REMARK UNBOUND:                -1.611
REMARK SMILES C=CC(C)=CCC=C(C)CCC=C(C)C
REMARK SMILES IDX 8 1 7 2 9 3 10 4 11 5 12 6 14 7 13 8 15 9 6 10 5 11 3 12
REMARK SMILES IDX 4 13 2 14 1 15
REMARK H PARENT
REMARK Flexibility Score: inf
ROOT
ATOM      1  C   UNL     1       2.850  12.870   3.591  1.00  0.00    -0.077 C 
ATOM      2  C   UNL     1       2.161  13.293   2.507  1.00  0.00    -0.024 C 
ATOM      3  C   UNL     1       3.468  11.497   3.560  1.00  0.00     0.039 C 
ENDROOT
BRANCH   1   4
ATOM      4  C   UNL     1       2.977  13.696   4.855  1.00  0.00     0.034 C 
BRANCH   4   5
ATOM      5  C   UNL     1       2.071  13.139   5.958  1.00  0.00     0.032 C 
BRANCH   5   6
ATOM      6  C   UNL     1       0.776  13.909   6.025  1.00  0.00    -0.028 C 
ATOM      7  C   UNL     1      -0.639  11.880   5.635  1.00  0.00     0.039 C 
ATOM      8  C   UNL     1      -0.451  13.355   5.906  1.00  0.00    -0.080 C 
ATOM      9  C   UNL     1      -1.658  14.247   6.034  1.00  0.00     0.039 C 
ENDBRANCH   5   6
ENDBRANCH   4   5
ENDBRANCH   1   4
BRANCH   2  10
ATOM     10  C   UNL     1       1.491  14.642   2.412  1.00  0.00     0.055 C 
BRANCH  10  11
ATOM     11  C   UNL     1      -0.004  14.517   2.532  1.00  0.00    -0.020 C 
ATOM     12  C   UNL     1      -0.890  15.054   1.668  1.00  0.00    -0.055 C 
ATOM     13  C   UNL     1      -0.445  15.869   0.473  1.00  0.00     0.044 C 
BRANCH  12  14
ATOM     14  C   UNL     1      -2.336  14.884   1.962  1.00  0.00    -0.005 C 
ATOM     15  C   UNL     1      -3.042  15.733   2.709  1.00  0.00     0.009 C 
ENDBRANCH  12  14
ENDBRANCH  10  11
ENDBRANCH   2  10
TORSDOF 6
ENDMDL
MODEL 7
REMARK VINA RESULT:    -5.419      1.678      4.852
REMARK INTER + INTRA:          -8.930
REMARK INTER:                  -8.023
REMARK INTRA:                  -0.908
REMARK UNBOUND:                -1.611
REMARK SMILES C=CC(C)=CCC=C(C)CCC=C(C)C
REMARK SMILES IDX 8 1 7 2 9 3 10 4 11 5 12 6 14 7 13 8 15 9 6 10 5 11 3 12
REMARK SMILES IDX 4 13 2 14 1 15
REMARK H PARENT
REMARK Flexibility Score: inf
ROOT
ATOM      1  C   UNL     1       1.674  13.209   5.632  1.00  0.00    -0.077 C 
ATOM      2  C   UNL     1       2.803  13.274   4.893  1.00  0.00    -0.024 C 
ATOM      3  C   UNL     1       1.782  13.368   7.126  1.00  0.00     0.039 C 
ENDROOT
BRANCH   1   4
ATOM      4  C   UNL     1       0.313  12.927   5.027  1.00  0.00     0.034 C 
BRANCH   4   5
ATOM      5  C   UNL     1      -0.798  13.189   6.050  1.00  0.00     0.032 C 
BRANCH   5   6
ATOM      6  C   UNL     1      -1.445  14.529   5.803  1.00  0.00    -0.028 C 
ATOM      7  C   UNL     1      -3.700  13.764   6.577  1.00  0.00     0.039 C 
ATOM      8  C   UNL     1      -2.742  14.810   6.058  1.00  0.00    -0.080 C 
ATOM      9  C   UNL     1      -3.238  16.208   5.797  1.00  0.00     0.039 C 
ENDBRANCH   5   6
ENDBRANCH   4   5
ENDBRANCH   1   4
BRANCH   2  10
ATOM     10  C   UNL     1       2.833  13.127   3.390  1.00  0.00     0.055 C 
BRANCH  10  11
ATOM     11  C   UNL     1       3.201  14.426   2.724  1.00  0.00    -0.020 C 
ATOM     12  C   UNL     1       2.343  15.202   2.031  1.00  0.00    -0.055 C 
ATOM     13  C   UNL     1       0.892  14.817   1.843  1.00  0.00     0.044 C 
BRANCH  12  14
ATOM     14  C   UNL     1       2.882  16.428   1.387  1.00  0.00    -0.005 C 
ATOM     15  C   UNL     1       3.960  17.079   1.824  1.00  0.00     0.009 C 
ENDBRANCH  12  14
ENDBRANCH  10  11
ENDBRANCH   2  10
TORSDOF 6
ENDMDL
MODEL 8
REMARK VINA RESULT:    -5.326      1.289      2.751
REMARK INTER + INTRA:          -8.805
REMARK INTER:                  -7.663
REMARK INTRA:                  -1.142
REMARK UNBOUND:                -1.611
REMARK SMILES C=CC(C)=CCC=C(C)CCC=C(C)C
REMARK SMILES IDX 8 1 7 2 9 3 10 4 11 5 12 6 14 7 13 8 15 9 6 10 5 11 3 12
REMARK SMILES IDX 4 13 2 14 1 15
REMARK H PARENT
REMARK Flexibility Score: inf
ROOT
ATOM      1  C   UNL     1       2.082  14.561   1.991  1.00  0.00    -0.077 C 
ATOM      2  C   UNL     1       2.783  14.118   3.058  1.00  0.00    -0.024 C 
ATOM      3  C   UNL     1       2.323  15.966   1.504  1.00  0.00     0.039 C 
ENDROOT
BRANCH   1   4
ATOM      4  C   UNL     1       1.024  13.724   1.300  1.00  0.00     0.034 C 
BRANCH   4   5
ATOM      5  C   UNL     1      -0.317  14.466   1.269  1.00  0.00     0.032 C 
BRANCH   5   6
ATOM      6  C   UNL     1      -0.963  14.457   2.632  1.00  0.00    -0.028 C 
ATOM      7  C   UNL     1      -2.757  16.076   1.971  1.00  0.00     0.039 C 
ATOM      8  C   UNL     1      -2.074  15.156   2.956  1.00  0.00    -0.080 C 
ATOM      9  C   UNL     1      -2.629  15.016   4.350  1.00  0.00     0.039 C 
ENDBRANCH   5   6
ENDBRANCH   4   5
ENDBRANCH   1   4
BRANCH   2  10
ATOM     10  C   UNL     1       2.633  12.735   3.646  1.00  0.00     0.055 C 
BRANCH  10  11
ATOM     11  C   UNL     1       1.380  12.629   4.473  1.00  0.00    -0.020 C 
ATOM     12  C   UNL     1       1.285  12.984   5.771  1.00  0.00    -0.055 C 
ATOM     13  C   UNL     1       2.473  13.523   6.539  1.00  0.00     0.044 C 
BRANCH  12  14
ATOM     14  C   UNL     1      -0.013  12.764   6.458  1.00  0.00    -0.005 C 
ATOM     15  C   UNL     1      -0.893  11.833   6.091  1.00  0.00     0.009 C 
ENDBRANCH  12  14
ENDBRANCH  10  11
ENDBRANCH   2  10
TORSDOF 6
ENDMDL
MODEL 9
REMARK VINA RESULT:    -5.256      1.126      4.501
REMARK INTER + INTRA:          -8.710
REMARK INTER:                  -7.491
REMARK INTRA:                  -1.219
REMARK UNBOUND:                -1.611
REMARK SMILES C=CC(C)=CCC=C(C)CCC=C(C)C
REMARK SMILES IDX 8 1 7 2 9 3 10 4 11 5 12 6 14 7 13 8 15 9 6 10 5 11 3 12
REMARK SMILES IDX 4 13 2 14 1 15
REMARK H PARENT
REMARK Flexibility Score: inf
ROOT
ATOM      1  C   UNL     1       2.728  12.977   3.592  1.00  0.00    -0.077 C 
ATOM      2  C   UNL     1       2.759  14.030   2.745  1.00  0.00    -0.024 C 
ATOM      3  C   UNL     1       4.017  12.256   3.890  1.00  0.00     0.039 C 
ENDROOT
BRANCH   1   4
ATOM      4  C   UNL     1       1.445  12.458   4.208  1.00  0.00     0.034 C 
BRANCH   4   5
ATOM      5  C   UNL     1       1.217  13.082   5.589  1.00  0.00     0.032 C 
BRANCH   5   6
ATOM      6  C   UNL     1      -0.095  13.824   5.630  1.00  0.00    -0.028 C 
ATOM      7  C   UNL     1      -1.385  11.826   6.416  1.00  0.00     0.039 C 
ATOM      8  C   UNL     1      -1.269  13.280   6.022  1.00  0.00    -0.080 C 
ATOM      9  C   UNL     1      -2.494  14.157   6.049  1.00  0.00     0.039 C 
ENDBRANCH   5   6
ENDBRANCH   4   5
ENDBRANCH   1   4
BRANCH   2  10
ATOM     10  C   UNL     1       1.540  14.834   2.361  1.00  0.00     0.055 C 
BRANCH  10  11
ATOM     11  C   UNL     1       0.866  14.254   1.146  1.00  0.00    -0.020 C 
ATOM     12  C   UNL     1      -0.465  14.079   1.018  1.00  0.00    -0.055 C 
ATOM     13  C   UNL     1      -1.428  14.447   2.126  1.00  0.00     0.044 C 
BRANCH  12  14
ATOM     14  C   UNL     1      -0.964  13.440  -0.226  1.00  0.00    -0.005 C 
ATOM     15  C   UNL     1      -0.210  12.678  -1.018  1.00  0.00     0.009 C 
ENDBRANCH  12  14
ENDBRANCH  10  11
ENDBRANCH   2  10
TORSDOF 6
ENDMDL
