MODEL 1
REMARK VINA RESULT:    -6.344      0.000      0.000
REMARK INTER + INTRA:          -7.097
REMARK INTER:                  -6.901
REMARK INTRA:                  -0.196
REMARK UNBOUND:                -0.196
REMARK SMILES Cc1ccc(C(C)C)c(O)c1
REMARK SMILES IDX 1 1 2 2 11 3 9 4 5 5 4 6 3 7 10 8 6 10 7 11 8 12
REMARK H PARENT 10 9
REMARK Flexibility Score: inf
ROOT
ATOM      1  C   UNL     1     -14.936  -1.574 -10.942  1.00  0.00     0.044 C 
ATOM      2  C   UNL     1     -14.331  -0.325 -10.372  1.00  0.00    -0.047 A 
ATOM      3  C   UNL     1     -12.989  -0.310  -9.969  1.00  0.00     0.049 A 
ATOM      4  C   UNL     1     -12.425   0.842  -9.401  1.00  0.00     0.119 A 
ATOM      5  C   UNL     1     -13.216   2.001  -9.218  1.00  0.00    -0.004 A 
ATOM      6  C   UNL     1     -14.568   1.966  -9.610  1.00  0.00     0.008 A 
ATOM      7  C   UNL     1     -15.120   0.814 -10.174  1.00  0.00     0.004 A 
ENDROOT
BRANCH   4   8
ATOM      8  O   UNL     1     -11.084   0.827  -9.019  1.00  0.00    -0.508 OA
ATOM      9  H   UNL     1     -10.537  -0.026  -9.025  1.00  0.00     0.293 HD
ENDBRANCH   4   8
BRANCH   5  10
ATOM     10  C   UNL     1     -12.661   3.282  -8.609  1.00  0.00     0.017 C 
ATOM     11  C   UNL     1     -12.108   4.229  -9.681  1.00  0.00     0.012 C 
ATOM     12  C   UNL     1     -13.691   3.982  -7.714  1.00  0.00     0.012 C 
ENDBRANCH   5  10
TORSDOF 2
ENDMDL
MODEL 2
REMARK VINA RESULT:    -5.262      6.859      8.317
REMARK INTER + INTRA:          -5.920
REMARK INTER:                  -5.729
REMARK INTRA:                  -0.191
REMARK UNBOUND:                -0.196
REMARK SMILES Cc1ccc(C(C)C)c(O)c1
REMARK SMILES IDX 1 1 2 2 11 3 9 4 5 5 4 6 3 7 10 8 6 10 7 11 8 12
REMARK H PARENT 10 9
REMARK Flexibility Score: inf
ROOT
ATOM      1  C   UNL     1     -12.014  -7.916  -4.737  1.00  0.00     0.044 C 
ATOM      2  C   UNL     1     -11.561  -7.009  -5.843  1.00  0.00    -0.047 A 
ATOM      3  C   UNL     1     -11.115  -7.544  -7.058  1.00  0.00     0.049 A 
ATOM      4  C   UNL     1     -10.655  -6.705  -8.084  1.00  0.00     0.119 A 
ATOM      5  C   UNL     1     -10.627  -5.303  -7.892  1.00  0.00    -0.004 A 
ATOM      6  C   UNL     1     -11.060  -4.780  -6.659  1.00  0.00     0.008 A 
ATOM      7  C   UNL     1     -11.515  -5.624  -5.644  1.00  0.00     0.004 A 
ENDROOT
BRANCH   4   8
ATOM      8  O   UNL     1     -10.227  -7.268  -9.286  1.00  0.00    -0.508 OA
ATOM      9  H   UNL     1      -9.899  -8.226  -9.339  1.00  0.00     0.293 HD
ENDBRANCH   4   8
BRANCH   5  10
ATOM     10  C   UNL     1     -10.140  -4.341  -8.968  1.00  0.00     0.017 C 
ATOM     11  C   UNL     1     -11.228  -3.336  -9.368  1.00  0.00     0.012 C 
ATOM     12  C   UNL     1      -8.843  -3.633  -8.557  1.00  0.00     0.012 C 
ENDBRANCH   5  10
TORSDOF 2
ENDMDL
MODEL 3
REMARK VINA RESULT:    -4.879      2.372      4.328
REMARK INTER + INTRA:          -5.503
REMARK INTER:                  -5.309
REMARK INTRA:                  -0.194
REMARK UNBOUND:                -0.196
REMARK SMILES Cc1ccc(C(C)C)c(O)c1
REMARK SMILES IDX 1 1 2 2 11 3 9 4 5 5 4 6 3 7 10 8 6 10 7 11 8 12
REMARK H PARENT 10 9
REMARK Flexibility Score: inf
ROOT
ATOM      1  C   UNL     1     -15.112   1.961  -9.744  1.00  0.00     0.044 C 
ATOM      2  C   UNL     1     -14.061   0.892  -9.817  1.00  0.00    -0.047 A 
ATOM      3  C   UNL     1     -14.420  -0.433 -10.095  1.00  0.00     0.049 A 
ATOM      4  C   UNL     1     -13.449  -1.445 -10.129  1.00  0.00     0.119 A 
ATOM      5  C   UNL     1     -12.093  -1.134  -9.868  1.00  0.00    -0.004 A 
ATOM      6  C   UNL     1     -11.750   0.199  -9.572  1.00  0.00     0.008 A 
ATOM      7  C   UNL     1     -12.724   1.199  -9.540  1.00  0.00     0.004 A 
ENDROOT
BRANCH   4   8
ATOM      8  O   UNL     1     -13.836  -2.753 -10.417  1.00  0.00    -0.508 OA
ATOM      9  H   UNL     1     -14.534  -2.959 -11.123  1.00  0.00     0.293 HD
ENDBRANCH   4   8
BRANCH   5  10
ATOM     10  C   UNL     1     -10.993  -2.188  -9.892  1.00  0.00     0.017 C 
ATOM     11  C   UNL     1      -9.801  -1.748 -10.750  1.00  0.00     0.012 C 
ATOM     12  C   UNL     1     -10.554  -2.586  -8.478  1.00  0.00     0.012 C 
ENDBRANCH   5  10
TORSDOF 2
ENDMDL
MODEL 4
REMARK VINA RESULT:    -4.878      6.546      8.599
REMARK INTER + INTRA:          -5.502
REMARK INTER:                  -5.307
REMARK INTRA:                  -0.195
REMARK UNBOUND:                -0.196
REMARK SMILES Cc1ccc(C(C)C)c(O)c1
REMARK SMILES IDX 1 1 2 2 11 3 9 4 5 5 4 6 3 7 10 8 6 10 7 11 8 12
REMARK H PARENT 10 9
REMARK Flexibility Score: inf
ROOT
ATOM      1  C   UNL     1      -9.942  -2.906  -8.494  1.00  0.00     0.044 C 
ATOM      2  C   UNL     1     -10.730  -4.060  -7.948  1.00  0.00    -0.047 A 
ATOM      3  C   UNL     1     -11.591  -4.784  -8.783  1.00  0.00     0.049 A 
ATOM      4  C   UNL     1     -12.360  -5.841  -8.273  1.00  0.00     0.119 A 
ATOM      5  C   UNL     1     -12.280  -6.178  -6.900  1.00  0.00    -0.004 A 
ATOM      6  C   UNL     1     -11.425  -5.429  -6.070  1.00  0.00     0.008 A 
ATOM      7  C   UNL     1     -10.664  -4.378  -6.587  1.00  0.00     0.004 A 
ENDROOT
BRANCH   4   8
ATOM      8  O   UNL     1     -13.200  -6.549  -9.132  1.00  0.00    -0.508 OA
ATOM      9  H   UNL     1     -13.165  -7.560  -9.200  1.00  0.00     0.293 HD
ENDBRANCH   4   8
BRANCH   5  10
ATOM     10  C   UNL     1     -13.089  -7.315  -6.289  1.00  0.00     0.017 C 
ATOM     11  C   UNL     1     -12.318  -8.021  -5.166  1.00  0.00     0.012 C 
ATOM     12  C   UNL     1     -14.469  -6.843  -5.815  1.00  0.00     0.012 C 
ENDBRANCH   5  10
TORSDOF 2
ENDMDL
MODEL 5
REMARK VINA RESULT:    -4.840      5.164      7.259
REMARK INTER + INTRA:          -5.461
REMARK INTER:                  -5.265
REMARK INTRA:                  -0.196
REMARK UNBOUND:                -0.196
REMARK SMILES Cc1ccc(C(C)C)c(O)c1
REMARK SMILES IDX 1 1 2 2 11 3 9 4 5 5 4 6 3 7 10 8 6 10 7 11 8 12
REMARK H PARENT 10 9
REMARK Flexibility Score: inf
ROOT
ATOM      1  C   UNL     1     -11.155  -0.925 -10.295  1.00  0.00     0.044 C 
ATOM      2  C   UNL     1     -10.965  -2.211  -9.545  1.00  0.00    -0.047 A 
ATOM      3  C   UNL     1      -9.739  -2.497  -8.932  1.00  0.00     0.049 A 
ATOM      4  C   UNL     1      -9.541  -3.712  -8.260  1.00  0.00     0.119 A 
ATOM      5  C   UNL     1     -10.582  -4.670  -8.207  1.00  0.00    -0.004 A 
ATOM      6  C   UNL     1     -11.803  -4.377  -8.844  1.00  0.00     0.008 A 
ATOM      7  C   UNL     1     -11.990  -3.164  -9.511  1.00  0.00     0.004 A 
ENDROOT
BRANCH   4   8
ATOM      8  O   UNL     1      -8.312  -3.963  -7.651  1.00  0.00    -0.508 OA
ATOM      9  H   UNL     1      -7.924  -4.898  -7.598  1.00  0.00     0.293 HD
ENDBRANCH   4   8
BRANCH   5  10
ATOM     10  C   UNL     1     -10.428  -6.006  -7.492  1.00  0.00     0.017 C 
ATOM     11  C   UNL     1     -11.048  -5.975  -6.089  1.00  0.00     0.012 C 
ATOM     12  C   UNL     1     -10.981  -7.167  -8.327  1.00  0.00     0.012 C 
ENDBRANCH   5  10
TORSDOF 2
ENDMDL
MODEL 6
REMARK VINA RESULT:    -4.835      6.147      7.712
REMARK INTER + INTRA:          -5.456
REMARK INTER:                  -5.266
REMARK INTRA:                  -0.189
REMARK UNBOUND:                -0.196
REMARK SMILES Cc1ccc(C(C)C)c(O)c1
REMARK SMILES IDX 1 1 2 2 11 3 9 4 5 5 4 6 3 7 10 8 6 10 7 11 8 12
REMARK H PARENT 10 9
REMARK Flexibility Score: inf
ROOT
ATOM      1  C   UNL     1     -14.247  -7.704  -5.862  1.00  0.00     0.044 C 
ATOM      2  C   UNL     1     -13.252  -6.785  -6.507  1.00  0.00    -0.047 A 
ATOM      3  C   UNL     1     -12.184  -6.266  -5.764  1.00  0.00     0.049 A 
ATOM      4  C   UNL     1     -11.270  -5.377  -6.349  1.00  0.00     0.119 A 
ATOM      5  C   UNL     1     -11.428  -4.987  -7.700  1.00  0.00    -0.004 A 
ATOM      6  C   UNL     1     -12.516  -5.502  -8.430  1.00  0.00     0.008 A 
ATOM      7  C   UNL     1     -13.421  -6.385  -7.838  1.00  0.00     0.004 A 
ENDROOT
BRANCH   4   8
ATOM      8  O   UNL     1     -10.212  -4.885  -5.585  1.00  0.00    -0.508 OA
ATOM      9  H   UNL     1     -10.215  -3.942  -5.214  1.00  0.00     0.293 HD
ENDBRANCH   4   8
BRANCH   5  10
ATOM     10  C   UNL     1     -10.468  -4.027  -8.391  1.00  0.00     0.017 C 
ATOM     11  C   UNL     1      -9.249  -4.758  -8.968  1.00  0.00     0.012 C 
ATOM     12  C   UNL     1     -11.175  -3.181  -9.457  1.00  0.00     0.012 C 
ENDBRANCH   5  10
TORSDOF 2
ENDMDL
MODEL 7
REMARK VINA RESULT:    -4.334     14.422     16.434
REMARK INTER + INTRA:          -4.910
REMARK INTER:                  -4.714
REMARK INTRA:                  -0.196
REMARK UNBOUND:                -0.196
REMARK SMILES Cc1ccc(C(C)C)c(O)c1
REMARK SMILES IDX 1 1 2 2 11 3 9 4 5 5 4 6 3 7 10 8 6 10 7 11 8 12
REMARK H PARENT 10 9
REMARK Flexibility Score: inf
ROOT
ATOM      1  C   UNL     1     -14.017   5.838   3.355  1.00  0.00     0.044 C 
ATOM      2  C   UNL     1     -13.222   5.444   4.565  1.00  0.00    -0.047 A 
ATOM      3  C   UNL     1     -12.542   4.220   4.595  1.00  0.00     0.049 A 
ATOM      4  C   UNL     1     -11.826   3.827   5.735  1.00  0.00     0.119 A 
ATOM      5  C   UNL     1     -11.795   4.665   6.875  1.00  0.00    -0.004 A 
ATOM      6  C   UNL     1     -12.498   5.884   6.837  1.00  0.00     0.008 A 
ATOM      7  C   UNL     1     -13.209   6.266   5.698  1.00  0.00     0.004 A 
ENDROOT
BRANCH   4   8
ATOM      8  O   UNL     1     -11.152   2.606   5.730  1.00  0.00    -0.508 OA
ATOM      9  H   UNL     1     -11.143   2.005   4.915  1.00  0.00     0.293 HD
ENDBRANCH   4   8
BRANCH   5  10
ATOM     10  C   UNL     1     -11.034   4.294   8.142  1.00  0.00     0.017 C 
ATOM     11  C   UNL     1     -10.405   5.524   8.809  1.00  0.00     0.012 C 
ATOM     12  C   UNL     1     -11.911   3.507   9.124  1.00  0.00     0.012 C 
ENDBRANCH   5  10
TORSDOF 2
ENDMDL
MODEL 8
REMARK VINA RESULT:    -4.313     14.641     16.181
REMARK INTER + INTRA:          -4.887
REMARK INTER:                  -4.696
REMARK INTRA:                  -0.191
REMARK UNBOUND:                -0.196
REMARK SMILES Cc1ccc(C(C)C)c(O)c1
REMARK SMILES IDX 1 1 2 2 11 3 9 4 5 5 4 6 3 7 10 8 6 10 7 11 8 12
REMARK H PARENT 10 9
REMARK Flexibility Score: inf
ROOT
ATOM      1  C   UNL     1     -15.072   6.141   4.210  1.00  0.00     0.044 C 
ATOM      2  C   UNL     1     -13.742   5.955   4.878  1.00  0.00    -0.047 A 
ATOM      3  C   UNL     1     -12.943   4.848   4.565  1.00  0.00     0.049 A 
ATOM      4  C   UNL     1     -11.715   4.646   5.212  1.00  0.00     0.119 A 
ATOM      5  C   UNL     1     -11.276   5.560   6.200  1.00  0.00    -0.004 A 
ATOM      6  C   UNL     1     -12.098   6.658   6.517  1.00  0.00     0.008 A 
ATOM      7  C   UNL     1     -13.320   6.849   5.868  1.00  0.00     0.004 A 
ENDROOT
BRANCH   4   8
ATOM      8  O   UNL     1     -10.938   3.539   4.871  1.00  0.00    -0.508 OA
ATOM      9  H   UNL     1     -10.331   3.542   4.059  1.00  0.00     0.293 HD
ENDBRANCH   4   8
BRANCH   5  10
ATOM     10  C   UNL     1      -9.952   5.396   6.935  1.00  0.00     0.017 C 
ATOM     11  C   UNL     1      -9.050   6.624   6.764  1.00  0.00     0.012 C 
ATOM     12  C   UNL     1     -10.160   5.051   8.415  1.00  0.00     0.012 C 
ENDBRANCH   5  10
TORSDOF 2
ENDMDL
