MODEL 1
REMARK VINA RESULT:    -3.404      0.000      0.000
REMARK INTER + INTRA:          -3.869
REMARK INTER:                  -3.802
REMARK INTRA:                  -0.067
REMARK UNBOUND:                -0.067
REMARK SMILES CCCC(=O)[O-]
REMARK SMILES IDX 3 1 4 2 5 3 6 4 2 5 1 6
REMARK H PARENT
REMARK Flexibility Score: inf
ROOT
ATOM      1  C   UNL     1       9.510  54.314  22.573  1.00  0.00     0.052 C 
ENDROOT
BRANCH   1   2
ATOM      2  C   UNL     1       9.869  54.236  24.024  1.00  0.00     0.041 C 
ATOM      3  O   UNL     1      11.058  54.427  24.395  1.00  0.00    -0.550 OA
ATOM      4  O   UNL     1       8.885  53.987  24.973  1.00  0.00    -0.550 OA
ENDBRANCH   1   2
BRANCH   1   5
ATOM      5  C   UNL     1      10.337  53.336  21.728  1.00  0.00     0.003 C 
ATOM      6  C   UNL     1      10.085  51.879  22.113  1.00  0.00     0.004 C 
ENDBRANCH   1   5
TORSDOF 2
ENDMDL
MODEL 2
REMARK VINA RESULT:    -3.244      5.524      6.246
REMARK INTER + INTRA:          -3.691
REMARK INTER:                  -3.652
REMARK INTRA:                  -0.038
REMARK UNBOUND:                -0.067
REMARK SMILES CCCC(=O)[O-]
REMARK SMILES IDX 3 1 4 2 5 3 6 4 2 5 1 6
REMARK H PARENT
REMARK Flexibility Score: inf
ROOT
ATOM      1  C   UNL     1       7.300  56.417  19.320  1.00  0.00     0.052 C 
ENDROOT
BRANCH   1   2
ATOM      2  C   UNL     1       7.085  55.147  18.557  1.00  0.00     0.041 C 
ATOM      3  O   UNL     1       6.986  54.049  19.167  1.00  0.00    -0.550 OA
ATOM      4  O   UNL     1       6.958  55.179  17.174  1.00  0.00    -0.550 OA
ENDBRANCH   1   2
BRANCH   1   5
ATOM      5  C   UNL     1       6.941  56.257  20.804  1.00  0.00     0.003 C 
ATOM      6  C   UNL     1       5.491  56.638  21.095  1.00  0.00     0.004 C 
ENDBRANCH   1   5
TORSDOF 2
ENDMDL
MODEL 3
REMARK VINA RESULT:    -3.225      2.114      3.125
REMARK INTER + INTRA:          -3.669
REMARK INTER:                  -3.637
REMARK INTRA:                  -0.032
REMARK UNBOUND:                -0.067
REMARK SMILES CCCC(=O)[O-]
REMARK SMILES IDX 3 1 4 2 5 3 6 4 2 5 1 6
REMARK H PARENT
REMARK Flexibility Score: inf
ROOT
ATOM      1  C   UNL     1      10.223  54.004  22.806  1.00  0.00     0.052 C 
ENDROOT
BRANCH   1   2
ATOM      2  C   UNL     1       9.581  52.705  22.429  1.00  0.00     0.041 C 
ATOM      3  O   UNL     1       8.353  52.662  22.150  1.00  0.00    -0.550 OA
ATOM      4  O   UNL     1      10.344  51.547  22.352  1.00  0.00    -0.550 OA
ENDBRANCH   1   2
BRANCH   1   5
ATOM      5  C   UNL     1      10.474  54.096  24.318  1.00  0.00     0.003 C 
ATOM      6  C   UNL     1       9.176  54.203  25.117  1.00  0.00     0.004 C 
ENDBRANCH   1   5
TORSDOF 2
ENDMDL
MODEL 4
REMARK VINA RESULT:    -3.204      4.738      5.138
REMARK INTER + INTRA:          -3.646
REMARK INTER:                  -3.636
REMARK INTRA:                  -0.010
REMARK UNBOUND:                -0.067
REMARK SMILES CCCC(=O)[O-]
REMARK SMILES IDX 3 1 4 2 5 3 6 4 2 5 1 6
REMARK H PARENT
REMARK Flexibility Score: inf
ROOT
ATOM      1  C   UNL     1       7.290  55.745  18.987  1.00  0.00     0.052 C 
ENDROOT
BRANCH   1   2
ATOM      2  C   UNL     1       7.612  55.316  20.385  1.00  0.00     0.041 C 
ATOM      3  O   UNL     1       7.613  56.158  21.323  1.00  0.00    -0.550 OA
ATOM      4  O   UNL     1       7.877  53.981  20.660  1.00  0.00    -0.550 OA
ENDBRANCH   1   2
BRANCH   1   5
ATOM      5  C   UNL     1       7.292  54.559  18.013  1.00  0.00     0.003 C 
ATOM      6  C   UNL     1       6.642  54.905  16.675  1.00  0.00     0.004 C 
ENDBRANCH   1   5
TORSDOF 2
ENDMDL
MODEL 5
REMARK VINA RESULT:    -3.196      2.172      2.880
REMARK INTER + INTRA:          -3.637
REMARK INTER:                  -3.630
REMARK INTRA:                  -0.008
REMARK UNBOUND:                -0.067
REMARK SMILES CCCC(=O)[O-]
REMARK SMILES IDX 3 1 4 2 5 3 6 4 2 5 1 6
REMARK H PARENT
REMARK Flexibility Score: inf
ROOT
ATOM      1  C   UNL     1       9.666  53.631  21.121  1.00  0.00     0.052 C 
ENDROOT
BRANCH   1   2
ATOM      2  C   UNL     1      10.132  52.895  22.339  1.00  0.00     0.041 C 
ATOM      3  O   UNL     1      10.355  53.518  23.411  1.00  0.00    -0.550 OA
ATOM      4  O   UNL     1      10.287  51.515  22.302  1.00  0.00    -0.550 OA
ENDBRANCH   1   2
BRANCH   1   5
ATOM      5  C   UNL     1       8.535  54.616  21.450  1.00  0.00     0.003 C 
ATOM      6  C   UNL     1       8.073  55.401  20.224  1.00  0.00     0.004 C 
ENDBRANCH   1   5
TORSDOF 2
ENDMDL
MODEL 6
REMARK VINA RESULT:    -3.177      2.711      3.404
REMARK INTER + INTRA:          -3.616
REMARK INTER:                  -3.563
REMARK INTRA:                  -0.053
REMARK UNBOUND:                -0.067
REMARK SMILES CCCC(=O)[O-]
REMARK SMILES IDX 3 1 4 2 5 3 6 4 2 5 1 6
REMARK H PARENT
REMARK Flexibility Score: inf
ROOT
ATOM      1  C   UNL     1       9.897  53.643  21.280  1.00  0.00     0.052 C 
ENDROOT
BRANCH   1   2
ATOM      2  C   UNL     1       8.506  54.123  20.999  1.00  0.00     0.041 C 
ATOM      3  O   UNL     1       7.515  53.511  21.479  1.00  0.00    -0.550 OA
ATOM      4  O   UNL     1       8.305  55.266  20.236  1.00  0.00    -0.550 OA
ENDBRANCH   1   2
BRANCH   1   5
ATOM      5  C   UNL     1      10.062  53.204  22.741  1.00  0.00     0.003 C 
ATOM      6  C   UNL     1      10.207  54.391  23.692  1.00  0.00     0.004 C 
ENDBRANCH   1   5
TORSDOF 2
ENDMDL
MODEL 7
REMARK VINA RESULT:    -3.163      5.034      5.509
REMARK INTER + INTRA:          -3.600
REMARK INTER:                  -3.586
REMARK INTRA:                  -0.014
REMARK UNBOUND:                -0.067
REMARK SMILES CCCC(=O)[O-]
REMARK SMILES IDX 3 1 4 2 5 3 6 4 2 5 1 6
REMARK H PARENT
REMARK Flexibility Score: inf
ROOT
ATOM      1  C   UNL     1       7.292  55.853  19.004  1.00  0.00     0.052 C 
ENDROOT
BRANCH   1   2
ATOM      2  C   UNL     1       6.683  55.608  20.351  1.00  0.00     0.041 C 
ATOM      3  O   UNL     1       6.591  54.436  20.802  1.00  0.00    -0.550 OA
ATOM      4  O   UNL     1       6.246  56.678  21.122  1.00  0.00    -0.550 OA
ENDBRANCH   1   2
BRANCH   1   5
ATOM      5  C   UNL     1       7.197  54.614  18.104  1.00  0.00     0.003 C 
ATOM      6  C   UNL     1       6.762  54.961  16.681  1.00  0.00     0.004 C 
ENDBRANCH   1   5
TORSDOF 2
ENDMDL
MODEL 8
REMARK VINA RESULT:    -3.153      3.728      4.132
REMARK INTER + INTRA:          -3.589
REMARK INTER:                  -3.578
REMARK INTRA:                  -0.011
REMARK UNBOUND:                -0.067
REMARK SMILES CCCC(=O)[O-]
REMARK SMILES IDX 3 1 4 2 5 3 6 4 2 5 1 6
REMARK H PARENT
REMARK Flexibility Score: inf
ROOT
ATOM      1  C   UNL     1       8.307  54.349  20.390  1.00  0.00     0.052 C 
ENDROOT
BRANCH   1   2
ATOM      2  C   UNL     1       7.678  55.697  20.219  1.00  0.00     0.041 C 
ATOM      3  O   UNL     1       7.493  56.442  21.218  1.00  0.00    -0.550 OA
ATOM      4  O   UNL     1       7.326  56.146  18.952  1.00  0.00    -0.550 OA
ENDBRANCH   1   2
BRANCH   1   5
ATOM      5  C   UNL     1       9.131  54.266  21.681  1.00  0.00     0.003 C 
ATOM      6  C   UNL     1      10.294  53.282  21.566  1.00  0.00     0.004 C 
ENDBRANCH   1   5
TORSDOF 2
ENDMDL
MODEL 9
REMARK VINA RESULT:    -3.129      2.910      3.610
REMARK INTER + INTRA:          -3.563
REMARK INTER:                  -3.555
REMARK INTRA:                  -0.008
REMARK UNBOUND:                -0.067
REMARK SMILES CCCC(=O)[O-]
REMARK SMILES IDX 3 1 4 2 5 3 6 4 2 5 1 6
REMARK H PARENT
REMARK Flexibility Score: inf
ROOT
ATOM      1  C   UNL     1       8.234  54.431  20.619  1.00  0.00     0.052 C 
ENDROOT
BRANCH   1   2
ATOM      2  C   UNL     1       9.334  54.129  21.590  1.00  0.00     0.041 C 
ATOM      3  O   UNL     1      10.327  53.443  21.229  1.00  0.00    -0.550 OA
ATOM      4  O   UNL     1       9.280  54.633  22.883  1.00  0.00    -0.550 OA
ENDBRANCH   1   2
BRANCH   1   5
ATOM      5  C   UNL     1       7.703  55.861  20.788  1.00  0.00     0.003 C 
ATOM      6  C   UNL     1       7.445  56.546  19.447  1.00  0.00     0.004 C 
ENDBRANCH   1   5
TORSDOF 2
ENDMDL
