MODEL 1
REMARK VINA RESULT:    -6.043      0.000      0.000
REMARK INTER + INTRA:          -6.494
REMARK INTER:                  -6.396
REMARK INTRA:                  -0.098
REMARK UNBOUND:                -0.098
REMARK SMILES C=C(C)[C@H]1CC=C(C)C(=O)C1
REMARK SMILES IDX 8 1 7 2 6 3 5 4 4 5 11 6 9 7 10 8 2 9 1 10 3 11
REMARK H PARENT
REMARK Flexibility Score: inf
ROOT
ATOM      1  C   UNL     1      -0.078  12.334 -31.465  1.00  0.00     0.048 C 
ATOM      2  C   UNL     1      -1.180  12.920 -30.626  1.00  0.00    -0.012 C 
ATOM      3  C   UNL     1      -2.430  12.987 -31.116  1.00  0.00    -0.019 C 
ATOM      4  C   UNL     1      -3.566  13.580 -30.327  1.00  0.00     0.036 C 
ATOM      5  C   UNL     1      -3.383  13.332 -28.817  1.00  0.00     0.025 C 
ATOM      6  C   UNL     1      -2.012  13.859 -28.353  1.00  0.00     0.089 C 
ATOM      7  C   UNL     1      -0.913  13.307 -29.218  1.00  0.00     0.158 C 
ATOM      8  O   UNL     1       0.252  13.210 -28.744  1.00  0.00    -0.295 OA
ENDROOT
BRANCH   5   9
ATOM      9  C   UNL     1      -4.521  13.935 -28.005  1.00  0.00    -0.077 C 
ATOM     10  C   UNL     1      -4.349  14.297 -26.723  1.00  0.00     0.008 C 
ATOM     11  C   UNL     1      -5.875  14.137 -28.635  1.00  0.00     0.039 C 
ENDBRANCH   5   9
TORSDOF 1
ENDMDL
MODEL 2
REMARK VINA RESULT:    -5.906      1.892      2.984
REMARK INTER + INTRA:          -6.349
REMARK INTER:                  -6.254
REMARK INTRA:                  -0.095
REMARK UNBOUND:                -0.098
REMARK SMILES C=C(C)[C@H]1CC=C(C)C(=O)C1
REMARK SMILES IDX 8 1 7 2 6 3 5 4 4 5 11 6 9 7 10 8 2 9 1 10 3 11
REMARK H PARENT
REMARK Flexibility Score: inf
ROOT
ATOM      1  C   UNL     1      -4.619  14.224 -32.533  1.00  0.00     0.048 C 
ATOM      2  C   UNL     1      -4.278  14.027 -31.081  1.00  0.00    -0.012 C 
ATOM      3  C   UNL     1      -5.216  14.235 -30.141  1.00  0.00    -0.019 C 
ATOM      4  C   UNL     1      -4.925  14.069 -28.673  1.00  0.00     0.036 C 
ATOM      5  C   UNL     1      -3.880  12.962 -28.435  1.00  0.00     0.025 C 
ATOM      6  C   UNL     1      -2.607  13.244 -29.256  1.00  0.00     0.089 C 
ATOM      7  C   UNL     1      -2.951  13.484 -30.700  1.00  0.00     0.158 C 
ATOM      8  O   UNL     1      -2.082  13.253 -31.585  1.00  0.00    -0.295 OA
ENDROOT
BRANCH   5   9
ATOM      9  C   UNL     1      -3.568  12.790 -26.955  1.00  0.00    -0.077 C 
ATOM     10  C   UNL     1      -3.838  13.762 -26.067  1.00  0.00     0.008 C 
ATOM     11  C   UNL     1      -2.946  11.511 -26.457  1.00  0.00     0.039 C 
ENDBRANCH   5   9
TORSDOF 1
ENDMDL
MODEL 3
REMARK VINA RESULT:    -5.882      2.256      3.413
REMARK INTER + INTRA:          -6.324
REMARK INTER:                  -6.235
REMARK INTRA:                  -0.089
REMARK UNBOUND:                -0.098
REMARK SMILES C=C(C)[C@H]1CC=C(C)C(=O)C1
REMARK SMILES IDX 8 1 7 2 6 3 5 4 4 5 11 6 9 7 10 8 2 9 1 10 3 11
REMARK H PARENT
REMARK Flexibility Score: inf
ROOT
ATOM      1  C   UNL     1      -2.391  12.145 -28.472  1.00  0.00     0.048 C 
ATOM      2  C   UNL     1      -3.520  13.135 -28.575  1.00  0.00    -0.012 C 
ATOM      3  C   UNL     1      -4.101  13.365 -29.764  1.00  0.00    -0.019 C 
ATOM      4  C   UNL     1      -5.221  14.357 -29.927  1.00  0.00     0.036 C 
ATOM      5  C   UNL     1      -6.095  14.421 -28.659  1.00  0.00     0.025 C 
ATOM      6  C   UNL     1      -5.223  14.721 -27.425  1.00  0.00     0.089 C 
ATOM      7  C   UNL     1      -4.070  13.759 -27.346  1.00  0.00     0.158 C 
ATOM      8  O   UNL     1      -3.549  13.515 -26.223  1.00  0.00    -0.295 OA
ENDROOT
BRANCH   5   9
ATOM      9  C   UNL     1      -7.227  15.428 -28.806  1.00  0.00    -0.077 C 
ATOM     10  C   UNL     1      -8.513  15.058 -28.679  1.00  0.00     0.008 C 
ATOM     11  C   UNL     1      -6.920  16.874 -29.099  1.00  0.00     0.039 C 
ENDBRANCH   5   9
TORSDOF 1
ENDMDL
MODEL 4
REMARK VINA RESULT:    -5.794      1.954      4.422
REMARK INTER + INTRA:          -6.230
REMARK INTER:                  -6.135
REMARK INTRA:                  -0.096
REMARK UNBOUND:                -0.098
REMARK SMILES C=C(C)[C@H]1CC=C(C)C(=O)C1
REMARK SMILES IDX 8 1 7 2 6 3 5 4 4 5 11 6 9 7 10 8 2 9 1 10 3 11
REMARK H PARENT
REMARK Flexibility Score: inf
ROOT
ATOM      1  C   UNL     1      -6.515  14.740 -28.445  1.00  0.00     0.048 C 
ATOM      2  C   UNL     1      -5.156  14.118 -28.615  1.00  0.00    -0.012 C 
ATOM      3  C   UNL     1      -4.733  13.761 -29.840  1.00  0.00    -0.019 C 
ATOM      4  C   UNL     1      -3.390  13.119 -30.066  1.00  0.00     0.036 C 
ATOM      5  C   UNL     1      -2.351  13.635 -29.052  1.00  0.00     0.025 C 
ATOM      6  C   UNL     1      -2.861  13.432 -27.613  1.00  0.00     0.089 C 
ATOM      7  C   UNL     1      -4.238  14.015 -27.454  1.00  0.00     0.158 C 
ATOM      8  O   UNL     1      -4.620  14.384 -26.310  1.00  0.00    -0.295 OA
ENDROOT
BRANCH   5   9
ATOM      9  C   UNL     1      -0.989  12.987 -29.262  1.00  0.00    -0.077 C 
ATOM     10  C   UNL     1      -0.864  11.821 -29.919  1.00  0.00     0.008 C 
ATOM     11  C   UNL     1       0.255  13.651 -28.731  1.00  0.00     0.039 C 
ENDBRANCH   5   9
TORSDOF 1
ENDMDL
MODEL 5
REMARK VINA RESULT:    -5.720      2.763      3.763
REMARK INTER + INTRA:          -6.152
REMARK INTER:                  -6.057
REMARK INTRA:                  -0.096
REMARK UNBOUND:                -0.098
REMARK SMILES C=C(C)[C@H]1CC=C(C)C(=O)C1
REMARK SMILES IDX 8 1 7 2 6 3 5 4 4 5 11 6 9 7 10 8 2 9 1 10 3 11
REMARK H PARENT
REMARK Flexibility Score: inf
ROOT
ATOM      1  C   UNL     1      -2.421  10.952 -26.081  1.00  0.00     0.048 C 
ATOM      2  C   UNL     1      -3.242  11.733 -27.071  1.00  0.00    -0.012 C 
ATOM      3  C   UNL     1      -3.605  12.995 -26.789  1.00  0.00    -0.019 C 
ATOM      4  C   UNL     1      -4.441  13.816 -27.735  1.00  0.00     0.036 C 
ATOM      5  C   UNL     1      -4.143  13.448 -29.201  1.00  0.00     0.025 C 
ATOM      6  C   UNL     1      -4.328  11.934 -29.420  1.00  0.00     0.089 C 
ATOM      7  C   UNL     1      -3.541  11.153 -28.404  1.00  0.00     0.158 C 
ATOM      8  O   UNL     1      -3.168   9.981 -28.684  1.00  0.00    -0.295 OA
ENDROOT
BRANCH   5   9
ATOM      9  C   UNL     1      -4.989  14.264 -30.170  1.00  0.00    -0.077 C 
ATOM     10  C   UNL     1      -6.070  14.942 -29.752  1.00  0.00     0.008 C 
ATOM     11  C   UNL     1      -4.620  14.324 -31.629  1.00  0.00     0.039 C 
ENDBRANCH   5   9
TORSDOF 1
ENDMDL
MODEL 6
REMARK VINA RESULT:    -5.672      2.358      4.805
REMARK INTER + INTRA:          -6.101
REMARK INTER:                  -6.012
REMARK INTRA:                  -0.090
REMARK UNBOUND:                -0.098
REMARK SMILES C=C(C)[C@H]1CC=C(C)C(=O)C1
REMARK SMILES IDX 8 1 7 2 6 3 5 4 4 5 11 6 9 7 10 8 2 9 1 10 3 11
REMARK H PARENT
REMARK Flexibility Score: inf
ROOT
ATOM      1  C   UNL     1      -6.418  14.759 -28.994  1.00  0.00     0.048 C 
ATOM      2  C   UNL     1      -5.159  14.034 -29.386  1.00  0.00    -0.012 C 
ATOM      3  C   UNL     1      -4.563  13.209 -28.510  1.00  0.00    -0.019 C 
ATOM      4  C   UNL     1      -3.292  12.473 -28.844  1.00  0.00     0.036 C 
ATOM      5  C   UNL     1      -3.233  12.119 -30.342  1.00  0.00     0.025 C 
ATOM      6  C   UNL     1      -3.416  13.387 -31.198  1.00  0.00     0.089 C 
ATOM      7  C   UNL     1      -4.651  14.135 -30.777  1.00  0.00     0.158 C 
ATOM      8  O   UNL     1      -5.232  14.881 -31.612  1.00  0.00    -0.295 OA
ENDROOT
BRANCH   5   9
ATOM      9  C   UNL     1      -1.948  11.382 -30.696  1.00  0.00    -0.077 C 
ATOM     10  C   UNL     1      -1.830  10.057 -30.513  1.00  0.00     0.008 C 
ATOM     11  C   UNL     1      -0.776  12.138 -31.266  1.00  0.00     0.039 C 
ENDBRANCH   5   9
TORSDOF 1
ENDMDL
MODEL 7
REMARK VINA RESULT:    -5.569      2.720      3.755
REMARK INTER + INTRA:          -5.993
REMARK INTER:                  -5.897
REMARK INTRA:                  -0.096
REMARK UNBOUND:                -0.098
REMARK SMILES C=C(C)[C@H]1CC=C(C)C(=O)C1
REMARK SMILES IDX 8 1 7 2 6 3 5 4 4 5 11 6 9 7 10 8 2 9 1 10 3 11
REMARK H PARENT
REMARK Flexibility Score: inf
ROOT
ATOM      1  C   UNL     1      -4.868  14.815 -32.344  1.00  0.00     0.048 C 
ATOM      2  C   UNL     1      -4.570  14.058 -31.079  1.00  0.00    -0.012 C 
ATOM      3  C   UNL     1      -3.562  13.169 -31.054  1.00  0.00    -0.019 C 
ATOM      4  C   UNL     1      -3.231  12.371 -29.821  1.00  0.00     0.036 C 
ATOM      5  C   UNL     1      -3.531  13.176 -28.542  1.00  0.00     0.025 C 
ATOM      6  C   UNL     1      -4.993  13.662 -28.548  1.00  0.00     0.089 C 
ATOM      7  C   UNL     1      -5.305  14.383 -29.831  1.00  0.00     0.158 C 
ATOM      8  O   UNL     1      -6.226  15.243 -29.844  1.00  0.00    -0.295 OA
ENDROOT
BRANCH   5   9
ATOM      9  C   UNL     1      -3.210  12.377 -27.286  1.00  0.00    -0.077 C 
ATOM     10  C   UNL     1      -2.591  11.186 -27.354  1.00  0.00     0.008 C 
ATOM     11  C   UNL     1      -3.585  12.917 -25.930  1.00  0.00     0.039 C 
ENDBRANCH   5   9
TORSDOF 1
ENDMDL
MODEL 8
REMARK VINA RESULT:    -5.546      1.475      1.963
REMARK INTER + INTRA:          -5.968
REMARK INTER:                  -5.873
REMARK INTRA:                  -0.095
REMARK UNBOUND:                -0.098
REMARK SMILES C=C(C)[C@H]1CC=C(C)C(=O)C1
REMARK SMILES IDX 8 1 7 2 6 3 5 4 4 5 11 6 9 7 10 8 2 9 1 10 3 11
REMARK H PARENT
REMARK Flexibility Score: inf
ROOT
ATOM      1  C   UNL     1       0.295  12.145 -31.356  1.00  0.00     0.048 C 
ATOM      2  C   UNL     1      -0.787  12.478 -30.366  1.00  0.00    -0.012 C 
ATOM      3  C   UNL     1      -0.668  13.568 -29.588  1.00  0.00    -0.019 C 
ATOM      4  C   UNL     1      -1.711  13.939 -28.568  1.00  0.00     0.036 C 
ATOM      5  C   UNL     1      -3.119  13.523 -29.037  1.00  0.00     0.025 C 
ATOM      6  C   UNL     1      -3.145  12.021 -29.380  1.00  0.00     0.089 C 
ATOM      7  C   UNL     1      -2.037  11.678 -30.337  1.00  0.00     0.158 C 
ATOM      8  O   UNL     1      -2.166  10.677 -31.093  1.00  0.00    -0.295 OA
ENDROOT
BRANCH   5   9
ATOM      9  C   UNL     1      -4.184  13.883 -28.010  1.00  0.00    -0.077 C 
ATOM     10  C   UNL     1      -3.886  13.995 -26.704  1.00  0.00     0.008 C 
ATOM     11  C   UNL     1      -5.605  14.124 -28.448  1.00  0.00     0.039 C 
ENDBRANCH   5   9
TORSDOF 1
ENDMDL
MODEL 9
REMARK VINA RESULT:    -5.523      2.457      4.690
REMARK INTER + INTRA:          -5.943
REMARK INTER:                  -5.846
REMARK INTRA:                  -0.097
REMARK UNBOUND:                -0.098
REMARK SMILES C=C(C)[C@H]1CC=C(C)C(=O)C1
REMARK SMILES IDX 8 1 7 2 6 3 5 4 4 5 11 6 9 7 10 8 2 9 1 10 3 11
REMARK H PARENT
REMARK Flexibility Score: inf
ROOT
ATOM      1  C   UNL     1      -7.195  15.510 -29.117  1.00  0.00     0.048 C 
ATOM      2  C   UNL     1      -5.921  14.775 -28.803  1.00  0.00    -0.012 C 
ATOM      3  C   UNL     1      -5.621  14.474 -27.528  1.00  0.00    -0.019 C 
ATOM      4  C   UNL     1      -4.351  13.756 -27.154  1.00  0.00     0.036 C 
ATOM      5  C   UNL     1      -3.924  12.773 -28.261  1.00  0.00     0.025 C 
ATOM      6  C   UNL     1      -3.805  13.506 -29.611  1.00  0.00     0.089 C 
ATOM      7  C   UNL     1      -5.063  14.276 -29.906  1.00  0.00     0.158 C 
ATOM      8  O   UNL     1      -5.363  14.526 -31.105  1.00  0.00    -0.295 OA
ENDROOT
BRANCH   5   9
ATOM      9  C   UNL     1      -2.635  12.046 -27.901  1.00  0.00    -0.077 C 
ATOM     10  C   UNL     1      -1.563  12.083 -28.710  1.00  0.00     0.008 C 
ATOM     11  C   UNL     1      -2.541  11.264 -26.616  1.00  0.00     0.039 C 
ENDBRANCH   5   9
TORSDOF 1
ENDMDL
