MODEL 1
REMARK VINA RESULT:     8.749      0.000      0.000
REMARK INTER + INTRA:          13.959
REMARK INTER:                  15.398
REMARK INTRA:                  -1.439
REMARK UNBOUND:                -1.439
REMARK SMILES CCCCCCCCCCCCCCC(=O)[O-]
REMARK SMILES IDX 9 1 10 2 11 3 12 4 13 5 14 6 15 7 16 8 17 9 8 10 7 11 6 12
REMARK SMILES IDX 5 13 4 14 3 15 2 16 1 17
REMARK H PARENT
REMARK Flexibility Score: inf
ROOT
ATOM      1  C   UNL     1     -15.731  24.251 -18.634  1.00  0.00     0.000 C 
ENDROOT
BRANCH   1   2
ATOM      2  C   UNL     1     -16.735  24.934 -17.682  1.00  0.00     0.000 C 
BRANCH   2   3
ATOM      3  C   UNL     1     -17.384  26.176 -18.317  1.00  0.00     0.000 C 
BRANCH   3   4
ATOM      4  C   UNL     1     -16.427  27.377 -18.380  1.00  0.00     0.000 C 
BRANCH   4   5
ATOM      5  C   UNL     1     -16.519  28.138 -19.714  1.00  0.00     0.006 C 
BRANCH   5   6
ATOM      6  C   UNL     1     -17.424  27.423 -20.726  1.00  0.00     0.053 C 
BRANCH   6   7
ATOM      7  C   UNL     1     -18.368  28.376 -21.395  1.00  0.00     0.041 C 
ATOM      8  O   UNL     1     -17.964  29.119 -22.327  1.00  0.00    -0.550 OA
ATOM      9  O   UNL     1     -19.702  28.416 -21.012  1.00  0.00    -0.550 OA
ENDBRANCH   6   7
ENDBRANCH   5   6
ENDBRANCH   4   5
ENDBRANCH   3   4
ENDBRANCH   2   3
ENDBRANCH   1   2
BRANCH   1  10
ATOM     10  C   UNL     1     -16.323  23.060 -19.406  1.00  0.00     0.000 C 
BRANCH  10  11
ATOM     11  C   UNL     1     -16.185  23.209 -20.930  1.00  0.00    -0.000 C 
BRANCH  11  12
ATOM     12  C   UNL     1     -15.735  24.619 -21.347  1.00  0.00    -0.000 C 
BRANCH  12  13
ATOM     13  C   UNL     1     -14.930  24.616 -22.658  1.00  0.00    -0.000 C 
BRANCH  13  14
ATOM     14  C   UNL     1     -14.092  23.338 -22.832  1.00  0.00    -0.000 C 
BRANCH  14  15
ATOM     15  C   UNL     1     -12.611  23.635 -23.125  1.00  0.00    -0.000 C 
BRANCH  15  16
ATOM     16  C   UNL     1     -11.667  22.968 -22.112  1.00  0.00    -0.003 C 
ATOM     17  C   UNL     1     -12.273  22.876 -20.712  1.00  0.00     0.004 C 
ENDBRANCH  15  16
ENDBRANCH  14  15
ENDBRANCH  13  14
ENDBRANCH  12  13
ENDBRANCH  11  12
ENDBRANCH  10  11
ENDBRANCH   1  10
TORSDOF 13
ENDMDL
MODEL 2
REMARK VINA RESULT:     8.976      0.699      1.221
REMARK INTER + INTRA:          14.359
REMARK INTER:                  15.307
REMARK INTRA:                  -0.947
REMARK UNBOUND:                -1.439
REMARK SMILES CCCCCCCCCCCCCCC(=O)[O-]
REMARK SMILES IDX 9 1 10 2 11 3 12 4 13 5 14 6 15 7 16 8 17 9 8 10 7 11 6 12
REMARK SMILES IDX 5 13 4 14 3 15 2 16 1 17
REMARK H PARENT
REMARK Flexibility Score: inf
ROOT
ATOM      1  C   UNL     1     -16.501  24.677 -17.407  1.00  0.00     0.000 C 
ENDROOT
BRANCH   1   2
ATOM      2  C   UNL     1     -17.456  25.849 -17.099  1.00  0.00     0.000 C 
BRANCH   2   3
ATOM      3  C   UNL     1     -17.773  26.684 -18.353  1.00  0.00     0.000 C 
BRANCH   3   4
ATOM      4  C   UNL     1     -16.674  27.709 -18.674  1.00  0.00     0.000 C 
BRANCH   4   5
ATOM      5  C   UNL     1     -16.287  27.715 -20.163  1.00  0.00     0.006 C 
BRANCH   5   6
ATOM      6  C   UNL     1     -17.456  27.301 -21.066  1.00  0.00     0.053 C 
BRANCH   6   7
ATOM      7  C   UNL     1     -18.423  28.428 -21.274  1.00  0.00     0.041 C 
ATOM      8  O   UNL     1     -18.497  29.001 -22.392  1.00  0.00    -0.550 OA
ATOM      9  O   UNL     1     -19.265  28.820 -20.242  1.00  0.00    -0.550 OA
ENDBRANCH   6   7
ENDBRANCH   5   6
ENDBRANCH   4   5
ENDBRANCH   3   4
ENDBRANCH   2   3
ENDBRANCH   1   2
BRANCH   1  10
ATOM     10  C   UNL     1     -16.549  24.209 -18.871  1.00  0.00     0.000 C 
BRANCH  10  11
ATOM     11  C   UNL     1     -15.690  22.961 -19.128  1.00  0.00    -0.000 C 
BRANCH  11  12
ATOM     12  C   UNL     1     -14.982  23.001 -20.492  1.00  0.00    -0.000 C 
BRANCH  12  13
ATOM     13  C   UNL     1     -15.711  23.900 -21.506  1.00  0.00    -0.000 C 
BRANCH  13  14
ATOM     14  C   UNL     1     -14.898  24.117 -22.793  1.00  0.00    -0.000 C 
BRANCH  14  15
ATOM     15  C   UNL     1     -13.897  22.979 -23.061  1.00  0.00    -0.000 C 
BRANCH  15  16
ATOM     16  C   UNL     1     -12.443  23.475 -23.105  1.00  0.00    -0.003 C 
ATOM     17  C   UNL     1     -11.583  22.883 -21.989  1.00  0.00     0.004 C 
ENDBRANCH  15  16
ENDBRANCH  14  15
ENDBRANCH  13  14
ENDBRANCH  12  13
ENDBRANCH  11  12
ENDBRANCH  10  11
ENDBRANCH   1  10
TORSDOF 13
ENDMDL
MODEL 3
REMARK VINA RESULT:     9.491      3.034      6.416
REMARK INTER + INTRA:          15.264
REMARK INTER:                  15.829
REMARK INTRA:                  -0.565
REMARK UNBOUND:                -1.439
REMARK SMILES CCCCCCCCCCCCCCC(=O)[O-]
REMARK SMILES IDX 9 1 10 2 11 3 12 4 13 5 14 6 15 7 16 8 17 9 8 10 7 11 6 12
REMARK SMILES IDX 5 13 4 14 3 15 2 16 1 17
REMARK H PARENT
REMARK Flexibility Score: inf
ROOT
ATOM      1  C   UNL     1     -15.652  24.216 -19.018  1.00  0.00     0.000 C 
ENDROOT
BRANCH   1   2
ATOM      2  C   UNL     1     -15.968  22.979 -19.885  1.00  0.00     0.000 C 
BRANCH   2   3
ATOM      3  C   UNL     1     -16.527  23.367 -21.265  1.00  0.00     0.000 C 
BRANCH   3   4
ATOM      4  C   UNL     1     -15.464  23.994 -22.181  1.00  0.00     0.000 C 
BRANCH   4   5
ATOM      5  C   UNL     1     -14.516  22.947 -22.789  1.00  0.00     0.006 C 
BRANCH   5   6
ATOM      6  C   UNL     1     -13.176  22.875 -22.044  1.00  0.00     0.053 C 
BRANCH   6   7
ATOM      7  C   UNL     1     -12.083  23.566 -22.801  1.00  0.00     0.041 C 
ATOM      8  O   UNL     1     -12.202  24.777 -23.123  1.00  0.00    -0.550 OA
ATOM      9  O   UNL     1     -10.917  22.881 -23.119  1.00  0.00    -0.550 OA
ENDBRANCH   6   7
ENDBRANCH   5   6
ENDBRANCH   4   5
ENDBRANCH   3   4
ENDBRANCH   2   3
ENDBRANCH   1   2
BRANCH   1  10
ATOM     10  C   UNL     1     -16.096  24.071 -17.552  1.00  0.00     0.000 C 
BRANCH  10  11
ATOM     11  C   UNL     1     -17.204  25.065 -17.164  1.00  0.00    -0.000 C 
BRANCH  11  12
ATOM     12  C   UNL     1     -16.730  26.527 -17.216  1.00  0.00    -0.000 C 
BRANCH  12  13
ATOM     13  C   UNL     1     -16.912  27.155 -18.609  1.00  0.00    -0.000 C 
BRANCH  13  14
ATOM     14  C   UNL     1     -18.382  27.480 -18.922  1.00  0.00    -0.000 C 
BRANCH  14  15
ATOM     15  C   UNL     1     -18.533  28.517 -20.049  1.00  0.00    -0.000 C 
BRANCH  15  16
ATOM     16  C   UNL     1     -18.046  27.986 -21.406  1.00  0.00    -0.003 C 
ATOM     17  C   UNL     1     -18.686  28.711 -22.588  1.00  0.00     0.004 C 
ENDBRANCH  15  16
ENDBRANCH  14  15
ENDBRANCH  13  14
ENDBRANCH  12  13
ENDBRANCH  11  12
ENDBRANCH  10  11
ENDBRANCH   1  10
TORSDOF 13
ENDMDL
