MODEL 1
REMARK VINA RESULT:    -4.983      0.000      0.000
REMARK INTER + INTRA:          -5.639
REMARK INTER:                  -5.274
REMARK INTRA:                  -0.365
REMARK UNBOUND:                -0.365
REMARK SMILES CC1=CC[C@@H]2[C@H]3[C@H](C(C)C)CC[C@]2(C)[C@@H]13
REMARK SMILES IDX 1 1 2 2 3 3 4 4 5 5 6 6 15 7 13 8 12 9 11 10 7 11 14 12 8 13
REMARK SMILES IDX 9 14 10 15
REMARK H PARENT
REMARK Flexibility Score: inf
ROOT
ATOM      1  C   UNL     1      12.094   5.971  20.190  1.00  0.00     0.039 C 
ATOM      2  C   UNL     1      12.036   6.105  18.698  1.00  0.00    -0.073 C 
ATOM      3  C   UNL     1      10.876   5.911  18.018  1.00  0.00    -0.027 C 
ATOM      4  C   UNL     1      10.875   6.079  16.495  1.00  0.00     0.031 C 
ATOM      5  C   UNL     1      12.311   6.428  15.984  1.00  0.00     0.003 C 
ATOM      6  C   UNL     1      13.300   5.458  16.674  1.00  0.00     0.004 C 
ATOM      7  C   UNL     1      13.280   6.441  17.873  1.00  0.00     0.024 C 
ATOM      8  C   UNL     1      12.961   7.546  16.836  1.00  0.00    -0.022 C 
ATOM      9  C   UNL     1      14.265   8.030  16.129  1.00  0.00     0.008 C 
ATOM     10  C   UNL     1      15.312   6.896  15.972  1.00  0.00     0.005 C 
ATOM     11  C   UNL     1      14.662   5.481  15.912  1.00  0.00    -0.005 C 
ATOM     12  C   UNL     1      12.090   8.748  17.270  1.00  0.00     0.012 C 
ENDROOT
BRANCH  11  13
ATOM     13  C   UNL     1      15.650   4.357  16.353  1.00  0.00    -0.014 C 
ATOM     14  C   UNL     1      16.987   4.883  16.902  1.00  0.00     0.007 C 
ATOM     15  C   UNL     1      15.003   3.410  17.376  1.00  0.00     0.007 C 
ENDBRANCH  11  13
TORSDOF 1
ENDMDL
MODEL 2
REMARK VINA RESULT:    -4.903      1.408      4.496
REMARK INTER + INTRA:          -5.555
REMARK INTER:                  -5.131
REMARK INTRA:                  -0.425
REMARK UNBOUND:                -0.365
REMARK SMILES CC1=CC[C@@H]2[C@H]3[C@H](C(C)C)CC[C@]2(C)[C@@H]13
REMARK SMILES IDX 1 1 2 2 3 3 4 4 5 5 6 6 15 7 13 8 12 9 11 10 7 11 14 12 8 13
REMARK SMILES IDX 9 14 10 15
REMARK H PARENT
REMARK Flexibility Score: inf
ROOT
ATOM      1  C   UNL     1      16.055   6.849  18.865  1.00  0.00     0.039 C 
ATOM      2  C   UNL     1      15.241   6.080  17.869  1.00  0.00    -0.073 C 
ATOM      3  C   UNL     1      15.830   5.399  16.852  1.00  0.00    -0.027 C 
ATOM      4  C   UNL     1      14.947   4.616  15.875  1.00  0.00     0.031 C 
ATOM      5  C   UNL     1      13.438   4.796  16.242  1.00  0.00     0.003 C 
ATOM      6  C   UNL     1      13.196   6.303  16.496  1.00  0.00     0.004 C 
ATOM      7  C   UNL     1      13.712   6.045  17.936  1.00  0.00     0.024 C 
ATOM      8  C   UNL     1      13.193   4.597  17.758  1.00  0.00    -0.022 C 
ATOM      9  C   UNL     1      11.657   4.528  18.020  1.00  0.00     0.008 C 
ATOM     10  C   UNL     1      10.922   5.826  17.596  1.00  0.00     0.005 C 
ATOM     11  C   UNL     1      11.663   6.594  16.460  1.00  0.00    -0.005 C 
ATOM     12  C   UNL     1      13.930   3.446  18.483  1.00  0.00     0.012 C 
ENDROOT
BRANCH  11  13
ATOM     13  C   UNL     1      11.309   8.113  16.445  1.00  0.00    -0.014 C 
ATOM     14  C   UNL     1      10.878   8.666  17.814  1.00  0.00     0.007 C 
ATOM     15  C   UNL     1      12.468   8.953  15.885  1.00  0.00     0.007 C 
ENDBRANCH  11  13
TORSDOF 1
ENDMDL
MODEL 3
REMARK VINA RESULT:    -4.861      1.158      1.568
REMARK INTER + INTRA:          -5.511
REMARK INTER:                  -5.208
REMARK INTRA:                  -0.303
REMARK UNBOUND:                -0.365
REMARK SMILES CC1=CC[C@@H]2[C@H]3[C@H](C(C)C)CC[C@]2(C)[C@@H]13
REMARK SMILES IDX 1 1 2 2 3 3 4 4 5 5 6 6 15 7 13 8 12 9 11 10 7 11 14 12 8 13
REMARK SMILES IDX 9 14 10 15
REMARK H PARENT
REMARK Flexibility Score: inf
ROOT
ATOM      1  C   UNL     1      12.174   7.714  20.025  1.00  0.00     0.039 C 
ATOM      2  C   UNL     1      12.086   7.055  18.681  1.00  0.00    -0.073 C 
ATOM      3  C   UNL     1      10.905   6.964  18.017  1.00  0.00    -0.027 C 
ATOM      4  C   UNL     1      10.881   6.295  16.639  1.00  0.00     0.031 C 
ATOM      5  C   UNL     1      12.308   5.782  16.258  1.00  0.00     0.003 C 
ATOM      6  C   UNL     1      12.881   5.040  17.488  1.00  0.00     0.004 C 
ATOM      7  C   UNL     1      13.314   6.436  18.008  1.00  0.00     0.024 C 
ATOM      8  C   UNL     1      13.389   6.859  16.521  1.00  0.00    -0.022 C 
ATOM      9  C   UNL     1      14.735   6.394  15.885  1.00  0.00     0.008 C 
ATOM     10  C   UNL     1      15.250   5.060  16.489  1.00  0.00     0.005 C 
ATOM     11  C   UNL     1      14.099   4.170  17.047  1.00  0.00    -0.005 C 
ATOM     12  C   UNL     1      13.079   8.327  16.146  1.00  0.00     0.012 C 
ENDROOT
BRANCH  11  13
ATOM     13  C   UNL     1      14.598   3.179  18.144  1.00  0.00    -0.014 C 
ATOM     14  C   UNL     1      16.117   3.222  18.379  1.00  0.00     0.007 C 
ATOM     15  C   UNL     1      13.859   3.397  19.474  1.00  0.00     0.007 C 
ENDBRANCH  11  13
TORSDOF 1
ENDMDL
MODEL 4
REMARK VINA RESULT:    -4.672      2.100      3.617
REMARK INTER + INTRA:          -5.310
REMARK INTER:                  -5.018
REMARK INTRA:                  -0.292
REMARK UNBOUND:                -0.365
REMARK SMILES CC1=CC[C@@H]2[C@H]3[C@H](C(C)C)CC[C@]2(C)[C@@H]13
REMARK SMILES IDX 1 1 2 2 3 3 4 4 5 5 6 6 15 7 13 8 12 9 11 10 7 11 14 12 8 13
REMARK SMILES IDX 9 14 10 15
REMARK H PARENT
REMARK Flexibility Score: inf
ROOT
ATOM      1  C   UNL     1      13.234   8.362  19.132  1.00  0.00     0.039 C 
ATOM      2  C   UNL     1      12.676   7.049  18.670  1.00  0.00    -0.073 C 
ATOM      3  C   UNL     1      11.384   6.935  18.268  1.00  0.00    -0.027 C 
ATOM      4  C   UNL     1      10.875   5.571  17.791  1.00  0.00     0.031 C 
ATOM      5  C   UNL     1      12.007   4.498  17.901  1.00  0.00     0.003 C 
ATOM      6  C   UNL     1      12.665   4.656  19.292  1.00  0.00     0.004 C 
ATOM      7  C   UNL     1      13.526   5.776  18.653  1.00  0.00     0.024 C 
ATOM      8  C   UNL     1      13.343   5.019  17.315  1.00  0.00    -0.022 C 
ATOM      9  C   UNL     1      14.350   3.832  17.213  1.00  0.00     0.008 C 
ATOM     10  C   UNL     1      14.663   3.197  18.594  1.00  0.00     0.005 C 
ATOM     11  C   UNL     1      13.501   3.379  19.617  1.00  0.00    -0.005 C 
ATOM     12  C   UNL     1      13.309   5.829  15.998  1.00  0.00     0.012 C 
ENDROOT
BRANCH  11  13
ATOM     13  C   UNL     1      13.998   3.308  21.094  1.00  0.00    -0.014 C 
ATOM     14  C   UNL     1      13.150   4.133  22.077  1.00  0.00     0.007 C 
ATOM     15  C   UNL     1      14.096   1.854  21.583  1.00  0.00     0.007 C 
ENDBRANCH  11  13
TORSDOF 1
ENDMDL
MODEL 5
REMARK VINA RESULT:    -4.597      1.743      3.643
REMARK INTER + INTRA:          -5.231
REMARK INTER:                  -4.963
REMARK INTRA:                  -0.268
REMARK UNBOUND:                -0.365
REMARK SMILES CC1=CC[C@@H]2[C@H]3[C@H](C(C)C)CC[C@]2(C)[C@@H]13
REMARK SMILES IDX 1 1 2 2 3 3 4 4 5 5 6 6 15 7 13 8 12 9 11 10 7 11 14 12 8 13
REMARK SMILES IDX 9 14 10 15
REMARK H PARENT
REMARK Flexibility Score: inf
ROOT
ATOM      1  C   UNL     1      14.854   8.442  16.180  1.00  0.00     0.039 C 
ATOM      2  C   UNL     1      13.630   8.241  17.021  1.00  0.00    -0.073 C 
ATOM      3  C   UNL     1      13.024   9.284  17.645  1.00  0.00    -0.027 C 
ATOM      4  C   UNL     1      11.766   9.019  18.478  1.00  0.00     0.031 C 
ATOM      5  C   UNL     1      11.423   7.494  18.476  1.00  0.00     0.003 C 
ATOM      6  C   UNL     1      12.734   6.721  18.754  1.00  0.00     0.004 C 
ATOM      7  C   UNL     1      13.021   6.853  17.236  1.00  0.00     0.024 C 
ATOM      8  C   UNL     1      11.485   6.899  17.048  1.00  0.00    -0.022 C 
ATOM      9  C   UNL     1      10.885   5.459  17.071  1.00  0.00     0.008 C 
ATOM     10  C   UNL     1      11.669   4.502  18.008  1.00  0.00     0.005 C 
ATOM     11  C   UNL     1      12.393   5.255  19.166  1.00  0.00    -0.005 C 
ATOM     12  C   UNL     1      10.900   7.722  15.876  1.00  0.00     0.012 C 
ENDROOT
BRANCH  11  13
ATOM     13  C   UNL     1      13.612   4.454  19.720  1.00  0.00    -0.014 C 
ATOM     14  C   UNL     1      13.342   3.760  21.065  1.00  0.00     0.007 C 
ATOM     15  C   UNL     1      14.120   3.427  18.695  1.00  0.00     0.007 C 
ENDBRANCH  11  13
TORSDOF 1
ENDMDL
MODEL 6
REMARK VINA RESULT:    -4.454      1.436      4.512
REMARK INTER + INTRA:          -5.080
REMARK INTER:                  -4.812
REMARK INTRA:                  -0.268
REMARK UNBOUND:                -0.365
REMARK SMILES CC1=CC[C@@H]2[C@H]3[C@H](C(C)C)CC[C@]2(C)[C@@H]13
REMARK SMILES IDX 1 1 2 2 3 3 4 4 5 5 6 6 15 7 13 8 12 9 11 10 7 11 14 12 8 13
REMARK SMILES IDX 9 14 10 15
REMARK H PARENT
REMARK Flexibility Score: inf
ROOT
ATOM      1  C   UNL     1      14.742   8.088  16.488  1.00  0.00     0.039 C 
ATOM      2  C   UNL     1      13.634   7.114  16.751  1.00  0.00    -0.073 C 
ATOM      3  C   UNL     1      12.591   6.984  15.890  1.00  0.00    -0.027 C 
ATOM      4  C   UNL     1      11.496   5.958  16.203  1.00  0.00     0.031 C 
ATOM      5  C   UNL     1      11.795   5.240  17.559  1.00  0.00     0.003 C 
ATOM      6  C   UNL     1      12.178   6.328  18.589  1.00  0.00     0.004 C 
ATOM      7  C   UNL     1      13.613   6.239  18.007  1.00  0.00     0.024 C 
ATOM      8  C   UNL     1      13.269   4.774  17.643  1.00  0.00    -0.022 C 
ATOM      9  C   UNL     1      13.439   3.845  18.885  1.00  0.00     0.008 C 
ATOM     10  C   UNL     1      13.101   4.566  20.217  1.00  0.00     0.005 C 
ATOM     11  C   UNL     1      12.086   5.733  20.029  1.00  0.00    -0.005 C 
ATOM     12  C   UNL     1      13.920   4.144  16.390  1.00  0.00     0.012 C 
ENDROOT
BRANCH  11  13
ATOM     13  C   UNL     1      12.196   6.801  21.161  1.00  0.00    -0.014 C 
ATOM     14  C   UNL     1      11.577   8.161  20.798  1.00  0.00     0.007 C 
ATOM     15  C   UNL     1      11.591   6.287  22.477  1.00  0.00     0.007 C 
ENDBRANCH  11  13
TORSDOF 1
ENDMDL
MODEL 7
REMARK VINA RESULT:    -4.403      1.838      3.185
REMARK INTER + INTRA:          -5.025
REMARK INTER:                  -4.603
REMARK INTRA:                  -0.422
REMARK UNBOUND:                -0.365
REMARK SMILES CC1=CC[C@@H]2[C@H]3[C@H](C(C)C)CC[C@]2(C)[C@@H]13
REMARK SMILES IDX 1 1 2 2 3 3 4 4 5 5 6 6 15 7 13 8 12 9 11 10 7 11 14 12 8 13
REMARK SMILES IDX 9 14 10 15
REMARK H PARENT
REMARK Flexibility Score: inf
ROOT
ATOM      1  C   UNL     1      14.826   9.154  19.208  1.00  0.00     0.039 C 
ATOM      2  C   UNL     1      13.388   8.765  19.042  1.00  0.00    -0.073 C 
ATOM      3  C   UNL     1      12.426   9.253  19.868  1.00  0.00    -0.027 C 
ATOM      4  C   UNL     1      10.971   8.833  19.639  1.00  0.00     0.031 C 
ATOM      5  C   UNL     1      10.875   7.830  18.444  1.00  0.00     0.003 C 
ATOM      6  C   UNL     1      11.985   6.769  18.635  1.00  0.00     0.004 C 
ATOM      7  C   UNL     1      12.940   7.785  17.955  1.00  0.00     0.024 C 
ATOM      8  C   UNL     1      11.687   8.323  17.221  1.00  0.00    -0.022 C 
ATOM      9  C   UNL     1      11.346   7.429  15.989  1.00  0.00     0.008 C 
ATOM     10  C   UNL     1      11.708   5.937  16.218  1.00  0.00     0.005 C 
ATOM     11  C   UNL     1      11.686   5.538  17.725  1.00  0.00    -0.005 C 
ATOM     12  C   UNL     1      11.628   9.823  16.848  1.00  0.00     0.012 C 
ENDROOT
BRANCH  11  13
ATOM     13  C   UNL     1      12.588   4.300  18.020  1.00  0.00    -0.014 C 
ATOM     14  C   UNL     1      13.784   4.157  17.063  1.00  0.00     0.007 C 
ATOM     15  C   UNL     1      13.083   4.301  19.476  1.00  0.00     0.007 C 
ENDBRANCH  11  13
TORSDOF 1
ENDMDL
MODEL 8
REMARK VINA RESULT:    -4.104      2.026      4.509
REMARK INTER + INTRA:          -4.709
REMARK INTER:                  -4.459
REMARK INTRA:                  -0.250
REMARK UNBOUND:                -0.365
REMARK SMILES CC1=CC[C@@H]2[C@H]3[C@H](C(C)C)CC[C@]2(C)[C@@H]13
REMARK SMILES IDX 1 1 2 2 3 3 4 4 5 5 6 6 15 7 13 8 12 9 11 10 7 11 14 12 8 13
REMARK SMILES IDX 9 14 10 15
REMARK H PARENT
REMARK Flexibility Score: inf
ROOT
ATOM      1  C   UNL     1      14.423   9.671  17.520  1.00  0.00     0.039 C 
ATOM      2  C   UNL     1      13.202   8.801  17.505  1.00  0.00    -0.073 C 
ATOM      3  C   UNL     1      12.087   9.164  16.820  1.00  0.00    -0.027 C 
ATOM      4  C   UNL     1      10.876   8.225  16.828  1.00  0.00     0.031 C 
ATOM      5  C   UNL     1      11.167   6.968  17.710  1.00  0.00     0.003 C 
ATOM      6  C   UNL     1      11.794   7.463  19.035  1.00  0.00     0.004 C 
ATOM      7  C   UNL     1      13.147   7.481  18.277  1.00  0.00     0.024 C 
ATOM      8  C   UNL     1      12.554   6.358  17.391  1.00  0.00    -0.022 C 
ATOM      9  C   UNL     1      12.677   4.975  18.101  1.00  0.00     0.008 C 
ATOM     10  C   UNL     1      12.561   5.086  19.644  1.00  0.00     0.005 C 
ATOM     11  C   UNL     1      11.726   6.322  20.097  1.00  0.00    -0.005 C 
ATOM     12  C   UNL     1      12.999   6.261  15.912  1.00  0.00     0.012 C 
ENDROOT
BRANCH  11  13
ATOM     13  C   UNL     1      12.090   6.782  21.543  1.00  0.00    -0.014 C 
ATOM     14  C   UNL     1      11.485   8.141  21.935  1.00  0.00     0.007 C 
ATOM     15  C   UNL     1      11.702   5.720  22.584  1.00  0.00     0.007 C 
ENDBRANCH  11  13
TORSDOF 1
ENDMDL
MODEL 9
REMARK VINA RESULT:    -4.052      2.492      5.029
REMARK INTER + INTRA:          -4.654
REMARK INTER:                  -4.234
REMARK INTRA:                  -0.420
REMARK UNBOUND:                -0.365
REMARK SMILES CC1=CC[C@@H]2[C@H]3[C@H](C(C)C)CC[C@]2(C)[C@@H]13
REMARK SMILES IDX 1 1 2 2 3 3 4 4 5 5 6 6 15 7 13 8 12 9 11 10 7 11 14 12 8 13
REMARK SMILES IDX 9 14 10 15
REMARK H PARENT
REMARK Flexibility Score: inf
ROOT
ATOM      1  C   UNL     1      12.796   2.428  22.073  1.00  0.00     0.039 C 
ATOM      2  C   UNL     1      13.784   3.262  21.315  1.00  0.00    -0.073 C 
ATOM      3  C   UNL     1      14.844   3.839  21.938  1.00  0.00    -0.027 C 
ATOM      4  C   UNL     1      15.830   4.666  21.107  1.00  0.00     0.031 C 
ATOM      5  C   UNL     1      15.375   4.717  19.612  1.00  0.00     0.003 C 
ATOM      6  C   UNL     1      13.862   5.039  19.597  1.00  0.00     0.004 C 
ATOM      7  C   UNL     1      13.633   3.520  19.814  1.00  0.00     0.024 C 
ATOM      8  C   UNL     1      14.986   3.313  19.089  1.00  0.00    -0.022 C 
ATOM      9  C   UNL     1      14.796   3.382  17.542  1.00  0.00     0.008 C 
ATOM     10  C   UNL     1      13.669   4.363  17.124  1.00  0.00     0.005 C 
ATOM     11  C   UNL     1      13.446   5.501  18.166  1.00  0.00    -0.005 C 
ATOM     12  C   UNL     1      15.866   2.104  19.483  1.00  0.00     0.012 C 
ENDROOT
BRANCH  11  13
ATOM     13  C   UNL     1      12.007   6.098  18.089  1.00  0.00    -0.014 C 
ATOM     14  C   UNL     1      10.939   5.095  17.620  1.00  0.00     0.007 C 
ATOM     15  C   UNL     1      11.585   6.721  19.429  1.00  0.00     0.007 C 
ENDBRANCH  11  13
TORSDOF 1
ENDMDL
