MODEL 1
REMARK VINA RESULT:    -4.903      0.000      0.000
REMARK INTER + INTRA:         -10.649
REMARK INTER:                  -9.489
REMARK INTRA:                  -1.160
REMARK UNBOUND:                -1.160
REMARK SMILES CCCCCCCCCCCCCCCCCC(=O)[O-]
REMARK SMILES IDX 10 1 11 2 12 3 13 4 14 5 15 6 16 7 17 8 18 9 19 10 20 11
REMARK SMILES IDX 9 12 8 13 7 14 6 15 5 16 4 17 3 18 2 19 1 20
REMARK H PARENT
REMARK Flexibility Score: inf
ROOT
ATOM      1  C   UNL     1     -18.119 -26.045 -18.901  1.00  0.00     0.000 C 
ENDROOT
BRANCH   1   2
ATOM      2  C   UNL     1     -19.047 -25.584 -17.764  1.00  0.00     0.000 C 
BRANCH   2   3
ATOM      3  C   UNL     1     -20.325 -26.433 -17.666  1.00  0.00     0.000 C 
BRANCH   3   4
ATOM      4  C   UNL     1     -21.162 -26.399 -18.957  1.00  0.00     0.000 C 
BRANCH   4   5
ATOM      5  C   UNL     1     -22.475 -25.619 -18.790  1.00  0.00     0.000 C 
BRANCH   5   6
ATOM      6  C   UNL     1     -22.884 -25.460 -17.317  1.00  0.00     0.000 C 
BRANCH   6   7
ATOM      7  C   UNL     1     -24.273 -24.820 -17.200  1.00  0.00     0.006 C 
BRANCH   7   8
ATOM      8  C   UNL     1     -25.208 -25.332 -18.299  1.00  0.00     0.053 C 
BRANCH   8   9
ATOM      9  C   UNL     1     -26.555 -24.690 -18.181  1.00  0.00     0.041 C 
ATOM     10  O   UNL     1     -26.653 -23.473 -17.874  1.00  0.00    -0.550 OA
ATOM     11  O   UNL     1     -27.701 -25.424 -18.458  1.00  0.00    -0.550 OA
ENDBRANCH   8   9
ENDBRANCH   7   8
ENDBRANCH   6   7
ENDBRANCH   5   6
ENDBRANCH   4   5
ENDBRANCH   3   4
ENDBRANCH   2   3
ENDBRANCH   1   2
BRANCH   1  12
ATOM     12  C   UNL     1     -16.687 -26.326 -18.417  1.00  0.00     0.000 C 
BRANCH  12  13
ATOM     13  C   UNL     1     -16.449 -27.810 -18.100  1.00  0.00    -0.000 C 
BRANCH  13  14
ATOM     14  C   UNL     1     -16.655 -28.091 -16.603  1.00  0.00    -0.000 C 
BRANCH  14  15
ATOM     15  C   UNL     1     -15.330 -28.313 -15.855  1.00  0.00    -0.000 C 
BRANCH  15  16
ATOM     16  C   UNL     1     -14.503 -29.469 -16.444  1.00  0.00    -0.000 C 
BRANCH  16  17
ATOM     17  C   UNL     1     -13.115 -29.018 -16.924  1.00  0.00    -0.000 C 
BRANCH  17  18
ATOM     18  C   UNL     1     -12.899 -27.505 -16.765  1.00  0.00    -0.000 C 
BRANCH  18  19
ATOM     19  C   UNL     1     -11.882 -26.986 -17.788  1.00  0.00    -0.003 C 
ATOM     20  C   UNL     1     -10.477 -26.933 -17.191  1.00  0.00     0.004 C 
ENDBRANCH  18  19
ENDBRANCH  17  18
ENDBRANCH  16  17
ENDBRANCH  15  16
ENDBRANCH  14  15
ENDBRANCH  13  14
ENDBRANCH  12  13
ENDBRANCH   1  12
TORSDOF 16
ENDMDL
MODEL 2
REMARK VINA RESULT:    -4.892     15.608     17.931
REMARK INTER + INTRA:         -10.629
REMARK INTER:                  -7.549
REMARK INTRA:                  -3.080
REMARK UNBOUND:                -1.160
REMARK SMILES CCCCCCCCCCCCCCCCCC(=O)[O-]
REMARK SMILES IDX 10 1 11 2 12 3 13 4 14 5 15 6 16 7 17 8 18 9 19 10 20 11
REMARK SMILES IDX 9 12 8 13 7 14 6 15 5 16 4 17 3 18 2 19 1 20
REMARK H PARENT
REMARK Flexibility Score: inf
ROOT
ATOM      1  C   UNL     1     -25.027 -22.370 -30.266  1.00  0.00     0.000 C 
ENDROOT
BRANCH   1   2
ATOM      2  C   UNL     1     -24.907 -20.879 -29.908  1.00  0.00     0.000 C 
BRANCH   2   3
ATOM      3  C   UNL     1     -24.171 -20.070 -30.988  1.00  0.00     0.000 C 
BRANCH   3   4
ATOM      4  C   UNL     1     -24.952 -20.001 -32.313  1.00  0.00     0.000 C 
BRANCH   4   5
ATOM      5  C   UNL     1     -24.183 -20.632 -33.484  1.00  0.00     0.000 C 
BRANCH   5   6
ATOM      6  C   UNL     1     -25.013 -21.686 -34.235  1.00  0.00     0.000 C 
BRANCH   6   7
ATOM      7  C   UNL     1     -24.226 -22.993 -34.392  1.00  0.00     0.006 C 
BRANCH   7   8
ATOM      8  C   UNL     1     -23.329 -23.244 -33.177  1.00  0.00     0.053 C 
BRANCH   8   9
ATOM      9  C   UNL     1     -22.048 -23.893 -33.597  1.00  0.00     0.041 C 
ATOM     10  O   UNL     1     -21.934 -25.147 -33.571  1.00  0.00    -0.550 OA
ATOM     11  O   UNL     1     -20.995 -23.116 -34.063  1.00  0.00    -0.550 OA
ENDBRANCH   8   9
ENDBRANCH   7   8
ENDBRANCH   6   7
ENDBRANCH   5   6
ENDBRANCH   4   5
ENDBRANCH   3   4
ENDBRANCH   2   3
ENDBRANCH   1   2
BRANCH   1  12
ATOM     12  C   UNL     1     -26.481 -22.871 -30.233  1.00  0.00     0.000 C 
BRANCH  12  13
ATOM     13  C   UNL     1     -27.036 -23.173 -31.634  1.00  0.00    -0.000 C 
BRANCH  13  14
ATOM     14  C   UNL     1     -28.034 -22.090 -32.074  1.00  0.00    -0.000 C 
BRANCH  14  15
ATOM     15  C   UNL     1     -28.619 -21.308 -30.887  1.00  0.00    -0.000 C 
BRANCH  15  16
ATOM     16  C   UNL     1     -28.469 -19.785 -31.048  1.00  0.00    -0.000 C 
BRANCH  16  17
ATOM     17  C   UNL     1     -28.149 -19.079 -29.722  1.00  0.00    -0.000 C 
BRANCH  17  18
ATOM     18  C   UNL     1     -28.104 -20.051 -28.532  1.00  0.00    -0.000 C 
BRANCH  18  19
ATOM     19  C   UNL     1     -27.427 -19.401 -27.320  1.00  0.00    -0.003 C 
ATOM     20  C   UNL     1     -26.476 -18.287 -27.751  1.00  0.00     0.004 C 
ENDBRANCH  18  19
ENDBRANCH  17  18
ENDBRANCH  16  17
ENDBRANCH  15  16
ENDBRANCH  14  15
ENDBRANCH  13  14
ENDBRANCH  12  13
ENDBRANCH   1  12
TORSDOF 16
ENDMDL
MODEL 3
REMARK VINA RESULT:    -4.878     14.718     17.080
REMARK INTER + INTRA:         -10.602
REMARK INTER:                  -8.301
REMARK INTRA:                  -2.300
REMARK UNBOUND:                -1.160
REMARK SMILES CCCCCCCCCCCCCCCCCC(=O)[O-]
REMARK SMILES IDX 10 1 11 2 12 3 13 4 14 5 15 6 16 7 17 8 18 9 19 10 20 11
REMARK SMILES IDX 9 12 8 13 7 14 6 15 5 16 4 17 3 18 2 19 1 20
REMARK H PARENT
REMARK Flexibility Score: inf
ROOT
ATOM      1  C   UNL     1      -9.057 -35.528 -28.290  1.00  0.00     0.000 C 
ENDROOT
BRANCH   1   2
ATOM      2  C   UNL     1      -9.807 -35.299 -29.613  1.00  0.00     0.000 C 
BRANCH   2   3
ATOM      3  C   UNL     1      -9.751 -36.523 -30.541  1.00  0.00     0.000 C 
BRANCH   3   4
ATOM      4  C   UNL     1     -11.133 -37.165 -30.761  1.00  0.00     0.000 C 
BRANCH   4   5
ATOM      5  C   UNL     1     -11.590 -37.095 -32.226  1.00  0.00     0.000 C 
BRANCH   5   6
ATOM      6  C   UNL     1     -13.071 -36.709 -32.365  1.00  0.00     0.000 C 
BRANCH   6   7
ATOM      7  C   UNL     1     -13.634 -36.207 -31.030  1.00  0.00     0.006 C 
BRANCH   7   8
ATOM      8  C   UNL     1     -15.060 -36.720 -30.808  1.00  0.00     0.053 C 
BRANCH   8   9
ATOM      9  C   UNL     1     -16.058 -35.729 -31.319  1.00  0.00     0.041 C 
ATOM     10  O   UNL     1     -17.009 -36.106 -32.052  1.00  0.00    -0.550 OA
ATOM     11  O   UNL     1     -15.964 -34.394 -30.946  1.00  0.00    -0.550 OA
ENDBRANCH   8   9
ENDBRANCH   7   8
ENDBRANCH   6   7
ENDBRANCH   5   6
ENDBRANCH   4   5
ENDBRANCH   3   4
ENDBRANCH   2   3
ENDBRANCH   1   2
BRANCH   1  12
ATOM     12  C   UNL     1      -9.096 -36.996 -27.835  1.00  0.00     0.000 C 
BRANCH  12  13
ATOM     13  C   UNL     1     -10.421 -37.372 -27.155  1.00  0.00    -0.000 C 
BRANCH  13  14
ATOM     14  C   UNL     1     -10.248 -37.467 -25.631  1.00  0.00    -0.000 C 
BRANCH  14  15
ATOM     15  C   UNL     1     -11.194 -36.526 -24.869  1.00  0.00    -0.000 C 
BRANCH  15  16
ATOM     16  C   UNL     1     -10.974 -35.045 -25.227  1.00  0.00    -0.000 C 
BRANCH  16  17
ATOM     17  C   UNL     1     -12.278 -34.330 -25.611  1.00  0.00    -0.000 C 
BRANCH  17  18
ATOM     18  C   UNL     1     -12.462 -34.215 -27.131  1.00  0.00    -0.000 C 
BRANCH  18  19
ATOM     19  C   UNL     1     -13.849 -34.715 -27.554  1.00  0.00    -0.003 C 
ATOM     20  C   UNL     1     -14.001 -36.210 -27.284  1.00  0.00     0.004 C 
ENDBRANCH  18  19
ENDBRANCH  17  18
ENDBRANCH  16  17
ENDBRANCH  15  16
ENDBRANCH  14  15
ENDBRANCH  13  14
ENDBRANCH  12  13
ENDBRANCH   1  12
TORSDOF 16
ENDMDL
MODEL 4
REMARK VINA RESULT:    -4.843     14.495     16.479
REMARK INTER + INTRA:         -10.532
REMARK INTER:                  -7.345
REMARK INTRA:                  -3.187
REMARK UNBOUND:                -1.160
REMARK SMILES CCCCCCCCCCCCCCCCCC(=O)[O-]
REMARK SMILES IDX 10 1 11 2 12 3 13 4 14 5 15 6 16 7 17 8 18 9 19 10 20 11
REMARK SMILES IDX 9 12 8 13 7 14 6 15 5 16 4 17 3 18 2 19 1 20
REMARK H PARENT
REMARK Flexibility Score: inf
ROOT
ATOM      1  C   UNL     1     -14.678 -34.929 -27.693  1.00  0.00     0.000 C 
ENDROOT
BRANCH   1   2
ATOM      2  C   UNL     1     -14.763 -36.215 -26.854  1.00  0.00     0.000 C 
BRANCH   2   3
ATOM      3  C   UNL     1     -13.833 -37.322 -27.375  1.00  0.00     0.000 C 
BRANCH   3   4
ATOM      4  C   UNL     1     -14.184 -37.769 -28.805  1.00  0.00     0.000 C 
BRANCH   4   5
ATOM      5  C   UNL     1     -12.938 -38.067 -29.653  1.00  0.00     0.000 C 
BRANCH   5   6
ATOM      6  C   UNL     1     -13.033 -37.480 -31.070  1.00  0.00     0.000 C 
BRANCH   6   7
ATOM      7  C   UNL     1     -14.466 -37.032 -31.383  1.00  0.00     0.006 C 
BRANCH   7   8
ATOM      8  C   UNL     1     -14.475 -35.671 -32.085  1.00  0.00     0.053 C 
BRANCH   8   9
ATOM      9  C   UNL     1     -15.798 -34.996 -31.900  1.00  0.00     0.041 C 
ATOM     10  O   UNL     1     -16.053 -34.380 -30.832  1.00  0.00    -0.550 OA
ATOM     11  O   UNL     1     -16.732 -35.006 -32.928  1.00  0.00    -0.550 OA
ENDBRANCH   8   9
ENDBRANCH   7   8
ENDBRANCH   6   7
ENDBRANCH   5   6
ENDBRANCH   4   5
ENDBRANCH   3   4
ENDBRANCH   2   3
ENDBRANCH   1   2
BRANCH   1  12
ATOM     12  C   UNL     1     -13.252 -34.357 -27.754  1.00  0.00     0.000 C 
BRANCH  12  13
ATOM     13  C   UNL     1     -12.664 -34.379 -29.174  1.00  0.00    -0.000 C 
BRANCH  13  14
ATOM     14  C   UNL     1     -11.147 -34.138 -29.144  1.00  0.00    -0.000 C 
BRANCH  14  15
ATOM     15  C   UNL     1     -10.339 -35.439 -29.273  1.00  0.00    -0.000 C 
BRANCH  15  16
ATOM     16  C   UNL     1      -9.633 -35.832 -27.963  1.00  0.00    -0.000 C 
BRANCH  16  17
ATOM     17  C   UNL     1     -10.253 -37.076 -27.309  1.00  0.00    -0.000 C 
BRANCH  17  18
ATOM     18  C   UNL     1     -10.436 -36.915 -25.792  1.00  0.00    -0.000 C 
BRANCH  18  19
ATOM     19  C   UNL     1     -10.783 -35.466 -25.432  1.00  0.00    -0.003 C 
ATOM     20  C   UNL     1     -11.906 -35.409 -24.398  1.00  0.00     0.004 C 
ENDBRANCH  18  19
ENDBRANCH  17  18
ENDBRANCH  16  17
ENDBRANCH  15  16
ENDBRANCH  14  15
ENDBRANCH  13  14
ENDBRANCH  12  13
ENDBRANCH   1  12
TORSDOF 16
ENDMDL
MODEL 5
REMARK VINA RESULT:    -4.829      5.019     10.460
REMARK INTER + INTRA:         -10.506
REMARK INTER:                  -9.121
REMARK INTRA:                  -1.386
REMARK UNBOUND:                -1.160
REMARK SMILES CCCCCCCCCCCCCCCCCC(=O)[O-]
REMARK SMILES IDX 10 1 11 2 12 3 13 4 14 5 15 6 16 7 17 8 18 9 19 10 20 11
REMARK SMILES IDX 9 12 8 13 7 14 6 15 5 16 4 17 3 18 2 19 1 20
REMARK H PARENT
REMARK Flexibility Score: inf
ROOT
ATOM      1  C   UNL     1     -20.678 -24.984 -18.349  1.00  0.00     0.000 C 
ENDROOT
BRANCH   1   2
ATOM      2  C   UNL     1     -20.410 -26.493 -18.475  1.00  0.00     0.000 C 
BRANCH   2   3
ATOM      3  C   UNL     1     -19.334 -26.816 -19.524  1.00  0.00     0.000 C 
BRANCH   3   4
ATOM      4  C   UNL     1     -18.129 -25.861 -19.452  1.00  0.00     0.000 C 
BRANCH   4   5
ATOM      5  C   UNL     1     -17.185 -26.188 -18.285  1.00  0.00     0.000 C 
BRANCH   5   6
ATOM      6  C   UNL     1     -16.413 -27.499 -18.499  1.00  0.00     0.000 C 
BRANCH   6   7
ATOM      7  C   UNL     1     -14.972 -27.221 -18.945  1.00  0.00     0.006 C 
BRANCH   7   8
ATOM      8  C   UNL     1     -14.160 -26.587 -17.812  1.00  0.00     0.053 C 
BRANCH   8   9
ATOM      9  C   UNL     1     -12.796 -27.199 -17.740  1.00  0.00     0.041 C 
ATOM     10  O   UNL     1     -12.640 -28.341 -17.234  1.00  0.00    -0.550 OA
ATOM     11  O   UNL     1     -11.704 -26.528 -18.275  1.00  0.00    -0.550 OA
ENDBRANCH   8   9
ENDBRANCH   7   8
ENDBRANCH   6   7
ENDBRANCH   5   6
ENDBRANCH   4   5
ENDBRANCH   3   4
ENDBRANCH   2   3
ENDBRANCH   1   2
BRANCH   1  12
ATOM     12  C   UNL     1     -20.936 -24.549 -16.897  1.00  0.00     0.000 C 
BRANCH  12  13
ATOM     13  C   UNL     1     -21.412 -25.707 -16.007  1.00  0.00    -0.000 C 
BRANCH  13  14
ATOM     14  C   UNL     1     -22.946 -25.742 -15.926  1.00  0.00    -0.000 C 
BRANCH  14  15
ATOM     15  C   UNL     1     -23.569 -24.338 -15.879  1.00  0.00    -0.000 C 
BRANCH  15  16
ATOM     16  C   UNL     1     -24.441 -24.033 -17.110  1.00  0.00    -0.000 C 
BRANCH  16  17
ATOM     17  C   UNL     1     -24.510 -25.213 -18.091  1.00  0.00    -0.000 C 
BRANCH  17  18
ATOM     18  C   UNL     1     -25.953 -25.590 -18.460  1.00  0.00    -0.000 C 
BRANCH  18  19
ATOM     19  C   UNL     1     -26.933 -24.494 -18.027  1.00  0.00    -0.003 C 
ATOM     20  C   UNL     1     -28.356 -25.037 -17.922  1.00  0.00     0.004 C 
ENDBRANCH  18  19
ENDBRANCH  17  18
ENDBRANCH  16  17
ENDBRANCH  15  16
ENDBRANCH  14  15
ENDBRANCH  13  14
ENDBRANCH  12  13
ENDBRANCH   1  12
TORSDOF 16
ENDMDL
MODEL 6
REMARK VINA RESULT:    -4.801     15.130     18.352
REMARK INTER + INTRA:         -10.452
REMARK INTER:                  -7.890
REMARK INTRA:                  -2.562
REMARK UNBOUND:                -1.160
REMARK SMILES CCCCCCCCCCCCCCCCCC(=O)[O-]
REMARK SMILES IDX 10 1 11 2 12 3 13 4 14 5 15 6 16 7 17 8 18 9 19 10 20 11
REMARK SMILES IDX 9 12 8 13 7 14 6 15 5 16 4 17 3 18 2 19 1 20
REMARK H PARENT
REMARK Flexibility Score: inf
ROOT
ATOM      1  C   UNL     1     -26.648 -22.405 -29.487  1.00  0.00     0.000 C 
ENDROOT
BRANCH   1   2
ATOM      2  C   UNL     1     -25.529 -22.711 -30.497  1.00  0.00     0.000 C 
BRANCH   2   3
ATOM      3  C   UNL     1     -24.768 -21.449 -30.935  1.00  0.00     0.000 C 
BRANCH   3   4
ATOM      4  C   UNL     1     -24.336 -21.498 -32.412  1.00  0.00     0.000 C 
BRANCH   4   5
ATOM      5  C   UNL     1     -24.809 -22.775 -33.122  1.00  0.00     0.000 C 
BRANCH   5   6
ATOM      6  C   UNL     1     -23.724 -23.388 -34.020  1.00  0.00     0.000 C 
BRANCH   6   7
ATOM      7  C   UNL     1     -22.538 -23.887 -33.185  1.00  0.00     0.006 C 
BRANCH   7   8
ATOM      8  C   UNL     1     -21.233 -23.813 -33.983  1.00  0.00     0.053 C 
BRANCH   8   9
ATOM      9  C   UNL     1     -20.176 -24.650 -33.335  1.00  0.00     0.041 C 
ATOM     10  O   UNL     1     -20.420 -25.264 -32.263  1.00  0.00    -0.550 OA
ATOM     11  O   UNL     1     -18.934 -24.791 -33.941  1.00  0.00    -0.550 OA
ENDBRANCH   8   9
ENDBRANCH   7   8
ENDBRANCH   6   7
ENDBRANCH   5   6
ENDBRANCH   4   5
ENDBRANCH   3   4
ENDBRANCH   2   3
ENDBRANCH   1   2
BRANCH   1  12
ATOM     12  C   UNL     1     -26.228 -21.363 -28.437  1.00  0.00     0.000 C 
BRANCH  12  13
ATOM     13  C   UNL     1     -27.391 -20.461 -27.996  1.00  0.00    -0.000 C 
BRANCH  13  14
ATOM     14  C   UNL     1     -28.266 -20.070 -29.197  1.00  0.00    -0.000 C 
BRANCH  14  15
ATOM     15  C   UNL     1     -27.737 -18.830 -29.935  1.00  0.00    -0.000 C 
BRANCH  15  16
ATOM     16  C   UNL     1     -27.600 -19.055 -31.451  1.00  0.00    -0.000 C 
BRANCH  16  17
ATOM     17  C   UNL     1     -28.366 -20.296 -31.936  1.00  0.00    -0.000 C 
BRANCH  17  18
ATOM     18  C   UNL     1     -27.901 -20.772 -33.320  1.00  0.00    -0.000 C 
BRANCH  18  19
ATOM     19  C   UNL     1     -28.651 -22.041 -33.743  1.00  0.00    -0.003 C 
ATOM     20  C   UNL     1     -29.021 -22.893 -32.531  1.00  0.00     0.004 C 
ENDBRANCH  18  19
ENDBRANCH  17  18
ENDBRANCH  16  17
ENDBRANCH  15  16
ENDBRANCH  14  15
ENDBRANCH  13  14
ENDBRANCH  12  13
ENDBRANCH   1  12
TORSDOF 16
ENDMDL
MODEL 7
REMARK VINA RESULT:    -4.799     14.607     17.371
REMARK INTER + INTRA:         -10.448
REMARK INTER:                  -7.754
REMARK INTRA:                  -2.694
REMARK UNBOUND:                -1.160
REMARK SMILES CCCCCCCCCCCCCCCCCC(=O)[O-]
REMARK SMILES IDX 10 1 11 2 12 3 13 4 14 5 15 6 16 7 17 8 18 9 19 10 20 11
REMARK SMILES IDX 9 12 8 13 7 14 6 15 5 16 4 17 3 18 2 19 1 20
REMARK H PARENT
REMARK Flexibility Score: inf
ROOT
ATOM      1  C   UNL     1     -12.261 -33.993 -27.687  1.00  0.00     0.000 C 
ENDROOT
BRANCH   1   2
ATOM      2  C   UNL     1     -11.959 -34.339 -29.155  1.00  0.00     0.000 C 
BRANCH   2   3
ATOM      3  C   UNL     1     -10.648 -35.124 -29.318  1.00  0.00     0.000 C 
BRANCH   3   4
ATOM      4  C   UNL     1     -10.651 -36.455 -28.543  1.00  0.00     0.000 C 
BRANCH   4   5
ATOM      5  C   UNL     1      -9.322 -36.719 -27.819  1.00  0.00     0.000 C 
BRANCH   5   6
ATOM      6  C   UNL     1      -9.447 -37.796 -26.730  1.00  0.00     0.000 C 
BRANCH   6   7
ATOM      7  C   UNL     1     -10.800 -37.697 -26.014  1.00  0.00     0.006 C 
BRANCH   7   8
ATOM      8  C   UNL     1     -10.611 -37.442 -24.516  1.00  0.00     0.053 C 
BRANCH   8   9
ATOM      9  C   UNL     1     -11.127 -36.087 -24.147  1.00  0.00     0.041 C 
ATOM     10  O   UNL     1     -10.770 -35.072 -24.800  1.00  0.00    -0.550 OA
ATOM     11  O   UNL     1     -12.042 -35.951 -23.110  1.00  0.00    -0.550 OA
ENDBRANCH   8   9
ENDBRANCH   7   8
ENDBRANCH   6   7
ENDBRANCH   5   6
ENDBRANCH   4   5
ENDBRANCH   3   4
ENDBRANCH   2   3
ENDBRANCH   1   2
BRANCH   1  12
ATOM     12  C   UNL     1     -13.708 -34.326 -27.286  1.00  0.00     0.000 C 
BRANCH  12  13
ATOM     13  C   UNL     1     -13.824 -35.666 -26.543  1.00  0.00    -0.000 C 
BRANCH  13  14
ATOM     14  C   UNL     1     -14.482 -36.731 -27.433  1.00  0.00    -0.000 C 
BRANCH  14  15
ATOM     15  C   UNL     1     -15.442 -36.126 -28.470  1.00  0.00    -0.000 C 
BRANCH  15  16
ATOM     16  C   UNL     1     -15.314 -36.786 -29.853  1.00  0.00    -0.000 C 
BRANCH  16  17
ATOM     17  C   UNL     1     -13.977 -37.519 -30.038  1.00  0.00    -0.000 C 
BRANCH  17  18
ATOM     18  C   UNL     1     -13.748 -37.973 -31.487  1.00  0.00    -0.000 C 
BRANCH  18  19
ATOM     19  C   UNL     1     -13.034 -36.883 -32.296  1.00  0.00    -0.003 C 
ATOM     20  C   UNL     1     -11.523 -37.102 -32.304  1.00  0.00     0.004 C 
ENDBRANCH  18  19
ENDBRANCH  17  18
ENDBRANCH  16  17
ENDBRANCH  15  16
ENDBRANCH  14  15
ENDBRANCH  13  14
ENDBRANCH  12  13
ENDBRANCH   1  12
TORSDOF 16
ENDMDL
MODEL 8
REMARK VINA RESULT:    -4.714     15.378     18.211
REMARK INTER + INTRA:         -10.284
REMARK INTER:                  -7.680
REMARK INTRA:                  -2.604
REMARK UNBOUND:                -1.160
REMARK SMILES CCCCCCCCCCCCCCCCCC(=O)[O-]
REMARK SMILES IDX 10 1 11 2 12 3 13 4 14 5 15 6 16 7 17 8 18 9 19 10 20 11
REMARK SMILES IDX 9 12 8 13 7 14 6 15 5 16 4 17 3 18 2 19 1 20
REMARK H PARENT
REMARK Flexibility Score: inf
ROOT
ATOM      1  C   UNL     1     -13.541 -34.856 -27.548  1.00  0.00     0.000 C 
ENDROOT
BRANCH   1   2
ATOM      2  C   UNL     1     -12.619 -33.987 -26.676  1.00  0.00     0.000 C 
BRANCH   2   3
ATOM      3  C   UNL     1     -12.211 -34.688 -25.369  1.00  0.00     0.000 C 
BRANCH   3   4
ATOM      4  C   UNL     1     -10.780 -35.251 -25.419  1.00  0.00     0.000 C 
BRANCH   4   5
ATOM      5  C   UNL     1     -10.752 -36.780 -25.564  1.00  0.00     0.000 C 
BRANCH   5   6
ATOM      6  C   UNL     1      -9.926 -37.244 -26.773  1.00  0.00     0.000 C 
BRANCH   6   7
ATOM      7  C   UNL     1      -9.422 -36.045 -27.586  1.00  0.00     0.006 C 
BRANCH   7   8
ATOM      8  C   UNL     1      -8.875 -36.492 -28.945  1.00  0.00     0.053 C 
BRANCH   8   9
ATOM      9  C   UNL     1      -9.294 -35.537 -30.017  1.00  0.00     0.041 C 
ATOM     10  O   UNL     1      -9.346 -34.301 -29.782  1.00  0.00    -0.550 OA
ATOM     11  O   UNL     1      -9.580 -36.007 -31.293  1.00  0.00    -0.550 OA
ENDBRANCH   8   9
ENDBRANCH   7   8
ENDBRANCH   6   7
ENDBRANCH   5   6
ENDBRANCH   4   5
ENDBRANCH   3   4
ENDBRANCH   2   3
ENDBRANCH   1   2
BRANCH   1  12
ATOM     12  C   UNL     1     -12.806 -35.477 -28.748  1.00  0.00     0.000 C 
BRANCH  12  13
ATOM     13  C   UNL     1     -12.960 -37.004 -28.812  1.00  0.00    -0.000 C 
BRANCH  13  14
ATOM     14  C   UNL     1     -12.524 -37.543 -30.183  1.00  0.00    -0.000 C 
BRANCH  14  15
ATOM     15  C   UNL     1     -13.009 -36.663 -31.346  1.00  0.00    -0.000 C 
BRANCH  15  16
ATOM     16  C   UNL     1     -14.174 -37.299 -32.126  1.00  0.00    -0.000 C 
BRANCH  16  17
ATOM     17  C   UNL     1     -15.548 -36.860 -31.598  1.00  0.00    -0.000 C 
BRANCH  17  18
ATOM     18  C   UNL     1     -16.182 -35.752 -32.453  1.00  0.00    -0.000 C 
BRANCH  18  19
ATOM     19  C   UNL     1     -15.897 -34.369 -31.857  1.00  0.00    -0.003 C 
ATOM     20  C   UNL     1     -15.893 -34.416 -30.331  1.00  0.00     0.004 C 
ENDBRANCH  18  19
ENDBRANCH  17  18
ENDBRANCH  16  17
ENDBRANCH  15  16
ENDBRANCH  14  15
ENDBRANCH  13  14
ENDBRANCH  12  13
ENDBRANCH   1  12
TORSDOF 16
ENDMDL
