MODEL 1
REMARK VINA RESULT:    -3.208      0.000      0.000
REMARK INTER + INTRA:          -3.302
REMARK INTER:                  -3.302
REMARK INTRA:                   0.000
REMARK UNBOUND:                 0.000
REMARK SMILES Cc1ccccc1O
REMARK SMILES IDX 1 1 2 2 3 3 4 4 5 5 6 6 7 7 8 8
REMARK H PARENT 8 9
REMARK Flexibility Score: inf
ROOT
ATOM      1  C   UNL     1      79.957   2.893  64.853  1.00  0.00     0.048 C 
ATOM      2  C   UNL     1      79.788   2.758  66.340  1.00  0.00    -0.009 A 
ATOM      3  C   UNL     1      78.543   2.402  66.883  1.00  0.00     0.007 A 
ATOM      4  C   UNL     1      78.386   2.276  68.266  1.00  0.00     0.001 A 
ATOM      5  C   UNL     1      79.469   2.504  69.118  1.00  0.00     0.004 A 
ATOM      6  C   UNL     1      80.712   2.859  68.588  1.00  0.00     0.046 A 
ATOM      7  C   UNL     1      80.879   2.988  67.201  1.00  0.00     0.118 A 
ENDROOT
BRANCH   7   8
ATOM      8  O   UNL     1      82.121   3.342  66.677  1.00  0.00    -0.508 OA
ATOM      9  H   UNL     1      82.493   4.280  66.778  1.00  0.00     0.293 HD
ENDBRANCH   7   8
TORSDOF 1
ENDMDL
MODEL 2
REMARK VINA RESULT:    -3.044      0.878      2.684
REMARK INTER + INTRA:          -3.133
REMARK INTER:                  -3.133
REMARK INTRA:                   0.000
REMARK UNBOUND:                 0.000
REMARK SMILES Cc1ccccc1O
REMARK SMILES IDX 1 1 2 2 3 3 4 4 5 5 6 6 7 7 8 8
REMARK H PARENT 8 9
REMARK Flexibility Score: inf
ROOT
ATOM      1  C   UNL     1      80.016   2.658  68.870  1.00  0.00     0.048 C 
ATOM      2  C   UNL     1      79.556   2.768  67.444  1.00  0.00    -0.009 A 
ATOM      3  C   UNL     1      78.197   2.618  67.124  1.00  0.00     0.007 A 
ATOM      4  C   UNL     1      77.768   2.720  65.797  1.00  0.00     0.001 A 
ATOM      5  C   UNL     1      78.692   2.972  64.781  1.00  0.00     0.004 A 
ATOM      6  C   UNL     1      80.046   3.122  65.088  1.00  0.00     0.046 A 
ATOM      7  C   UNL     1      80.486   3.022  66.416  1.00  0.00     0.118 A 
ENDROOT
BRANCH   7   8
ATOM      8  O   UNL     1      81.838   3.172  66.719  1.00  0.00    -0.508 OA
ATOM      9  H   UNL     1      82.444   3.765  66.164  1.00  0.00     0.293 HD
ENDBRANCH   7   8
TORSDOF 1
ENDMDL
MODEL 3
REMARK VINA RESULT:    -2.795     15.747     16.749
REMARK INTER + INTRA:          -2.877
REMARK INTER:                  -2.877
REMARK INTRA:                   0.000
REMARK UNBOUND:                 0.000
REMARK SMILES Cc1ccccc1O
REMARK SMILES IDX 1 1 2 2 3 3 4 4 5 5 6 6 7 7 8 8
REMARK H PARENT 8 9
REMARK Flexibility Score: inf
ROOT
ATOM      1  C   UNL     1      80.917  -1.100  51.978  1.00  0.00     0.048 C 
ATOM      2  C   UNL     1      80.679   0.113  51.124  1.00  0.00    -0.009 A 
ATOM      3  C   UNL     1      79.766   0.061  50.057  1.00  0.00     0.007 A 
ATOM      4  C   UNL     1      79.544   1.189  49.262  1.00  0.00     0.001 A 
ATOM      5  C   UNL     1      80.229   2.377  49.526  1.00  0.00     0.004 A 
ATOM      6  C   UNL     1      81.139   2.440  50.584  1.00  0.00     0.046 A 
ATOM      7  C   UNL     1      81.368   1.313  51.387  1.00  0.00     0.118 A 
ENDROOT
BRANCH   7   8
ATOM      8  O   UNL     1      82.278   1.379  52.442  1.00  0.00    -0.508 OA
ATOM      9  H   UNL     1      82.700   2.256  52.724  1.00  0.00     0.293 HD
ENDBRANCH   7   8
TORSDOF 1
ENDMDL
MODEL 4
REMARK VINA RESULT:    -2.787     19.669     21.171
REMARK INTER + INTRA:          -2.869
REMARK INTER:                  -2.869
REMARK INTRA:                   0.000
REMARK UNBOUND:                 0.000
REMARK SMILES Cc1ccccc1O
REMARK SMILES IDX 1 1 2 2 3 3 4 4 5 5 6 6 7 7 8 8
REMARK H PARENT 8 9
REMARK Flexibility Score: inf
ROOT
ATOM      1  C   UNL     1      67.481   6.965  53.356  1.00  0.00     0.048 C 
ATOM      2  C   UNL     1      66.690   6.122  52.396  1.00  0.00    -0.009 A 
ATOM      3  C   UNL     1      67.346   5.338  51.433  1.00  0.00     0.007 A 
ATOM      4  C   UNL     1      66.610   4.554  50.540  1.00  0.00     0.001 A 
ATOM      5  C   UNL     1      65.215   4.546  50.600  1.00  0.00     0.004 A 
ATOM      6  C   UNL     1      64.552   5.323  51.554  1.00  0.00     0.046 A 
ATOM      7  C   UNL     1      65.282   6.112  52.454  1.00  0.00     0.118 A 
ENDROOT
BRANCH   7   8
ATOM      8  O   UNL     1      64.617   6.886  53.404  1.00  0.00    -0.508 OA
ATOM      9  H   UNL     1      64.969   6.985  54.350  1.00  0.00     0.293 HD
ENDBRANCH   7   8
TORSDOF 1
ENDMDL
MODEL 5
REMARK VINA RESULT:    -2.778      2.633      3.556
REMARK INTER + INTRA:          -2.859
REMARK INTER:                  -2.859
REMARK INTRA:                   0.000
REMARK UNBOUND:                 0.000
REMARK SMILES Cc1ccccc1O
REMARK SMILES IDX 1 1 2 2 3 3 4 4 5 5 6 6 7 7 8 8
REMARK H PARENT 8 9
REMARK Flexibility Score: inf
ROOT
ATOM      1  C   UNL     1      77.682   5.760  63.130  1.00  0.00     0.048 C 
ATOM      2  C   UNL     1      78.261   4.711  64.036  1.00  0.00    -0.009 A 
ATOM      3  C   UNL     1      77.437   4.024  64.943  1.00  0.00     0.007 A 
ATOM      4  C   UNL     1      77.975   3.047  65.786  1.00  0.00     0.001 A 
ATOM      5  C   UNL     1      79.338   2.749  65.731  1.00  0.00     0.004 A 
ATOM      6  C   UNL     1      80.166   3.426  64.833  1.00  0.00     0.046 A 
ATOM      7  C   UNL     1      79.635   4.407  63.983  1.00  0.00     0.118 A 
ENDROOT
BRANCH   7   8
ATOM      8  O   UNL     1      80.466   5.081  63.088  1.00  0.00    -0.508 OA
ATOM      9  H   UNL     1      80.815   6.012  63.286  1.00  0.00     0.293 HD
ENDBRANCH   7   8
TORSDOF 1
ENDMDL
MODEL 6
REMARK VINA RESULT:    -2.775     21.078     22.227
REMARK INTER + INTRA:          -2.857
REMARK INTER:                  -2.857
REMARK INTRA:                   0.000
REMARK UNBOUND:                 0.000
REMARK SMILES Cc1ccccc1O
REMARK SMILES IDX 1 1 2 2 3 3 4 4 5 5 6 6 7 7 8 8
REMARK H PARENT 8 9
REMARK Flexibility Score: inf
ROOT
ATOM      1  C   UNL     1      65.132   6.112  52.678  1.00  0.00     0.048 C 
ATOM      2  C   UNL     1      65.694   5.397  51.482  1.00  0.00    -0.009 A 
ATOM      3  C   UNL     1      67.053   5.043  51.441  1.00  0.00     0.007 A 
ATOM      4  C   UNL     1      67.576   4.377  50.329  1.00  0.00     0.001 A 
ATOM      5  C   UNL     1      66.749   4.060  49.250  1.00  0.00     0.004 A 
ATOM      6  C   UNL     1      65.396   4.407  49.280  1.00  0.00     0.046 A 
ATOM      7  C   UNL     1      64.862   5.075  50.392  1.00  0.00     0.118 A 
ENDROOT
BRANCH   7   8
ATOM      8  O   UNL     1      63.512   5.421  50.418  1.00  0.00    -0.508 OA
ATOM      9  H   UNL     1      62.798   4.756  50.694  1.00  0.00     0.293 HD
ENDBRANCH   7   8
TORSDOF 1
ENDMDL
MODEL 7
REMARK VINA RESULT:    -2.774     21.004     21.259
REMARK INTER + INTRA:          -2.855
REMARK INTER:                  -2.855
REMARK INTRA:                   0.000
REMARK UNBOUND:                 0.000
REMARK SMILES Cc1ccccc1O
REMARK SMILES IDX 1 1 2 2 3 3 4 4 5 5 6 6 7 7 8 8
REMARK H PARENT 8 9
REMARK Flexibility Score: inf
ROOT
ATOM      1  C   UNL     1      68.030  -8.688  54.335  1.00  0.00     0.048 C 
ATOM      2  C   UNL     1      69.264  -8.910  53.509  1.00  0.00    -0.009 A 
ATOM      3  C   UNL     1      69.681  -7.941  52.581  1.00  0.00     0.007 A 
ATOM      4  C   UNL     1      70.830  -8.147  51.812  1.00  0.00     0.001 A 
ATOM      5  C   UNL     1      71.570  -9.321  51.961  1.00  0.00     0.004 A 
ATOM      6  C   UNL     1      71.165 -10.292  52.880  1.00  0.00     0.046 A 
ATOM      7  C   UNL     1      70.014 -10.093  53.657  1.00  0.00     0.118 A 
ENDROOT
BRANCH   7   8
ATOM      8  O   UNL     1      69.612 -11.065  54.573  1.00  0.00    -0.508 OA
ATOM      9  H   UNL     1      68.651 -11.131  54.890  1.00  0.00     0.293 HD
ENDBRANCH   7   8
TORSDOF 1
ENDMDL
MODEL 8
REMARK VINA RESULT:    -2.699     21.045     22.523
REMARK INTER + INTRA:          -2.778
REMARK INTER:                  -2.778
REMARK INTRA:                   0.000
REMARK UNBOUND:                 0.000
REMARK SMILES Cc1ccccc1O
REMARK SMILES IDX 1 1 2 2 3 3 4 4 5 5 6 6 7 7 8 8
REMARK H PARENT 8 9
REMARK Flexibility Score: inf
ROOT
ATOM      1  C   UNL     1      70.628  -8.397  52.387  1.00  0.00     0.048 C 
ATOM      2  C   UNL     1      71.288  -8.968  51.163  1.00  0.00    -0.009 A 
ATOM      3  C   UNL     1      71.499  -8.163  50.031  1.00  0.00     0.007 A 
ATOM      4  C   UNL     1      72.113  -8.694  48.893  1.00  0.00     0.001 A 
ATOM      5  C   UNL     1      72.520 -10.030  48.875  1.00  0.00     0.004 A 
ATOM      6  C   UNL     1      72.315 -10.838  49.995  1.00  0.00     0.046 A 
ATOM      7  C   UNL     1      71.700 -10.314  51.142  1.00  0.00     0.118 A 
ENDROOT
BRANCH   7   8
ATOM      8  O   UNL     1      71.496 -11.125  52.258  1.00  0.00    -0.508 OA
ATOM      9  H   UNL     1      70.689 -11.008  52.860  1.00  0.00     0.293 HD
ENDBRANCH   7   8
TORSDOF 1
ENDMDL
MODEL 9
REMARK VINA RESULT:    -2.699      1.660      2.383
REMARK INTER + INTRA:          -2.778
REMARK INTER:                  -2.778
REMARK INTRA:                   0.000
REMARK UNBOUND:                 0.000
REMARK SMILES Cc1ccccc1O
REMARK SMILES IDX 1 1 2 2 3 3 4 4 5 5 6 6 7 7 8 8
REMARK H PARENT 8 9
REMARK Flexibility Score: inf
ROOT
ATOM      1  C   UNL     1      80.119   2.888  64.820  1.00  0.00     0.048 C 
ATOM      2  C   UNL     1      80.091   2.818  66.321  1.00  0.00    -0.009 A 
ATOM      3  C   UNL     1      81.249   3.098  67.065  1.00  0.00     0.007 A 
ATOM      4  C   UNL     1      81.224   3.032  68.461  1.00  0.00     0.001 A 
ATOM      5  C   UNL     1      80.044   2.687  69.125  1.00  0.00     0.004 A 
ATOM      6  C   UNL     1      78.888   2.406  68.394  1.00  0.00     0.046 A 
ATOM      7  C   UNL     1      78.903   2.469  66.993  1.00  0.00     0.118 A 
ENDROOT
BRANCH   7   8
ATOM      8  O   UNL     1      77.747   2.188  66.267  1.00  0.00    -0.508 OA
ATOM      9  H   UNL     1      77.372   2.842  65.589  1.00  0.00     0.293 HD
ENDBRANCH   7   8
TORSDOF 1
ENDMDL
