MODEL 1
REMARK VINA RESULT:    -3.740      0.000      0.000
REMARK INTER + INTRA:          -3.849
REMARK INTER:                  -3.849
REMARK INTRA:                   0.000
REMARK UNBOUND:                 0.000
REMARK SMILES CC1(C)[C@H]2CC[C@]1(C)[C@H](O)C2
REMARK SMILES IDX 1 1 2 2 4 3 5 4 6 5 7 6 9 7 11 8 8 9 3 10 10 11
REMARK H PARENT 10 12
REMARK Flexibility Score: inf
ROOT
ATOM      1  C   UNL     1       8.995   3.264  -0.992  1.00  0.00     0.012 C 
ATOM      2  C   UNL     1       7.476   2.920  -1.093  1.00  0.00    -0.025 C 
ATOM      3  C   UNL     1       6.680   3.254   0.179  1.00  0.00    -0.002 C 
ATOM      4  C   UNL     1       5.266   2.702  -0.131  1.00  0.00     0.005 C 
ATOM      5  C   UNL     1       5.567   1.435  -0.955  1.00  0.00     0.010 C 
ATOM      6  C   UNL     1       7.121   1.417  -0.994  1.00  0.00    -0.001 C 
ATOM      7  C   UNL     1       7.623   1.039   0.435  1.00  0.00     0.121 C 
ATOM      8  C   UNL     1       7.289   2.310   1.246  1.00  0.00     0.036 C 
ATOM      9  C   UNL     1       7.693   0.527  -2.105  1.00  0.00     0.015 C 
ATOM     10  C   UNL     1       6.958   3.653  -2.370  1.00  0.00     0.012 C 
ENDROOT
BRANCH   7  11
ATOM     11  O   UNL     1       6.961  -0.080   0.968  1.00  0.00    -0.393 OA
ATOM     12  H   UNL     1       6.127   0.258   1.388  1.00  0.00     0.210 HD
ENDBRANCH   7  11
TORSDOF 1
ENDMDL
MODEL 2
REMARK VINA RESULT:    -3.679      1.962      3.165
REMARK INTER + INTRA:          -3.787
REMARK INTER:                  -3.787
REMARK INTRA:                   0.000
REMARK UNBOUND:                 0.000
REMARK SMILES CC1(C)[C@H]2CC[C@]1(C)[C@H](O)C2
REMARK SMILES IDX 1 1 2 2 4 3 5 4 6 5 7 6 9 7 11 8 8 9 3 10 10 11
REMARK H PARENT 10 12
REMARK Flexibility Score: inf
ROOT
ATOM      1  C   UNL     1       5.624   0.968  -2.786  1.00  0.00     0.012 C 
ATOM      2  C   UNL     1       6.004   1.522  -1.378  1.00  0.00    -0.025 C 
ATOM      3  C   UNL     1       5.371   2.886  -1.057  1.00  0.00    -0.002 C 
ATOM      4  C   UNL     1       6.003   3.260   0.307  1.00  0.00     0.005 C 
ATOM      5  C   UNL     1       7.433   2.696   0.187  1.00  0.00     0.010 C 
ATOM      6  C   UNL     1       7.438   2.087  -1.243  1.00  0.00    -0.001 C 
ATOM      7  C   UNL     1       7.437   3.272  -2.259  1.00  0.00     0.121 C 
ATOM      8  C   UNL     1       6.007   3.835  -2.103  1.00  0.00     0.036 C 
ATOM      9  C   UNL     1       8.572   1.079  -1.472  1.00  0.00     0.015 C 
ATOM     10  C   UNL     1       5.624   0.398  -0.363  1.00  0.00     0.012 C 
ENDROOT
BRANCH   7  11
ATOM     11  O   UNL     1       8.394   4.255  -1.954  1.00  0.00    -0.393 OA
ATOM     12  H   UNL     1       8.692   4.080  -1.023  1.00  0.00     0.210 HD
ENDBRANCH   7  11
TORSDOF 1
ENDMDL
MODEL 3
REMARK VINA RESULT:    -3.563      1.707      3.004
REMARK INTER + INTRA:          -3.667
REMARK INTER:                  -3.667
REMARK INTRA:                   0.000
REMARK UNBOUND:                 0.000
REMARK SMILES CC1(C)[C@H]2CC[C@]1(C)[C@H](O)C2
REMARK SMILES IDX 1 1 2 2 4 3 5 4 6 5 7 6 9 7 11 8 8 9 3 10 10 11
REMARK H PARENT 10 12
REMARK Flexibility Score: inf
ROOT
ATOM      1  C   UNL     1       7.955   0.101   0.347  1.00  0.00     0.012 C 
ATOM      2  C   UNL     1       7.186   1.458   0.384  1.00  0.00    -0.025 C 
ATOM      3  C   UNL     1       5.700   1.339   0.007  1.00  0.00    -0.002 C 
ATOM      4  C   UNL     1       5.218   2.810  -0.010  1.00  0.00     0.005 C 
ATOM      5  C   UNL     1       6.446   3.567  -0.552  1.00  0.00     0.010 C 
ATOM      6  C   UNL     1       7.470   2.422  -0.793  1.00  0.00    -0.001 C 
ATOM      7  C   UNL     1       6.980   1.607  -2.031  1.00  0.00     0.121 C 
ATOM      8  C   UNL     1       5.737   0.879  -1.472  1.00  0.00     0.036 C 
ATOM      9  C   UNL     1       8.918   2.914  -0.913  1.00  0.00     0.015 C 
ATOM     10  C   UNL     1       7.428   2.045   1.809  1.00  0.00     0.012 C 
ENDROOT
BRANCH   7  11
ATOM     11  O   UNL     1       6.630   2.423  -3.120  1.00  0.00    -0.393 OA
ATOM     12  H   UNL     1       7.331   3.121  -3.186  1.00  0.00     0.210 HD
ENDBRANCH   7  11
TORSDOF 1
ENDMDL
MODEL 4
REMARK VINA RESULT:    -3.507      1.341      2.345
REMARK INTER + INTRA:          -3.610
REMARK INTER:                  -3.610
REMARK INTRA:                   0.000
REMARK UNBOUND:                 0.000
REMARK SMILES CC1(C)[C@H]2CC[C@]1(C)[C@H](O)C2
REMARK SMILES IDX 1 1 2 2 4 3 5 4 6 5 7 6 9 7 11 8 8 9 3 10 10 11
REMARK H PARENT 10 12
REMARK Flexibility Score: inf
ROOT
ATOM      1  C   UNL     1       5.990   3.680   0.102  1.00  0.00     0.012 C 
ATOM      2  C   UNL     1       6.492   2.500  -0.787  1.00  0.00    -0.025 C 
ATOM      3  C   UNL     1       6.280   1.115  -0.155  1.00  0.00    -0.002 C 
ATOM      4  C   UNL     1       6.972   0.157  -1.156  1.00  0.00     0.005 C 
ATOM      5  C   UNL     1       8.177   0.985  -1.644  1.00  0.00     0.010 C 
ATOM      6  C   UNL     1       8.027   2.307  -0.841  1.00  0.00    -0.001 C 
ATOM      7  C   UNL     1       8.387   1.998   0.646  1.00  0.00     0.121 C 
ATOM      8  C   UNL     1       7.181   1.149   1.105  1.00  0.00     0.036 C 
ATOM      9  C   UNL     1       8.821   3.477  -1.438  1.00  0.00     0.015 C 
ATOM     10  C   UNL     1       5.785   2.677  -2.167  1.00  0.00     0.012 C 
ENDROOT
BRANCH   7  11
ATOM     11  O   UNL     1       9.584   1.274   0.779  1.00  0.00    -0.393 OA
ATOM     12  H   UNL     1      10.306   1.943   0.906  1.00  0.00     0.210 HD
ENDBRANCH   7  11
TORSDOF 1
ENDMDL
MODEL 5
REMARK VINA RESULT:    -3.483      1.611      3.024
REMARK INTER + INTRA:          -3.585
REMARK INTER:                  -3.585
REMARK INTRA:                   0.000
REMARK UNBOUND:                 0.000
REMARK SMILES CC1(C)[C@H]2CC[C@]1(C)[C@H](O)C2
REMARK SMILES IDX 1 1 2 2 4 3 5 4 6 5 7 6 9 7 11 8 8 9 3 10 10 11
REMARK H PARENT 10 12
REMARK Flexibility Score: inf
ROOT
ATOM      1  C   UNL     1       6.431   0.975  -2.645  1.00  0.00     0.012 C 
ATOM      2  C   UNL     1       7.200   1.051  -1.289  1.00  0.00    -0.025 C 
ATOM      3  C   UNL     1       6.332   0.718  -0.065  1.00  0.00    -0.002 C 
ATOM      4  C   UNL     1       7.279   0.996   1.129  1.00  0.00     0.005 C 
ATOM      5  C   UNL     1       8.098   2.207   0.641  1.00  0.00     0.010 C 
ATOM      6  C   UNL     1       7.497   2.477  -0.767  1.00  0.00    -0.001 C 
ATOM      7  C   UNL     1       6.069   3.073  -0.562  1.00  0.00     0.121 C 
ATOM      8  C   UNL     1       5.274   1.850  -0.051  1.00  0.00     0.036 C 
ATOM      9  C   UNL     1       8.401   3.336  -1.661  1.00  0.00     0.015 C 
ATOM     10  C   UNL     1       8.442   0.120  -1.453  1.00  0.00     0.012 C 
ENDROOT
BRANCH   7  11
ATOM     11  O   UNL     1       6.040   4.114   0.382  1.00  0.00    -0.393 OA
ATOM     12  H   UNL     1       6.842   3.998   0.954  1.00  0.00     0.210 HD
ENDBRANCH   7  11
TORSDOF 1
ENDMDL
MODEL 6
REMARK VINA RESULT:    -3.365     13.459     14.907
REMARK INTER + INTRA:          -3.464
REMARK INTER:                  -3.464
REMARK INTRA:                   0.000
REMARK UNBOUND:                 0.000
REMARK SMILES CC1(C)[C@H]2CC[C@]1(C)[C@H](O)C2
REMARK SMILES IDX 1 1 2 2 4 3 5 4 6 5 7 6 9 7 11 8 8 9 3 10 10 11
REMARK H PARENT 10 12
REMARK Flexibility Score: inf
ROOT
ATOM      1  C   UNL     1      -3.657  -6.277   7.352  1.00  0.00     0.012 C 
ATOM      2  C   UNL     1      -4.123  -5.955   5.898  1.00  0.00    -0.025 C 
ATOM      3  C   UNL     1      -2.998  -5.439   4.987  1.00  0.00    -0.002 C 
ATOM      4  C   UNL     1      -3.740  -5.076   3.676  1.00  0.00     0.005 C 
ATOM      5  C   UNL     1      -5.093  -4.542   4.186  1.00  0.00     0.010 C 
ATOM      6  C   UNL     1      -4.941  -4.652   5.729  1.00  0.00    -0.001 C 
ATOM      7  C   UNL     1      -3.931  -3.551   6.182  1.00  0.00     0.121 C 
ATOM      8  C   UNL     1      -2.590  -4.095   5.640  1.00  0.00     0.036 C 
ATOM      9  C   UNL     1      -6.280  -4.608   6.478  1.00  0.00     0.015 C 
ATOM     10  C   UNL     1      -4.810  -7.255   5.375  1.00  0.00     0.012 C 
ENDROOT
BRANCH   7  11
ATOM     11  O   UNL     1      -4.215  -2.290   5.633  1.00  0.00    -0.393 OA
ATOM     12  H   UNL     1      -4.062  -1.626   6.354  1.00  0.00     0.210 HD
ENDBRANCH   7  11
TORSDOF 1
ENDMDL
MODEL 7
REMARK VINA RESULT:    -3.365      1.030      2.733
REMARK INTER + INTRA:          -3.464
REMARK INTER:                  -3.464
REMARK INTRA:                   0.000
REMARK UNBOUND:                 0.000
REMARK SMILES CC1(C)[C@H]2CC[C@]1(C)[C@H](O)C2
REMARK SMILES IDX 1 1 2 2 4 3 5 4 6 5 7 6 9 7 11 8 8 9 3 10 10 11
REMARK H PARENT 10 12
REMARK Flexibility Score: inf
ROOT
ATOM      1  C   UNL     1       7.170   2.667  -2.837  1.00  0.00     0.012 C 
ATOM      2  C   UNL     1       7.756   2.413  -1.414  1.00  0.00    -0.025 C 
ATOM      3  C   UNL     1       8.246   0.973  -1.193  1.00  0.00    -0.002 C 
ATOM      4  C   UNL     1       8.642   0.957   0.305  1.00  0.00     0.005 C 
ATOM      5  C   UNL     1       7.594   1.888   0.946  1.00  0.00     0.010 C 
ATOM      6  C   UNL     1       6.719   2.301  -0.271  1.00  0.00    -0.001 C 
ATOM      7  C   UNL     1       5.878   1.055  -0.691  1.00  0.00     0.121 C 
ATOM      8  C   UNL     1       6.951   0.129  -1.306  1.00  0.00     0.036 C 
ATOM      9  C   UNL     1       5.875   3.557  -0.016  1.00  0.00     0.015 C 
ATOM     10  C   UNL     1       8.866   3.492  -1.214  1.00  0.00     0.012 C 
ENDROOT
BRANCH   7  11
ATOM     11  O   UNL     1       5.247   0.429   0.397  1.00  0.00    -0.393 OA
ATOM     12  H   UNL     1       4.282   0.652   0.330  1.00  0.00     0.210 HD
ENDBRANCH   7  11
TORSDOF 1
ENDMDL
MODEL 8
REMARK VINA RESULT:    -3.330      1.868      3.359
REMARK INTER + INTRA:          -3.427
REMARK INTER:                  -3.427
REMARK INTRA:                   0.000
REMARK UNBOUND:                 0.000
REMARK SMILES CC1(C)[C@H]2CC[C@]1(C)[C@H](O)C2
REMARK SMILES IDX 1 1 2 2 4 3 5 4 6 5 7 6 9 7 11 8 8 9 3 10 10 11
REMARK H PARENT 10 12
REMARK Flexibility Score: inf
ROOT
ATOM      1  C   UNL     1       7.281   0.547   0.832  1.00  0.00     0.012 C 
ATOM      2  C   UNL     1       6.633   0.769  -0.570  1.00  0.00    -0.025 C 
ATOM      3  C   UNL     1       7.627   0.653  -1.737  1.00  0.00    -0.002 C 
ATOM      4  C   UNL     1       6.774   1.043  -2.970  1.00  0.00     0.005 C 
ATOM      5  C   UNL     1       5.838   2.131  -2.409  1.00  0.00     0.010 C 
ATOM      6  C   UNL     1       6.292   2.236  -0.925  1.00  0.00    -0.001 C 
ATOM      7  C   UNL     1       7.691   2.928  -0.910  1.00  0.00     0.121 C 
ATOM      8  C   UNL     1       8.605   1.831  -1.498  1.00  0.00     0.036 C 
ATOM      9  C   UNL     1       5.257   2.915  -0.018  1.00  0.00     0.015 C 
ATOM     10  C   UNL     1       5.445  -0.239  -0.652  1.00  0.00     0.012 C 
ENDROOT
BRANCH   7  11
ATOM     11  O   UNL     1       7.735   4.089  -1.700  1.00  0.00    -0.393 OA
ATOM     12  H   UNL     1       7.780   3.787  -2.644  1.00  0.00     0.210 HD
ENDBRANCH   7  11
TORSDOF 1
ENDMDL
MODEL 9
REMARK VINA RESULT:    -3.323      1.578      2.795
REMARK INTER + INTRA:          -3.420
REMARK INTER:                  -3.420
REMARK INTRA:                   0.000
REMARK UNBOUND:                 0.000
REMARK SMILES CC1(C)[C@H]2CC[C@]1(C)[C@H](O)C2
REMARK SMILES IDX 1 1 2 2 4 3 5 4 6 5 7 6 9 7 11 8 8 9 3 10 10 11
REMARK H PARENT 10 12
REMARK Flexibility Score: inf
ROOT
ATOM      1  C   UNL     1       9.316   2.194  -1.186  1.00  0.00     0.012 C 
ATOM      2  C   UNL     1       8.016   1.359  -0.969  1.00  0.00    -0.025 C 
ATOM      3  C   UNL     1       6.905   1.665  -1.987  1.00  0.00    -0.002 C 
ATOM      4  C   UNL     1       5.711   0.823  -1.475  1.00  0.00     0.005 C 
ATOM      5  C   UNL     1       5.870   0.898   0.057  1.00  0.00     0.010 C 
ATOM      6  C   UNL     1       7.130   1.794   0.222  1.00  0.00    -0.001 C 
ATOM      7  C   UNL     1       6.725   3.251  -0.166  1.00  0.00     0.121 C 
ATOM      8  C   UNL     1       6.546   3.145  -1.697  1.00  0.00     0.036 C 
ATOM      9  C   UNL     1       7.780   1.682   1.608  1.00  0.00     0.015 C 
ATOM     10  C   UNL     1       8.468  -0.135  -0.963  1.00  0.00     0.012 C 
ENDROOT
BRANCH   7  11
ATOM     11  O   UNL     1       5.530   3.667   0.446  1.00  0.00    -0.393 OA
ATOM     12  H   UNL     1       4.793   3.205  -0.029  1.00  0.00     0.210 HD
ENDBRANCH   7  11
TORSDOF 1
ENDMDL
