MODEL 1
REMARK VINA RESULT:    -3.346      0.000      0.000
REMARK INTER + INTRA:          -3.559
REMARK INTER:                  -3.542
REMARK INTRA:                  -0.017
REMARK UNBOUND:                -0.017
REMARK SMILES O=C([O-])c1cccnc1
REMARK SMILES IDX 4 1 5 2 9 3 6 4 8 5 7 6 2 7 1 8 3 9
REMARK H PARENT
REMARK Flexibility Score: inf
ROOT
ATOM      1  C   UNL     1      27.776  71.620  10.841  1.00  0.00     0.016 A 
ATOM      2  C   UNL     1      28.832  71.910  11.722  1.00  0.00     0.013 A 
ATOM      3  C   UNL     1      26.479  71.502  11.369  1.00  0.00     0.120 A 
ATOM      4  C   UNL     1      28.581  72.073  13.085  1.00  0.00     0.021 A 
ATOM      5  N   UNL     1      26.262  71.666  12.701  1.00  0.00    -0.264 NA
ATOM      6  C   UNL     1      27.276  71.947  13.562  1.00  0.00     0.111 A 
ENDROOT
BRANCH   1   7
ATOM      7  C   UNL     1      28.020  71.442   9.394  1.00  0.00     0.073 C 
ATOM      8  O   UNL     1      28.720  70.481   8.975  1.00  0.00    -0.545 OA
ATOM      9  O   UNL     1      27.481  72.335   8.474  1.00  0.00    -0.545 OA
ENDBRANCH   1   7
TORSDOF 1
ENDMDL
MODEL 2
REMARK VINA RESULT:    -3.222      9.466     10.151
REMARK INTER + INTRA:          -3.428
REMARK INTER:                  -3.409
REMARK INTRA:                  -0.019
REMARK UNBOUND:                -0.017
REMARK SMILES O=C([O-])c1cccnc1
REMARK SMILES IDX 4 1 5 2 9 3 6 4 8 5 7 6 2 7 1 8 3 9
REMARK H PARENT
REMARK Flexibility Score: inf
ROOT
ATOM      1  C   UNL     1      22.017  68.430  18.244  1.00  0.00     0.016 A 
ATOM      2  C   UNL     1      23.001  67.579  17.714  1.00  0.00     0.013 A 
ATOM      3  C   UNL     1      20.990  67.864  19.018  1.00  0.00     0.120 A 
ATOM      4  C   UNL     1      22.945  66.206  17.959  1.00  0.00     0.021 A 
ATOM      5  N   UNL     1      20.959  66.523  19.243  1.00  0.00    -0.264 NA
ATOM      6  C   UNL     1      21.906  65.690  18.735  1.00  0.00     0.111 A 
ENDROOT
BRANCH   1   7
ATOM      7  C   UNL     1      22.057  69.887  17.995  1.00  0.00     0.073 C 
ATOM      8  O   UNL     1      23.093  70.555  18.261  1.00  0.00    -0.545 OA
ATOM      9  O   UNL     1      20.951  70.542  17.465  1.00  0.00    -0.545 OA
ENDBRANCH   1   7
TORSDOF 1
ENDMDL
MODEL 3
REMARK VINA RESULT:    -3.135      2.604      3.569
REMARK INTER + INTRA:          -3.335
REMARK INTER:                  -3.312
REMARK INTRA:                  -0.024
REMARK UNBOUND:                -0.017
REMARK SMILES O=C([O-])c1cccnc1
REMARK SMILES IDX 4 1 5 2 9 3 6 4 8 5 7 6 2 7 1 8 3 9
REMARK H PARENT
REMARK Flexibility Score: inf
ROOT
ATOM      1  C   UNL     1      27.486  71.296  11.226  1.00  0.00     0.016 A 
ATOM      2  C   UNL     1      28.444  71.344  10.200  1.00  0.00     0.013 A 
ATOM      3  C   UNL     1      26.179  70.892  10.902  1.00  0.00     0.120 A 
ATOM      4  C   UNL     1      28.090  70.995   8.895  1.00  0.00     0.021 A 
ATOM      5  N   UNL     1      25.861  70.557   9.624  1.00  0.00    -0.264 NA
ATOM      6  C   UNL     1      26.780  70.600   8.623  1.00  0.00     0.111 A 
ENDROOT
BRANCH   1   7
ATOM      7  C   UNL     1      27.839  71.662  12.615  1.00  0.00     0.073 C 
ATOM      8  O   UNL     1      29.046  71.760  12.964  1.00  0.00    -0.545 OA
ATOM      9  O   UNL     1      26.843  71.901  13.555  1.00  0.00    -0.545 OA
ENDBRANCH   1   7
TORSDOF 1
ENDMDL
MODEL 4
REMARK VINA RESULT:    -3.121      9.368     10.357
REMARK INTER + INTRA:          -3.321
REMARK INTER:                  -3.300
REMARK INTRA:                  -0.021
REMARK UNBOUND:                -0.017
REMARK SMILES O=C([O-])c1cccnc1
REMARK SMILES IDX 4 1 5 2 9 3 6 4 8 5 7 6 2 7 1 8 3 9
REMARK H PARENT
REMARK Flexibility Score: inf
ROOT
ATOM      1  C   UNL     1      21.841  68.456  18.279  1.00  0.00     0.016 A 
ATOM      2  C   UNL     1      20.624  67.923  18.736  1.00  0.00     0.013 A 
ATOM      3  C   UNL     1      22.932  67.584  18.113  1.00  0.00     0.120 A 
ATOM      4  C   UNL     1      20.517  66.560  19.014  1.00  0.00     0.021 A 
ATOM      5  N   UNL     1      22.801  66.260  18.391  1.00  0.00    -0.264 NA
ATOM      6  C   UNL     1      21.628  65.734  18.834  1.00  0.00     0.111 A 
ENDROOT
BRANCH   1   7
ATOM      7  C   UNL     1      21.976  69.897  17.979  1.00  0.00     0.073 C 
ATOM      8  O   UNL     1      23.056  70.503  18.213  1.00  0.00    -0.545 OA
ATOM      9  O   UNL     1      20.910  70.606  17.434  1.00  0.00    -0.545 OA
ENDBRANCH   1   7
TORSDOF 1
ENDMDL
MODEL 5
REMARK VINA RESULT:    -3.106      3.049      3.724
REMARK INTER + INTRA:          -3.305
REMARK INTER:                  -3.283
REMARK INTRA:                  -0.022
REMARK UNBOUND:                -0.017
REMARK SMILES O=C([O-])c1cccnc1
REMARK SMILES IDX 4 1 5 2 9 3 6 4 8 5 7 6 2 7 1 8 3 9
REMARK H PARENT
REMARK Flexibility Score: inf
ROOT
ATOM      1  C   UNL     1      26.148  71.946  12.539  1.00  0.00     0.016 A 
ATOM      2  C   UNL     1      27.173  71.990  13.499  1.00  0.00     0.013 A 
ATOM      3  C   UNL     1      26.506  71.876  11.182  1.00  0.00     0.120 A 
ATOM      4  C   UNL     1      28.510  71.964  13.096  1.00  0.00     0.021 A 
ATOM      5  N   UNL     1      27.815  71.852  10.817  1.00  0.00    -0.264 NA
ATOM      6  C   UNL     1      28.815  71.894  11.737  1.00  0.00     0.111 A 
ENDROOT
BRANCH   1   7
ATOM      7  C   UNL     1      24.726  71.973  12.944  1.00  0.00     0.073 C 
ATOM      8  O   UNL     1      23.832  71.533  12.173  1.00  0.00    -0.545 OA
ATOM      9  O   UNL     1      24.356  72.488  14.182  1.00  0.00    -0.545 OA
ENDBRANCH   1   7
TORSDOF 1
ENDMDL
MODEL 6
REMARK VINA RESULT:    -3.031     11.245     12.196
REMARK INTER + INTRA:          -3.225
REMARK INTER:                  -3.201
REMARK INTRA:                  -0.024
REMARK UNBOUND:                -0.017
REMARK SMILES O=C([O-])c1cccnc1
REMARK SMILES IDX 4 1 5 2 9 3 6 4 8 5 7 6 2 7 1 8 3 9
REMARK H PARENT
REMARK Flexibility Score: inf
ROOT
ATOM      1  C   UNL     1      20.098  66.508  18.830  1.00  0.00     0.016 A 
ATOM      2  C   UNL     1      20.526  67.844  18.903  1.00  0.00     0.013 A 
ATOM      3  C   UNL     1      21.049  65.516  18.534  1.00  0.00     0.120 A 
ATOM      4  C   UNL     1      21.868  68.161  18.685  1.00  0.00     0.021 A 
ATOM      5  N   UNL     1      22.349  65.852  18.327  1.00  0.00    -0.264 NA
ATOM      6  C   UNL     1      22.775  67.142  18.395  1.00  0.00     0.111 A 
ENDROOT
BRANCH   1   7
ATOM      7  C   UNL     1      18.681  66.150  19.056  1.00  0.00     0.073 C 
ATOM      8  O   UNL     1      17.875  66.994  19.533  1.00  0.00    -0.545 OA
ATOM      9  O   UNL     1      18.218  64.876  18.746  1.00  0.00    -0.545 OA
ENDBRANCH   1   7
TORSDOF 1
ENDMDL
MODEL 7
REMARK VINA RESULT:    -3.014      2.624      3.579
REMARK INTER + INTRA:          -3.208
REMARK INTER:                  -3.185
REMARK INTRA:                  -0.022
REMARK UNBOUND:                -0.017
REMARK SMILES O=C([O-])c1cccnc1
REMARK SMILES IDX 4 1 5 2 9 3 6 4 8 5 7 6 2 7 1 8 3 9
REMARK H PARENT
REMARK Flexibility Score: inf
ROOT
ATOM      1  C   UNL     1      26.637  71.519  12.226  1.00  0.00     0.016 A 
ATOM      2  C   UNL     1      26.682  70.805  11.017  1.00  0.00     0.013 A 
ATOM      3  C   UNL     1      25.384  71.928  12.714  1.00  0.00     0.120 A 
ATOM      4  C   UNL     1      25.501  70.518  10.330  1.00  0.00     0.021 A 
ATOM      5  N   UNL     1      24.249  71.635  12.026  1.00  0.00    -0.264 NA
ATOM      6  C   UNL     1      24.281  70.945  10.855  1.00  0.00     0.111 A 
ENDROOT
BRANCH   1   7
ATOM      7  C   UNL     1      27.876  71.835  12.969  1.00  0.00     0.073 C 
ATOM      8  O   UNL     1      27.838  72.078  14.205  1.00  0.00    -0.545 OA
ATOM      9  O   UNL     1      29.101  71.870  12.313  1.00  0.00    -0.545 OA
ENDBRANCH   1   7
TORSDOF 1
ENDMDL
MODEL 8
REMARK VINA RESULT:    -2.972      1.682      1.967
REMARK INTER + INTRA:          -3.164
REMARK INTER:                  -3.147
REMARK INTRA:                  -0.017
REMARK UNBOUND:                -0.017
REMARK SMILES O=C([O-])c1cccnc1
REMARK SMILES IDX 4 1 5 2 9 3 6 4 8 5 7 6 2 7 1 8 3 9
REMARK H PARENT
REMARK Flexibility Score: inf
ROOT
ATOM      1  C   UNL     1      26.624  71.358  11.218  1.00  0.00     0.016 A 
ATOM      2  C   UNL     1      27.991  71.528  10.942  1.00  0.00     0.013 A 
ATOM      3  C   UNL     1      26.170  71.601  12.526  1.00  0.00     0.120 A 
ATOM      4  C   UNL     1      28.864  71.929  11.955  1.00  0.00     0.021 A 
ATOM      5  N   UNL     1      27.042  71.992  13.493  1.00  0.00    -0.264 NA
ATOM      6  C   UNL     1      28.367  72.160  13.238  1.00  0.00     0.111 A 
ENDROOT
BRANCH   1   7
ATOM      7  C   UNL     1      25.681  70.932  10.161  1.00  0.00     0.073 C 
ATOM      8  O   UNL     1      25.117  69.807  10.220  1.00  0.00    -0.545 OA
ATOM      9  O   UNL     1      25.407  71.769   9.084  1.00  0.00    -0.545 OA
ENDBRANCH   1   7
TORSDOF 1
ENDMDL
MODEL 9
REMARK VINA RESULT:    -2.957     10.128     10.994
REMARK INTER + INTRA:          -3.147
REMARK INTER:                  -3.124
REMARK INTRA:                  -0.023
REMARK UNBOUND:                -0.017
REMARK SMILES O=C([O-])c1cccnc1
REMARK SMILES IDX 4 1 5 2 9 3 6 4 8 5 7 6 2 7 1 8 3 9
REMARK H PARENT
REMARK Flexibility Score: inf
ROOT
ATOM      1  C   UNL     1      20.860  67.723  18.499  1.00  0.00     0.016 A 
ATOM      2  C   UNL     1      22.095  68.308  18.825  1.00  0.00     0.013 A 
ATOM      3  C   UNL     1      19.975  68.443  17.678  1.00  0.00     0.120 A 
ATOM      4  C   UNL     1      22.420  69.575  18.336  1.00  0.00     0.021 A 
ATOM      5  N   UNL     1      20.317  69.674  17.215  1.00  0.00    -0.264 NA
ATOM      6  C   UNL     1      21.509  70.250  17.524  1.00  0.00     0.111 A 
ENDROOT
BRANCH   1   7
ATOM      7  C   UNL     1      20.496  66.383  19.007  1.00  0.00     0.073 C 
ATOM      8  O   UNL     1      21.382  65.599  19.440  1.00  0.00    -0.545 OA
ATOM      9  O   UNL     1      19.168  65.969  19.013  1.00  0.00    -0.545 OA
ENDBRANCH   1   7
TORSDOF 1
ENDMDL
