MODEL 1
REMARK VINA RESULT:    -5.617      0.000      0.000
REMARK INTER + INTRA:         -11.368
REMARK INTER:                 -10.214
REMARK INTRA:                  -1.154
REMARK UNBOUND:                -1.154
REMARK SMILES CCCCCCCCCCCCCCCC(=O)[O-]
REMARK SMILES IDX 9 1 10 2 11 3 12 4 13 5 14 6 15 7 16 8 17 9 18 10 8 11 7 12
REMARK SMILES IDX 6 13 5 14 4 15 3 16 2 17 1 18
REMARK H PARENT
REMARK Flexibility Score: inf
ROOT
ATOM      1  C   UNL     1      27.357 -10.749  15.170  1.00  0.00     0.000 C 
ENDROOT
BRANCH   1   2
ATOM      2  C   UNL     1      27.963 -11.349  16.452  1.00  0.00     0.000 C 
BRANCH   2   3
ATOM      3  C   UNL     1      29.504 -11.369  16.507  1.00  0.00     0.000 C 
BRANCH   3   4
ATOM      4  C   UNL     1      30.212 -10.461  15.485  1.00  0.00     0.000 C 
BRANCH   4   5
ATOM      5  C   UNL     1      30.647  -9.113  16.087  1.00  0.00     0.000 C 
BRANCH   5   6
ATOM      6  C   UNL     1      29.991  -7.913  15.382  1.00  0.00     0.006 C 
BRANCH   6   7
ATOM      7  C   UNL     1      28.650  -7.515  16.014  1.00  0.00     0.053 C 
BRANCH   7   8
ATOM      8  C   UNL     1      28.768  -7.476  17.505  1.00  0.00     0.041 C 
ATOM      9  O   UNL     1      28.080  -8.256  18.216  1.00  0.00    -0.550 OA
ATOM     10  O   UNL     1      29.604  -6.548  18.113  1.00  0.00    -0.550 OA
ENDBRANCH   7   8
ENDBRANCH   6   7
ENDBRANCH   5   6
ENDBRANCH   4   5
ENDBRANCH   3   4
ENDBRANCH   2   3
ENDBRANCH   1   2
BRANCH   1  11
ATOM     11  C   UNL     1      25.870 -11.101  14.991  1.00  0.00     0.000 C 
BRANCH  11  12
ATOM     12  C   UNL     1      25.108 -11.148  16.326  1.00  0.00    -0.000 C 
BRANCH  12  13
ATOM     13  C   UNL     1      24.094 -12.304  16.390  1.00  0.00    -0.000 C 
BRANCH  13  14
ATOM     14  C   UNL     1      23.988 -12.916  17.797  1.00  0.00    -0.000 C 
BRANCH  14  15
ATOM     15  C   UNL     1      22.677 -12.537  18.506  1.00  0.00    -0.000 C 
BRANCH  15  16
ATOM     16  C   UNL     1      22.822 -12.474  20.038  1.00  0.00    -0.000 C 
BRANCH  16  17
ATOM     17  C   UNL     1      22.990 -11.059  20.617  1.00  0.00    -0.003 C 
ATOM     18  C   UNL     1      22.941 -11.027  22.145  1.00  0.00     0.004 C 
ENDBRANCH  16  17
ENDBRANCH  15  16
ENDBRANCH  14  15
ENDBRANCH  13  14
ENDBRANCH  12  13
ENDBRANCH  11  12
ENDBRANCH   1  11
TORSDOF 14
ENDMDL
MODEL 2
REMARK VINA RESULT:    -5.588      2.446      6.759
REMARK INTER + INTRA:         -11.316
REMARK INTER:                 -10.112
REMARK INTRA:                  -1.204
REMARK UNBOUND:                -1.154
REMARK SMILES CCCCCCCCCCCCCCCC(=O)[O-]
REMARK SMILES IDX 9 1 10 2 11 3 12 4 13 5 14 6 15 7 16 8 17 9 18 10 8 11 7 12
REMARK SMILES IDX 6 13 5 14 4 15 3 16 2 17 1 18
REMARK H PARENT
REMARK Flexibility Score: inf
ROOT
ATOM      1  C   UNL     1      26.743 -11.130  14.493  1.00  0.00     0.000 C 
ENDROOT
BRANCH   1   2
ATOM      2  C   UNL     1      25.308 -11.145  15.054  1.00  0.00     0.000 C 
BRANCH   2   3
ATOM      3  C   UNL     1      25.169 -11.668  16.498  1.00  0.00     0.000 C 
BRANCH   3   4
ATOM      4  C   UNL     1      23.848 -12.397  16.810  1.00  0.00     0.000 C 
BRANCH   4   5
ATOM      5  C   UNL     1      23.803 -12.960  18.241  1.00  0.00     0.000 C 
BRANCH   5   6
ATOM      6  C   UNL     1      22.572 -12.479  19.026  1.00  0.00     0.006 C 
BRANCH   6   7
ATOM      7  C   UNL     1      22.695 -12.730  20.535  1.00  0.00     0.053 C 
BRANCH   7   8
ATOM      8  C   UNL     1      23.001 -11.452  21.253  1.00  0.00     0.041 C 
ATOM      9  O   UNL     1      22.993 -11.415  22.512  1.00  0.00    -0.550 OA
ATOM     10  O   UNL     1      23.251 -10.291  20.532  1.00  0.00    -0.550 OA
ENDBRANCH   7   8
ENDBRANCH   6   7
ENDBRANCH   5   6
ENDBRANCH   4   5
ENDBRANCH   3   4
ENDBRANCH   2   3
ENDBRANCH   1   2
BRANCH   1  11
ATOM     11  C   UNL     1      27.815 -11.203  15.594  1.00  0.00     0.000 C 
BRANCH  11  12
ATOM     12  C   UNL     1      29.241 -11.042  15.042  1.00  0.00    -0.000 C 
BRANCH  12  13
ATOM     13  C   UNL     1      30.299 -10.942  16.156  1.00  0.00    -0.000 C 
BRANCH  13  14
ATOM     14  C   UNL     1      31.023  -9.585  16.157  1.00  0.00    -0.000 C 
BRANCH  14  15
ATOM     15  C   UNL     1      30.119  -8.437  16.637  1.00  0.00    -0.000 C 
BRANCH  15  16
ATOM     16  C   UNL     1      29.394  -8.760  17.957  1.00  0.00    -0.000 C 
BRANCH  16  17
ATOM     17  C   UNL     1      27.865  -8.596  17.913  1.00  0.00    -0.003 C 
ATOM     18  C   UNL     1      27.139  -9.479  18.928  1.00  0.00     0.004 C 
ENDBRANCH  16  17
ENDBRANCH  15  16
ENDBRANCH  14  15
ENDBRANCH  13  14
ENDBRANCH  12  13
ENDBRANCH  11  12
ENDBRANCH   1  11
TORSDOF 14
ENDMDL
MODEL 3
REMARK VINA RESULT:    -5.505      2.284      7.067
REMARK INTER + INTRA:         -11.164
REMARK INTER:                  -9.518
REMARK INTRA:                  -1.646
REMARK UNBOUND:                -1.154
REMARK SMILES CCCCCCCCCCCCCCCC(=O)[O-]
REMARK SMILES IDX 9 1 10 2 11 3 12 4 13 5 14 6 15 7 16 8 17 9 18 10 8 11 7 12
REMARK SMILES IDX 6 13 5 14 4 15 3 16 2 17 1 18
REMARK H PARENT
REMARK Flexibility Score: inf
ROOT
ATOM      1  C   UNL     1      26.808 -10.426  16.041  1.00  0.00     0.000 C 
ENDROOT
BRANCH   1   2
ATOM      2  C   UNL     1      25.643 -11.232  15.436  1.00  0.00     0.000 C 
BRANCH   2   3
ATOM      3  C   UNL     1      24.383 -11.337  16.318  1.00  0.00     0.000 C 
BRANCH   3   4
ATOM      4  C   UNL     1      23.922 -12.770  16.641  1.00  0.00     0.000 C 
BRANCH   4   5
ATOM      5  C   UNL     1      23.364 -12.909  18.069  1.00  0.00     0.000 C 
BRANCH   5   6
ATOM      6  C   UNL     1      23.670 -11.682  18.944  1.00  0.00     0.006 C 
BRANCH   6   7
ATOM      7  C   UNL     1      22.912 -11.702  20.278  1.00  0.00     0.053 C 
BRANCH   7   8
ATOM      8  C   UNL     1      23.392 -10.597  21.167  1.00  0.00     0.041 C 
ATOM      9  O   UNL     1      24.260  -9.783  20.752  1.00  0.00    -0.550 OA
ATOM     10  O   UNL     1      22.914 -10.492  22.467  1.00  0.00    -0.550 OA
ENDBRANCH   7   8
ENDBRANCH   6   7
ENDBRANCH   5   6
ENDBRANCH   4   5
ENDBRANCH   3   4
ENDBRANCH   2   3
ENDBRANCH   1   2
BRANCH   1  11
ATOM     11  C   UNL     1      27.020 -10.715  17.537  1.00  0.00     0.000 C 
BRANCH  11  12
ATOM     12  C   UNL     1      27.413  -9.459  18.332  1.00  0.00    -0.000 C 
BRANCH  12  13
ATOM     13  C   UNL     1      27.953  -8.333  17.431  1.00  0.00    -0.000 C 
BRANCH  13  14
ATOM     14  C   UNL     1      29.330  -7.823  17.890  1.00  0.00    -0.000 C 
BRANCH  14  15
ATOM     15  C   UNL     1      30.485  -8.693  17.364  1.00  0.00    -0.000 C 
BRANCH  15  16
ATOM     16  C   UNL     1      30.279  -9.140  15.905  1.00  0.00    -0.000 C 
BRANCH  16  17
ATOM     17  C   UNL     1      30.538 -10.633  15.641  1.00  0.00    -0.003 C 
ATOM     18  C   UNL     1      29.855 -11.144  14.372  1.00  0.00     0.004 C 
ENDBRANCH  16  17
ENDBRANCH  15  16
ENDBRANCH  14  15
ENDBRANCH  13  14
ENDBRANCH  12  13
ENDBRANCH  11  12
ENDBRANCH   1  11
TORSDOF 14
ENDMDL
MODEL 4
REMARK VINA RESULT:    -5.496      1.727      2.456
REMARK INTER + INTRA:         -11.148
REMARK INTER:                 -10.106
REMARK INTRA:                  -1.042
REMARK UNBOUND:                -1.154
REMARK SMILES CCCCCCCCCCCCCCCC(=O)[O-]
REMARK SMILES IDX 9 1 10 2 11 3 12 4 13 5 14 6 15 7 16 8 17 9 18 10 8 11 7 12
REMARK SMILES IDX 6 13 5 14 4 15 3 16 2 17 1 18
REMARK H PARENT
REMARK Flexibility Score: inf
ROOT
ATOM      1  C   UNL     1      25.933 -11.145  15.200  1.00  0.00     0.000 C 
ENDROOT
BRANCH   1   2
ATOM      2  C   UNL     1      26.966 -10.448  16.105  1.00  0.00     0.000 C 
BRANCH   2   3
ATOM      3  C   UNL     1      26.604 -10.395  17.603  1.00  0.00     0.000 C 
BRANCH   3   4
ATOM      4  C   UNL     1      27.622  -9.670  18.503  1.00  0.00     0.000 C 
BRANCH   4   5
ATOM      5  C   UNL     1      27.830  -8.199  18.102  1.00  0.00     0.000 C 
BRANCH   5   6
ATOM      6  C   UNL     1      29.129  -7.982  17.308  1.00  0.00     0.006 C 
BRANCH   6   7
ATOM      7  C   UNL     1      30.142  -9.117  17.507  1.00  0.00     0.053 C 
BRANCH   7   8
ATOM      8  C   UNL     1      31.041  -9.229  16.315  1.00  0.00     0.041 C 
ATOM      9  O   UNL     1      31.102 -10.308  15.667  1.00  0.00    -0.550 OA
ATOM     10  O   UNL     1      31.843  -8.157  15.945  1.00  0.00    -0.550 OA
ENDBRANCH   7   8
ENDBRANCH   6   7
ENDBRANCH   5   6
ENDBRANCH   4   5
ENDBRANCH   3   4
ENDBRANCH   2   3
ENDBRANCH   1   2
BRANCH   1  11
ATOM     11  C   UNL     1      24.503 -11.076  15.764  1.00  0.00     0.000 C 
BRANCH  11  12
ATOM     12  C   UNL     1      23.860 -12.465  15.914  1.00  0.00    -0.000 C 
BRANCH  12  13
ATOM     13  C   UNL     1      24.141 -13.103  17.287  1.00  0.00    -0.000 C 
BRANCH  13  14
ATOM     14  C   UNL     1      23.431 -12.364  18.434  1.00  0.00    -0.000 C 
BRANCH  14  15
ATOM     15  C   UNL     1      22.957 -13.319  19.544  1.00  0.00    -0.000 C 
BRANCH  15  16
ATOM     16  C   UNL     1      22.626 -12.590  20.859  1.00  0.00    -0.000 C 
BRANCH  16  17
ATOM     17  C   UNL     1      22.897 -11.075  20.846  1.00  0.00    -0.003 C 
ATOM     18  C   UNL     1      23.347 -10.536  22.205  1.00  0.00     0.004 C 
ENDBRANCH  16  17
ENDBRANCH  15  16
ENDBRANCH  14  15
ENDBRANCH  13  14
ENDBRANCH  12  13
ENDBRANCH  11  12
ENDBRANCH   1  11
TORSDOF 14
ENDMDL
MODEL 5
REMARK VINA RESULT:    -5.471      1.964      2.733
REMARK INTER + INTRA:         -11.103
REMARK INTER:                  -9.739
REMARK INTRA:                  -1.364
REMARK UNBOUND:                -1.154
REMARK SMILES CCCCCCCCCCCCCCCC(=O)[O-]
REMARK SMILES IDX 9 1 10 2 11 3 12 4 13 5 14 6 15 7 16 8 17 9 18 10 8 11 7 12
REMARK SMILES IDX 6 13 5 14 4 15 3 16 2 17 1 18
REMARK H PARENT
REMARK Flexibility Score: inf
ROOT
ATOM      1  C   UNL     1      26.901 -11.593  17.103  1.00  0.00     0.000 C 
ENDROOT
BRANCH   1   2
ATOM      2  C   UNL     1      27.462 -10.761  18.272  1.00  0.00     0.000 C 
BRANCH   2   3
ATOM      3  C   UNL     1      26.774  -9.400  18.503  1.00  0.00     0.000 C 
BRANCH   3   4
ATOM      4  C   UNL     1      27.650  -8.164  18.226  1.00  0.00     0.000 C 
BRANCH   4   5
ATOM      5  C   UNL     1      28.982  -8.518  17.543  1.00  0.00     0.000 C 
BRANCH   5   6
ATOM      6  C   UNL     1      28.890  -8.470  16.009  1.00  0.00     0.006 C 
BRANCH   6   7
ATOM      7  C   UNL     1      30.097  -9.125  15.322  1.00  0.00     0.053 C 
BRANCH   7   8
ATOM      8  C   UNL     1      29.964 -10.615  15.345  1.00  0.00     0.041 C 
ATOM      9  O   UNL     1      30.471 -11.281  16.288  1.00  0.00    -0.550 OA
ATOM     10  O   UNL     1      29.320 -11.274  14.306  1.00  0.00    -0.550 OA
ENDBRANCH   7   8
ENDBRANCH   6   7
ENDBRANCH   5   6
ENDBRANCH   4   5
ENDBRANCH   3   4
ENDBRANCH   2   3
ENDBRANCH   1   2
BRANCH   1  11
ATOM     11  C   UNL     1      25.815 -10.848  16.307  1.00  0.00     0.000 C 
BRANCH  11  12
ATOM     12  C   UNL     1      24.725 -11.790  15.769  1.00  0.00    -0.000 C 
BRANCH  12  13
ATOM     13  C   UNL     1      24.236 -12.796  16.828  1.00  0.00    -0.000 C 
BRANCH  13  14
ATOM     14  C   UNL     1      22.943 -12.335  17.522  1.00  0.00    -0.000 C 
BRANCH  14  15
ATOM     15  C   UNL     1      22.906 -12.723  19.011  1.00  0.00    -0.000 C 
BRANCH  15  16
ATOM     16  C   UNL     1      22.994 -11.504  19.948  1.00  0.00    -0.000 C 
BRANCH  16  17
ATOM     17  C   UNL     1      22.660 -11.794  21.422  1.00  0.00    -0.003 C 
ATOM     18  C   UNL     1      22.962 -10.614  22.346  1.00  0.00     0.004 C 
ENDBRANCH  16  17
ENDBRANCH  15  16
ENDBRANCH  14  15
ENDBRANCH  13  14
ENDBRANCH  12  13
ENDBRANCH  11  12
ENDBRANCH   1  11
TORSDOF 14
ENDMDL
MODEL 6
REMARK VINA RESULT:    -5.358      2.010      4.800
REMARK INTER + INTRA:         -10.897
REMARK INTER:                  -9.533
REMARK INTRA:                  -1.364
REMARK UNBOUND:                -1.154
REMARK SMILES CCCCCCCCCCCCCCCC(=O)[O-]
REMARK SMILES IDX 9 1 10 2 11 3 12 4 13 5 14 6 15 7 16 8 17 9 18 10 8 11 7 12
REMARK SMILES IDX 6 13 5 14 4 15 3 16 2 17 1 18
REMARK H PARENT
REMARK Flexibility Score: inf
ROOT
ATOM      1  C   UNL     1      23.556 -10.608  21.388  1.00  0.00     0.000 C 
ENDROOT
BRANCH   1   2
ATOM      2  C   UNL     1      24.282  -9.565  20.519  1.00  0.00     0.000 C 
BRANCH   2   3
ATOM      3  C   UNL     1      25.225 -10.142  19.444  1.00  0.00     0.000 C 
BRANCH   3   4
ATOM      4  C   UNL     1      26.583  -9.429  19.307  1.00  0.00     0.000 C 
BRANCH   4   5
ATOM      5  C   UNL     1      27.504 -10.096  18.271  1.00  0.00     0.000 C 
BRANCH   5   6
ATOM      6  C   UNL     1      28.258  -9.072  17.406  1.00  0.00     0.006 C 
BRANCH   6   7
ATOM      7  C   UNL     1      29.770  -9.330  17.363  1.00  0.00     0.053 C 
BRANCH   7   8
ATOM      8  C   UNL     1      30.260  -9.327  15.949  1.00  0.00     0.041 C 
ATOM      9  O   UNL     1      29.822  -8.476  15.129  1.00  0.00    -0.550 OA
ATOM     10  O   UNL     1      31.166 -10.290  15.523  1.00  0.00    -0.550 OA
ENDBRANCH   7   8
ENDBRANCH   6   7
ENDBRANCH   5   6
ENDBRANCH   4   5
ENDBRANCH   3   4
ENDBRANCH   2   3
ENDBRANCH   1   2
BRANCH   1  11
ATOM     11  C   UNL     1      22.507 -11.415  20.602  1.00  0.00     0.000 C 
BRANCH  11  12
ATOM     12  C   UNL     1      22.676 -12.933  20.777  1.00  0.00    -0.000 C 
BRANCH  12  13
ATOM     13  C   UNL     1      23.050 -13.643  19.462  1.00  0.00    -0.000 C 
BRANCH  13  14
ATOM     14  C   UNL     1      23.021 -12.693  18.253  1.00  0.00    -0.000 C 
BRANCH  14  15
ATOM     15  C   UNL     1      24.250 -12.861  17.343  1.00  0.00    -0.000 C 
BRANCH  15  16
ATOM     16  C   UNL     1      23.992 -12.398  15.898  1.00  0.00    -0.000 C 
BRANCH  16  17
ATOM     17  C   UNL     1      24.646 -11.057  15.520  1.00  0.00    -0.003 C 
ATOM     18  C   UNL     1      26.094 -11.209  15.053  1.00  0.00     0.004 C 
ENDBRANCH  16  17
ENDBRANCH  15  16
ENDBRANCH  14  15
ENDBRANCH  13  14
ENDBRANCH  12  13
ENDBRANCH  11  12
ENDBRANCH   1  11
TORSDOF 14
ENDMDL
MODEL 7
REMARK VINA RESULT:    -5.318      1.614      2.068
REMARK INTER + INTRA:         -10.824
REMARK INTER:                  -9.816
REMARK INTRA:                  -1.008
REMARK UNBOUND:                -1.154
REMARK SMILES CCCCCCCCCCCCCCCC(=O)[O-]
REMARK SMILES IDX 9 1 10 2 11 3 12 4 13 5 14 6 15 7 16 8 17 9 18 10 8 11 7 12
REMARK SMILES IDX 6 13 5 14 4 15 3 16 2 17 1 18
REMARK H PARENT
REMARK Flexibility Score: inf
ROOT
ATOM      1  C   UNL     1      27.057 -10.448  15.241  1.00  0.00     0.000 C 
ENDROOT
BRANCH   1   2
ATOM      2  C   UNL     1      27.977 -11.233  16.194  1.00  0.00     0.000 C 
BRANCH   2   3
ATOM      3  C   UNL     1      27.751 -10.968  17.697  1.00  0.00     0.000 C 
BRANCH   3   4
ATOM      4  C   UNL     1      27.514  -9.496  18.078  1.00  0.00     0.000 C 
BRANCH   4   5
ATOM      5  C   UNL     1      28.764  -8.620  17.884  1.00  0.00     0.000 C 
BRANCH   5   6
ATOM      6  C   UNL     1      28.426  -7.124  17.773  1.00  0.00     0.006 C 
BRANCH   6   7
ATOM      7  C   UNL     1      28.841  -6.521  16.424  1.00  0.00     0.053 C 
BRANCH   7   8
ATOM      8  C   UNL     1      27.909  -5.416  16.038  1.00  0.00     0.041 C 
ATOM      9  O   UNL     1      27.412  -4.668  16.922  1.00  0.00    -0.550 OA
ATOM     10  O   UNL     1      27.552  -5.239  14.707  1.00  0.00    -0.550 OA
ENDBRANCH   7   8
ENDBRANCH   6   7
ENDBRANCH   5   6
ENDBRANCH   4   5
ENDBRANCH   3   4
ENDBRANCH   2   3
ENDBRANCH   1   2
BRANCH   1  11
ATOM     11  C   UNL     1      25.774 -11.217  14.881  1.00  0.00     0.000 C 
BRANCH  11  12
ATOM     12  C   UNL     1      24.683 -11.082  15.956  1.00  0.00    -0.000 C 
BRANCH  12  13
ATOM     13  C   UNL     1      24.047 -12.434  16.327  1.00  0.00    -0.000 C 
BRANCH  13  14
ATOM     14  C   UNL     1      24.080 -12.703  17.841  1.00  0.00    -0.000 C 
BRANCH  14  15
ATOM     15  C   UNL     1      22.688 -12.594  18.488  1.00  0.00    -0.000 C 
BRANCH  15  16
ATOM     16  C   UNL     1      22.749 -12.501  20.024  1.00  0.00    -0.000 C 
BRANCH  16  17
ATOM     17  C   UNL     1      23.022 -11.092  20.578  1.00  0.00    -0.003 C 
ATOM     18  C   UNL     1      22.967 -11.029  22.105  1.00  0.00     0.004 C 
ENDBRANCH  16  17
ENDBRANCH  15  16
ENDBRANCH  14  15
ENDBRANCH  13  14
ENDBRANCH  12  13
ENDBRANCH  11  12
ENDBRANCH   1  11
TORSDOF 14
ENDMDL
MODEL 8
REMARK VINA RESULT:    -5.300      1.736      3.754
REMARK INTER + INTRA:         -10.792
REMARK INTER:                  -9.167
REMARK INTRA:                  -1.625
REMARK UNBOUND:                -1.154
REMARK SMILES CCCCCCCCCCCCCCCC(=O)[O-]
REMARK SMILES IDX 9 1 10 2 11 3 12 4 13 5 14 6 15 7 16 8 17 9 18 10 8 11 7 12
REMARK SMILES IDX 6 13 5 14 4 15 3 16 2 17 1 18
REMARK H PARENT
REMARK Flexibility Score: inf
ROOT
ATOM      1  C   UNL     1      26.035  -9.346  19.878  1.00  0.00     0.000 C 
ENDROOT
BRANCH   1   2
ATOM      2  C   UNL     1      27.034  -9.698  18.760  1.00  0.00     0.000 C 
BRANCH   2   3
ATOM      3  C   UNL     1      26.476 -10.589  17.632  1.00  0.00     0.000 C 
BRANCH   3   4
ATOM      4  C   UNL     1      27.514 -11.475  16.918  1.00  0.00     0.000 C 
BRANCH   4   5
ATOM      5  C   UNL     1      27.935 -10.914  15.548  1.00  0.00     0.000 C 
BRANCH   5   6
ATOM      6  C   UNL     1      29.459 -10.940  15.343  1.00  0.00     0.006 C 
BRANCH   6   7
ATOM      7  C   UNL     1      30.220 -10.221  16.465  1.00  0.00     0.053 C 
BRANCH   7   8
ATOM      8  C   UNL     1      30.069  -8.738  16.331  1.00  0.00     0.041 C 
ATOM      9  O   UNL     1      29.802  -8.035  17.342  1.00  0.00    -0.550 OA
ATOM     10  O   UNL     1      30.180  -8.137  15.084  1.00  0.00    -0.550 OA
ENDBRANCH   7   8
ENDBRANCH   6   7
ENDBRANCH   5   6
ENDBRANCH   4   5
ENDBRANCH   3   4
ENDBRANCH   2   3
ENDBRANCH   1   2
BRANCH   1  11
ATOM     11  C   UNL     1      24.666 -10.023  19.691  1.00  0.00     0.000 C 
BRANCH  11  12
ATOM     12  C   UNL     1      23.818 -10.006  20.973  1.00  0.00    -0.000 C 
BRANCH  12  13
ATOM     13  C   UNL     1      23.017 -11.306  21.171  1.00  0.00    -0.000 C 
BRANCH  13  14
ATOM     14  C   UNL     1      22.457 -11.857  19.849  1.00  0.00    -0.000 C 
BRANCH  14  15
ATOM     15  C   UNL     1      22.996 -13.261  19.521  1.00  0.00    -0.000 C 
BRANCH  15  16
ATOM     16  C   UNL     1      23.782 -13.305  18.198  1.00  0.00    -0.000 C 
BRANCH  16  17
ATOM     17  C   UNL     1      23.205 -12.431  17.071  1.00  0.00    -0.003 C 
ATOM     18  C   UNL     1      24.058 -12.452  15.802  1.00  0.00     0.004 C 
ENDBRANCH  16  17
ENDBRANCH  15  16
ENDBRANCH  14  15
ENDBRANCH  13  14
ENDBRANCH  12  13
ENDBRANCH  11  12
ENDBRANCH   1  11
TORSDOF 14
ENDMDL
MODEL 9
REMARK VINA RESULT:    -5.293      2.316      7.137
REMARK INTER + INTRA:         -10.779
REMARK INTER:                  -9.542
REMARK INTRA:                  -1.237
REMARK UNBOUND:                -1.154
REMARK SMILES CCCCCCCCCCCCCCCC(=O)[O-]
REMARK SMILES IDX 9 1 10 2 11 3 12 4 13 5 14 6 15 7 16 8 17 9 18 10 8 11 7 12
REMARK SMILES IDX 6 13 5 14 4 15 3 16 2 17 1 18
REMARK H PARENT
REMARK Flexibility Score: inf
ROOT
ATOM      1  C   UNL     1      26.646 -11.071  16.222  1.00  0.00     0.000 C 
ENDROOT
BRANCH   1   2
ATOM      2  C   UNL     1      25.484 -11.209  15.220  1.00  0.00     0.000 C 
BRANCH   2   3
ATOM      3  C   UNL     1      24.137 -11.650  15.828  1.00  0.00     0.000 C 
BRANCH   3   4
ATOM      4  C   UNL     1      24.107 -13.082  16.394  1.00  0.00     0.000 C 
BRANCH   4   5
ATOM      5  C   UNL     1      24.103 -13.114  17.933  1.00  0.00     0.000 C 
BRANCH   5   6
ATOM      6  C   UNL     1      22.844 -12.467  18.533  1.00  0.00     0.006 C 
BRANCH   6   7
ATOM      7  C   UNL     1      22.692 -12.746  20.034  1.00  0.00     0.053 C 
BRANCH   7   8
ATOM      8  C   UNL     1      22.974 -11.508  20.826  1.00  0.00     0.041 C 
ATOM      9  O   UNL     1      22.660 -11.450  22.045  1.00  0.00    -0.550 OA
ATOM     10  O   UNL     1      23.545 -10.402  20.209  1.00  0.00    -0.550 OA
ENDBRANCH   7   8
ENDBRANCH   6   7
ENDBRANCH   5   6
ENDBRANCH   4   5
ENDBRANCH   3   4
ENDBRANCH   2   3
ENDBRANCH   1   2
BRANCH   1  11
ATOM     11  C   UNL     1      27.991 -10.769  15.539  1.00  0.00     0.000 C 
BRANCH  11  12
ATOM     12  C   UNL     1      29.195 -11.058  16.449  1.00  0.00    -0.000 C 
BRANCH  12  13
ATOM     13  C   UNL     1      30.540 -10.723  15.778  1.00  0.00    -0.000 C 
BRANCH  13  14
ATOM     14  C   UNL     1      31.239  -9.520  16.433  1.00  0.00    -0.000 C 
BRANCH  14  15
ATOM     15  C   UNL     1      30.463  -8.978  17.646  1.00  0.00    -0.000 C 
BRANCH  15  16
ATOM     16  C   UNL     1      29.976  -7.531  17.446  1.00  0.00    -0.000 C 
BRANCH  16  17
ATOM     17  C   UNL     1      28.547  -7.398  16.892  1.00  0.00    -0.003 C 
ATOM     18  C   UNL     1      28.511  -7.025  15.410  1.00  0.00     0.004 C 
ENDBRANCH  16  17
ENDBRANCH  15  16
ENDBRANCH  14  15
ENDBRANCH  13  14
ENDBRANCH  12  13
ENDBRANCH  11  12
ENDBRANCH   1  11
TORSDOF 14
ENDMDL
