MODEL 1
REMARK VINA RESULT:    -4.246      0.000      0.000
REMARK INTER + INTRA:          -4.619
REMARK INTER:                  -4.619
REMARK INTRA:                   0.000
REMARK UNBOUND:                 0.000
REMARK SMILES Oc1cccc(O)c1O
REMARK SMILES IDX 4 1 5 2 6 3 8 4 2 5 3 6 7 7 1 9 9 11
REMARK H PARENT 7 8 1 10 9 12
REMARK Flexibility Score: inf
ROOT
ATOM      1  C   UNL     1     124.622 131.917 123.625  1.00  0.00     0.008 A 
ATOM      2  C   UNL     1     124.215 131.630 124.927  1.00  0.00     0.050 A 
ATOM      3  C   UNL     1     124.568 132.480 125.981  1.00  0.00     0.161 A 
ATOM      4  C   UNL     1     125.337 133.633 125.732  1.00  0.00     0.200 A 
ATOM      5  C   UNL     1     125.750 133.922 124.406  1.00  0.00     0.161 A 
ATOM      6  C   UNL     1     125.386 133.056 123.367  1.00  0.00     0.050 A 
ENDROOT
BRANCH   3   7
ATOM      7  O   UNL     1     124.142 132.162 127.271  1.00  0.00    -0.504 OA
ATOM      8  H   UNL     1     124.682 132.401 128.093  1.00  0.00     0.293 HD
ENDBRANCH   3   7
BRANCH   5   9
ATOM      9  O   UNL     1     126.514 135.043 124.078  1.00  0.00    -0.504 OA
ATOM     10  H   UNL     1     126.211 135.769 123.443  1.00  0.00     0.293 HD
ENDBRANCH   5   9
BRANCH   4  11
ATOM     11  O   UNL     1     125.669 134.457 126.810  1.00  0.00    -0.502 OA
ATOM     12  H   UNL     1     125.321 134.331 127.749  1.00  0.00     0.293 HD
ENDBRANCH   4  11
TORSDOF 3
ENDMDL
MODEL 2
REMARK VINA RESULT:    -4.124      0.075      2.825
REMARK INTER + INTRA:          -4.486
REMARK INTER:                  -4.486
REMARK INTRA:                   0.000
REMARK UNBOUND:                 0.000
REMARK SMILES Oc1cccc(O)c1O
REMARK SMILES IDX 4 1 5 2 6 3 8 4 2 5 3 6 7 7 1 9 9 11
REMARK H PARENT 7 8 1 10 9 12
REMARK Flexibility Score: inf
ROOT
ATOM      1  C   UNL     1     124.627 131.914 123.619  1.00  0.00     0.008 A 
ATOM      2  C   UNL     1     125.426 133.032 123.383  1.00  0.00     0.050 A 
ATOM      3  C   UNL     1     125.770 133.888 124.434  1.00  0.00     0.161 A 
ATOM      4  C   UNL     1     125.310 133.626 125.739  1.00  0.00     0.200 A 
ATOM      5  C   UNL     1     124.498 132.488 125.975  1.00  0.00     0.161 A 
ATOM      6  C   UNL     1     124.166 131.645 124.908  1.00  0.00     0.050 A 
ENDROOT
BRANCH   3   7
ATOM      7  O   UNL     1     126.572 134.997 124.162  1.00  0.00    -0.504 OA
ATOM      8  H   UNL     1     127.566 135.006 124.354  1.00  0.00     0.293 HD
ENDBRANCH   3   7
BRANCH   5   9
ATOM      9  O   UNL     1     124.003 132.160 127.239  1.00  0.00    -0.504 OA
ATOM     10  H   UNL     1     123.733 132.840 127.936  1.00  0.00     0.293 HD
ENDBRANCH   5   9
BRANCH   4  11
ATOM     11  O   UNL     1     125.675 134.505 126.763  1.00  0.00    -0.502 OA
ATOM     12  H   UNL     1     125.737 134.247 127.736  1.00  0.00     0.293 HD
ENDBRANCH   4  11
TORSDOF 3
ENDMDL
MODEL 3
REMARK VINA RESULT:    -3.858      1.252      2.736
REMARK INTER + INTRA:          -4.197
REMARK INTER:                  -4.197
REMARK INTRA:                   0.000
REMARK UNBOUND:                 0.000
REMARK SMILES Oc1cccc(O)c1O
REMARK SMILES IDX 4 1 5 2 6 3 8 4 2 5 3 6 7 7 1 9 9 11
REMARK H PARENT 7 8 1 10 9 12
REMARK Flexibility Score: inf
ROOT
ATOM      1  C   UNL     1     123.795 131.760 126.070  1.00  0.00     0.008 A 
ATOM      2  C   UNL     1     124.284 131.687 124.766  1.00  0.00     0.050 A 
ATOM      3  C   UNL     1     125.211 132.628 124.307  1.00  0.00     0.161 A 
ATOM      4  C   UNL     1     125.656 133.657 125.159  1.00  0.00     0.200 A 
ATOM      5  C   UNL     1     125.156 133.728 126.484  1.00  0.00     0.161 A 
ATOM      6  C   UNL     1     124.228 132.775 126.923  1.00  0.00     0.050 A 
ENDROOT
BRANCH   3   7
ATOM      7  O   UNL     1     125.680 132.524 122.997  1.00  0.00    -0.504 OA
ATOM      8  H   UNL     1     126.659 132.631 122.763  1.00  0.00     0.293 HD
ENDBRANCH   3   7
BRANCH   5   9
ATOM      9  O   UNL     1     125.548 134.716 127.390  1.00  0.00    -0.504 OA
ATOM     10  H   UNL     1     125.885 134.528 128.323  1.00  0.00     0.293 HD
ENDBRANCH   5   9
BRANCH   4  11
ATOM     11  O   UNL     1     126.583 134.578 124.664  1.00  0.00    -0.502 OA
ATOM     12  H   UNL     1     127.021 135.297 125.220  1.00  0.00     0.293 HD
ENDBRANCH   4  11
TORSDOF 3
ENDMDL
MODEL 4
REMARK VINA RESULT:    -3.482      1.464      2.552
REMARK INTER + INTRA:          -3.787
REMARK INTER:                  -3.787
REMARK INTRA:                   0.000
REMARK UNBOUND:                 0.000
REMARK SMILES Oc1cccc(O)c1O
REMARK SMILES IDX 4 1 5 2 6 3 8 4 2 5 3 6 7 7 1 9 9 11
REMARK H PARENT 7 8 1 10 9 12
REMARK Flexibility Score: inf
ROOT
ATOM      1  C   UNL     1     123.626 131.967 126.736  1.00  0.00     0.008 A 
ATOM      2  C   UNL     1     124.191 133.067 127.381  1.00  0.00     0.050 A 
ATOM      3  C   UNL     1     125.141 133.857 126.725  1.00  0.00     0.161 A 
ATOM      4  C   UNL     1     125.532 133.547 125.408  1.00  0.00     0.200 A 
ATOM      5  C   UNL     1     124.954 132.427 124.756  1.00  0.00     0.161 A 
ATOM      6  C   UNL     1     124.006 131.650 125.432  1.00  0.00     0.050 A 
ENDROOT
BRANCH   3   7
ATOM      7  O   UNL     1     125.685 134.951 127.399  1.00  0.00    -0.504 OA
ATOM      8  H   UNL     1     125.133 135.762 127.648  1.00  0.00     0.293 HD
ENDBRANCH   3   7
BRANCH   5   9
ATOM      9  O   UNL     1     125.289 132.054 123.453  1.00  0.00    -0.504 OA
ATOM     10  H   UNL     1     126.108 132.384 122.962  1.00  0.00     0.293 HD
ENDBRANCH   5   9
BRANCH   4  11
ATOM     11  O   UNL     1     126.483 134.360 124.786  1.00  0.00    -0.502 OA
ATOM     12  H   UNL     1     127.019 134.088 123.976  1.00  0.00     0.293 HD
ENDBRANCH   4  11
TORSDOF 3
ENDMDL
MODEL 5
REMARK VINA RESULT:    -3.291      1.887      3.772
REMARK INTER + INTRA:          -3.579
REMARK INTER:                  -3.579
REMARK INTRA:                   0.000
REMARK UNBOUND:                 0.000
REMARK SMILES Oc1cccc(O)c1O
REMARK SMILES IDX 4 1 5 2 6 3 8 4 2 5 3 6 7 7 1 9 9 11
REMARK H PARENT 7 8 1 10 9 12
REMARK Flexibility Score: inf
ROOT
ATOM      1  C   UNL     1     125.034 133.518 127.132  1.00  0.00     0.008 A 
ATOM      2  C   UNL     1     126.002 133.592 126.131  1.00  0.00     0.050 A 
ATOM      3  C   UNL     1     125.847 132.869 124.944  1.00  0.00     0.161 A 
ATOM      4  C   UNL     1     124.710 132.061 124.752  1.00  0.00     0.200 A 
ATOM      5  C   UNL     1     123.728 131.988 125.772  1.00  0.00     0.161 A 
ATOM      6  C   UNL     1     123.904 132.719 126.953  1.00  0.00     0.050 A 
ENDROOT
BRANCH   3   7
ATOM      7  O   UNL     1     126.835 132.969 123.964  1.00  0.00    -0.504 OA
ATOM      8  H   UNL     1     127.750 132.550 124.073  1.00  0.00     0.293 HD
ENDBRANCH   3   7
BRANCH   5   9
ATOM      9  O   UNL     1     122.574 131.209 125.658  1.00  0.00    -0.504 OA
ATOM     10  H   UNL     1     122.574 130.201 125.600  1.00  0.00     0.293 HD
ENDBRANCH   5   9
BRANCH   4  11
ATOM     11  O   UNL     1     124.590 131.354 123.552  1.00  0.00    -0.502 OA
ATOM     12  H   UNL     1     124.087 130.485 123.453  1.00  0.00     0.293 HD
ENDBRANCH   4  11
TORSDOF 3
ENDMDL
MODEL 6
REMARK VINA RESULT:    -3.262      1.900      2.744
REMARK INTER + INTRA:          -3.548
REMARK INTER:                  -3.548
REMARK INTRA:                   0.000
REMARK UNBOUND:                 0.000
REMARK SMILES Oc1cccc(O)c1O
REMARK SMILES IDX 4 1 5 2 6 3 8 4 2 5 3 6 7 7 1 9 9 11
REMARK H PARENT 7 8 1 10 9 12
REMARK Flexibility Score: inf
ROOT
ATOM      1  C   UNL     1     125.060 133.454 127.150  1.00  0.00     0.008 A 
ATOM      2  C   UNL     1     123.909 132.691 126.957  1.00  0.00     0.050 A 
ATOM      3  C   UNL     1     123.724 131.981 125.766  1.00  0.00     0.161 A 
ATOM      4  C   UNL     1     124.701 132.033 124.753  1.00  0.00     0.200 A 
ATOM      5  C   UNL     1     125.870 132.810 124.952  1.00  0.00     0.161 A 
ATOM      6  C   UNL     1     126.034 133.513 126.152  1.00  0.00     0.050 A 
ENDROOT
BRANCH   3   7
ATOM      7  O   UNL     1     122.561 131.227 125.609  1.00  0.00    -0.504 OA
ATOM      8  H   UNL     1     122.112 130.756 126.385  1.00  0.00     0.293 HD
ENDBRANCH   3   7
BRANCH   5   9
ATOM      9  O   UNL     1     126.883 132.913 123.997  1.00  0.00    -0.504 OA
ATOM     10  H   UNL     1     127.062 133.742 123.448  1.00  0.00     0.293 HD
ENDBRANCH   5   9
BRANCH   4  11
ATOM     11  O   UNL     1     124.480 131.310 123.578  1.00  0.00    -0.502 OA
ATOM     12  H   UNL     1     123.583 130.940 123.299  1.00  0.00     0.293 HD
ENDBRANCH   4  11
TORSDOF 3
ENDMDL
MODEL 7
REMARK VINA RESULT:    -2.814     16.787     17.087
REMARK INTER + INTRA:          -3.061
REMARK INTER:                  -3.061
REMARK INTRA:                   0.000
REMARK UNBOUND:                 0.000
REMARK SMILES Oc1cccc(O)c1O
REMARK SMILES IDX 4 1 5 2 6 3 8 4 2 5 3 6 7 7 1 9 9 11
REMARK H PARENT 7 8 1 10 9 12
REMARK Flexibility Score: inf
ROOT
ATOM      1  C   UNL     1     137.327 121.875 124.029  1.00  0.00     0.008 A 
ATOM      2  C   UNL     1     138.506 121.950 123.287  1.00  0.00     0.050 A 
ATOM      3  C   UNL     1     139.503 122.866 123.638  1.00  0.00     0.161 A 
ATOM      4  C   UNL     1     139.322 123.719 124.745  1.00  0.00     0.200 A 
ATOM      5  C   UNL     1     138.122 123.639 125.496  1.00  0.00     0.161 A 
ATOM      6  C   UNL     1     137.137 122.715 125.126  1.00  0.00     0.050 A 
ENDROOT
BRANCH   3   7
ATOM      7  O   UNL     1     140.670 122.913 122.875  1.00  0.00    -0.504 OA
ATOM      8  H   UNL     1     141.554 123.227 123.257  1.00  0.00     0.293 HD
ENDBRANCH   3   7
BRANCH   5   9
ATOM      9  O   UNL     1     137.868 124.449 126.605  1.00  0.00    -0.504 OA
ATOM     10  H   UNL     1     137.566 124.101 127.504  1.00  0.00     0.293 HD
ENDBRANCH   5   9
BRANCH   4  11
ATOM     11  O   UNL     1     140.341 124.620 125.064  1.00  0.00    -0.502 OA
ATOM     12  H   UNL     1     141.325 124.398 125.036  1.00  0.00     0.293 HD
ENDBRANCH   4  11
TORSDOF 3
ENDMDL
MODEL 8
REMARK VINA RESULT:    -2.696      1.740      2.728
REMARK INTER + INTRA:          -2.932
REMARK INTER:                  -2.932
REMARK INTRA:                   0.000
REMARK UNBOUND:                 0.000
REMARK SMILES Oc1cccc(O)c1O
REMARK SMILES IDX 4 1 5 2 6 3 8 4 2 5 3 6 7 7 1 9 9 11
REMARK H PARENT 7 8 1 10 9 12
REMARK Flexibility Score: inf
ROOT
ATOM      1  C   UNL     1     126.166 133.800 124.013  1.00  0.00     0.008 A 
ATOM      2  C   UNL     1     125.745 133.985 125.330  1.00  0.00     0.050 A 
ATOM      3  C   UNL     1     124.791 133.131 125.892  1.00  0.00     0.161 A 
ATOM      4  C   UNL     1     124.248 132.078 125.130  1.00  0.00     0.200 A 
ATOM      5  C   UNL     1     124.679 131.894 123.791  1.00  0.00     0.161 A 
ATOM      6  C   UNL     1     125.635 132.760 123.249  1.00  0.00     0.050 A 
ENDROOT
BRANCH   3   7
ATOM      7  O   UNL     1     124.394 133.344 127.212  1.00  0.00    -0.504 OA
ATOM      8  H   UNL     1     123.924 132.632 127.757  1.00  0.00     0.293 HD
ENDBRANCH   3   7
BRANCH   5   9
ATOM      9  O   UNL     1     124.189 130.874 122.972  1.00  0.00    -0.504 OA
ATOM     10  H   UNL     1     123.265 130.871 122.563  1.00  0.00     0.293 HD
ENDBRANCH   5   9
BRANCH   4  11
ATOM     11  O   UNL     1     123.297 131.246 125.727  1.00  0.00    -0.502 OA
ATOM     12  H   UNL     1     122.867 131.426 126.622  1.00  0.00     0.293 HD
ENDBRANCH   4  11
TORSDOF 3
ENDMDL
