MODEL 1
REMARK VINA RESULT:    -3.754      0.000      0.000
REMARK INTER + INTRA:          -4.104
REMARK INTER:                  -4.083
REMARK INTRA:                  -0.021
REMARK UNBOUND:                -0.021
REMARK SMILES OCc1ccco1
REMARK SMILES IDX 2 1 3 2 5 3 6 4 4 5 7 6 1 7
REMARK H PARENT 1 8
REMARK Flexibility Score: inf
ROOT
ATOM      1  C   UNL     1       3.123   8.555  -2.647  1.00  0.00     0.231 C 
ENDROOT
BRANCH   1   2
ATOM      2  C   UNL     1       4.494   8.047  -2.331  1.00  0.00     0.129 A 
ATOM      3  C   UNL     1       6.585   7.916  -1.676  1.00  0.00     0.042 A 
ATOM      4  C   UNL     1       6.109   6.682  -2.069  1.00  0.00     0.195 A 
ATOM      5  C   UNL     1       5.540   8.800  -1.841  1.00  0.00     0.048 A 
ATOM      6  O   UNL     1       4.858   6.792  -2.452  1.00  0.00    -0.467 OA
ENDBRANCH   1   2
BRANCH   1   7
ATOM      7  O   UNL     1       2.198   7.505  -2.595  1.00  0.00    -0.388 OA
ATOM      8  H   UNL     1       2.408   6.904  -3.358  1.00  0.00     0.211 HD
ENDBRANCH   1   7
TORSDOF 2
ENDMDL
MODEL 2
REMARK VINA RESULT:    -3.650     13.546     14.785
REMARK INTER + INTRA:          -3.991
REMARK INTER:                  -3.969
REMARK INTRA:                  -0.021
REMARK UNBOUND:                -0.021
REMARK SMILES OCc1ccco1
REMARK SMILES IDX 2 1 3 2 5 3 6 4 4 5 7 6 1 7
REMARK H PARENT 1 8
REMARK Flexibility Score: inf
ROOT
ATOM      1  C   UNL     1      -9.032  -0.038  -4.418  1.00  0.00     0.231 C 
ENDROOT
BRANCH   1   2
ATOM      2  C   UNL     1      -8.325   1.090  -5.098  1.00  0.00     0.129 A 
ATOM      3  C   UNL     1      -7.856   3.040  -5.992  1.00  0.00     0.042 A 
ATOM      4  C   UNL     1      -6.753   2.211  -6.000  1.00  0.00     0.195 A 
ATOM      5  C   UNL     1      -8.873   2.318  -5.405  1.00  0.00     0.048 A 
ATOM      6  O   UNL     1      -7.063   1.056  -5.458  1.00  0.00    -0.467 OA
ENDBRANCH   1   2
BRANCH   1   7
ATOM      7  O   UNL     1      -8.207  -1.170  -4.382  1.00  0.00    -0.388 OA
ATOM      8  H   UNL     1      -8.575  -1.767  -3.678  1.00  0.00     0.211 HD
ENDBRANCH   1   7
TORSDOF 2
ENDMDL
MODEL 3
REMARK VINA RESULT:    -3.474     14.305     15.426
REMARK INTER + INTRA:          -3.799
REMARK INTER:                  -3.783
REMARK INTRA:                  -0.017
REMARK UNBOUND:                -0.021
REMARK SMILES OCc1ccco1
REMARK SMILES IDX 2 1 3 2 5 3 6 4 4 5 7 6 1 7
REMARK H PARENT 1 8
REMARK Flexibility Score: inf
ROOT
ATOM      1  C   UNL     1      -7.737   1.261  -5.954  1.00  0.00     0.231 C 
ENDROOT
BRANCH   1   2
ATOM      2  C   UNL     1      -8.512   0.784  -4.768  1.00  0.00     0.129 A 
ATOM      3  C   UNL     1      -9.782  -0.408  -3.430  1.00  0.00     0.042 A 
ATOM      4  C   UNL     1      -9.273   0.697  -2.779  1.00  0.00     0.195 A 
ATOM      5  C   UNL     1      -9.288  -0.356  -4.716  1.00  0.00     0.048 A 
ATOM      6  O   UNL     1      -8.517   1.387  -3.602  1.00  0.00    -0.467 OA
ENDBRANCH   1   2
BRANCH   1   7
ATOM      7  O   UNL     1      -6.370   1.299  -5.650  1.00  0.00    -0.388 OA
ATOM      8  H   UNL     1      -5.886   1.307  -6.518  1.00  0.00     0.211 HD
ENDBRANCH   1   7
TORSDOF 2
ENDMDL
MODEL 4
REMARK VINA RESULT:    -3.456     17.996     18.624
REMARK INTER + INTRA:          -3.780
REMARK INTER:                  -3.765
REMARK INTRA:                  -0.016
REMARK UNBOUND:                -0.021
REMARK SMILES OCc1ccco1
REMARK SMILES IDX 2 1 3 2 5 3 6 4 4 5 7 6 1 7
REMARK H PARENT 1 8
REMARK Flexibility Score: inf
ROOT
ATOM      1  C   UNL     1      -4.418  -7.869  -2.610  1.00  0.00     0.231 C 
ENDROOT
BRANCH   1   2
ATOM      2  C   UNL     1      -4.908  -7.793  -4.020  1.00  0.00     0.129 A 
ATOM      3  C   UNL     1      -6.001  -8.173  -5.887  1.00  0.00     0.042 A 
ATOM      4  C   UNL     1      -5.169  -7.079  -6.011  1.00  0.00     0.195 A 
ATOM      5  C   UNL     1      -5.837  -8.634  -4.598  1.00  0.00     0.048 A 
ATOM      6  O   UNL     1      -4.533  -6.875  -4.881  1.00  0.00    -0.467 OA
ENDBRANCH   1   2
BRANCH   1   7
ATOM      7  O   UNL     1      -3.033  -8.082  -2.594  1.00  0.00    -0.388 OA
ATOM      8  H   UNL     1      -2.840  -8.744  -3.309  1.00  0.00     0.211 HD
ENDBRANCH   1   7
TORSDOF 2
ENDMDL
MODEL 5
REMARK VINA RESULT:    -3.427     13.074     14.283
REMARK INTER + INTRA:          -3.749
REMARK INTER:                  -3.735
REMARK INTRA:                  -0.014
REMARK UNBOUND:                -0.021
REMARK SMILES OCc1ccco1
REMARK SMILES IDX 2 1 3 2 5 3 6 4 4 5 7 6 1 7
REMARK H PARENT 1 8
REMARK Flexibility Score: inf
ROOT
ATOM      1  C   UNL     1       7.908  -4.653   1.070  1.00  0.00     0.231 C 
ENDROOT
BRANCH   1   2
ATOM      2  C   UNL     1       7.110  -5.749   0.439  1.00  0.00     0.129 A 
ATOM      3  C   UNL     1       5.819  -7.499   0.136  1.00  0.00     0.042 A 
ATOM      4  C   UNL     1       6.166  -6.922  -1.068  1.00  0.00     0.195 A 
ATOM      5  C   UNL     1       6.426  -6.739   1.113  1.00  0.00     0.048 A 
ATOM      6  O   UNL     1       6.933  -5.878  -0.855  1.00  0.00    -0.467 OA
ENDBRANCH   1   2
BRANCH   1   7
ATOM      7  O   UNL     1       7.052  -3.676   1.594  1.00  0.00    -0.388 OA
ATOM      8  H   UNL     1       6.226  -4.147   1.883  1.00  0.00     0.211 HD
ENDBRANCH   1   7
TORSDOF 2
ENDMDL
MODEL 6
REMARK VINA RESULT:    -3.374      1.941      3.418
REMARK INTER + INTRA:          -3.690
REMARK INTER:                  -3.677
REMARK INTRA:                  -0.014
REMARK UNBOUND:                -0.021
REMARK SMILES OCc1ccco1
REMARK SMILES IDX 2 1 3 2 5 3 6 4 4 5 7 6 1 7
REMARK H PARENT 1 8
REMARK Flexibility Score: inf
ROOT
ATOM      1  C   UNL     1       6.722   9.189  -1.780  1.00  0.00     0.231 C 
ENDROOT
BRANCH   1   2
ATOM      2  C   UNL     1       5.290   8.851  -2.048  1.00  0.00     0.129 A 
ATOM      3  C   UNL     1       3.390   7.768  -2.249  1.00  0.00     0.042 A 
ATOM      4  C   UNL     1       3.228   9.112  -2.520  1.00  0.00     0.195 A 
ATOM      5  C   UNL     1       4.723   7.598  -1.939  1.00  0.00     0.048 A 
ATOM      6  O   UNL     1       4.378   9.732  -2.389  1.00  0.00    -0.467 OA
ENDBRANCH   1   2
BRANCH   1   7
ATOM      7  O   UNL     1       6.975   9.151  -0.403  1.00  0.00    -0.388 OA
ATOM      8  H   UNL     1       6.092   9.207   0.049  1.00  0.00     0.211 HD
ENDBRANCH   1   7
TORSDOF 2
ENDMDL
MODEL 7
REMARK VINA RESULT:    -3.364     12.881     14.004
REMARK INTER + INTRA:          -3.680
REMARK INTER:                  -3.659
REMARK INTRA:                  -0.021
REMARK UNBOUND:                -0.021
REMARK SMILES OCc1ccco1
REMARK SMILES IDX 2 1 3 2 5 3 6 4 4 5 7 6 1 7
REMARK H PARENT 1 8
REMARK Flexibility Score: inf
ROOT
ATOM      1  C   UNL     1       8.414  -4.756  -1.027  1.00  0.00     0.231 C 
ENDROOT
BRANCH   1   2
ATOM      2  C   UNL     1       7.526  -5.493  -0.076  1.00  0.00     0.129 A 
ATOM      3  C   UNL     1       6.300  -7.045   0.878  1.00  0.00     0.042 A 
ATOM      4  C   UNL     1       6.387  -5.920   1.673  1.00  0.00     0.195 A 
ATOM      5  C   UNL     1       7.039  -6.772  -0.253  1.00  0.00     0.048 A 
ATOM      6  O   UNL     1       7.127  -5.013   1.079  1.00  0.00    -0.467 OA
ENDBRANCH   1   2
BRANCH   1   7
ATOM      7  O   UNL     1       8.361  -3.381  -0.766  1.00  0.00    -0.388 OA
ATOM      8  H   UNL     1       9.153  -3.167  -0.207  1.00  0.00     0.211 HD
ENDBRANCH   1   7
TORSDOF 2
ENDMDL
MODEL 8
REMARK VINA RESULT:    -3.316     13.011     13.854
REMARK INTER + INTRA:          -3.627
REMARK INTER:                  -3.613
REMARK INTRA:                  -0.014
REMARK UNBOUND:                -0.021
REMARK SMILES OCc1ccco1
REMARK SMILES IDX 2 1 3 2 5 3 6 4 4 5 7 6 1 7
REMARK H PARENT 1 8
REMARK Flexibility Score: inf
ROOT
ATOM      1  C   UNL     1      -8.255   1.040  -5.694  1.00  0.00     0.231 C 
ENDROOT
BRANCH   1   2
ATOM      2  C   UNL     1      -7.321   1.913  -6.470  1.00  0.00     0.129 A 
ATOM      3  C   UNL     1      -5.919   3.504  -7.038  1.00  0.00     0.042 A 
ATOM      4  C   UNL     1      -6.108   2.614  -8.075  1.00  0.00     0.195 A 
ATOM      5  C   UNL     1      -6.700   3.050  -5.997  1.00  0.00     0.048 A 
ATOM      6  O   UNL     1      -6.947   1.674  -7.705  1.00  0.00    -0.467 OA
ENDBRANCH   1   2
BRANCH   1   7
ATOM      7  O   UNL     1      -7.527   0.135  -4.911  1.00  0.00    -0.388 OA
ATOM      8  H   UNL     1      -8.051  -0.709  -4.892  1.00  0.00     0.211 HD
ENDBRANCH   1   7
TORSDOF 2
ENDMDL
MODEL 9
REMARK VINA RESULT:    -3.268     13.133     13.414
REMARK INTER + INTRA:          -3.576
REMARK INTER:                  -3.563
REMARK INTRA:                  -0.013
REMARK UNBOUND:                -0.021
REMARK SMILES OCc1ccco1
REMARK SMILES IDX 2 1 3 2 5 3 6 4 4 5 7 6 1 7
REMARK H PARENT 1 8
REMARK Flexibility Score: inf
ROOT
ATOM      1  C   UNL     1      -3.794   1.349   6.108  1.00  0.00     0.231 C 
ENDROOT
BRANCH   1   2
ATOM      2  C   UNL     1      -2.621   1.172   7.018  1.00  0.00     0.129 A 
ATOM      3  C   UNL     1      -0.895   1.560   8.318  1.00  0.00     0.042 A 
ATOM      4  C   UNL     1      -1.197   0.214   8.281  1.00  0.00     0.195 A 
ATOM      5  C   UNL     1      -1.817   2.182   7.504  1.00  0.00     0.048 A 
ATOM      6  O   UNL     1      -2.234   0.014   7.500  1.00  0.00    -0.467 OA
ENDBRANCH   1   2
BRANCH   1   7
ATOM      7  O   UNL     1      -3.374   1.875   4.880  1.00  0.00    -0.388 OA
ATOM      8  H   UNL     1      -2.845   1.163   4.432  1.00  0.00     0.211 HD
ENDBRANCH   1   7
TORSDOF 2
ENDMDL
