MODEL 1
REMARK VINA RESULT:    -2.831      0.000      0.000
REMARK INTER + INTRA:          -3.910
REMARK INTER:                  -3.823
REMARK INTRA:                  -0.087
REMARK UNBOUND:                -0.087
REMARK SMILES [NH3+]CCCC[C@H]([NH3+])C(=O)[O-]
REMARK SMILES IDX 4 1 3 2 2 3 1 4 5 8 6 9 7 10 8 14 9 15 10 16
REMARK H PARENT 1 5 1 6 1 7 7 11 7 12 7 13
REMARK Flexibility Score: inf
ROOT
ATOM      1  C   UNL     1      18.928  -3.903   2.943  1.00  0.00     0.012 C 
ENDROOT
BRANCH   1   2
ATOM      2  C   UNL     1      17.994  -2.997   3.770  1.00  0.00     0.061 C 
BRANCH   2   3
ATOM      3  C   UNL     1      18.478  -1.543   3.925  1.00  0.00     0.258 C 
BRANCH   3   4
ATOM      4  N   UNL     1      18.160  -0.725   2.752  1.00  0.00    -0.358 N 
ATOM      5  H   UNL     1      19.022  -0.218   2.448  1.00  0.00     0.344 HD
ATOM      6  H   UNL     1      17.831  -1.331   1.965  1.00  0.00     0.344 HD
ATOM      7  H   UNL     1      17.429  -0.019   2.990  1.00  0.00     0.344 HD
ENDBRANCH   3   4
ENDBRANCH   2   3
ENDBRANCH   1   2
BRANCH   1   8
ATOM      8  C   UNL     1      19.518  -5.106   3.704  1.00  0.00     0.072 C 
BRANCH   8   9
ATOM      9  C   UNL     1      19.316  -6.476   3.014  1.00  0.00     0.227 C 
BRANCH   9  10
ATOM     10  N   UNL     1      18.093  -7.145   3.480  1.00  0.00    -0.350 N 
ATOM     11  H   UNL     1      18.316  -8.078   3.898  1.00  0.00     0.345 HD
ATOM     12  H   UNL     1      17.432  -7.278   2.680  1.00  0.00     0.345 HD
ATOM     13  H   UNL     1      17.609  -6.553   4.192  1.00  0.00     0.345 HD
ENDBRANCH   9  10
BRANCH   9  14
ATOM     14  C   UNL     1      20.515  -7.348   3.279  1.00  0.00     0.099 C 
ATOM     15  O   UNL     1      20.480  -8.575   3.000  1.00  0.00    -0.544 OA
ATOM     16  O   UNL     1      21.680  -6.798   3.802  1.00  0.00    -0.544 OA
ENDBRANCH   9  14
ENDBRANCH   8   9
ENDBRANCH   1   8
TORSDOF 7
ENDMDL
MODEL 2
REMARK VINA RESULT:    -2.815      2.374      2.622
REMARK INTER + INTRA:          -3.890
REMARK INTER:                  -3.384
REMARK INTRA:                  -0.506
REMARK UNBOUND:                -0.087
REMARK SMILES [NH3+]CCCC[C@H]([NH3+])C(=O)[O-]
REMARK SMILES IDX 4 1 3 2 2 3 1 4 5 8 6 9 7 10 8 14 9 15 10 16
REMARK H PARENT 1 5 1 6 1 7 7 11 7 12 7 13
REMARK Flexibility Score: inf
ROOT
ATOM      1  C   UNL     1      19.262  -4.531   3.941  1.00  0.00     0.012 C 
ENDROOT
BRANCH   1   2
ATOM      2  C   UNL     1      18.881  -3.887   2.594  1.00  0.00     0.061 C 
BRANCH   2   3
ATOM      3  C   UNL     1      17.594  -4.442   1.954  1.00  0.00     0.258 C 
BRANCH   3   4
ATOM      4  N   UNL     1      17.864  -5.179   0.717  1.00  0.00    -0.358 N 
ATOM      5  H   UNL     1      18.540  -4.632   0.136  1.00  0.00     0.344 HD
ATOM      6  H   UNL     1      18.286  -6.112   0.934  1.00  0.00     0.344 HD
ATOM      7  H   UNL     1      16.984  -5.304   0.170  1.00  0.00     0.344 HD
ENDBRANCH   3   4
ENDBRANCH   2   3
ENDBRANCH   1   2
BRANCH   1   8
ATOM      8  C   UNL     1      18.885  -6.018   4.088  1.00  0.00     0.072 C 
BRANCH   8   9
ATOM      9  C   UNL     1      20.062  -7.008   3.918  1.00  0.00     0.227 C 
BRANCH   9  10
ATOM     10  N   UNL     1      21.343  -6.308   3.751  1.00  0.00    -0.350 N 
ATOM     11  H   UNL     1      22.140  -6.986   3.750  1.00  0.00     0.345 HD
ATOM     12  H   UNL     1      21.478  -5.622   4.530  1.00  0.00     0.345 HD
ATOM     13  H   UNL     1      21.343  -5.770   2.855  1.00  0.00     0.345 HD
ENDBRANCH   9  10
BRANCH   9  14
ATOM     14  C   UNL     1      19.798  -7.894   2.729  1.00  0.00     0.099 C 
ATOM     15  O   UNL     1      18.719  -7.788   2.088  1.00  0.00    -0.544 OA
ATOM     16  O   UNL     1      20.756  -8.810   2.311  1.00  0.00    -0.544 OA
ENDBRANCH   9  14
ENDBRANCH   8   9
ENDBRANCH   1   8
TORSDOF 7
ENDMDL
MODEL 3
REMARK VINA RESULT:    -2.776      1.962      2.374
REMARK INTER + INTRA:          -3.837
REMARK INTER:                  -3.760
REMARK INTRA:                  -0.077
REMARK UNBOUND:                -0.087
REMARK SMILES [NH3+]CCCC[C@H]([NH3+])C(=O)[O-]
REMARK SMILES IDX 4 1 3 2 2 3 1 4 5 8 6 9 7 10 8 14 9 15 10 16
REMARK H PARENT 1 5 1 6 1 7 7 11 7 12 7 13
REMARK Flexibility Score: inf
ROOT
ATOM      1  C   UNL     1      18.500  -2.851   3.992  1.00  0.00     0.012 C 
ENDROOT
BRANCH   1   2
ATOM      2  C   UNL     1      18.481  -1.373   3.554  1.00  0.00     0.061 C 
BRANCH   2   3
ATOM      3  C   UNL     1      17.697  -1.095   2.258  1.00  0.00     0.258 C 
BRANCH   3   4
ATOM      4  N   UNL     1      17.750   0.317   1.871  1.00  0.00    -0.358 N 
ATOM      5  H   UNL     1      17.846   0.902   2.733  1.00  0.00     0.344 HD
ATOM      6  H   UNL     1      18.574   0.494   1.252  1.00  0.00     0.344 HD
ATOM      7  H   UNL     1      16.870   0.593   1.383  1.00  0.00     0.344 HD
ENDBRANCH   3   4
ENDBRANCH   2   3
ENDBRANCH   1   2
BRANCH   1   8
ATOM      8  C   UNL     1      18.874  -3.859   2.888  1.00  0.00     0.072 C 
BRANCH   8   9
ATOM      9  C   UNL     1      18.995  -5.327   3.360  1.00  0.00     0.227 C 
BRANCH   9  10
ATOM     10  N   UNL     1      20.374  -5.667   3.734  1.00  0.00    -0.350 N 
ATOM     11  H   UNL     1      20.543  -5.474   4.748  1.00  0.00     0.345 HD
ATOM     12  H   UNL     1      21.048  -5.105   3.163  1.00  0.00     0.345 HD
ATOM     13  H   UNL     1      20.561  -6.676   3.537  1.00  0.00     0.345 HD
ENDBRANCH   9  10
BRANCH   9  14
ATOM     14  C   UNL     1      18.515  -6.242   2.265  1.00  0.00     0.099 C 
ATOM     15  O   UNL     1      18.647  -7.489   2.379  1.00  0.00    -0.544 OA
ATOM     16  O   UNL     1      17.895  -5.719   1.136  1.00  0.00    -0.544 OA
ENDBRANCH   9  14
ENDBRANCH   8   9
ENDBRANCH   1   8
TORSDOF 7
ENDMDL
MODEL 4
REMARK VINA RESULT:    -2.776     16.605     17.838
REMARK INTER + INTRA:          -3.836
REMARK INTER:                  -3.330
REMARK INTRA:                  -0.506
REMARK UNBOUND:                -0.087
REMARK SMILES [NH3+]CCCC[C@H]([NH3+])C(=O)[O-]
REMARK SMILES IDX 4 1 3 2 2 3 1 4 5 8 6 9 7 10 8 14 9 15 10 16
REMARK H PARENT 1 5 1 6 1 7 7 11 7 12 7 13
REMARK Flexibility Score: inf
ROOT
ATOM      1  C   UNL     1      15.652 -12.362 -13.910  1.00  0.00     0.012 C 
ENDROOT
BRANCH   1   2
ATOM      2  C   UNL     1      14.111 -12.381 -13.853  1.00  0.00     0.061 C 
BRANCH   2   3
ATOM      3  C   UNL     1      13.497 -13.735 -13.450  1.00  0.00     0.258 C 
BRANCH   3   4
ATOM      4  N   UNL     1      12.626 -13.621 -12.278  1.00  0.00    -0.358 N 
ATOM      5  H   UNL     1      12.054 -14.493 -12.194  1.00  0.00     0.344 HD
ATOM      6  H   UNL     1      13.198 -13.510 -11.409  1.00  0.00     0.344 HD
ATOM      7  H   UNL     1      11.977 -12.810 -12.386  1.00  0.00     0.344 HD
ENDBRANCH   3   4
ENDBRANCH   2   3
ENDBRANCH   1   2
BRANCH   1   8
ATOM      8  C   UNL     1      16.354 -11.992 -12.589  1.00  0.00     0.072 C 
BRANCH   8   9
ATOM      9  C   UNL     1      15.586 -10.981 -11.705  1.00  0.00     0.227 C 
BRANCH   9  10
ATOM     10  N   UNL     1      16.336  -9.729 -11.533  1.00  0.00    -0.350 N 
ATOM     11  H   UNL     1      15.689  -8.933 -11.329  1.00  0.00     0.345 HD
ATOM     12  H   UNL     1      16.877  -9.515 -12.403  1.00  0.00     0.345 HD
ATOM     13  H   UNL     1      17.024  -9.827 -10.752  1.00  0.00     0.345 HD
ENDBRANCH   9  10
BRANCH   9  14
ATOM     14  C   UNL     1      15.309 -11.606 -10.363  1.00  0.00     0.099 C 
ATOM     15  O   UNL     1      16.136 -11.478  -9.422  1.00  0.00    -0.544 OA
ATOM     16  O   UNL     1      14.124 -12.299 -10.144  1.00  0.00    -0.544 OA
ENDBRANCH   9  14
ENDBRANCH   8   9
ENDBRANCH   1   8
TORSDOF 7
ENDMDL
MODEL 5
REMARK VINA RESULT:    -2.749      2.675      4.415
REMARK INTER + INTRA:          -3.800
REMARK INTER:                  -3.337
REMARK INTRA:                  -0.463
REMARK UNBOUND:                -0.087
REMARK SMILES [NH3+]CCCC[C@H]([NH3+])C(=O)[O-]
REMARK SMILES IDX 4 1 3 2 2 3 1 4 5 8 6 9 7 10 8 14 9 15 10 16
REMARK H PARENT 1 5 1 6 1 7 7 11 7 12 7 13
REMARK Flexibility Score: inf
ROOT
ATOM      1  C   UNL     1      17.393  -6.477   2.357  1.00  0.00     0.012 C 
ENDROOT
BRANCH   1   2
ATOM      2  C   UNL     1      17.735  -7.016   0.954  1.00  0.00     0.061 C 
BRANCH   2   3
ATOM      3  C   UNL     1      17.543  -8.534   0.782  1.00  0.00     0.258 C 
BRANCH   3   4
ATOM      4  N   UNL     1      18.806  -9.225   0.512  1.00  0.00    -0.358 N 
ATOM      5  H   UNL     1      18.612 -10.071  -0.071  1.00  0.00     0.344 HD
ATOM      6  H   UNL     1      19.458  -8.598  -0.013  1.00  0.00     0.344 HD
ATOM      7  H   UNL     1      19.248  -9.534   1.405  1.00  0.00     0.344 HD
ENDBRANCH   3   4
ENDBRANCH   2   3
ENDBRANCH   1   2
BRANCH   1   8
ATOM      8  C   UNL     1      18.248  -7.046   3.506  1.00  0.00     0.072 C 
BRANCH   8   9
ATOM      9  C   UNL     1      19.512  -6.224   3.848  1.00  0.00     0.227 C 
BRANCH   9  10
ATOM     10  N   UNL     1      19.525  -4.929   3.151  1.00  0.00    -0.350 N 
ATOM     11  H   UNL     1      19.091  -5.013   2.203  1.00  0.00     0.345 HD
ATOM     12  H   UNL     1      20.509  -4.589   3.049  1.00  0.00     0.345 HD
ATOM     13  H   UNL     1      19.003  -4.217   3.710  1.00  0.00     0.345 HD
ENDBRANCH   9  10
BRANCH   9  14
ATOM     14  C   UNL     1      20.737  -7.020   3.481  1.00  0.00     0.099 C 
ATOM     15  O   UNL     1      21.878  -6.626   3.839  1.00  0.00    -0.544 OA
ATOM     16  O   UNL     1      20.613  -8.210   2.773  1.00  0.00    -0.544 OA
ENDBRANCH   9  14
ENDBRANCH   8   9
ENDBRANCH   1   8
TORSDOF 7
ENDMDL
MODEL 6
REMARK VINA RESULT:    -2.748      2.756      3.757
REMARK INTER + INTRA:          -3.799
REMARK INTER:                  -3.271
REMARK INTRA:                  -0.528
REMARK UNBOUND:                -0.087
REMARK SMILES [NH3+]CCCC[C@H]([NH3+])C(=O)[O-]
REMARK SMILES IDX 4 1 3 2 2 3 1 4 5 8 6 9 7 10 8 14 9 15 10 16
REMARK H PARENT 1 5 1 6 1 7 7 11 7 12 7 13
REMARK Flexibility Score: inf
ROOT
ATOM      1  C   UNL     1      17.203  -7.569   2.487  1.00  0.00     0.012 C 
ENDROOT
BRANCH   1   2
ATOM      2  C   UNL     1      17.740  -6.538   1.474  1.00  0.00     0.061 C 
BRANCH   2   3
ATOM      3  C   UNL     1      18.353  -5.274   2.103  1.00  0.00     0.258 C 
BRANCH   3   4
ATOM      4  N   UNL     1      19.546  -5.574   2.898  1.00  0.00    -0.358 N 
ATOM      5  H   UNL     1      19.553  -6.594   3.128  1.00  0.00     0.344 HD
ATOM      6  H   UNL     1      20.411  -5.345   2.357  1.00  0.00     0.344 HD
ATOM      7  H   UNL     1      19.531  -5.036   3.793  1.00  0.00     0.344 HD
ENDBRANCH   3   4
ENDBRANCH   2   3
ENDBRANCH   1   2
BRANCH   1   8
ATOM      8  C   UNL     1      17.833  -8.972   2.394  1.00  0.00     0.072 C 
BRANCH   8   9
ATOM      9  C   UNL     1      18.903  -9.134   1.288  1.00  0.00     0.227 C 
BRANCH   9  10
ATOM     10  N   UNL     1      18.617 -10.282   0.417  1.00  0.00    -0.350 N 
ATOM     11  H   UNL     1      17.723 -10.747   0.696  1.00  0.00     0.345 HD
ATOM     12  H   UNL     1      19.397 -10.978   0.478  1.00  0.00     0.345 HD
ATOM     13  H   UNL     1      18.552  -9.971  -0.578  1.00  0.00     0.345 HD
ENDBRANCH   9  10
BRANCH   9  14
ATOM     14  C   UNL     1      20.257  -9.293   1.927  1.00  0.00     0.099 C 
ATOM     15  O   UNL     1      20.912 -10.357   1.765  1.00  0.00    -0.544 OA
ATOM     16  O   UNL     1      20.808  -8.257   2.672  1.00  0.00    -0.544 OA
ENDBRANCH   9  14
ENDBRANCH   8   9
ENDBRANCH   1   8
TORSDOF 7
ENDMDL
MODEL 7
REMARK VINA RESULT:    -2.719     17.746     18.846
REMARK INTER + INTRA:          -3.760
REMARK INTER:                  -3.270
REMARK INTRA:                  -0.490
REMARK UNBOUND:                -0.087
REMARK SMILES [NH3+]CCCC[C@H]([NH3+])C(=O)[O-]
REMARK SMILES IDX 4 1 3 2 2 3 1 4 5 8 6 9 7 10 8 14 9 15 10 16
REMARK H PARENT 1 5 1 6 1 7 7 11 7 12 7 13
REMARK Flexibility Score: inf
ROOT
ATOM      1  C   UNL     1      14.235 -12.576 -13.902  1.00  0.00     0.012 C 
ENDROOT
BRANCH   1   2
ATOM      2  C   UNL     1      15.731 -12.423 -13.564  1.00  0.00     0.061 C 
BRANCH   2   3
ATOM      3  C   UNL     1      16.053 -11.305 -12.555  1.00  0.00     0.258 C 
BRANCH   3   4
ATOM      4  N   UNL     1      15.795 -11.716 -11.173  1.00  0.00    -0.358 N 
ATOM      5  H   UNL     1      15.672 -12.754 -11.145  1.00  0.00     0.344 HD
ATOM      6  H   UNL     1      16.602 -11.456 -10.559  1.00  0.00     0.344 HD
ATOM      7  H   UNL     1      14.919 -11.271 -10.820  1.00  0.00     0.344 HD
ENDBRANCH   3   4
ENDBRANCH   2   3
ENDBRANCH   1   2
BRANCH   1   8
ATOM      8  C   UNL     1      13.587 -13.895 -13.438  1.00  0.00     0.072 C 
BRANCH   8   9
ATOM      9  C   UNL     1      12.203 -13.741 -12.766  1.00  0.00     0.227 C 
BRANCH   9  10
ATOM     10  N   UNL     1      11.169 -13.348 -13.733  1.00  0.00    -0.350 N 
ATOM     11  H   UNL     1      10.872 -14.166 -14.314  1.00  0.00     0.345 HD
ATOM     12  H   UNL     1      11.536 -12.597 -14.363  1.00  0.00     0.345 HD
ATOM     13  H   UNL     1      10.339 -12.958 -13.232  1.00  0.00     0.345 HD
ENDBRANCH   9  10
BRANCH   9  14
ATOM     14  C   UNL     1      12.297 -12.717 -11.665  1.00  0.00     0.099 C 
ATOM     15  O   UNL     1      11.577 -11.684 -11.698  1.00  0.00    -0.544 OA
ATOM     16  O   UNL     1      13.153 -12.922 -10.589  1.00  0.00    -0.544 OA
ENDBRANCH   9  14
ENDBRANCH   8   9
ENDBRANCH   1   8
TORSDOF 7
ENDMDL
MODEL 8
REMARK VINA RESULT:    -2.678     16.491     17.665
REMARK INTER + INTRA:          -3.704
REMARK INTER:                  -3.254
REMARK INTRA:                  -0.451
REMARK UNBOUND:                -0.087
REMARK SMILES [NH3+]CCCC[C@H]([NH3+])C(=O)[O-]
REMARK SMILES IDX 4 1 3 2 2 3 1 4 5 8 6 9 7 10 8 14 9 15 10 16
REMARK H PARENT 1 5 1 6 1 7 7 11 7 12 7 13
REMARK Flexibility Score: inf
ROOT
ATOM      1  C   UNL     1      12.592 -13.526 -12.080  1.00  0.00     0.012 C 
ENDROOT
BRANCH   1   2
ATOM      2  C   UNL     1      13.407 -13.790 -13.362  1.00  0.00     0.061 C 
BRANCH   2   3
ATOM      3  C   UNL     1      14.034 -12.536 -13.998  1.00  0.00     0.258 C 
BRANCH   3   4
ATOM      4  N   UNL     1      15.493 -12.518 -13.866  1.00  0.00    -0.358 N 
ATOM      5  H   UNL     1      15.803 -11.541 -13.655  1.00  0.00     0.344 HD
ATOM      6  H   UNL     1      15.795 -13.142 -13.083  1.00  0.00     0.344 HD
ATOM      7  H   UNL     1      15.942 -12.820 -14.758  1.00  0.00     0.344 HD
ENDBRANCH   3   4
ENDBRANCH   2   3
ENDBRANCH   1   2
BRANCH   1   8
ATOM      8  C   UNL     1      12.920 -12.207 -11.354  1.00  0.00     0.072 C 
BRANCH   8   9
ATOM      9  C   UNL     1      13.750 -12.365 -10.058  1.00  0.00     0.227 C 
BRANCH   9  10
ATOM     10  N   UNL     1      13.009 -11.902  -8.877  1.00  0.00    -0.350 N 
ATOM     11  H   UNL     1      11.993 -11.782  -9.098  1.00  0.00     0.345 HD
ATOM     12  H   UNL     1      13.397 -10.987  -8.549  1.00  0.00     0.345 HD
ATOM     13  H   UNL     1      13.116 -12.586  -8.095  1.00  0.00     0.345 HD
ENDBRANCH   9  10
BRANCH   9  14
ATOM     14  C   UNL     1      15.037 -11.596 -10.195  1.00  0.00     0.099 C 
ATOM     15  O   UNL     1      15.292 -10.973 -11.260  1.00  0.00    -0.544 OA
ATOM     16  O   UNL     1      15.937 -11.540  -9.137  1.00  0.00    -0.544 OA
ENDBRANCH   9  14
ENDBRANCH   8   9
ENDBRANCH   1   8
TORSDOF 7
ENDMDL
MODEL 9
REMARK VINA RESULT:    -1.973      4.071      5.875
REMARK INTER + INTRA:          -2.752
REMARK INTER:                  -2.253
REMARK INTRA:                  -0.499
REMARK UNBOUND:                -0.087
REMARK SMILES [NH3+]CCCC[C@H]([NH3+])C(=O)[O-]
REMARK SMILES IDX 4 1 3 2 2 3 1 4 5 8 6 9 7 10 8 14 9 15 10 16
REMARK H PARENT 1 5 1 6 1 7 7 11 7 12 7 13
REMARK Flexibility Score: inf
ROOT
ATOM      1  C   UNL     1      18.563  -1.870   4.115  1.00  0.00     0.012 C 
ENDROOT
BRANCH   1   2
ATOM      2  C   UNL     1      18.203  -3.369   4.125  1.00  0.00     0.061 C 
BRANCH   2   3
ATOM      3  C   UNL     1      19.198  -4.276   3.376  1.00  0.00     0.258 C 
BRANCH   3   4
ATOM      4  N   UNL     1      18.894  -4.369   1.946  1.00  0.00    -0.358 N 
ATOM      5  H   UNL     1      19.305  -5.254   1.569  1.00  0.00     0.344 HD
ATOM      6  H   UNL     1      17.859  -4.387   1.795  1.00  0.00     0.344 HD
ATOM      7  H   UNL     1      19.317  -3.565   1.433  1.00  0.00     0.344 HD
ENDBRANCH   3   4
ENDBRANCH   2   3
ENDBRANCH   1   2
BRANCH   1   8
ATOM      8  C   UNL     1      17.522  -0.949   3.449  1.00  0.00     0.072 C 
BRANCH   8   9
ATOM      9  C   UNL     1      17.667  -0.804   1.916  1.00  0.00     0.227 C 
BRANCH   9  10
ATOM     10  N   UNL     1      17.747   0.606   1.507  1.00  0.00    -0.350 N 
ATOM     11  H   UNL     1      17.200   1.213   2.159  1.00  0.00     0.345 HD
ATOM     12  H   UNL     1      17.371   0.718   0.537  1.00  0.00     0.345 HD
ATOM     13  H   UNL     1      18.744   0.919   1.495  1.00  0.00     0.345 HD
ENDBRANCH   9  10
BRANCH   9  14
ATOM     14  C   UNL     1      16.499  -1.472   1.240  1.00  0.00     0.099 C 
ATOM     15  O   UNL     1      15.474  -0.805   0.941  1.00  0.00    -0.544 OA
ATOM     16  O   UNL     1      16.558  -2.822   0.911  1.00  0.00    -0.544 OA
ENDBRANCH   9  14
ENDBRANCH   8   9
ENDBRANCH   1   8
TORSDOF 7
ENDMDL
