MODEL 1
REMARK VINA RESULT:    10.974      0.000      0.000
REMARK INTER + INTRA:          10.974
REMARK INTER:                  10.974
REMARK INTRA:                   0.000
REMARK UNBOUND:                 0.000
REMARK SMILES CC1=CC[C@@]2(C)CCCC(C)(C)[C@]23C[C@H]13
REMARK SMILES IDX 1 1 2 2 3 3 4 4 5 5 7 6 8 7 9 8 10 9 13 10 15 11 14 12 11 13
REMARK SMILES IDX 12 14 6 15
REMARK H PARENT
REMARK Flexibility Score: inf
ROOT
ATOM      1  C   UNL     1     137.266 138.171 167.067  1.00  0.00     0.039 C 
ATOM      2  C   UNL     1     137.148 138.653 165.650  1.00  0.00    -0.074 C 
ATOM      3  C   UNL     1     137.714 139.812 165.286  1.00  0.00    -0.027 C 
ATOM      4  C   UNL     1     137.563 140.328 163.885  1.00  0.00     0.034 C 
ATOM      5  C   UNL     1     136.118 140.122 163.355  1.00  0.00    -0.022 C 
ATOM      6  C   UNL     1     136.083 140.604 161.878  1.00  0.00     0.008 C 
ATOM      7  C   UNL     1     134.875 140.044 161.137  1.00  0.00     0.001 C 
ATOM      8  C   UNL     1     134.973 138.525 160.949  1.00  0.00     0.007 C 
ATOM      9  C   UNL     1     135.673 137.728 162.107  1.00  0.00    -0.029 C 
ATOM     10  C   UNL     1     135.723 138.581 163.452  1.00  0.00    -0.012 C 
ATOM     11  C   UNL     1     136.368 137.833 164.648  1.00  0.00     0.022 C 
ATOM     12  C   UNL     1     134.875 138.117 164.666  1.00  0.00     0.017 C 
ATOM     13  C   UNL     1     137.120 137.370 161.678  1.00  0.00     0.012 C 
ATOM     14  C   UNL     1     134.911 136.380 162.244  1.00  0.00     0.012 C 
ATOM     15  C   UNL     1     135.152 141.035 164.166  1.00  0.00     0.012 C 
ENDROOT
TORSDOF 0
ENDMDL
