MODEL 1
REMARK VINA RESULT:    -3.638      0.000      0.000
REMARK INTER + INTRA:          -8.767
REMARK INTER:                  -6.615
REMARK INTRA:                  -2.153
REMARK UNBOUND:                -2.153
REMARK SMILES CCCCCC=CCC=CCCCCCCCC(=O)[O-]
REMARK SMILES IDX 11 1 12 2 13 3 14 4 15 5 16 6 17 7 18 8 19 9 20 10 10 11
REMARK SMILES IDX 9 12 8 13 7 14 6 15 5 16 4 17 3 18 2 19 1 20
REMARK H PARENT
REMARK Flexibility Score: inf
ROOT
ATOM      1  C   UNL     1       7.670   1.278  18.155  1.00  0.00     0.027 C 
ENDROOT
BRANCH   1   2
ATOM      2  C   UNL     1       6.966   0.599  16.975  1.00  0.00     0.004 C 
BRANCH   2   3
ATOM      3  C   UNL     1       5.633  -0.051  17.387  1.00  0.00     0.000 C 
BRANCH   3   4
ATOM      4  C   UNL     1       4.536   0.997  17.671  1.00  0.00     0.000 C 
BRANCH   4   5
ATOM      5  C   UNL     1       4.166   1.115  19.162  1.00  0.00     0.000 C 
BRANCH   5   6
ATOM      6  C   UNL     1       2.824   1.819  19.443  1.00  0.00     0.006 C 
BRANCH   6   7
ATOM      7  C   UNL     1       1.730   0.891  19.994  1.00  0.00     0.053 C 
BRANCH   7   8
ATOM      8  C   UNL     1       0.720   0.536  18.947  1.00  0.00     0.041 C 
ATOM      9  O   UNL     1      -0.510   0.633  19.194  1.00  0.00    -0.550 OA
ATOM     10  O   UNL     1       1.138   0.066  17.708  1.00  0.00    -0.550 OA
ENDBRANCH   7   8
ENDBRANCH   6   7
ENDBRANCH   5   6
ENDBRANCH   4   5
ENDBRANCH   3   4
ENDBRANCH   2   3
ENDBRANCH   1   2
BRANCH   1  11
ATOM     11  C   UNL     1       8.231   2.622  17.771  1.00  0.00    -0.031 C 
ATOM     12  C   UNL     1       7.447   3.601  17.297  1.00  0.00    -0.027 C 
BRANCH  12  13
ATOM     13  C   UNL     1       8.015   4.927  16.875  1.00  0.00     0.054 C 
BRANCH  13  14
ATOM     14  C   UNL     1       7.094   6.059  17.257  1.00  0.00    -0.027 C 
ATOM     15  C   UNL     1       7.372   6.985  18.193  1.00  0.00    -0.031 C 
BRANCH  15  16
ATOM     16  C   UNL     1       8.613   6.988  19.052  1.00  0.00     0.027 C 
BRANCH  16  17
ATOM     17  C   UNL     1       8.349   6.391  20.443  1.00  0.00     0.004 C 
BRANCH  17  18
ATOM     18  C   UNL     1       8.999   5.008  20.610  1.00  0.00     0.000 C 
BRANCH  18  19
ATOM     19  C   UNL     1       7.973   3.976  21.093  1.00  0.00    -0.003 C 
ATOM     20  C   UNL     1       6.563   4.353  20.650  1.00  0.00     0.004 C 
ENDBRANCH  18  19
ENDBRANCH  17  18
ENDBRANCH  16  17
ENDBRANCH  15  16
ENDBRANCH  13  14
ENDBRANCH  12  13
ENDBRANCH   1  11
TORSDOF 14
ENDMDL
MODEL 2
REMARK VINA RESULT:    -3.272      3.484      6.991
REMARK INTER + INTRA:          -8.103
REMARK INTER:                  -6.120
REMARK INTRA:                  -1.982
REMARK UNBOUND:                -2.153
REMARK SMILES CCCCCC=CCC=CCCCCCCCC(=O)[O-]
REMARK SMILES IDX 11 1 12 2 13 3 14 4 15 5 16 6 17 7 18 8 19 9 20 10 10 11
REMARK SMILES IDX 9 12 8 13 7 14 6 15 5 16 4 17 3 18 2 19 1 20
REMARK H PARENT
REMARK Flexibility Score: inf
ROOT
ATOM      1  C   UNL     1       6.751   5.940  18.081  1.00  0.00     0.027 C 
ENDROOT
BRANCH   1   2
ATOM      2  C   UNL     1       7.763   6.990  18.556  1.00  0.00     0.004 C 
BRANCH   2   3
ATOM      3  C   UNL     1       7.996   6.930  20.076  1.00  0.00     0.000 C 
BRANCH   3   4
ATOM      4  C   UNL     1       9.497   6.897  20.437  1.00  0.00     0.000 C 
BRANCH   4   5
ATOM      5  C   UNL     1      10.027   5.485  20.749  1.00  0.00     0.000 C 
BRANCH   5   6
ATOM      6  C   UNL     1       9.546   4.896  22.090  1.00  0.00     0.006 C 
BRANCH   6   7
ATOM      7  C   UNL     1       8.717   3.609  21.951  1.00  0.00     0.053 C 
BRANCH   7   8
ATOM      8  C   UNL     1       9.471   2.406  22.427  1.00  0.00     0.041 C 
ATOM      9  O   UNL     1      10.123   1.703  21.612  1.00  0.00    -0.550 OA
ATOM     10  O   UNL     1       9.428   2.043  23.767  1.00  0.00    -0.550 OA
ENDBRANCH   7   8
ENDBRANCH   6   7
ENDBRANCH   5   6
ENDBRANCH   4   5
ENDBRANCH   3   4
ENDBRANCH   2   3
ENDBRANCH   1   2
BRANCH   1  11
ATOM     11  C   UNL     1       7.137   4.554  18.527  1.00  0.00    -0.031 C 
ATOM     12  C   UNL     1       8.121   3.871  17.925  1.00  0.00    -0.027 C 
BRANCH  12  13
ATOM     13  C   UNL     1       8.477   2.471  18.345  1.00  0.00     0.054 C 
BRANCH  13  14
ATOM     14  C   UNL     1       8.095   1.472  17.282  1.00  0.00    -0.027 C 
ATOM     15  C   UNL     1       6.983   0.713  17.314  1.00  0.00    -0.031 C 
BRANCH  15  16
ATOM     16  C   UNL     1       5.991   0.695  18.451  1.00  0.00     0.027 C 
BRANCH  16  17
ATOM     17  C   UNL     1       4.708   1.466  18.105  1.00  0.00     0.004 C 
BRANCH  17  18
ATOM     18  C   UNL     1       3.450   0.598  18.270  1.00  0.00     0.000 C 
BRANCH  18  19
ATOM     19  C   UNL     1       2.375   1.340  19.072  1.00  0.00    -0.003 C 
ATOM     20  C   UNL     1       2.991   2.112  20.235  1.00  0.00     0.004 C 
ENDBRANCH  18  19
ENDBRANCH  17  18
ENDBRANCH  16  17
ENDBRANCH  15  16
ENDBRANCH  13  14
ENDBRANCH  12  13
ENDBRANCH   1  11
TORSDOF 14
ENDMDL
MODEL 3
REMARK VINA RESULT:    -2.878      3.058      4.401
REMARK INTER + INTRA:          -7.386
REMARK INTER:                  -5.166
REMARK INTRA:                  -2.220
REMARK UNBOUND:                -2.153
REMARK SMILES CCCCCC=CCC=CCCCCCCCC(=O)[O-]
REMARK SMILES IDX 11 1 12 2 13 3 14 4 15 5 16 6 17 7 18 8 19 9 20 10 10 11
REMARK SMILES IDX 9 12 8 13 7 14 6 15 5 16 4 17 3 18 2 19 1 20
REMARK H PARENT
REMARK Flexibility Score: inf
ROOT
ATOM      1  C   UNL     1       4.516   2.876  20.032  1.00  0.00     0.027 C 
ENDROOT
BRANCH   1   2
ATOM      2  C   UNL     1       3.547   1.982  19.248  1.00  0.00     0.004 C 
BRANCH   2   3
ATOM      3  C   UNL     1       4.172   0.623  18.886  1.00  0.00     0.000 C 
BRANCH   3   4
ATOM      4  C   UNL     1       4.257   0.407  17.360  1.00  0.00     0.000 C 
BRANCH   4   5
ATOM      5  C   UNL     1       5.624  -0.123  16.886  1.00  0.00     0.000 C 
BRANCH   5   6
ATOM      6  C   UNL     1       6.792   0.141  17.857  1.00  0.00     0.006 C 
BRANCH   6   7
ATOM      7  C   UNL     1       8.013   0.810  17.206  1.00  0.00     0.053 C 
BRANCH   7   8
ATOM      8  C   UNL     1       8.912   1.440  18.224  1.00  0.00     0.041 C 
ATOM      9  O   UNL     1       9.646   2.411  17.906  1.00  0.00    -0.550 OA
ATOM     10  O   UNL     1       8.963   0.933  19.516  1.00  0.00    -0.550 OA
ENDBRANCH   7   8
ENDBRANCH   6   7
ENDBRANCH   5   6
ENDBRANCH   4   5
ENDBRANCH   3   4
ENDBRANCH   2   3
ENDBRANCH   1   2
BRANCH   1  11
ATOM     11  C   UNL     1       5.744   3.208  19.226  1.00  0.00    -0.031 C 
ATOM     12  C   UNL     1       5.797   4.292  18.439  1.00  0.00    -0.027 C 
BRANCH  12  13
ATOM     13  C   UNL     1       7.009   4.598  17.604  1.00  0.00     0.054 C 
BRANCH  13  14
ATOM     14  C   UNL     1       7.089   6.069  17.282  1.00  0.00    -0.027 C 
ATOM     15  C   UNL     1       8.052   6.896  17.729  1.00  0.00    -0.031 C 
BRANCH  15  16
ATOM     16  C   UNL     1       9.154   6.493  18.679  1.00  0.00     0.027 C 
BRANCH  16  17
ATOM     17  C   UNL     1       8.948   7.087  20.081  1.00  0.00     0.004 C 
BRANCH  17  18
ATOM     18  C   UNL     1       9.260   6.070  21.191  1.00  0.00     0.000 C 
BRANCH  18  19
ATOM     19  C   UNL     1       8.621   4.711  20.883  1.00  0.00    -0.003 C 
ATOM     20  C   UNL     1       9.193   3.619  21.782  1.00  0.00     0.004 C 
ENDBRANCH  18  19
ENDBRANCH  17  18
ENDBRANCH  16  17
ENDBRANCH  15  16
ENDBRANCH  13  14
ENDBRANCH  12  13
ENDBRANCH   1  11
TORSDOF 14
ENDMDL
MODEL 4
REMARK VINA RESULT:    -2.773      3.367      7.018
REMARK INTER + INTRA:          -7.196
REMARK INTER:                  -5.073
REMARK INTRA:                  -2.123
REMARK UNBOUND:                -2.153
REMARK SMILES CCCCCC=CCC=CCCCCCCCC(=O)[O-]
REMARK SMILES IDX 11 1 12 2 13 3 14 4 15 5 16 6 17 7 18 8 19 9 20 10 10 11
REMARK SMILES IDX 9 12 8 13 7 14 6 15 5 16 4 17 3 18 2 19 1 20
REMARK H PARENT
REMARK Flexibility Score: inf
ROOT
ATOM      1  C   UNL     1       5.985   3.986  19.621  1.00  0.00     0.027 C 
ENDROOT
BRANCH   1   2
ATOM      2  C   UNL     1       5.999   4.439  18.155  1.00  0.00     0.004 C 
BRANCH   2   3
ATOM      3  C   UNL     1       6.847   5.706  17.945  1.00  0.00     0.000 C 
BRANCH   3   4
ATOM      4  C   UNL     1       8.252   5.580  18.574  1.00  0.00     0.000 C 
BRANCH   4   5
ATOM      5  C   UNL     1       8.419   6.387  19.876  1.00  0.00     0.000 C 
BRANCH   5   6
ATOM      6  C   UNL     1       9.128   5.631  21.018  1.00  0.00     0.006 C 
BRANCH   6   7
ATOM      7  C   UNL     1       9.582   4.211  20.646  1.00  0.00     0.053 C 
BRANCH   7   8
ATOM      8  C   UNL     1       9.332   3.238  21.757  1.00  0.00     0.041 C 
ATOM      9  O   UNL     1       9.753   2.055  21.670  1.00  0.00    -0.550 OA
ATOM     10  O   UNL     1       8.606   3.629  22.875  1.00  0.00    -0.550 OA
ENDBRANCH   7   8
ENDBRANCH   6   7
ENDBRANCH   5   6
ENDBRANCH   4   5
ENDBRANCH   3   4
ENDBRANCH   2   3
ENDBRANCH   1   2
BRANCH   1  11
ATOM     11  C   UNL     1       5.087   2.796  19.827  1.00  0.00    -0.031 C 
ATOM     12  C   UNL     1       3.768   2.937  20.024  1.00  0.00    -0.027 C 
BRANCH  12  13
ATOM     13  C   UNL     1       2.879   1.749  20.271  1.00  0.00     0.054 C 
BRANCH  13  14
ATOM     14  C   UNL     1       2.140   1.354  19.018  1.00  0.00    -0.027 C 
ATOM     15  C   UNL     1       2.615   0.504  18.089  1.00  0.00    -0.031 C 
BRANCH  15  16
ATOM     16  C   UNL     1       3.987  -0.124  18.125  1.00  0.00     0.027 C 
BRANCH  16  17
ATOM     17  C   UNL     1       4.921   0.476  17.063  1.00  0.00     0.004 C 
BRANCH  17  18
ATOM     18  C   UNL     1       6.390   0.096  17.303  1.00  0.00     0.000 C 
BRANCH  18  19
ATOM     19  C   UNL     1       7.302   1.321  17.162  1.00  0.00    -0.003 C 
ATOM     20  C   UNL     1       8.283   1.413  18.327  1.00  0.00     0.004 C 
ENDBRANCH  18  19
ENDBRANCH  17  18
ENDBRANCH  16  17
ENDBRANCH  15  16
ENDBRANCH  13  14
ENDBRANCH  12  13
ENDBRANCH   1  11
TORSDOF 14
ENDMDL
MODEL 5
REMARK VINA RESULT:    -2.434      1.374      3.190
REMARK INTER + INTRA:          -6.579
REMARK INTER:                  -5.538
REMARK INTRA:                  -1.041
REMARK UNBOUND:                -2.153
REMARK SMILES CCCCCC=CCC=CCCCCCCCC(=O)[O-]
REMARK SMILES IDX 11 1 12 2 13 3 14 4 15 5 16 6 17 7 18 8 19 9 20 10 10 11
REMARK SMILES IDX 9 12 8 13 7 14 6 15 5 16 4 17 3 18 2 19 1 20
REMARK H PARENT
REMARK Flexibility Score: inf
ROOT
ATOM      1  C   UNL     1       5.450  -0.037  18.370  1.00  0.00     0.027 C 
ENDROOT
BRANCH   1   2
ATOM      2  C   UNL     1       4.591   1.153  17.925  1.00  0.00     0.004 C 
BRANCH   2   3
ATOM      3  C   UNL     1       4.379   2.174  19.056  1.00  0.00     0.000 C 
BRANCH   3   4
ATOM      4  C   UNL     1       2.905   2.247  19.509  1.00  0.00     0.000 C 
BRANCH   4   5
ATOM      5  C   UNL     1       2.455   1.036  20.349  1.00  0.00     0.000 C 
BRANCH   5   6
ATOM      6  C   UNL     1       1.850  -0.125  19.536  1.00  0.00     0.006 C 
BRANCH   6   7
ATOM      7  C   UNL     1       0.387   0.094  19.119  1.00  0.00     0.053 C 
BRANCH   7   8
ATOM      8  C   UNL     1       0.205  -0.029  17.638  1.00  0.00     0.041 C 
ATOM      9  O   UNL     1       1.207  -0.037  16.875  1.00  0.00    -0.550 OA
ATOM     10  O   UNL     1      -1.072  -0.101  17.097  1.00  0.00    -0.550 OA
ENDBRANCH   7   8
ENDBRANCH   6   7
ENDBRANCH   5   6
ENDBRANCH   4   5
ENDBRANCH   3   4
ENDBRANCH   2   3
ENDBRANCH   1   2
BRANCH   1  11
ATOM     11  C   UNL     1       6.916   0.219  18.143  1.00  0.00    -0.031 C 
ATOM     12  C   UNL     1       7.734   0.558  19.149  1.00  0.00    -0.027 C 
BRANCH  12  13
ATOM     13  C   UNL     1       9.190   0.853  18.914  1.00  0.00     0.054 C 
BRANCH  13  14
ATOM     14  C   UNL     1       9.782   1.621  20.069  1.00  0.00    -0.027 C 
ATOM     15  C   UNL     1       9.595   2.937  20.284  1.00  0.00    -0.031 C 
BRANCH  15  16
ATOM     16  C   UNL     1       8.827   3.855  19.365  1.00  0.00     0.027 C 
BRANCH  16  17
ATOM     17  C   UNL     1       8.015   4.900  20.145  1.00  0.00     0.004 C 
BRANCH  17  18
ATOM     18  C   UNL     1       8.725   6.261  20.200  1.00  0.00     0.000 C 
BRANCH  18  19
ATOM     19  C   UNL     1       8.636   6.980  18.848  1.00  0.00    -0.003 C 
ATOM     20  C   UNL     1       7.209   6.958  18.307  1.00  0.00     0.004 C 
ENDBRANCH  18  19
ENDBRANCH  17  18
ENDBRANCH  16  17
ENDBRANCH  15  16
ENDBRANCH  13  14
ENDBRANCH  12  13
ENDBRANCH   1  11
TORSDOF 14
ENDMDL
MODEL 6
REMARK VINA RESULT:    -2.304      2.283      4.694
REMARK INTER + INTRA:          -6.341
REMARK INTER:                  -4.846
REMARK INTRA:                  -1.495
REMARK UNBOUND:                -2.153
REMARK SMILES CCCCCC=CCC=CCCCCCCCC(=O)[O-]
REMARK SMILES IDX 11 1 12 2 13 3 14 4 15 5 16 6 17 7 18 8 19 9 20 10 10 11
REMARK SMILES IDX 9 12 8 13 7 14 6 15 5 16 4 17 3 18 2 19 1 20
REMARK H PARENT
REMARK Flexibility Score: inf
ROOT
ATOM      1  C   UNL     1       8.083   6.369  19.996  1.00  0.00     0.027 C 
ENDROOT
BRANCH   1   2
ATOM      2  C   UNL     1       7.969   6.994  18.601  1.00  0.00     0.004 C 
BRANCH   2   3
ATOM      3  C   UNL     1       6.705   6.529  17.855  1.00  0.00     0.000 C 
BRANCH   3   4
ATOM      4  C   UNL     1       6.913   5.177  17.140  1.00  0.00     0.000 C 
BRANCH   4   5
ATOM      5  C   UNL     1       5.687   4.246  17.211  1.00  0.00     0.000 C 
BRANCH   5   6
ATOM      6  C   UNL     1       5.593   3.397  18.494  1.00  0.00     0.006 C 
BRANCH   6   7
ATOM      7  C   UNL     1       4.829   2.074  18.319  1.00  0.00     0.053 C 
BRANCH   7   8
ATOM      8  C   UNL     1       3.637   1.997  19.222  1.00  0.00     0.041 C 
ATOM      9  O   UNL     1       2.545   1.542  18.791  1.00  0.00    -0.550 OA
ATOM     10  O   UNL     1       3.723   2.457  20.530  1.00  0.00    -0.550 OA
ENDBRANCH   7   8
ENDBRANCH   6   7
ENDBRANCH   5   6
ENDBRANCH   4   5
ENDBRANCH   3   4
ENDBRANCH   2   3
ENDBRANCH   1   2
BRANCH   1  11
ATOM     11  C   UNL     1       8.883   5.093  19.972  1.00  0.00    -0.031 C 
ATOM     12  C   UNL     1       9.229   4.503  18.818  1.00  0.00    -0.027 C 
BRANCH  12  13
ATOM     13  C   UNL     1       9.992   3.208  18.797  1.00  0.00     0.054 C 
BRANCH  13  14
ATOM     14  C   UNL     1       9.096   2.055  18.420  1.00  0.00    -0.027 C 
ATOM     15  C   UNL     1       9.103   0.854  19.028  1.00  0.00    -0.031 C 
BRANCH  15  16
ATOM     16  C   UNL     1      10.057   0.457  20.128  1.00  0.00     0.027 C 
BRANCH  16  17
ATOM     17  C   UNL     1       9.386   0.493  21.510  1.00  0.00     0.004 C 
BRANCH  17  18
ATOM     18  C   UNL     1      10.125   1.423  22.486  1.00  0.00     0.000 C 
BRANCH  18  19
ATOM     19  C   UNL     1       9.262   2.638  22.843  1.00  0.00    -0.003 C 
ATOM     20  C   UNL     1      10.117   3.890  23.014  1.00  0.00     0.004 C 
ENDBRANCH  18  19
ENDBRANCH  17  18
ENDBRANCH  16  17
ENDBRANCH  15  16
ENDBRANCH  13  14
ENDBRANCH  12  13
ENDBRANCH   1  11
TORSDOF 14
ENDMDL
MODEL 7
REMARK VINA RESULT:    -1.867      2.095      4.435
REMARK INTER + INTRA:          -5.548
REMARK INTER:                  -4.430
REMARK INTRA:                  -1.118
REMARK UNBOUND:                -2.153
REMARK SMILES CCCCCC=CCC=CCCCCCCCC(=O)[O-]
REMARK SMILES IDX 11 1 12 2 13 3 14 4 15 5 16 6 17 7 18 8 19 9 20 10 10 11
REMARK SMILES IDX 9 12 8 13 7 14 6 15 5 16 4 17 3 18 2 19 1 20
REMARK H PARENT
REMARK Flexibility Score: inf
ROOT
ATOM      1  C   UNL     1       7.267   5.974  18.658  1.00  0.00     0.027 C 
ENDROOT
BRANCH   1   2
ATOM      2  C   UNL     1       8.144   4.942  17.939  1.00  0.00     0.004 C 
BRANCH   2   3
ATOM      3  C   UNL     1       7.362   4.149  16.877  1.00  0.00     0.000 C 
BRANCH   3   4
ATOM      4  C   UNL     1       5.838   4.186  17.126  1.00  0.00     0.000 C 
BRANCH   4   5
ATOM      5  C   UNL     1       5.368   3.210  18.222  1.00  0.00     0.000 C 
BRANCH   5   6
ATOM      6  C   UNL     1       5.188   1.752  17.756  1.00  0.00     0.006 C 
BRANCH   6   7
ATOM      7  C   UNL     1       4.534   0.833  18.800  1.00  0.00     0.053 C 
BRANCH   7   8
ATOM      8  C   UNL     1       3.130   1.251  19.109  1.00  0.00     0.041 C 
ATOM      9  O   UNL     1       2.167   0.486  18.840  1.00  0.00    -0.550 OA
ATOM     10  O   UNL     1       2.882   2.499  19.666  1.00  0.00    -0.550 OA
ENDBRANCH   7   8
ENDBRANCH   6   7
ENDBRANCH   5   6
ENDBRANCH   4   5
ENDBRANCH   3   4
ENDBRANCH   2   3
ENDBRANCH   1   2
BRANCH   1  11
ATOM     11  C   UNL     1       7.658   6.128  20.103  1.00  0.00    -0.031 C 
ATOM     12  C   UNL     1       8.302   5.155  20.765  1.00  0.00    -0.027 C 
BRANCH  12  13
ATOM     13  C   UNL     1       8.656   5.295  22.219  1.00  0.00     0.054 C 
BRANCH  13  14
ATOM     14  C   UNL     1       9.967   4.615  22.527  1.00  0.00    -0.027 C 
ATOM     15  C   UNL     1      10.125   3.283  22.644  1.00  0.00    -0.031 C 
BRANCH  15  16
ATOM     16  C   UNL     1       9.004   2.276  22.559  1.00  0.00     0.027 C 
BRANCH  16  17
ATOM     17  C   UNL     1       9.531   0.834  22.510  1.00  0.00     0.004 C 
BRANCH  17  18
ATOM     18  C   UNL     1       9.391   0.215  21.110  1.00  0.00     0.000 C 
BRANCH  18  19
ATOM     19  C   UNL     1       9.825   1.209  20.026  1.00  0.00    -0.003 C 
ATOM     20  C   UNL     1       8.796   1.282  18.902  1.00  0.00     0.004 C 
ENDBRANCH  18  19
ENDBRANCH  17  18
ENDBRANCH  16  17
ENDBRANCH  15  16
ENDBRANCH  13  14
ENDBRANCH  12  13
ENDBRANCH   1  11
TORSDOF 14
ENDMDL
MODEL 8
REMARK VINA RESULT:    -1.272      1.619      2.226
REMARK INTER + INTRA:          -4.466
REMARK INTER:                  -3.772
REMARK INTRA:                  -0.693
REMARK UNBOUND:                -2.153
REMARK SMILES CCCCCC=CCC=CCCCCCCCC(=O)[O-]
REMARK SMILES IDX 11 1 12 2 13 3 14 4 15 5 16 6 17 7 18 8 19 9 20 10 10 11
REMARK SMILES IDX 9 12 8 13 7 14 6 15 5 16 4 17 3 18 2 19 1 20
REMARK H PARENT
REMARK Flexibility Score: inf
ROOT
ATOM      1  C   UNL     1       4.875   2.613  20.044  1.00  0.00     0.027 C 
ENDROOT
BRANCH   1   2
ATOM      2  C   UNL     1       3.953   1.636  19.306  1.00  0.00     0.004 C 
BRANCH   2   3
ATOM      3  C   UNL     1       4.733   0.495  18.630  1.00  0.00     0.000 C 
BRANCH   3   4
ATOM      4  C   UNL     1       4.385   0.356  17.132  1.00  0.00     0.000 C 
BRANCH   4   5
ATOM      5  C   UNL     1       2.943  -0.124  16.876  1.00  0.00     0.000 C 
BRANCH   5   6
ATOM      6  C   UNL     1       2.018  -0.080  18.108  1.00  0.00     0.006 C 
BRANCH   6   7
ATOM      7  C   UNL     1       0.773   0.802  17.929  1.00  0.00     0.053 C 
BRANCH   7   8
ATOM      8  C   UNL     1      -0.031   0.893  19.189  1.00  0.00     0.041 C 
ATOM      9  O   UNL     1      -1.071   0.198  19.329  1.00  0.00    -0.550 OA
ATOM     10  O   UNL     1       0.351   1.770  20.197  1.00  0.00    -0.550 OA
ENDBRANCH   7   8
ENDBRANCH   6   7
ENDBRANCH   5   6
ENDBRANCH   4   5
ENDBRANCH   3   4
ENDBRANCH   2   3
ENDBRANCH   1   2
BRANCH   1  11
ATOM     11  C   UNL     1       5.986   3.109  19.157  1.00  0.00    -0.031 C 
ATOM     12  C   UNL     1       6.064   4.394  18.780  1.00  0.00    -0.027 C 
BRANCH  12  13
ATOM     13  C   UNL     1       7.151   4.879  17.861  1.00  0.00     0.054 C 
BRANCH  13  14
ATOM     14  C   UNL     1       7.027   6.360  17.609  1.00  0.00    -0.027 C 
ATOM     15  C   UNL     1       8.026   7.248  17.779  1.00  0.00    -0.031 C 
BRANCH  15  16
ATOM     16  C   UNL     1       9.393   6.906  18.317  1.00  0.00     0.027 C 
BRANCH  16  17
ATOM     17  C   UNL     1       9.515   7.221  19.816  1.00  0.00     0.004 C 
BRANCH  17  18
ATOM     18  C   UNL     1       9.145   6.013  20.692  1.00  0.00     0.000 C 
BRANCH  18  19
ATOM     19  C   UNL     1       9.776   4.727  20.145  1.00  0.00    -0.003 C 
ATOM     20  C   UNL     1      10.002   3.709  21.259  1.00  0.00     0.004 C 
ENDBRANCH  18  19
ENDBRANCH  17  18
ENDBRANCH  16  17
ENDBRANCH  15  16
ENDBRANCH  13  14
ENDBRANCH  12  13
ENDBRANCH   1  11
TORSDOF 14
ENDMDL
