MODEL 1
REMARK VINA RESULT:    -4.725      0.000      0.000
REMARK INTER + INTRA:          -5.315
REMARK INTER:                  -5.277
REMARK INTRA:                  -0.038
REMARK UNBOUND:                -0.038
REMARK SMILES O=C([O-])c1ccc(O)c(O)c1
REMARK SMILES IDX 4 1 11 2 5 3 9 4 6 5 7 6 2 7 1 8 3 9 10 10 8 12
REMARK H PARENT 10 11 8 13
REMARK Flexibility Score: inf
ROOT
ATOM      1  C   UNL     1       9.279  -6.930  -8.091  1.00  0.00     0.001 A 
ATOM      2  C   UNL     1      10.173  -6.185  -7.301  1.00  0.00     0.060 A 
ATOM      3  C   UNL     1       7.910  -6.913  -7.771  1.00  0.00     0.014 A 
ATOM      4  C   UNL     1       9.710  -5.436  -6.212  1.00  0.00     0.158 A 
ATOM      5  C   UNL     1       7.446  -6.167  -6.685  1.00  0.00     0.051 A 
ATOM      6  C   UNL     1       8.341  -5.426  -5.901  1.00  0.00     0.157 A 
ENDROOT
BRANCH   1   7
ATOM      7  C   UNL     1       9.766  -7.722  -9.242  1.00  0.00     0.072 C 
ATOM      8  O   UNL     1       9.346  -7.485 -10.405  1.00  0.00    -0.545 OA
ATOM      9  O   UNL     1      10.694  -8.739  -9.056  1.00  0.00    -0.545 OA
ENDBRANCH   1   7
BRANCH   4  10
ATOM     10  O   UNL     1      10.627  -4.709  -5.452  1.00  0.00    -0.504 OA
ATOM     11  H   UNL     1      10.914  -3.773  -5.707  1.00  0.00     0.293 HD
ENDBRANCH   4  10
BRANCH   6  12
ATOM     12  O   UNL     1       7.875  -4.683  -4.818  1.00  0.00    -0.504 OA
ATOM     13  H   UNL     1       7.903  -3.670  -4.818  1.00  0.00     0.293 HD
ENDBRANCH   6  12
TORSDOF 3
ENDMDL
MODEL 2
REMARK VINA RESULT:    -4.643     15.644     17.229
REMARK INTER + INTRA:          -5.223
REMARK INTER:                  -5.186
REMARK INTRA:                  -0.037
REMARK UNBOUND:                -0.038
REMARK SMILES O=C([O-])c1ccc(O)c(O)c1
REMARK SMILES IDX 4 1 11 2 5 3 9 4 6 5 7 6 2 7 1 8 3 9 10 10 8 12
REMARK H PARENT 10 11 8 13
REMARK Flexibility Score: inf
ROOT
ATOM      1  C   UNL     1      19.516  -0.861 -18.106  1.00  0.00     0.001 A 
ATOM      2  C   UNL     1      18.945  -0.863 -19.393  1.00  0.00     0.060 A 
ATOM      3  C   UNL     1      20.775  -0.266 -17.921  1.00  0.00     0.014 A 
ATOM      4  C   UNL     1      19.619  -0.282 -20.474  1.00  0.00     0.158 A 
ATOM      5  C   UNL     1      21.450   0.314 -18.998  1.00  0.00     0.051 A 
ATOM      6  C   UNL     1      20.878   0.310 -20.277  1.00  0.00     0.157 A 
ENDROOT
BRANCH   1   7
ATOM      7  C   UNL     1      18.804  -1.474 -16.963  1.00  0.00     0.072 C 
ATOM      8  O   UNL     1      18.456  -0.773 -15.976  1.00  0.00    -0.545 OA
ATOM      9  O   UNL     1      18.511  -2.832 -16.962  1.00  0.00    -0.545 OA
ENDBRANCH   1   7
BRANCH   4  10
ATOM     10  O   UNL     1      19.022  -0.303 -21.734  1.00  0.00    -0.504 OA
ATOM     11  H   UNL     1      19.244  -1.010 -22.422  1.00  0.00     0.293 HD
ENDBRANCH   4  10
BRANCH   6  12
ATOM     12  O   UNL     1      21.554   0.888 -21.350  1.00  0.00    -0.504 OA
ATOM     13  H   UNL     1      22.540   0.720 -21.508  1.00  0.00     0.293 HD
ENDBRANCH   6  12
TORSDOF 3
ENDMDL
MODEL 3
REMARK VINA RESULT:    -4.616      1.973      2.569
REMARK INTER + INTRA:          -5.194
REMARK INTER:                  -5.155
REMARK INTRA:                  -0.039
REMARK UNBOUND:                -0.038
REMARK SMILES O=C([O-])c1ccc(O)c(O)c1
REMARK SMILES IDX 4 1 11 2 5 3 9 4 6 5 7 6 2 7 1 8 3 9 10 10 8 12
REMARK H PARENT 10 11 8 13
REMARK Flexibility Score: inf
ROOT
ATOM      1  C   UNL     1       9.729  -6.259  -8.291  1.00  0.00     0.001 A 
ATOM      2  C   UNL     1       9.150  -5.956  -7.045  1.00  0.00     0.060 A 
ATOM      3  C   UNL     1       9.029  -5.930  -9.465  1.00  0.00     0.014 A 
ATOM      4  C   UNL     1       7.896  -5.337  -6.971  1.00  0.00     0.158 A 
ATOM      5  C   UNL     1       7.778  -5.312  -9.394  1.00  0.00     0.051 A 
ATOM      6  C   UNL     1       7.206  -5.013  -8.150  1.00  0.00     0.157 A 
ENDROOT
BRANCH   1   7
ATOM      7  C   UNL     1      11.054  -6.913  -8.370  1.00  0.00     0.072 C 
ATOM      8  O   UNL     1      11.292  -7.959  -7.710  1.00  0.00    -0.545 OA
ATOM      9  O   UNL     1      12.055  -6.382  -9.174  1.00  0.00    -0.545 OA
ENDBRANCH   1   7
BRANCH   4  10
ATOM     10  O   UNL     1       7.355  -5.052  -5.718  1.00  0.00    -0.504 OA
ATOM     11  H   UNL     1       7.803  -4.416  -5.070  1.00  0.00     0.293 HD
ENDBRANCH   4  10
BRANCH   6  12
ATOM     12  O   UNL     1       5.957  -4.397  -8.083  1.00  0.00    -0.504 OA
ATOM     13  H   UNL     1       5.848  -3.401  -8.233  1.00  0.00     0.293 HD
ENDBRANCH   6  12
TORSDOF 3
ENDMDL
MODEL 4
REMARK VINA RESULT:    -4.573      1.897      2.911
REMARK INTER + INTRA:          -5.146
REMARK INTER:                  -5.110
REMARK INTRA:                  -0.036
REMARK UNBOUND:                -0.038
REMARK SMILES O=C([O-])c1ccc(O)c(O)c1
REMARK SMILES IDX 4 1 11 2 5 3 9 4 6 5 7 6 2 7 1 8 3 9 10 10 8 12
REMARK H PARENT 10 11 8 13
REMARK Flexibility Score: inf
ROOT
ATOM      1  C   UNL     1       8.442  -7.422  -9.561  1.00  0.00     0.001 A 
ATOM      2  C   UNL     1       7.851  -6.370  -8.839  1.00  0.00     0.060 A 
ATOM      3  C   UNL     1       9.764  -7.796  -9.263  1.00  0.00     0.014 A 
ATOM      4  C   UNL     1       8.565  -5.702  -7.837  1.00  0.00     0.158 A 
ATOM      5  C   UNL     1      10.479  -7.131  -8.263  1.00  0.00     0.051 A 
ATOM      6  C   UNL     1       9.886  -6.083  -7.546  1.00  0.00     0.157 A 
ENDROOT
BRANCH   1   7
ATOM      7  C   UNL     1       7.689  -8.129 -10.621  1.00  0.00     0.072 C 
ATOM      8  O   UNL     1       6.971  -9.125 -10.340  1.00  0.00    -0.545 OA
ATOM      9  O   UNL     1       7.762  -7.704 -11.941  1.00  0.00    -0.545 OA
ENDBRANCH   1   7
BRANCH   4  10
ATOM     10  O   UNL     1       7.946  -4.664  -7.141  1.00  0.00    -0.504 OA
ATOM     11  H   UNL     1       6.991  -4.732  -6.812  1.00  0.00     0.293 HD
ENDBRANCH   4  10
BRANCH   6  12
ATOM     12  O   UNL     1      10.601  -5.422  -6.550  1.00  0.00    -0.504 OA
ATOM     13  H   UNL     1      10.206  -5.259  -5.632  1.00  0.00     0.293 HD
ENDBRANCH   6  12
TORSDOF 3
ENDMDL
MODEL 5
REMARK VINA RESULT:    -4.548      1.863      2.368
REMARK INTER + INTRA:          -5.118
REMARK INTER:                  -5.074
REMARK INTRA:                  -0.044
REMARK UNBOUND:                -0.038
REMARK SMILES O=C([O-])c1ccc(O)c(O)c1
REMARK SMILES IDX 4 1 11 2 5 3 9 4 6 5 7 6 2 7 1 8 3 9 10 10 8 12
REMARK H PARENT 10 11 8 13
REMARK Flexibility Score: inf
ROOT
ATOM      1  C   UNL     1       7.924  -6.917  -7.904  1.00  0.00     0.001 A 
ATOM      2  C   UNL     1       7.875  -5.761  -7.103  1.00  0.00     0.060 A 
ATOM      3  C   UNL     1       7.915  -8.177  -7.282  1.00  0.00     0.014 A 
ATOM      4  C   UNL     1       7.818  -5.861  -5.708  1.00  0.00     0.158 A 
ATOM      5  C   UNL     1       7.857  -8.280  -5.890  1.00  0.00     0.051 A 
ATOM      6  C   UNL     1       7.808  -7.125  -5.097  1.00  0.00     0.157 A 
ENDROOT
BRANCH   1   7
ATOM      7  C   UNL     1       7.985  -6.813  -9.379  1.00  0.00     0.072 C 
ATOM      8  O   UNL     1       7.758  -7.820 -10.101  1.00  0.00    -0.545 OA
ATOM      9  O   UNL     1       8.294  -5.603  -9.988  1.00  0.00    -0.545 OA
ENDBRANCH   1   7
BRANCH   4  10
ATOM     10  O   UNL     1       7.769  -4.693  -4.947  1.00  0.00    -0.504 OA
ATOM     11  H   UNL     1       7.287  -3.862  -5.267  1.00  0.00     0.293 HD
ENDBRANCH   4  10
BRANCH   6  12
ATOM     12  O   UNL     1       7.752  -7.231  -3.708  1.00  0.00    -0.504 OA
ATOM     13  H   UNL     1       7.501  -8.100  -3.252  1.00  0.00     0.293 HD
ENDBRANCH   6  12
TORSDOF 3
ENDMDL
MODEL 6
REMARK VINA RESULT:    -4.489      1.837      2.785
REMARK INTER + INTRA:          -5.052
REMARK INTER:                  -5.014
REMARK INTRA:                  -0.038
REMARK UNBOUND:                -0.038
REMARK SMILES O=C([O-])c1ccc(O)c(O)c1
REMARK SMILES IDX 4 1 11 2 5 3 9 4 6 5 7 6 2 7 1 8 3 9 10 10 8 12
REMARK H PARENT 10 11 8 13
REMARK Flexibility Score: inf
ROOT
ATOM      1  C   UNL     1       8.555  -7.084  -9.799  1.00  0.00     0.001 A 
ATOM      2  C   UNL     1       9.943  -6.857  -9.839  1.00  0.00     0.060 A 
ATOM      3  C   UNL     1       7.841  -6.734  -8.641  1.00  0.00     0.014 A 
ATOM      4  C   UNL     1      10.606  -6.291  -8.743  1.00  0.00     0.158 A 
ATOM      5  C   UNL     1       8.500  -6.169  -7.546  1.00  0.00     0.051 A 
ATOM      6  C   UNL     1       9.882  -5.945  -7.590  1.00  0.00     0.157 A 
ENDROOT
BRANCH   1   7
ATOM      7  C   UNL     1       7.853  -7.682 -10.956  1.00  0.00     0.072 C 
ATOM      8  O   UNL     1       7.187  -8.742 -10.822  1.00  0.00    -0.545 OA
ATOM      9  O   UNL     1       7.920  -7.083 -12.208  1.00  0.00    -0.545 OA
ENDBRANCH   1   7
BRANCH   4  10
ATOM     10  O   UNL     1      11.982  -6.080  -8.820  1.00  0.00    -0.504 OA
ATOM     11  H   UNL     1      12.438  -5.318  -8.334  1.00  0.00     0.293 HD
ENDBRANCH   4  10
BRANCH   6  12
ATOM     12  O   UNL     1      10.537  -5.382  -6.496  1.00  0.00    -0.504 OA
ATOM     13  H   UNL     1      11.324  -5.842  -6.055  1.00  0.00     0.293 HD
ENDBRANCH   6  12
TORSDOF 3
ENDMDL
MODEL 7
REMARK VINA RESULT:    -4.471     15.554     16.980
REMARK INTER + INTRA:          -5.032
REMARK INTER:                  -4.994
REMARK INTRA:                  -0.038
REMARK UNBOUND:                -0.038
REMARK SMILES O=C([O-])c1ccc(O)c(O)c1
REMARK SMILES IDX 4 1 11 2 5 3 9 4 6 5 7 6 2 7 1 8 3 9 10 10 8 12
REMARK H PARENT 10 11 8 13
REMARK Flexibility Score: inf
ROOT
ATOM      1  C   UNL     1      19.365  -0.933 -17.964  1.00  0.00     0.001 A 
ATOM      2  C   UNL     1      20.542  -0.167 -17.876  1.00  0.00     0.060 A 
ATOM      3  C   UNL     1      18.840  -1.230 -19.234  1.00  0.00     0.014 A 
ATOM      4  C   UNL     1      21.183   0.294 -19.032  1.00  0.00     0.158 A 
ATOM      5  C   UNL     1      19.477  -0.771 -20.389  1.00  0.00     0.051 A 
ATOM      6  C   UNL     1      20.649  -0.008 -20.295  1.00  0.00     0.157 A 
ENDROOT
BRANCH   1   7
ATOM      7  C   UNL     1      18.687  -1.421 -16.743  1.00  0.00     0.072 C 
ATOM      8  O   UNL     1      18.344  -0.617 -15.837  1.00  0.00    -0.545 OA
ATOM      9  O   UNL     1      18.420  -2.775 -16.579  1.00  0.00    -0.545 OA
ENDBRANCH   1   7
BRANCH   4  10
ATOM     10  O   UNL     1      22.348   1.050 -18.904  1.00  0.00    -0.504 OA
ATOM     11  H   UNL     1      22.543   1.602 -18.078  1.00  0.00     0.293 HD
ENDBRANCH   4  10
BRANCH   6  12
ATOM     12  O   UNL     1      21.282   0.449 -21.450  1.00  0.00    -0.504 OA
ATOM     13  H   UNL     1      20.754   0.746 -22.262  1.00  0.00     0.293 HD
ENDBRANCH   6  12
TORSDOF 3
ENDMDL
MODEL 8
REMARK VINA RESULT:    -4.453      1.956      2.709
REMARK INTER + INTRA:          -5.011
REMARK INTER:                  -4.975
REMARK INTRA:                  -0.036
REMARK UNBOUND:                -0.038
REMARK SMILES O=C([O-])c1ccc(O)c(O)c1
REMARK SMILES IDX 4 1 11 2 5 3 9 4 6 5 7 6 2 7 1 8 3 9 10 10 8 12
REMARK H PARENT 10 11 8 13
REMARK Flexibility Score: inf
ROOT
ATOM      1  C   UNL     1       9.366  -5.862  -9.340  1.00  0.00     0.001 A 
ATOM      2  C   UNL     1       8.065  -5.327  -9.299  1.00  0.00     0.060 A 
ATOM      3  C   UNL     1      10.017  -6.162  -8.131  1.00  0.00     0.014 A 
ATOM      4  C   UNL     1       7.426  -5.096  -8.075  1.00  0.00     0.158 A 
ATOM      5  C   UNL     1       9.382  -5.933  -6.908  1.00  0.00     0.051 A 
ATOM      6  C   UNL     1       8.086  -5.399  -6.873  1.00  0.00     0.157 A 
ENDROOT
BRANCH   1   7
ATOM      7  C   UNL     1      10.042  -6.108 -10.633  1.00  0.00     0.072 C 
ATOM      8  O   UNL     1       9.684  -7.064 -11.371  1.00  0.00    -0.545 OA
ATOM      9  O   UNL     1      11.082  -5.287 -11.051  1.00  0.00    -0.545 OA
ENDBRANCH   1   7
BRANCH   4  10
ATOM     10  O   UNL     1       6.137  -4.564  -8.074  1.00  0.00    -0.504 OA
ATOM     11  H   UNL     1       5.510  -4.673  -8.861  1.00  0.00     0.293 HD
ENDBRANCH   4  10
BRANCH   6  12
ATOM     12  O   UNL     1       7.456  -5.170  -5.651  1.00  0.00    -0.504 OA
ATOM     13  H   UNL     1       7.491  -4.265  -5.198  1.00  0.00     0.293 HD
ENDBRANCH   6  12
TORSDOF 3
ENDMDL
MODEL 9
REMARK VINA RESULT:    -4.416      1.770      4.059
REMARK INTER + INTRA:          -4.970
REMARK INTER:                  -4.934
REMARK INTRA:                  -0.036
REMARK UNBOUND:                -0.038
REMARK SMILES O=C([O-])c1ccc(O)c(O)c1
REMARK SMILES IDX 4 1 11 2 5 3 9 4 6 5 7 6 2 7 1 8 3 9 10 10 8 12
REMARK H PARENT 10 11 8 13
REMARK Flexibility Score: inf
ROOT
ATOM      1  C   UNL     1       8.705  -6.024  -7.199  1.00  0.00     0.001 A 
ATOM      2  C   UNL     1      10.090  -6.145  -7.416  1.00  0.00     0.060 A 
ATOM      3  C   UNL     1       7.860  -5.797  -8.299  1.00  0.00     0.014 A 
ATOM      4  C   UNL     1      10.622  -6.043  -8.707  1.00  0.00     0.158 A 
ATOM      5  C   UNL     1       8.389  -5.695  -9.588  1.00  0.00     0.051 A 
ATOM      6  C   UNL     1       9.768  -5.817  -9.799  1.00  0.00     0.157 A 
ENDROOT
BRANCH   1   7
ATOM      7  C   UNL     1       8.141  -6.132  -5.835  1.00  0.00     0.072 C 
ATOM      8  O   UNL     1       7.671  -7.225  -5.422  1.00  0.00    -0.545 OA
ATOM      9  O   UNL     1       8.122  -5.029  -4.991  1.00  0.00    -0.545 OA
ENDBRANCH   1   7
BRANCH   4  10
ATOM     10  O   UNL     1      11.999  -6.169  -8.883  1.00  0.00    -0.504 OA
ATOM     11  H   UNL     1      12.637  -6.242  -8.100  1.00  0.00     0.293 HD
ENDBRANCH   4  10
BRANCH   6  12
ATOM     12  O   UNL     1      10.293  -5.713 -11.087  1.00  0.00    -0.504 OA
ATOM     13  H   UNL     1      10.987  -5.014 -11.322  1.00  0.00     0.293 HD
ENDBRANCH   6  12
TORSDOF 3
ENDMDL
