MODEL 1
REMARK VINA RESULT:    -2.871      0.000      0.000
REMARK INTER + INTRA:          -4.121
REMARK INTER:                  -4.046
REMARK INTRA:                  -0.075
REMARK UNBOUND:                -0.075
REMARK SMILES CC1=CCC(=C(C)C)C(=O)CC(C)=CCC1
REMARK SMILES IDX 12 1 14 2 13 3 15 4 16 5 2 6 1 7 3 8 11 10 9 11 10 12 5 13
REMARK SMILES IDX 6 14 7 15 8 16 4 17
REMARK H PARENT
REMARK Flexibility Score: 60.00
ROOT
ATOM      1  C   UNL     1      29.384  44.709  83.925  1.00  0.00    -0.070 C 
ATOM      2  C   UNL     1      29.750  44.375  82.666  1.00  0.00    -0.027 C 
ATOM      3  C   UNL     1      30.059  44.002  85.072  1.00  0.00     0.039 C 
ENDROOT
BRANCH   2   4
ATOM      4  C   UNL     1      29.288  45.080  81.416  1.00  0.00     0.032 C 
BRANCH   4   5
ATOM      5  C   UNL     1      28.368  44.156  80.608  1.00  0.00     0.034 C 
BRANCH   5   6
ATOM      6  C   UNL     1      27.124  44.865  80.113  1.00  0.00    -0.077 C 
ATOM      7  C   UNL     1      27.153  45.508  78.749  1.00  0.00     0.039 C 
ATOM      8  C   UNL     1      26.001  45.020  80.860  1.00  0.00    -0.023 CG0
ATOM      9  G   UNL     1      25.711  44.423  82.225  1.00  0.00     0.000 G0
ENDBRANCH   5   6
ENDBRANCH   4   5
ENDBRANCH   2   4
BRANCH   1  10
ATOM     10  C   UNL     1      28.318  45.741  84.237  1.00  0.00     0.111 C 
BRANCH  10  11
ATOM     11  C   UNL     1      26.952  45.115  84.380  1.00  0.00     0.163 C 
ATOM     12  O   UNL     1      26.777  44.338  85.358  1.00  0.00    -0.294 OA
BRANCH  11  13
ATOM     13  C   UNL     1      25.821  45.350  83.422  1.00  0.00    -0.002 C 
ATOM     14  C   UNL     1      24.848  46.269  83.709  1.00  0.00    -0.069 C 
ATOM     15  C   UNL     1      25.011  47.269  84.831  1.00  0.00     0.039 C 
ATOM     16  C   UNL     1      23.579  46.373  82.893  1.00  0.00     0.039 C 
BRANCH  13  17
ATOM     17  C   UNL     1      25.696  44.415  82.225  1.00  0.00     0.066 CG0
ATOM     18  G   UNL     1      25.990  45.017  80.863  1.00  0.00     0.000 G0
ENDBRANCH  13  17
ENDBRANCH  11  13
ENDBRANCH  10  11
ENDBRANCH   1  10
TORSDOF 0
ENDMDL
MODEL 2
REMARK VINA RESULT:    -2.868      2.225      3.132
REMARK INTER + INTRA:          -4.117
REMARK INTER:                  -4.105
REMARK INTRA:                  -0.012
REMARK UNBOUND:                -0.075
REMARK SMILES CC1=CCC(=C(C)C)C(=O)CC(C)=CCC1
REMARK SMILES IDX 12 1 14 2 13 3 15 4 16 5 2 6 1 7 3 8 11 10 9 11 10 12 5 13
REMARK SMILES IDX 6 14 7 15 8 16 4 17
REMARK H PARENT
REMARK Flexibility Score: 60.00
ROOT
ATOM      1  C   UNL     1      29.711  44.725  84.273  1.00  0.00    -0.070 C 
ATOM      2  C   UNL     1      29.212  44.439  83.049  1.00  0.00    -0.027 C 
ATOM      3  C   UNL     1      30.915  43.953  84.748  1.00  0.00     0.039 C 
ENDROOT
BRANCH   2   4
ATOM      4  C   UNL     1      28.112  45.209  82.362  1.00  0.00     0.032 C 
BRANCH   4   5
ATOM      5  C   UNL     1      26.775  44.483  82.548  1.00  0.00     0.034 C 
BRANCH   5   6
ATOM      6  C   UNL     1      25.686  45.399  83.070  1.00  0.00    -0.077 C 
ATOM      7  C   UNL     1      24.974  46.303  82.095  1.00  0.00     0.039 C 
ATOM      8  C   UNL     1      25.361  45.506  84.383  1.00  0.00    -0.023 CG0
ATOM      9  G   UNL     1      25.889  44.671  85.536  1.00  0.00     0.000 G0
ENDBRANCH   5   6
ENDBRANCH   4   5
ENDBRANCH   2   4
BRANCH   1  10
ATOM     10  C   UNL     1      29.110  45.767  85.196  1.00  0.00     0.111 C 
BRANCH  10  11
ATOM     11  C   UNL     1      28.312  45.138  86.313  1.00  0.00     0.163 C 
ATOM     12  O   UNL     1      28.931  44.369  87.097  1.00  0.00    -0.294 OA
BRANCH  11  13
ATOM     13  C   UNL     1      26.843  45.363  86.518  1.00  0.00    -0.002 C 
ATOM     14  C   UNL     1      26.389  46.027  87.626  1.00  0.00    -0.069 C 
ATOM     15  C   UNL     1      27.330  46.797  88.525  1.00  0.00     0.039 C 
ATOM     16  C   UNL     1      24.922  46.072  87.988  1.00  0.00     0.039 C 
BRANCH  13  17
ATOM     17  C   UNL     1      25.877  44.677  85.559  1.00  0.00     0.066 CG0
ATOM     18  G   UNL     1      25.387  45.505  84.384  1.00  0.00     0.000 G0
ENDBRANCH  13  17
ENDBRANCH  11  13
ENDBRANCH  10  11
ENDBRANCH   1  10
TORSDOF 0
ENDMDL
MODEL 3
REMARK VINA RESULT:    -2.800      9.830     11.217
REMARK INTER + INTRA:          -4.020
REMARK INTER:                  -3.966
REMARK INTRA:                  -0.054
REMARK UNBOUND:                -0.075
REMARK SMILES CC1=CCC(=C(C)C)C(=O)CC(C)=CCC1
REMARK SMILES IDX 12 1 14 2 13 3 15 4 16 5 2 6 1 7 3 8 11 10 9 11 10 12 5 13
REMARK SMILES IDX 6 14 7 15 8 16 4 17
REMARK H PARENT
REMARK Flexibility Score: 60.00
ROOT
ATOM      1  C   UNL     1      21.599  35.050  85.379  1.00  0.00    -0.070 C 
ATOM      2  C   UNL     1      22.692  34.527  85.982  1.00  0.00    -0.027 C 
ATOM      3  C   UNL     1      21.352  34.701  83.934  1.00  0.00     0.039 C 
ENDROOT
BRANCH   2   4
ATOM      4  C   UNL     1      23.010  34.651  87.451  1.00  0.00     0.032 C 
BRANCH   4   5
ATOM      5  C   UNL     1      23.808  35.935  87.704  1.00  0.00     0.034 C 
BRANCH   5   6
ATOM      6  C   UNL     1      23.290  36.715  88.896  1.00  0.00    -0.077 C 
ATOM      7  C   UNL     1      23.469  36.130  90.274  1.00  0.00     0.039 C 
ATOM      8  C   UNL     1      22.606  37.882  88.790  1.00  0.00    -0.023 CG0
ATOM      9  G   UNL     1      22.351  38.691  87.530  1.00  0.00     0.000 G0
ENDBRANCH   5   6
ENDBRANCH   4   5
ENDBRANCH   2   4
BRANCH   1  10
ATOM     10  C   UNL     1      20.627  35.981  86.076  1.00  0.00     0.111 C 
BRANCH  10  11
ATOM     11  C   UNL     1      20.925  37.431  85.780  1.00  0.00     0.163 C 
ATOM     12  O   UNL     1      21.125  37.741  84.575  1.00  0.00    -0.294 OA
BRANCH  11  13
ATOM     13  C   UNL     1      21.013  38.496  86.833  1.00  0.00    -0.002 C 
ATOM     14  C   UNL     1      19.972  39.361  87.037  1.00  0.00    -0.069 C 
ATOM     15  C   UNL     1      18.609  39.113  86.430  1.00  0.00     0.039 C 
ATOM     16  C   UNL     1      20.106  40.583  87.917  1.00  0.00     0.039 C 
BRANCH  13  17
ATOM     17  C   UNL     1      22.353  38.697  87.532  1.00  0.00     0.066 CG0
ATOM     18  G   UNL     1      22.589  37.881  88.791  1.00  0.00     0.000 G0
ENDBRANCH  13  17
ENDBRANCH  11  13
ENDBRANCH  10  11
ENDBRANCH   1  10
TORSDOF 0
ENDMDL
MODEL 4
REMARK VINA RESULT:    -2.794     11.336     12.752
REMARK INTER + INTRA:          -4.012
REMARK INTER:                  -4.196
REMARK INTRA:                   0.184
REMARK UNBOUND:                -0.075
REMARK SMILES CC1=CCC(=C(C)C)C(=O)CC(C)=CCC1
REMARK SMILES IDX 12 1 14 2 13 3 15 4 16 5 2 6 1 7 3 8 11 10 9 11 10 12 5 13
REMARK SMILES IDX 6 14 7 15 8 16 4 17
REMARK H PARENT
REMARK Flexibility Score: 60.00
ROOT
ATOM      1  C   UNL     1      22.082  37.406  87.380  1.00  0.00    -0.070 C 
ATOM      2  C   UNL     1      22.110  37.335  88.730  1.00  0.00    -0.027 C 
ATOM      3  C   UNL     1      20.890  38.058  86.727  1.00  0.00     0.039 C 
ENDROOT
BRANCH   2   4
ATOM      4  C   UNL     1      23.283  36.853  89.546  1.00  0.00     0.032 C 
BRANCH   4   5
ATOM      5  C   UNL     1      22.884  35.608  90.345  1.00  0.00     0.034 C 
BRANCH   5   6
ATOM      6  C   UNL     1      23.438  34.331  89.745  1.00  0.00    -0.077 C 
ATOM      7  C   UNL     1      24.702  33.749  90.326  1.00  0.00     0.039 C 
ATOM      8  C   UNL     1      22.900  33.716  88.662  1.00  0.00    -0.023 CG0
ATOM      9  G   UNL     1      21.611  34.073  87.943  1.00  0.00     0.000 G0
ENDBRANCH   5   6
ENDBRANCH   4   5
ENDBRANCH   2   4
BRANCH   1  10
ATOM     10  C   UNL     1      23.177  36.847  86.492  1.00  0.00     0.111 C 
BRANCH  10  11
ATOM     11  C   UNL     1      22.961  35.385  86.184  1.00  0.00     0.163 C 
ATOM     12  O   UNL     1      23.891  34.782  85.584  1.00  0.00    -0.294 OA
BRANCH  11  13
ATOM     13  C   UNL     1      21.708  34.636  86.531  1.00  0.00    -0.002 C 
ATOM     14  C   UNL     1      20.646  34.618  85.668  1.00  0.00    -0.069 C 
ATOM     15  C   UNL     1      20.782  35.096  84.239  1.00  0.00     0.039 C 
ATOM     16  C   UNL     1      19.293  34.077  86.072  1.00  0.00     0.039 C 
BRANCH  13  17
ATOM     17  C   UNL     1      21.591  34.057  87.937  1.00  0.00     0.066 CG0
ATOM     18  G   UNL     1      22.894  33.723  88.642  1.00  0.00     0.000 G0
ENDBRANCH  13  17
ENDBRANCH  11  13
ENDBRANCH  10  11
ENDBRANCH   1  10
TORSDOF 0
ENDMDL
MODEL 5
REMARK VINA RESULT:    -2.752      2.206      4.070
REMARK INTER + INTRA:          -3.953
REMARK INTER:                  -3.915
REMARK INTRA:                  -0.038
REMARK UNBOUND:                -0.075
REMARK SMILES CC1=CCC(=C(C)C)C(=O)CC(C)=CCC1
REMARK SMILES IDX 12 1 14 2 13 3 15 4 16 5 2 6 1 7 3 8 11 10 9 11 10 12 5 13
REMARK SMILES IDX 6 14 7 15 8 16 4 17
REMARK H PARENT
REMARK Flexibility Score: 60.00
ROOT
ATOM      1  C   UNL     1      28.660  44.477  81.808  1.00  0.00    -0.070 C 
ATOM      2  C   UNL     1      29.690  44.435  82.684  1.00  0.00    -0.027 C 
ATOM      3  C   UNL     1      28.972  44.375  80.338  1.00  0.00     0.039 C 
ENDROOT
BRANCH   2   4
ATOM      4  C   UNL     1      29.548  44.376  84.184  1.00  0.00     0.032 C 
BRANCH   4   5
ATOM      5  C   UNL     1      29.404  45.794  84.748  1.00  0.00     0.034 C 
BRANCH   5   6
ATOM      6  C   UNL     1      28.309  45.894  85.791  1.00  0.00    -0.077 C 
ATOM      7  C   UNL     1      28.476  45.142  87.087  1.00  0.00     0.039 C 
ATOM      8  C   UNL     1      27.146  46.567  85.597  1.00  0.00    -0.023 CG0
ATOM      9  G   UNL     1      26.772  47.439  84.412  1.00  0.00     0.000 G0
ENDBRANCH   5   6
ENDBRANCH   4   5
ENDBRANCH   2   4
BRANCH   1  10
ATOM     10  C   UNL     1      27.213  44.642  82.231  1.00  0.00     0.111 C 
BRANCH  10  11
ATOM     11  C   UNL     1      26.774  46.086  82.188  1.00  0.00     0.163 C 
ATOM     12  O   UNL     1      27.108  46.757  81.174  1.00  0.00    -0.294 OA
BRANCH  11  13
ATOM     13  C   UNL     1      25.995  46.754  83.282  1.00  0.00    -0.002 C 
ATOM     14  C   UNL     1      24.636  46.890  83.185  1.00  0.00    -0.069 C 
ATOM     15  C   UNL     1      23.841  46.141  82.139  1.00  0.00     0.039 C 
ATOM     16  C   UNL     1      23.846  47.753  84.143  1.00  0.00     0.039 C 
BRANCH  13  17
ATOM     17  C   UNL     1      26.776  47.430  84.403  1.00  0.00     0.066 CG0
ATOM     18  G   UNL     1      27.131  46.563  85.599  1.00  0.00     0.000 G0
ENDBRANCH  13  17
ENDBRANCH  11  13
ENDBRANCH  10  11
ENDBRANCH   1  10
TORSDOF 0
ENDMDL
MODEL 6
REMARK VINA RESULT:    -2.674     10.629     11.859
REMARK INTER + INTRA:          -3.843
REMARK INTER:                  -3.909
REMARK INTRA:                   0.065
REMARK UNBOUND:                -0.075
REMARK SMILES CC1=CCC(=C(C)C)C(=O)CC(C)=CCC1
REMARK SMILES IDX 12 1 14 2 13 3 15 4 16 5 2 6 1 7 3 8 11 10 9 11 10 12 5 13
REMARK SMILES IDX 6 14 7 15 8 16 4 17
REMARK H PARENT
REMARK Flexibility Score: 60.00
ROOT
ATOM      1  C   UNL     1      22.275  34.692  85.679  1.00  0.00    -0.070 C 
ATOM      2  C   UNL     1      21.605  34.798  84.508  1.00  0.00    -0.027 C 
ATOM      3  C   UNL     1      23.750  35.001  85.684  1.00  0.00     0.039 C 
ENDROOT
BRANCH   2   4
ATOM      4  C   UNL     1      20.111  34.671  84.353  1.00  0.00     0.032 C 
BRANCH   4   5
ATOM      5  C   UNL     1      19.493  36.054  84.118  1.00  0.00     0.034 C 
BRANCH   5   6
ATOM      6  C   UNL     1      18.705  36.548  85.314  1.00  0.00    -0.077 C 
ATOM      7  C   UNL     1      17.225  36.262  85.372  1.00  0.00     0.039 C 
ATOM      8  C   UNL     1      19.241  37.301  86.307  1.00  0.00    -0.023 CG0
ATOM      9  G   UNL     1      20.702  37.669  86.500  1.00  0.00     0.000 G0
ENDBRANCH   5   6
ENDBRANCH   4   5
ENDBRANCH   2   4
BRANCH   1  10
ATOM     10  C   UNL     1      21.621  34.262  86.977  1.00  0.00     0.111 C 
BRANCH  10  11
ATOM     11  C   UNL     1      21.075  35.437  87.751  1.00  0.00     0.163 C 
ATOM     12  O   UNL     1      20.200  35.192  88.625  1.00  0.00    -0.294 OA
BRANCH  11  13
ATOM     13  C   UNL     1      21.498  36.858  87.519  1.00  0.00    -0.002 C 
ATOM     14  C   UNL     1      22.456  37.436  88.308  1.00  0.00    -0.069 C 
ATOM     15  C   UNL     1      23.317  36.610  89.237  1.00  0.00     0.039 C 
ATOM     16  C   UNL     1      22.744  38.919  88.262  1.00  0.00     0.039 C 
BRANCH  13  17
ATOM     17  C   UNL     1      20.706  37.682  86.509  1.00  0.00     0.066 CG0
ATOM     18  G   UNL     1      19.253  37.290  86.309  1.00  0.00     0.000 G0
ENDBRANCH  13  17
ENDBRANCH  11  13
ENDBRANCH  10  11
ENDBRANCH   1  10
TORSDOF 0
ENDMDL
MODEL 7
REMARK VINA RESULT:    -2.649     10.274     11.470
REMARK INTER + INTRA:          -3.808
REMARK INTER:                  -3.895
REMARK INTRA:                   0.088
REMARK UNBOUND:                -0.075
REMARK SMILES CC1=CCC(=C(C)C)C(=O)CC(C)=CCC1
REMARK SMILES IDX 12 1 14 2 13 3 15 4 16 5 2 6 1 7 3 8 11 10 9 11 10 12 5 13
REMARK SMILES IDX 6 14 7 15 8 16 4 17
REMARK H PARENT
REMARK Flexibility Score: 60.00
ROOT
ATOM      1  C   UNL     1      22.183  37.271  85.495  1.00  0.00    -0.070 C 
ATOM      2  C   UNL     1      21.988  35.949  85.285  1.00  0.00    -0.027 C 
ATOM      3  C   UNL     1      21.191  38.238  84.902  1.00  0.00     0.039 C 
ENDROOT
BRANCH   2   4
ATOM      4  C   UNL     1      22.792  34.845  85.924  1.00  0.00     0.032 C 
BRANCH   4   5
ATOM      5  C   UNL     1      21.953  34.145  86.999  1.00  0.00     0.034 C 
BRANCH   5   6
ATOM      6  C   UNL     1      22.447  34.440  88.402  1.00  0.00    -0.077 C 
ATOM      7  C   UNL     1      23.435  33.492  89.033  1.00  0.00     0.039 C 
ATOM      8  C   UNL     1      21.994  35.473  89.155  1.00  0.00    -0.023 CG0
ATOM      9  G   UNL     1      21.052  36.584  88.727  1.00  0.00     0.000 G0
ENDBRANCH   5   6
ENDBRANCH   4   5
ENDBRANCH   2   4
BRANCH   1  10
ATOM     10  C   UNL     1      23.357  37.827  86.277  1.00  0.00     0.111 C 
BRANCH  10  11
ATOM     11  C   UNL     1      23.065  37.899  87.756  1.00  0.00     0.163 C 
ATOM     12  O   UNL     1      24.056  37.923  88.536  1.00  0.00    -0.294 OA
BRANCH  11  13
ATOM     13  C   UNL     1      21.681  37.920  88.334  1.00  0.00    -0.002 C 
ATOM     14  C   UNL     1      21.079  39.108  88.656  1.00  0.00    -0.069 C 
ATOM     15  C   UNL     1      21.646  40.431  88.191  1.00  0.00     0.039 C 
ATOM     16  C   UNL     1      19.793  39.166  89.447  1.00  0.00     0.039 C 
BRANCH  13  17
ATOM     17  C   UNL     1      21.048  36.587  88.717  1.00  0.00     0.066 CG0
ATOM     18  G   UNL     1      21.998  35.489  89.161  1.00  0.00     0.000 G0
ENDBRANCH  13  17
ENDBRANCH  11  13
ENDBRANCH  10  11
ENDBRANCH   1  10
TORSDOF 0
ENDMDL
MODEL 8
REMARK VINA RESULT:    -2.604     10.852     12.303
REMARK INTER + INTRA:          -3.744
REMARK INTER:                  -4.095
REMARK INTRA:                   0.351
REMARK UNBOUND:                -0.075
REMARK SMILES CC1=CCC(=C(C)C)C(=O)CC(C)=CCC1
REMARK SMILES IDX 12 1 14 2 13 3 15 4 16 5 2 6 1 7 3 8 11 10 9 11 10 12 5 13
REMARK SMILES IDX 6 14 7 15 8 16 4 17
REMARK H PARENT
REMARK Flexibility Score: 60.00
ROOT
ATOM      1  C   UNL     1      20.930  34.539  87.132  1.00  0.00    -0.070 C 
ATOM      2  C   UNL     1      21.337  33.848  88.221  1.00  0.00    -0.027 C 
ATOM      3  C   UNL     1      19.610  35.264  87.204  1.00  0.00     0.039 C 
ENDROOT
BRANCH   2   4
ATOM      4  C   UNL     1      22.687  33.193  88.373  1.00  0.00     0.032 C 
BRANCH   4   5
ATOM      5  C   UNL     1      23.568  34.029  89.308  1.00  0.00     0.034 C 
BRANCH   5   6
ATOM      6  C   UNL     1      22.846  35.245  89.853  1.00  0.00    -0.077 C 
ATOM      7  C   UNL     1      21.995  35.086  91.088  1.00  0.00     0.039 C 
ATOM      8  C   UNL     1      22.860  36.460  89.249  1.00  0.00    -0.023 CG0
ATOM      9  G   UNL     1      23.678  36.880  88.040  1.00  0.00     0.000 G0
ENDBRANCH   5   6
ENDBRANCH   4   5
ENDBRANCH   2   4
BRANCH   1  10
ATOM     10  C   UNL     1      21.722  34.604  85.841  1.00  0.00     0.111 C 
BRANCH  10  11
ATOM     11  C   UNL     1      22.933  35.496  85.967  1.00  0.00     0.163 C 
ATOM     12  O   UNL     1      24.004  35.087  85.441  1.00  0.00    -0.294 OA
BRANCH  11  13
ATOM     13  C   UNL     1      22.930  36.810  86.691  1.00  0.00    -0.002 C 
ATOM     14  C   UNL     1      22.427  37.933  86.093  1.00  0.00    -0.069 C 
ATOM     15  C   UNL     1      21.609  37.852  84.823  1.00  0.00     0.039 C 
ATOM     16  C   UNL     1      22.613  39.310  86.688  1.00  0.00     0.039 C 
BRANCH  13  17
ATOM     17  C   UNL     1      23.664  36.889  88.026  1.00  0.00     0.066 CG0
ATOM     18  G   UNL     1      22.879  36.466  89.255  1.00  0.00     0.000 G0
ENDBRANCH  13  17
ENDBRANCH  11  13
ENDBRANCH  10  11
ENDBRANCH   1  10
TORSDOF 0
ENDMDL
MODEL 9
REMARK VINA RESULT:    -2.599      2.556      3.354
REMARK INTER + INTRA:          -3.738
REMARK INTER:                  -3.959
REMARK INTRA:                   0.221
REMARK UNBOUND:                -0.075
REMARK SMILES CC1=CCC(=C(C)C)C(=O)CC(C)=CCC1
REMARK SMILES IDX 12 1 14 2 13 3 15 4 16 5 2 6 1 7 3 8 11 10 9 11 10 12 5 13
REMARK SMILES IDX 6 14 7 15 8 16 4 17
REMARK H PARENT
REMARK Flexibility Score: 60.00
ROOT
ATOM      1  C   UNL     1      28.214  45.545  87.275  1.00  0.00    -0.070 C 
ATOM      2  C   UNL     1      28.983  44.852  86.404  1.00  0.00    -0.027 C 
ATOM      3  C   UNL     1      28.017  44.977  88.657  1.00  0.00     0.039 C 
ENDROOT
BRANCH   2   4
ATOM      4  C   UNL     1      29.402  45.343  85.042  1.00  0.00     0.032 C 
BRANCH   4   5
ATOM      5  C   UNL     1      28.942  44.350  83.968  1.00  0.00     0.034 C 
BRANCH   5   6
ATOM      6  C   UNL     1      27.783  44.880  83.148  1.00  0.00    -0.077 C 
ATOM      7  C   UNL     1      28.069  45.473  81.791  1.00  0.00     0.039 C 
ATOM      8  C   UNL     1      26.503  44.918  83.595  1.00  0.00    -0.023 CG0
ATOM      9  G   UNL     1      25.960  44.337  84.889  1.00  0.00     0.000 G0
ENDBRANCH   5   6
ENDBRANCH   4   5
ENDBRANCH   2   4
BRANCH   1  10
ATOM     10  C   UNL     1      27.527  46.851  86.925  1.00  0.00     0.111 C 
BRANCH  10  11
ATOM     11  C   UNL     1      26.319  46.634  86.046  1.00  0.00     0.163 C 
ATOM     12  O   UNL     1      25.932  47.612  85.351  1.00  0.00    -0.294 OA
BRANCH  11  13
ATOM     13  C   UNL     1      25.558  45.342  85.977  1.00  0.00    -0.002 C 
ATOM     14  C   UNL     1      24.662  45.010  86.958  1.00  0.00    -0.069 C 
ATOM     15  C   UNL     1      24.194  46.024  87.976  1.00  0.00     0.039 C 
ATOM     16  C   UNL     1      24.052  43.630  87.051  1.00  0.00     0.039 C 
BRANCH  13  17
ATOM     17  C   UNL     1      25.946  44.344  84.892  1.00  0.00     0.066 CG0
ATOM     18  G   UNL     1      26.498  44.926  83.603  1.00  0.00     0.000 G0
ENDBRANCH  13  17
ENDBRANCH  11  13
ENDBRANCH  10  11
ENDBRANCH   1  10
TORSDOF 0
ENDMDL
