MODEL 1
REMARK VINA RESULT:    -5.288      0.000      0.000
REMARK INTER + INTRA:          -6.486
REMARK INTER:                  -6.061
REMARK INTRA:                  -0.425
REMARK UNBOUND:                -0.425
REMARK SMILES O=C1C[C@H](c2ccc(O)cc2)Oc2cc(O)cc(O)c21
REMARK SMILES IDX 3 1 4 2 12 3 13 4 14 5 15 6 17 7 18 8 20 9 2 10 1 11 5 12
REMARK SMILES IDX 6 13 11 14 7 15 10 16 8 17 9 18 19 20 16 22
REMARK H PARENT 9 19 19 21 16 23
REMARK Flexibility Score: inf
ROOT
ATOM      1  C   UNL     1      29.607 -97.125  39.547  1.00  0.00     0.131 C 
ATOM      2  C   UNL     1      29.595 -96.599  38.100  1.00  0.00     0.211 C 
ATOM      3  O   UNL     1      28.261 -96.522  37.580  1.00  0.00    -0.484 OA
ATOM      4  C   UNL     1      27.124 -96.282  38.368  1.00  0.00     0.138 A 
ATOM      5  C   UNL     1      25.897 -96.071  37.735  1.00  0.00     0.093 A 
ATOM      6  C   UNL     1      24.750 -95.804  38.489  1.00  0.00     0.123 A 
ATOM      7  C   UNL     1      24.828 -95.774  39.883  1.00  0.00     0.093 A 
ATOM      8  C   UNL     1      26.042 -96.017  40.539  1.00  0.00     0.133 A 
ATOM      9  C   UNL     1      27.215 -96.243  39.775  1.00  0.00     0.102 A 
ATOM     10  C   UNL     1      28.561 -96.428  40.361  1.00  0.00     0.174 C 
ATOM     11  O   UNL     1      28.859 -95.968  41.495  1.00  0.00    -0.294 OA
ENDROOT
BRANCH   2  12
ATOM     12  C   UNL     1      30.308 -95.264  37.989  1.00  0.00    -0.007 A 
ATOM     13  C   UNL     1      29.677 -94.197  37.325  1.00  0.00     0.011 A 
ATOM     14  C   UNL     1      31.616 -95.081  38.479  1.00  0.00     0.011 A 
ATOM     15  C   UNL     1      30.327 -92.969  37.177  1.00  0.00     0.046 A 
ATOM     16  C   UNL     1      32.262 -93.850  38.330  1.00  0.00     0.046 A 
ATOM     17  C   UNL     1      31.618 -92.790  37.680  1.00  0.00     0.115 A 
BRANCH  17  18
ATOM     18  O   UNL     1      32.253 -91.560  37.525  1.00  0.00    -0.508 OA
ATOM     19  H   UNL     1      32.809 -91.351  36.703  1.00  0.00     0.293 HD
ENDBRANCH  17  18
ENDBRANCH   2  12
BRANCH   8  20
ATOM     20  O   UNL     1      26.023 -96.057  41.935  1.00  0.00    -0.507 OA
ATOM     21  H   UNL     1      25.294 -96.500  42.475  1.00  0.00     0.293 HD
ENDBRANCH   8  20
BRANCH   6  22
ATOM     22  O   UNL     1      23.527 -95.573  37.865  1.00  0.00    -0.508 OA
ATOM     23  H   UNL     1      23.056 -96.299  37.337  1.00  0.00     0.293 HD
ENDBRANCH   6  22
TORSDOF 4
ENDMDL
MODEL 2
REMARK VINA RESULT:    -5.233     18.672     20.134
REMARK INTER + INTRA:          -6.422
REMARK INTER:                  -5.962
REMARK INTRA:                  -0.461
REMARK UNBOUND:                -0.425
REMARK SMILES O=C1C[C@H](c2ccc(O)cc2)Oc2cc(O)cc(O)c21
REMARK SMILES IDX 3 1 4 2 12 3 13 4 14 5 15 6 17 7 18 8 20 9 2 10 1 11 5 12
REMARK SMILES IDX 6 13 11 14 7 15 10 16 8 17 9 18 19 20 16 22
REMARK H PARENT 9 19 19 21 16 23
REMARK Flexibility Score: inf
ROOT
ATOM      1  C   UNL     1      38.252 -77.373  40.131  1.00  0.00     0.131 C 
ATOM      2  C   UNL     1      38.274 -76.875  38.675  1.00  0.00     0.211 C 
ATOM      3  O   UNL     1      39.441 -77.337  37.979  1.00  0.00    -0.484 OA
ATOM      4  C   UNL     1      40.097 -78.545  38.264  1.00  0.00     0.138 A 
ATOM      5  C   UNL     1      41.127 -78.968  37.420  1.00  0.00     0.093 A 
ATOM      6  C   UNL     1      41.783 -80.179  37.659  1.00  0.00     0.123 A 
ATOM      7  C   UNL     1      41.425 -80.956  38.762  1.00  0.00     0.093 A 
ATOM      8  C   UNL     1      40.418 -80.534  39.640  1.00  0.00     0.133 A 
ATOM      9  C   UNL     1      39.720 -79.329  39.374  1.00  0.00     0.102 A 
ATOM     10  C   UNL     1      38.588 -78.832  40.186  1.00  0.00     0.174 C 
ATOM     11  O   UNL     1      37.872 -79.609  40.872  1.00  0.00    -0.294 OA
ENDROOT
BRANCH   2  12
ATOM     12  C   UNL     1      37.005 -77.260  37.937  1.00  0.00    -0.007 A 
ATOM     13  C   UNL     1      37.085 -77.684  36.599  1.00  0.00     0.011 A 
ATOM     14  C   UNL     1      35.736 -77.143  38.538  1.00  0.00     0.011 A 
ATOM     15  C   UNL     1      35.928 -78.008  35.886  1.00  0.00     0.046 A 
ATOM     16  C   UNL     1      34.581 -77.470  37.822  1.00  0.00     0.046 A 
ATOM     17  C   UNL     1      34.674 -77.905  36.494  1.00  0.00     0.115 A 
BRANCH  17  18
ATOM     18  O   UNL     1      33.529 -78.232  35.771  1.00  0.00    -0.508 OA
ATOM     19  H   UNL     1      33.546 -78.312  34.760  1.00  0.00     0.293 HD
ENDBRANCH  17  18
ENDBRANCH   2  12
BRANCH   8  20
ATOM     20  O   UNL     1      40.175 -81.321  40.769  1.00  0.00    -0.507 OA
ATOM     21  H   UNL     1      39.285 -81.361  41.245  1.00  0.00     0.293 HD
ENDBRANCH   8  20
BRANCH   6  22
ATOM     22  O   UNL     1      42.798 -80.617  36.812  1.00  0.00    -0.508 OA
ATOM     23  H   UNL     1      43.150 -80.033  36.061  1.00  0.00     0.293 HD
ENDBRANCH   6  22
TORSDOF 4
ENDMDL
MODEL 3
REMARK VINA RESULT:    -4.807     18.372     19.856
REMARK INTER + INTRA:          -5.935
REMARK INTER:                  -5.550
REMARK INTRA:                  -0.385
REMARK UNBOUND:                -0.425
REMARK SMILES O=C1C[C@H](c2ccc(O)cc2)Oc2cc(O)cc(O)c21
REMARK SMILES IDX 3 1 4 2 12 3 13 4 14 5 15 6 17 7 18 8 20 9 2 10 1 11 5 12
REMARK SMILES IDX 6 13 11 14 7 15 10 16 8 17 9 18 19 20 16 22
REMARK H PARENT 9 19 19 21 16 23
REMARK Flexibility Score: inf
ROOT
ATOM      1  C   UNL     1      39.675 -76.876  38.290  1.00  0.00     0.131 C 
ATOM      2  C   UNL     1      39.064 -77.395  39.604  1.00  0.00     0.211 C 
ATOM      3  O   UNL     1      37.630 -77.364  39.566  1.00  0.00    -0.484 OA
ATOM      4  C   UNL     1      36.874 -77.514  38.392  1.00  0.00     0.138 A 
ATOM      5  C   UNL     1      35.485 -77.625  38.495  1.00  0.00     0.093 A 
ATOM      6  C   UNL     1      34.704 -77.803  37.349  1.00  0.00     0.123 A 
ATOM      7  C   UNL     1      35.314 -77.842  36.094  1.00  0.00     0.093 A 
ATOM      8  C   UNL     1      36.701 -77.699  35.965  1.00  0.00     0.133 A 
ATOM      9  C   UNL     1      37.500 -77.564  37.130  1.00  0.00     0.102 A 
ATOM     10  C   UNL     1      38.977 -77.488  37.115  1.00  0.00     0.174 C 
ATOM     11  O   UNL     1      39.657 -77.974  36.172  1.00  0.00    -0.294 OA
ENDROOT
BRANCH   2  12
ATOM     12  C   UNL     1      39.577 -78.782  39.944  1.00  0.00    -0.007 A 
ATOM     13  C   UNL     1      38.879 -79.566  40.880  1.00  0.00     0.011 A 
ATOM     14  C   UNL     1      40.772 -79.285  39.394  1.00  0.00     0.011 A 
ATOM     15  C   UNL     1      39.350 -80.832  41.237  1.00  0.00     0.046 A 
ATOM     16  C   UNL     1      41.239 -80.551  39.753  1.00  0.00     0.046 A 
ATOM     17  C   UNL     1      40.528 -81.330  40.675  1.00  0.00     0.115 A 
BRANCH  17  18
ATOM     18  O   UNL     1      40.986 -82.593  41.041  1.00  0.00    -0.508 OA
ATOM     19  H   UNL     1      40.444 -83.197  41.651  1.00  0.00     0.293 HD
ENDBRANCH  17  18
ENDBRANCH   2  12
BRANCH   8  20
ATOM     20  O   UNL     1      37.229 -77.660  34.672  1.00  0.00    -0.507 OA
ATOM     21  H   UNL     1      36.673 -77.512  33.842  1.00  0.00     0.293 HD
ENDBRANCH   8  20
BRANCH   6  22
ATOM     22  O   UNL     1      33.321 -77.934  37.445  1.00  0.00    -0.508 OA
ATOM     23  H   UNL     1      32.725 -77.874  36.627  1.00  0.00     0.293 HD
ENDBRANCH   6  22
TORSDOF 4
ENDMDL
MODEL 4
REMARK VINA RESULT:    -4.458      1.614      2.263
REMARK INTER + INTRA:          -5.534
REMARK INTER:                  -5.087
REMARK INTRA:                  -0.448
REMARK UNBOUND:                -0.425
REMARK SMILES O=C1C[C@H](c2ccc(O)cc2)Oc2cc(O)cc(O)c21
REMARK SMILES IDX 3 1 4 2 12 3 13 4 14 5 15 6 17 7 18 8 20 9 2 10 1 11 5 12
REMARK SMILES IDX 6 13 11 14 7 15 10 16 8 17 9 18 19 20 16 22
REMARK H PARENT 9 19 19 21 16 23
REMARK Flexibility Score: inf
ROOT
ATOM      1  C   UNL     1      30.865 -95.408  37.894  1.00  0.00     0.131 C 
ATOM      2  C   UNL     1      30.038 -94.557  36.913  1.00  0.00     0.211 C 
ATOM      3  O   UNL     1      28.686 -95.028  36.819  1.00  0.00    -0.484 OA
ATOM      4  C   UNL     1      28.001 -95.660  37.869  1.00  0.00     0.138 A 
ATOM      5  C   UNL     1      26.640 -95.934  37.717  1.00  0.00     0.093 A 
ATOM      6  C   UNL     1      25.921 -96.539  38.753  1.00  0.00     0.123 A 
ATOM      7  C   UNL     1      26.575 -96.895  39.934  1.00  0.00     0.093 A 
ATOM      8  C   UNL     1      27.946 -96.661  40.094  1.00  0.00     0.133 A 
ATOM      9  C   UNL     1      28.667 -96.006  39.063  1.00  0.00     0.102 A 
ATOM     10  C   UNL     1      30.097 -95.636  39.159  1.00  0.00     0.174 C 
ATOM     11  O   UNL     1      30.661 -95.456  40.270  1.00  0.00    -0.294 OA
ENDROOT
BRANCH   2  12
ATOM     12  C   UNL     1      30.086 -93.086  37.281  1.00  0.00    -0.007 A 
ATOM     13  C   UNL     1      29.018 -92.247  36.914  1.00  0.00     0.011 A 
ATOM     14  C   UNL     1      31.202 -92.520  37.927  1.00  0.00     0.011 A 
ATOM     15  C   UNL     1      29.053 -90.882  37.208  1.00  0.00     0.046 A 
ATOM     16  C   UNL     1      31.234 -91.154  38.220  1.00  0.00     0.046 A 
ATOM     17  C   UNL     1      30.158 -90.331  37.863  1.00  0.00     0.115 A 
BRANCH  17  18
ATOM     18  O   UNL     1      30.180 -88.968  38.150  1.00  0.00    -0.508 OA
ATOM     19  H   UNL     1      29.369 -88.494  38.532  1.00  0.00     0.293 HD
ENDBRANCH  17  18
ENDBRANCH   2  12
BRANCH   8  20
ATOM     20  O   UNL     1      28.547 -97.124  41.267  1.00  0.00    -0.507 OA
ATOM     21  H   UNL     1      28.859 -96.521  42.014  1.00  0.00     0.293 HD
ENDBRANCH   8  20
BRANCH   6  22
ATOM     22  O   UNL     1      24.559 -96.797  38.616  1.00  0.00    -0.508 OA
ATOM     23  H   UNL     1      24.110 -96.804  37.708  1.00  0.00     0.293 HD
ENDBRANCH   6  22
TORSDOF 4
ENDMDL
MODEL 5
REMARK VINA RESULT:    -4.425     18.170     21.093
REMARK INTER + INTRA:          -5.496
REMARK INTER:                  -5.622
REMARK INTRA:                   0.126
REMARK UNBOUND:                -0.425
REMARK SMILES O=C1C[C@H](c2ccc(O)cc2)Oc2cc(O)cc(O)c21
REMARK SMILES IDX 3 1 4 2 12 3 13 4 14 5 15 6 17 7 18 8 20 9 2 10 1 11 5 12
REMARK SMILES IDX 6 13 11 14 7 15 10 16 8 17 9 18 19 20 16 22
REMARK H PARENT 9 19 19 21 16 23
REMARK Flexibility Score: inf
ROOT
ATOM      1  C   UNL     1      41.152 -76.875  38.172  1.00  0.00     0.131 C 
ATOM      2  C   UNL     1      39.751 -77.260  38.678  1.00  0.00     0.211 C 
ATOM      3  O   UNL     1      38.757 -77.086  37.658  1.00  0.00    -0.484 OA
ATOM      4  C   UNL     1      39.011 -77.220  36.284  1.00  0.00     0.138 A 
ATOM      5  C   UNL     1      37.936 -77.183  35.392  1.00  0.00     0.093 A 
ATOM      6  C   UNL     1      38.152 -77.340  34.020  1.00  0.00     0.123 A 
ATOM      7  C   UNL     1      39.451 -77.507  33.536  1.00  0.00     0.093 A 
ATOM      8  C   UNL     1      40.546 -77.512  34.410  1.00  0.00     0.133 A 
ATOM      9  C   UNL     1      40.326 -77.399  35.806  1.00  0.00     0.102 A 
ATOM     10  C   UNL     1      41.399 -77.474  36.822  1.00  0.00     0.174 C 
ATOM     11  O   UNL     1      42.484 -78.074  36.597  1.00  0.00    -0.294 OA
ENDROOT
BRANCH   2  12
ATOM     12  C   UNL     1      39.730 -78.673  39.232  1.00  0.00    -0.007 A 
ATOM     13  C   UNL     1      38.995 -78.946  40.399  1.00  0.00     0.011 A 
ATOM     14  C   UNL     1      40.480 -79.709  38.644  1.00  0.00     0.011 A 
ATOM     15  C   UNL     1      38.989 -80.230  40.951  1.00  0.00     0.046 A 
ATOM     16  C   UNL     1      40.471 -80.992  39.198  1.00  0.00     0.046 A 
ATOM     17  C   UNL     1      39.724 -81.257  40.352  1.00  0.00     0.115 A 
BRANCH  17  18
ATOM     18  O   UNL     1      39.709 -82.532  40.913  1.00  0.00    -0.508 OA
ATOM     19  H   UNL     1      38.845 -82.966  41.219  1.00  0.00     0.293 HD
ENDBRANCH  17  18
ENDBRANCH   2  12
BRANCH   8  20
ATOM     20  O   UNL     1      41.821 -77.595  33.845  1.00  0.00    -0.507 OA
ATOM     21  H   UNL     1      42.291 -76.819  33.400  1.00  0.00     0.293 HD
ENDBRANCH   8  20
BRANCH   6  22
ATOM     22  O   UNL     1      37.084 -77.325  33.127  1.00  0.00    -0.508 OA
ATOM     23  H   UNL     1      37.226 -77.183  32.133  1.00  0.00     0.293 HD
ENDBRANCH   6  22
TORSDOF 4
ENDMDL
MODEL 6
REMARK VINA RESULT:    -4.159     10.729     13.981
REMARK INTER + INTRA:          -5.192
REMARK INTER:                  -4.823
REMARK INTRA:                  -0.369
REMARK UNBOUND:                -0.425
REMARK SMILES O=C1C[C@H](c2ccc(O)cc2)Oc2cc(O)cc(O)c21
REMARK SMILES IDX 3 1 4 2 12 3 13 4 14 5 15 6 17 7 18 8 20 9 2 10 1 11 5 12
REMARK SMILES IDX 6 13 11 14 7 15 10 16 8 17 9 18 19 20 16 22
REMARK H PARENT 9 19 19 21 16 23
REMARK Flexibility Score: inf
ROOT
ATOM      1  C   UNL     1      42.553 -96.718  32.762  1.00  0.00     0.131 C 
ATOM      2  C   UNL     1      41.322 -96.981  31.877  1.00  0.00     0.211 C 
ATOM      3  O   UNL     1      40.130 -97.124  32.662  1.00  0.00    -0.484 OA
ATOM      4  C   UNL     1      39.921 -96.482  33.893  1.00  0.00     0.138 A 
ATOM      5  C   UNL     1      38.662 -96.569  34.494  1.00  0.00     0.093 A 
ATOM      6  C   UNL     1      38.412 -95.919  35.706  1.00  0.00     0.123 A 
ATOM      7  C   UNL     1      39.433 -95.204  36.333  1.00  0.00     0.093 A 
ATOM      8  C   UNL     1      40.712 -95.133  35.766  1.00  0.00     0.133 A 
ATOM      9  C   UNL     1      40.955 -95.752  34.514  1.00  0.00     0.102 A 
ATOM     10  C   UNL     1      42.242 -95.671  33.787  1.00  0.00     0.174 C 
ATOM     11  O   UNL     1      43.047 -94.720  33.968  1.00  0.00    -0.294 OA
ENDROOT
BRANCH   2  12
ATOM     12  C   UNL     1      41.159 -95.905  30.819  1.00  0.00    -0.007 A 
ATOM     13  C   UNL     1      39.983 -95.135  30.792  1.00  0.00     0.011 A 
ATOM     14  C   UNL     1      42.130 -95.697  29.820  1.00  0.00     0.011 A 
ATOM     15  C   UNL     1      39.793 -94.163  29.806  1.00  0.00     0.046 A 
ATOM     16  C   UNL     1      41.936 -94.723  28.837  1.00  0.00     0.046 A 
ATOM     17  C   UNL     1      40.767 -93.952  28.828  1.00  0.00     0.115 A 
BRANCH  17  18
ATOM     18  O   UNL     1      40.564 -92.979  27.852  1.00  0.00    -0.508 OA
ATOM     19  H   UNL     1      41.147 -92.151  27.800  1.00  0.00     0.293 HD
ENDBRANCH  17  18
ENDBRANCH   2  12
BRANCH   8  20
ATOM     20  O   UNL     1      41.705 -94.473  36.495  1.00  0.00    -0.507 OA
ATOM     21  H   UNL     1      42.260 -93.713  36.128  1.00  0.00     0.293 HD
ENDBRANCH   8  20
BRANCH   6  22
ATOM     22  O   UNL     1      37.154 -95.985  36.301  1.00  0.00    -0.508 OA
ATOM     23  H   UNL     1      36.926 -96.701  36.982  1.00  0.00     0.293 HD
ENDBRANCH   6  22
TORSDOF 4
ENDMDL
MODEL 7
REMARK VINA RESULT:    -4.073     11.332     13.413
REMARK INTER + INTRA:          -5.093
REMARK INTER:                  -4.809
REMARK INTRA:                  -0.284
REMARK UNBOUND:                -0.425
REMARK SMILES O=C1C[C@H](c2ccc(O)cc2)Oc2cc(O)cc(O)c21
REMARK SMILES IDX 3 1 4 2 12 3 13 4 14 5 15 6 17 7 18 8 20 9 2 10 1 11 5 12
REMARK SMILES IDX 6 13 11 14 7 15 10 16 8 17 9 18 19 20 16 22
REMARK H PARENT 9 19 19 21 16 23
REMARK Flexibility Score: inf
ROOT
ATOM      1  C   UNL     1      37.664 -97.125  28.773  1.00  0.00     0.131 C 
ATOM      2  C   UNL     1      36.386 -97.125  29.631  1.00  0.00     0.211 C 
ATOM      3  O   UNL     1      36.668 -96.772  30.993  1.00  0.00    -0.484 OA
ATOM      4  C   UNL     1      37.713 -95.920  31.383  1.00  0.00     0.138 A 
ATOM      5  C   UNL     1      37.796 -95.522  32.719  1.00  0.00     0.093 A 
ATOM      6  C   UNL     1      38.809 -94.653  33.136  1.00  0.00     0.123 A 
ATOM      7  C   UNL     1      39.758 -94.202  32.216  1.00  0.00     0.093 A 
ATOM      8  C   UNL     1      39.713 -94.616  30.879  1.00  0.00     0.133 A 
ATOM      9  C   UNL     1      38.660 -95.461  30.444  1.00  0.00     0.102 A 
ATOM     10  C   UNL     1      38.470 -95.892  29.041  1.00  0.00     0.174 C 
ATOM     11  O   UNL     1      38.919 -95.220  28.075  1.00  0.00    -0.294 OA
ENDROOT
BRANCH   2  12
ATOM     12  C   UNL     1      35.320 -96.223  29.038  1.00  0.00    -0.007 A 
ATOM     13  C   UNL     1      35.018 -95.003  29.668  1.00  0.00     0.011 A 
ATOM     14  C   UNL     1      34.576 -96.604  27.904  1.00  0.00     0.011 A 
ATOM     15  C   UNL     1      34.015 -94.171  29.163  1.00  0.00     0.046 A 
ATOM     16  C   UNL     1      33.574 -95.769  27.401  1.00  0.00     0.046 A 
ATOM     17  C   UNL     1      33.292 -94.549  28.028  1.00  0.00     0.115 A 
BRANCH  17  18
ATOM     18  O   UNL     1      32.295 -93.710  27.536  1.00  0.00    -0.508 OA
ATOM     19  H   UNL     1      32.099 -92.812  27.964  1.00  0.00     0.293 HD
ENDBRANCH  17  18
ENDBRANCH   2  12
BRANCH   8  20
ATOM     20  O   UNL     1      40.746 -94.194  30.038  1.00  0.00    -0.507 OA
ATOM     21  H   UNL     1      40.737 -93.320  29.532  1.00  0.00     0.293 HD
ENDBRANCH   8  20
BRANCH   6  22
ATOM     22  O   UNL     1      38.887 -94.236  34.462  1.00  0.00    -0.508 OA
ATOM     23  H   UNL     1      39.581 -93.563  34.766  1.00  0.00     0.293 HD
ENDBRANCH   6  22
TORSDOF 4
ENDMDL
MODEL 8
REMARK VINA RESULT:    -3.984     10.227     12.397
REMARK INTER + INTRA:          -4.991
REMARK INTER:                  -4.631
REMARK INTRA:                  -0.360
REMARK UNBOUND:                -0.425
REMARK SMILES O=C1C[C@H](c2ccc(O)cc2)Oc2cc(O)cc(O)c21
REMARK SMILES IDX 3 1 4 2 12 3 13 4 14 5 15 6 17 7 18 8 20 9 2 10 1 11 5 12
REMARK SMILES IDX 6 13 11 14 7 15 10 16 8 17 9 18 19 20 16 22
REMARK H PARENT 9 19 19 21 16 23
REMARK Flexibility Score: inf
ROOT
ATOM      1  C   UNL     1      38.914 -96.113  30.220  1.00  0.00     0.131 C 
ATOM      2  C   UNL     1      37.541 -96.795  30.355  1.00  0.00     0.211 C 
ATOM      3  O   UNL     1      37.249 -97.125  31.720  1.00  0.00    -0.484 OA
ATOM      4  C   UNL     1      37.724 -96.396  32.822  1.00  0.00     0.138 A 
ATOM      5  C   UNL     1      37.249 -96.714  34.096  1.00  0.00     0.093 A 
ATOM      6  C   UNL     1      37.681 -95.991  35.212  1.00  0.00     0.123 A 
ATOM      7  C   UNL     1      38.612 -94.963  35.054  1.00  0.00     0.093 A 
ATOM      8  C   UNL     1      39.128 -94.650  33.790  1.00  0.00     0.133 A 
ATOM      9  C   UNL     1      38.657 -95.352  32.651  1.00  0.00     0.102 A 
ATOM     10  C   UNL     1      39.070 -95.049  31.263  1.00  0.00     0.174 C 
ATOM     11  O   UNL     1      39.494 -93.910  30.931  1.00  0.00    -0.294 OA
ENDROOT
BRANCH   2  12
ATOM     12  C   UNL     1      36.440 -95.948  29.745  1.00  0.00    -0.007 A 
ATOM     13  C   UNL     1      36.412 -95.747  28.353  1.00  0.00     0.011 A 
ATOM     14  C   UNL     1      35.475 -95.302  30.543  1.00  0.00     0.011 A 
ATOM     15  C   UNL     1      35.430 -94.942  27.771  1.00  0.00     0.046 A 
ATOM     16  C   UNL     1      34.494 -94.498  29.956  1.00  0.00     0.046 A 
ATOM     17  C   UNL     1      34.468 -94.317  28.568  1.00  0.00     0.115 A 
BRANCH  17  18
ATOM     18  O   UNL     1      33.495 -93.517  27.973  1.00  0.00    -0.508 OA
ATOM     19  H   UNL     1      33.303 -93.567  26.979  1.00  0.00     0.293 HD
ENDBRANCH  17  18
ENDBRANCH   2  12
BRANCH   8  20
ATOM     20  O   UNL     1      40.120 -93.669  33.723  1.00  0.00    -0.507 OA
ATOM     21  H   UNL     1      41.072 -93.852  33.440  1.00  0.00     0.293 HD
ENDBRANCH   8  20
BRANCH   6  22
ATOM     22  O   UNL     1      37.196 -96.290  36.483  1.00  0.00    -0.508 OA
ATOM     23  H   UNL     1      36.284 -95.971  36.791  1.00  0.00     0.293 HD
ENDBRANCH   6  22
TORSDOF 4
ENDMDL
MODEL 9
REMARK VINA RESULT:    -3.981      1.933      6.378
REMARK INTER + INTRA:          -4.988
REMARK INTER:                  -4.674
REMARK INTRA:                  -0.314
REMARK UNBOUND:                -0.425
REMARK SMILES O=C1C[C@H](c2ccc(O)cc2)Oc2cc(O)cc(O)c21
REMARK SMILES IDX 3 1 4 2 12 3 13 4 14 5 15 6 17 7 18 8 20 9 2 10 1 11 5 12
REMARK SMILES IDX 6 13 11 14 7 15 10 16 8 17 9 18 19 20 16 22
REMARK H PARENT 9 19 19 21 16 23
REMARK Flexibility Score: inf
ROOT
ATOM      1  C   UNL     1      28.814 -95.334  37.019  1.00  0.00     0.131 C 
ATOM      2  C   UNL     1      28.779 -96.608  37.881  1.00  0.00     0.211 C 
ATOM      3  O   UNL     1      30.098 -97.125  38.109  1.00  0.00    -0.484 OA
ATOM      4  C   UNL     1      31.253 -96.328  38.172  1.00  0.00     0.138 A 
ATOM      5  C   UNL     1      32.459 -96.919  38.555  1.00  0.00     0.093 A 
ATOM      6  C   UNL     1      33.622 -96.149  38.654  1.00  0.00     0.123 A 
ATOM      7  C   UNL     1      33.582 -94.788  38.342  1.00  0.00     0.093 A 
ATOM      8  C   UNL     1      32.390 -94.184  37.923  1.00  0.00     0.133 A 
ATOM      9  C   UNL     1      31.200 -94.953  37.866  1.00  0.00     0.102 A 
ATOM     10  C   UNL     1      29.873 -94.399  37.517  1.00  0.00     0.174 C 
ATOM     11  O   UNL     1      29.599 -93.180  37.681  1.00  0.00    -0.294 OA
ENDROOT
BRANCH   2  12
ATOM     12  C   UNL     1      28.046 -96.374  39.189  1.00  0.00    -0.007 A 
ATOM     13  C   UNL     1      28.766 -96.386  40.397  1.00  0.00     0.011 A 
ATOM     14  C   UNL     1      26.648 -96.207  39.233  1.00  0.00     0.011 A 
ATOM     15  C   UNL     1      28.109 -96.209  41.617  1.00  0.00     0.046 A 
ATOM     16  C   UNL     1      25.994 -96.030  40.456  1.00  0.00     0.046 A 
ATOM     17  C   UNL     1      26.723 -96.029  41.651  1.00  0.00     0.115 A 
BRANCH  17  18
ATOM     18  O   UNL     1      26.082 -95.854  42.875  1.00  0.00    -0.508 OA
ATOM     19  H   UNL     1      25.216 -95.331  42.950  1.00  0.00     0.293 HD
ENDBRANCH  17  18
ENDBRANCH   2  12
BRANCH   8  20
ATOM     20  O   UNL     1      32.447 -92.840  37.545  1.00  0.00    -0.507 OA
ATOM     21  H   UNL     1      32.159 -92.076  38.139  1.00  0.00     0.293 HD
ENDBRANCH   8  20
BRANCH   6  22
ATOM     22  O   UNL     1      34.825 -96.726  39.054  1.00  0.00    -0.508 OA
ATOM     23  H   UNL     1      34.859 -97.659  39.451  1.00  0.00     0.293 HD
ENDBRANCH   6  22
TORSDOF 4
ENDMDL
