MODEL 1
REMARK VINA RESULT:    -0.926      0.000      0.000
REMARK INTER + INTRA:          -2.077
REMARK INTER:                  -1.251
REMARK INTRA:                  -0.826
REMARK UNBOUND:                -0.826
REMARK SMILES CC(=O)CCC=C(C)CCC=C(C)C
REMARK SMILES IDX 7 1 6 2 8 3 9 4 10 5 11 6 13 7 12 8 14 9 5 10 4 11 2 12 3 13
REMARK SMILES IDX 1 14
REMARK H PARENT
REMARK Flexibility Score: inf
ROOT
ATOM      1  C   UNL     1      -5.824  12.890   7.245  1.00  0.00    -0.077 C 
ATOM      2  C   UNL     1      -5.694  14.219   7.029  1.00  0.00    -0.028 C 
ATOM      3  C   UNL     1      -6.300  11.948   6.164  1.00  0.00     0.039 C 
ENDROOT
BRANCH   1   4
ATOM      4  C   UNL     1      -5.472  12.332   8.606  1.00  0.00     0.034 C 
BRANCH   4   5
ATOM      5  C   UNL     1      -4.060  12.763   9.024  1.00  0.00     0.032 C 
BRANCH   5   6
ATOM      6  C   UNL     1      -3.144  11.569   9.124  1.00  0.00    -0.028 C 
ATOM      7  C   UNL     1      -2.566  11.608   6.687  1.00  0.00     0.039 C 
ATOM      8  C   UNL     1      -2.440  11.059   8.087  1.00  0.00    -0.080 C 
ATOM      9  C   UNL     1      -1.534   9.875   8.305  1.00  0.00     0.039 C 
ENDBRANCH   5   6
ENDBRANCH   4   5
ENDBRANCH   1   4
BRANCH   2  10
ATOM     10  C   UNL     1      -6.045  14.917   5.736  1.00  0.00     0.035 C 
BRANCH  10  11
ATOM     11  C   UNL     1      -5.022  15.999   5.368  1.00  0.00     0.079 C 
BRANCH  11  12
ATOM     12  C   UNL     1      -4.009  15.499   4.372  1.00  0.00     0.130 C 
ATOM     13  O   UNL     1      -4.062  15.872   3.209  1.00  0.00    -0.300 OA
ATOM     14  C   UNL     1      -2.954  14.519   4.789  1.00  0.00     0.087 C 
ENDBRANCH  11  12
ENDBRANCH  10  11
ENDBRANCH   2  10
TORSDOF 6
ENDMDL
MODEL 2
REMARK VINA RESULT:     0.055      2.316      3.832
REMARK INTER + INTRA:          -0.752
REMARK INTER:                  -0.391
REMARK INTRA:                  -0.361
REMARK UNBOUND:                -0.826
REMARK SMILES CC(=O)CCC=C(C)CCC=C(C)C
REMARK SMILES IDX 7 1 6 2 8 3 9 4 10 5 11 6 13 7 12 8 14 9 5 10 4 11 2 12 3 13
REMARK SMILES IDX 1 14
REMARK H PARENT
REMARK Flexibility Score: inf
ROOT
ATOM      1  C   UNL     1      -4.564  14.523   6.114  1.00  0.00    -0.077 C 
ATOM      2  C   UNL     1      -4.776  14.099   7.381  1.00  0.00    -0.028 C 
ATOM      3  C   UNL     1      -5.571  15.376   5.378  1.00  0.00     0.039 C 
ENDROOT
BRANCH   1   4
ATOM      4  C   UNL     1      -3.275  14.141   5.420  1.00  0.00     0.034 C 
BRANCH   4   5
ATOM      5  C   UNL     1      -2.253  13.600   6.428  1.00  0.00     0.032 C 
BRANCH   5   6
ATOM      6  C   UNL     1      -2.313  12.095   6.495  1.00  0.00    -0.028 C 
ATOM      7  C   UNL     1      -2.030  12.037   8.983  1.00  0.00     0.039 C 
ATOM      8  C   UNL     1      -2.246  11.380   7.642  1.00  0.00    -0.080 C 
ATOM      9  C   UNL     1      -2.341   9.877   7.596  1.00  0.00     0.039 C 
ENDBRANCH   5   6
ENDBRANCH   4   5
ENDBRANCH   1   4
BRANCH   2  10
ATOM     10  C   UNL     1      -6.030  14.372   8.178  1.00  0.00     0.035 C 
BRANCH  10  11
ATOM     11  C   UNL     1      -6.621  13.089   8.780  1.00  0.00     0.079 C 
BRANCH  11  12
ATOM     12  C   UNL     1      -5.870  11.862   8.332  1.00  0.00     0.130 C 
ATOM     13  O   UNL     1      -5.137  11.277   9.116  1.00  0.00    -0.300 OA
ATOM     14  C   UNL     1      -5.989  11.372   6.920  1.00  0.00     0.087 C 
ENDBRANCH  11  12
ENDBRANCH  10  11
ENDBRANCH   2  10
TORSDOF 6
ENDMDL
MODEL 3
REMARK VINA RESULT:     0.523      1.301      2.309
REMARK INTER + INTRA:          -0.119
REMARK INTER:                  -0.671
REMARK INTRA:                   0.552
REMARK UNBOUND:                -0.826
REMARK SMILES CC(=O)CCC=C(C)CCC=C(C)C
REMARK SMILES IDX 7 1 6 2 8 3 9 4 10 5 11 6 13 7 12 8 14 9 5 10 4 11 2 12 3 13
REMARK SMILES IDX 1 14
REMARK H PARENT
REMARK Flexibility Score: inf
ROOT
ATOM      1  C   UNL     1      -5.723  12.281   8.202  1.00  0.00    -0.077 C 
ATOM      2  C   UNL     1      -5.926  12.004   6.894  1.00  0.00    -0.028 C 
ATOM      3  C   UNL     1      -6.310  13.508   8.859  1.00  0.00     0.039 C 
ENDROOT
BRANCH   1   4
ATOM      4  C   UNL     1      -4.892  11.326   9.031  1.00  0.00     0.034 C 
BRANCH   4   5
ATOM      5  C   UNL     1      -3.439  11.806   9.124  1.00  0.00     0.032 C 
BRANCH   5   6
ATOM      6  C   UNL     1      -3.117  12.759   8.000  1.00  0.00    -0.028 C 
ATOM      7  C   UNL     1      -2.297  10.942   6.483  1.00  0.00     0.039 C 
ATOM      8  C   UNL     1      -2.634  12.380   6.795  1.00  0.00    -0.080 C 
ATOM      9  C   UNL     1      -2.370  13.415   5.733  1.00  0.00     0.039 C 
ENDBRANCH   5   6
ENDBRANCH   4   5
ENDBRANCH   1   4
BRANCH   2  10
ATOM     10  C   UNL     1      -6.699  12.885   5.941  1.00  0.00     0.035 C 
BRANCH  10  11
ATOM     11  C   UNL     1      -5.775  13.637   4.973  1.00  0.00     0.079 C 
BRANCH  11  12
ATOM     12  C   UNL     1      -5.462  15.028   5.462  1.00  0.00     0.130 C 
ATOM     13  O   UNL     1      -5.181  15.906   4.660  1.00  0.00    -0.300 OA
ATOM     14  C   UNL     1      -5.457  15.333   6.929  1.00  0.00     0.087 C 
ENDBRANCH  11  12
ENDBRANCH  10  11
ENDBRANCH   2  10
TORSDOF 6
ENDMDL
MODEL 4
REMARK VINA RESULT:     0.593      2.182      4.851
REMARK INTER + INTRA:          -0.025
REMARK INTER:                  -0.831
REMARK INTRA:                   0.806
REMARK UNBOUND:                -0.826
REMARK SMILES CC(=O)CCC=C(C)CCC=C(C)C
REMARK SMILES IDX 7 1 6 2 8 3 9 4 10 5 11 6 13 7 12 8 14 9 5 10 4 11 2 12 3 13
REMARK SMILES IDX 1 14
REMARK H PARENT
REMARK Flexibility Score: inf
ROOT
ATOM      1  C   UNL     1      -3.819  14.513   5.523  1.00  0.00    -0.077 C 
ATOM      2  C   UNL     1      -3.417  13.642   6.477  1.00  0.00    -0.028 C 
ATOM      3  C   UNL     1      -3.098  14.641   4.202  1.00  0.00     0.039 C 
ENDROOT
BRANCH   1   4
ATOM      4  C   UNL     1      -5.034  15.376   5.787  1.00  0.00     0.034 C 
BRANCH   4   5
ATOM      5  C   UNL     1      -6.262  14.510   6.092  1.00  0.00     0.032 C 
BRANCH   5   6
ATOM      6  C   UNL     1      -5.858  13.234   6.787  1.00  0.00    -0.028 C 
ATOM      7  C   UNL     1      -6.386  14.121   9.069  1.00  0.00     0.039 C 
ATOM      8  C   UNL     1      -5.939  13.034   8.122  1.00  0.00    -0.080 C 
ATOM      9  C   UNL     1      -5.530  11.708   8.709  1.00  0.00     0.039 C 
ENDBRANCH   5   6
ENDBRANCH   4   5
ENDBRANCH   1   4
BRANCH   2  10
ATOM     10  C   UNL     1      -2.203  12.750   6.366  1.00  0.00     0.035 C 
BRANCH  10  11
ATOM     11  C   UNL     1      -2.471  11.341   6.911  1.00  0.00     0.079 C 
BRANCH  11  12
ATOM     12  C   UNL     1      -2.034  11.201   8.346  1.00  0.00     0.130 C 
ATOM     13  O   UNL     1      -2.030  12.179   9.079  1.00  0.00    -0.300 OA
ATOM     14  C   UNL     1      -1.571   9.877   8.873  1.00  0.00     0.087 C 
ENDBRANCH  11  12
ENDBRANCH  10  11
ENDBRANCH   2  10
TORSDOF 6
ENDMDL
MODEL 5
REMARK VINA RESULT:     0.600      1.138      3.365
REMARK INTER + INTRA:          -0.015
REMARK INTER:                   0.088
REMARK INTRA:                  -0.103
REMARK UNBOUND:                -0.826
REMARK SMILES CC(=O)CCC=C(C)CCC=C(C)C
REMARK SMILES IDX 7 1 6 2 8 3 9 4 10 5 11 6 13 7 12 8 14 9 5 10 4 11 2 12 3 13
REMARK SMILES IDX 1 14
REMARK H PARENT
REMARK Flexibility Score: inf
ROOT
ATOM      1  C   UNL     1      -2.420  12.289   7.871  1.00  0.00    -0.077 C 
ATOM      2  C   UNL     1      -2.625  12.701   6.599  1.00  0.00    -0.028 C 
ATOM      3  C   UNL     1      -2.177  13.266   8.997  1.00  0.00     0.039 C 
ENDROOT
BRANCH   1   4
ATOM      4  C   UNL     1      -2.449  10.807   8.173  1.00  0.00     0.034 C 
BRANCH   4   5
ATOM      5  C   UNL     1      -3.786  10.404   8.807  1.00  0.00     0.032 C 
BRANCH   5   6
ATOM      6  C   UNL     1      -4.616  11.623   9.124  1.00  0.00    -0.028 C 
ATOM      7  C   UNL     1      -5.976  11.436   7.029  1.00  0.00     0.039 C 
ATOM      8  C   UNL     1      -5.627  12.079   8.349  1.00  0.00    -0.080 C 
ATOM      9  C   UNL     1      -6.408  13.295   8.774  1.00  0.00     0.039 C 
ENDBRANCH   5   6
ENDBRANCH   4   5
ENDBRANCH   1   4
BRANCH   2  10
ATOM     10  C   UNL     1      -2.586  14.142   6.148  1.00  0.00     0.035 C 
BRANCH  10  11
ATOM     11  C   UNL     1      -3.346  14.355   4.832  1.00  0.00     0.079 C 
BRANCH  11  12
ATOM     12  C   UNL     1      -4.508  15.299   5.001  1.00  0.00     0.130 C 
ATOM     13  O   UNL     1      -4.637  16.249   4.243  1.00  0.00    -0.300 OA
ATOM     14  C   UNL     1      -5.490  15.101   6.117  1.00  0.00     0.087 C 
ENDBRANCH  11  12
ENDBRANCH  10  11
ENDBRANCH   2  10
TORSDOF 6
ENDMDL
MODEL 6
REMARK VINA RESULT:     0.607      2.376      4.807
REMARK INTER + INTRA:          -0.006
REMARK INTER:                   0.398
REMARK INTRA:                  -0.403
REMARK UNBOUND:                -0.826
REMARK SMILES CC(=O)CCC=C(C)CCC=C(C)C
REMARK SMILES IDX 7 1 6 2 8 3 9 4 10 5 11 6 13 7 12 8 14 9 5 10 4 11 2 12 3 13
REMARK SMILES IDX 1 14
REMARK H PARENT
REMARK Flexibility Score: inf
ROOT
ATOM      1  C   UNL     1      -5.750  12.700   8.137  1.00  0.00    -0.077 C 
ATOM      2  C   UNL     1      -4.862  12.337   9.090  1.00  0.00    -0.028 C 
ATOM      3  C   UNL     1      -6.128  11.775   7.004  1.00  0.00     0.039 C 
ENDROOT
BRANCH   1   4
ATOM      4  C   UNL     1      -6.390  14.069   8.217  1.00  0.00     0.034 C 
BRANCH   4   5
ATOM      5  C   UNL     1      -5.723  15.042   7.237  1.00  0.00     0.032 C 
BRANCH   5   6
ATOM      6  C   UNL     1      -4.559  14.384   6.539  1.00  0.00    -0.028 C 
ATOM      7  C   UNL     1      -4.514  16.068   4.685  1.00  0.00     0.039 C 
ATOM      8  C   UNL     1      -3.984  14.854   5.407  1.00  0.00    -0.080 C 
ATOM      9  C   UNL     1      -2.808  14.129   4.806  1.00  0.00     0.039 C 
ENDBRANCH   5   6
ENDBRANCH   4   5
ENDBRANCH   1   4
BRANCH   2  10
ATOM     10  C   UNL     1      -4.119  11.022   9.115  1.00  0.00     0.035 C 
BRANCH  10  11
ATOM     11  C   UNL     1      -2.597  11.220   9.125  1.00  0.00     0.079 C 
BRANCH  11  12
ATOM     12  C   UNL     1      -1.945  10.626   7.902  1.00  0.00     0.130 C 
ATOM     13  O   UNL     1      -0.937   9.946   8.019  1.00  0.00    -0.300 OA
ATOM     14  C   UNL     1      -2.505  10.895   6.538  1.00  0.00     0.087 C 
ENDBRANCH  11  12
ENDBRANCH  10  11
ENDBRANCH   2  10
TORSDOF 6
ENDMDL
MODEL 7
REMARK VINA RESULT:     0.799      1.878      4.544
REMARK INTER + INTRA:           0.254
REMARK INTER:                  -0.197
REMARK INTRA:                   0.451
REMARK UNBOUND:                -0.826
REMARK SMILES CC(=O)CCC=C(C)CCC=C(C)C
REMARK SMILES IDX 7 1 6 2 8 3 9 4 10 5 11 6 13 7 12 8 14 9 5 10 4 11 2 12 3 13
REMARK SMILES IDX 1 14
REMARK H PARENT
REMARK Flexibility Score: inf
ROOT
ATOM      1  C   UNL     1      -5.042  12.073   8.554  1.00  0.00    -0.077 C 
ATOM      2  C   UNL     1      -3.886  11.660   9.121  1.00  0.00    -0.028 C 
ATOM      3  C   UNL     1      -5.658  11.353   7.378  1.00  0.00     0.039 C 
ENDROOT
BRANCH   1   4
ATOM      4  C   UNL     1      -5.743  13.287   9.125  1.00  0.00     0.034 C 
BRANCH   4   5
ATOM      5  C   UNL     1      -6.574  13.995   8.047  1.00  0.00     0.032 C 
BRANCH   5   6
ATOM      6  C   UNL     1      -5.699  14.868   7.184  1.00  0.00    -0.028 C 
ATOM      7  C   UNL     1      -6.349  13.699   5.066  1.00  0.00     0.039 C 
ATOM      8  C   UNL     1      -5.613  14.767   5.837  1.00  0.00    -0.080 C 
ATOM      9  C   UNL     1      -4.723  15.709   5.069  1.00  0.00     0.039 C 
ENDBRANCH   5   6
ENDBRANCH   4   5
ENDBRANCH   1   4
BRANCH   2  10
ATOM     10  C   UNL     1      -3.061  10.492   8.633  1.00  0.00     0.035 C 
BRANCH  10  11
ATOM     11  C   UNL     1      -2.129  10.886   7.479  1.00  0.00     0.079 C 
BRANCH  11  12
ATOM     12  C   UNL     1      -2.286  12.337   7.101  1.00  0.00     0.130 C 
ATOM     13  O   UNL     1      -2.190  13.203   7.957  1.00  0.00    -0.300 OA
ATOM     14  C   UNL     1      -2.595  12.722   5.686  1.00  0.00     0.087 C 
ENDBRANCH  11  12
ENDBRANCH  10  11
ENDBRANCH   2  10
TORSDOF 6
ENDMDL
MODEL 8
REMARK VINA RESULT:     0.822      2.353      5.037
REMARK INTER + INTRA:           0.284
REMARK INTER:                   0.346
REMARK INTRA:                  -0.062
REMARK UNBOUND:                -0.826
REMARK SMILES CC(=O)CCC=C(C)CCC=C(C)C
REMARK SMILES IDX 7 1 6 2 8 3 9 4 10 5 11 6 13 7 12 8 14 9 5 10 4 11 2 12 3 13
REMARK SMILES IDX 1 14
REMARK H PARENT
REMARK Flexibility Score: inf
ROOT
ATOM      1  C   UNL     1      -3.075  13.798   6.355  1.00  0.00    -0.077 C 
ATOM      2  C   UNL     1      -3.139  13.746   7.705  1.00  0.00    -0.028 C 
ATOM      3  C   UNL     1      -2.036  13.030   5.574  1.00  0.00     0.039 C 
ENDROOT
BRANCH   1   4
ATOM      4  C   UNL     1      -4.084  14.643   5.608  1.00  0.00     0.034 C 
BRANCH   4   5
ATOM      5  C   UNL     1      -5.471  14.536   6.254  1.00  0.00     0.032 C 
BRANCH   5   6
ATOM      6  C   UNL     1      -5.736  13.127   6.723  1.00  0.00    -0.028 C 
ATOM      7  C   UNL     1      -6.251  13.836   9.070  1.00  0.00     0.039 C 
ATOM      8  C   UNL     1      -6.119  12.801   7.979  1.00  0.00    -0.080 C 
ATOM      9  C   UNL     1      -6.380  11.360   8.334  1.00  0.00     0.039 C 
ENDBRANCH   5   6
ENDBRANCH   4   5
ENDBRANCH   1   4
BRANCH   2  10
ATOM     10  C   UNL     1      -2.176  12.979   8.580  1.00  0.00     0.035 C 
BRANCH  10  11
ATOM     11  C   UNL     1      -2.717  11.592   8.954  1.00  0.00     0.079 C 
BRANCH  11  12
ATOM     12  C   UNL     1      -1.890  10.485   8.351  1.00  0.00     0.130 C 
ATOM     13  O   UNL     1      -2.158  10.062   7.237  1.00  0.00    -0.300 OA
ATOM     14  C   UNL     1      -0.760   9.875   9.125  1.00  0.00     0.087 C 
ENDBRANCH  11  12
ENDBRANCH  10  11
ENDBRANCH   2  10
TORSDOF 6
ENDMDL
MODEL 9
REMARK VINA RESULT:     1.618      1.997      5.138
REMARK INTER + INTRA:           1.359
REMARK INTER:                   1.247
REMARK INTRA:                   0.112
REMARK UNBOUND:                -0.826
REMARK SMILES CC(=O)CCC=C(C)CCC=C(C)C
REMARK SMILES IDX 7 1 6 2 8 3 9 4 10 5 11 6 13 7 12 8 14 9 5 10 4 11 2 12 3 13
REMARK SMILES IDX 1 14
REMARK H PARENT
REMARK Flexibility Score: inf
ROOT
ATOM      1  C   UNL     1      -2.599  12.082   6.751  1.00  0.00    -0.077 C 
ATOM      2  C   UNL     1      -3.093  12.810   7.778  1.00  0.00    -0.028 C 
ATOM      3  C   UNL     1      -2.428  10.584   6.842  1.00  0.00     0.039 C 
ENDROOT
BRANCH   1   4
ATOM      4  C   UNL     1      -2.218  12.791   5.469  1.00  0.00     0.034 C 
BRANCH   4   5
ATOM      5  C   UNL     1      -2.720  14.240   5.478  1.00  0.00     0.032 C 
BRANCH   5   6
ATOM      6  C   UNL     1      -4.190  14.295   5.810  1.00  0.00    -0.028 C 
ATOM      7  C   UNL     1      -4.550  16.446   4.577  1.00  0.00     0.039 C 
ATOM      8  C   UNL     1      -5.032  15.265   5.383  1.00  0.00    -0.080 C 
ATOM      9  C   UNL     1      -6.491  15.209   5.756  1.00  0.00     0.039 C 
ENDBRANCH   5   6
ENDBRANCH   4   5
ENDBRANCH   1   4
BRANCH   2  10
ATOM     10  C   UNL     1      -3.476  12.242   9.125  1.00  0.00     0.035 C 
BRANCH  10  11
ATOM     11  C   UNL     1      -4.895  11.658   9.121  1.00  0.00     0.079 C 
BRANCH  11  12
ATOM     12  C   UNL     1      -5.879  12.576   8.443  1.00  0.00     0.130 C 
ATOM     13  O   UNL     1      -6.371  12.256   7.371  1.00  0.00    -0.300 OA
ATOM     14  C   UNL     1      -6.232  13.896   9.058  1.00  0.00     0.087 C 
ENDBRANCH  11  12
ENDBRANCH  10  11
ENDBRANCH   2  10
TORSDOF 6
ENDMDL
