MODEL 1
REMARK VINA RESULT:    -7.571      0.000      0.000
REMARK INTER + INTRA:          -9.531
REMARK INTER:                  -9.120
REMARK INTRA:                  -0.411
REMARK UNBOUND:                -0.411
REMARK SMILES O=c1c(O)c(-c2ccc(O)cc2O)oc2cc(O)cc(O)c12
REMARK SMILES IDX 5 1 3 2 2 3 1 4 22 5 20 6 19 7 17 8 16 9 15 10 14 11 6 12
REMARK SMILES IDX 8 13 7 14 9 15 11 16 12 17 10 18 13 20 4 22 21 24 18 26
REMARK H PARENT 10 19 13 21 4 23 21 25 18 27
REMARK Flexibility Score: inf
ROOT
ATOM      1  C   UNL     1      -9.443 -35.495  41.101  1.00  0.00     0.184 A 
ATOM      2  C   UNL     1      -8.706 -36.593  40.625  1.00  0.00     0.208 A 
ATOM      3  C   UNL     1      -9.395 -37.673  40.050  1.00  0.00     0.238 A 
ATOM      4  O   UNL     1      -8.744 -38.660  39.610  1.00  0.00    -0.285 OA
ATOM      5  C   UNL     1     -10.803 -37.643  39.981  1.00  0.00     0.111 A 
ATOM      6  C   UNL     1     -11.573 -38.691  39.421  1.00  0.00     0.134 A 
ATOM      7  C   UNL     1     -12.972 -38.590  39.397  1.00  0.00     0.093 A 
ATOM      8  C   UNL     1     -13.615 -37.464  39.922  1.00  0.00     0.123 A 
ATOM      9  C   UNL     1     -12.860 -36.429  40.475  1.00  0.00     0.094 A 
ATOM     10  C   UNL     1     -11.464 -36.508  40.507  1.00  0.00     0.146 A 
ATOM     11  O   UNL     1     -10.772 -35.506  41.035  1.00  0.00    -0.451 OA
ENDROOT
BRANCH   1  12
ATOM     12  C   UNL     1      -8.781 -34.320  41.706  1.00  0.00     0.063 A 
ATOM     13  C   UNL     1      -7.559 -33.360  43.576  1.00  0.00     0.047 A 
ATOM     14  C   UNL     1      -8.189 -34.451  42.973  1.00  0.00     0.020 A 
ATOM     15  C   UNL     1      -7.525 -32.122  42.930  1.00  0.00     0.119 A 
ATOM     16  C   UNL     1      -8.134 -31.975  41.676  1.00  0.00     0.093 A 
ATOM     17  C   UNL     1      -8.773 -33.064  41.066  1.00  0.00     0.130 A 
BRANCH  15  18
ATOM     18  O   UNL     1      -6.890 -31.044  43.542  1.00  0.00    -0.508 OA
ATOM     19  H   UNL     1      -6.986 -30.866  44.535  1.00  0.00     0.293 HD
ENDBRANCH  15  18
BRANCH  17  20
ATOM     20  O   UNL     1      -9.417 -32.893  39.840  1.00  0.00    -0.507 OA
ATOM     21  H   UNL     1     -10.311 -32.421  39.771  1.00  0.00     0.293 HD
ENDBRANCH  17  20
ENDBRANCH   1  12
BRANCH   2  22
ATOM     22  O   UNL     1      -7.315 -36.612  40.749  1.00  0.00    -0.502 OA
ATOM     23  H   UNL     1      -6.714 -36.002  40.208  1.00  0.00     0.293 HD
ENDBRANCH   2  22
BRANCH   6  24
ATOM     24  O   UNL     1     -10.961 -39.828  38.890  1.00  0.00    -0.507 OA
ATOM     25  H   UNL     1     -11.090 -40.100  37.923  1.00  0.00     0.293 HD
ENDBRANCH   6  24
BRANCH   8  26
ATOM     26  O   UNL     1     -15.004 -37.364  39.900  1.00  0.00    -0.508 OA
ATOM     27  H   UNL     1     -15.471 -36.547  39.523  1.00  0.00     0.293 HD
ENDBRANCH   8  26
TORSDOF 6
ENDMDL
MODEL 2
REMARK VINA RESULT:    -7.440      1.364      1.703
REMARK INTER + INTRA:          -9.374
REMARK INTER:                  -9.079
REMARK INTRA:                  -0.295
REMARK UNBOUND:                -0.411
REMARK SMILES O=c1c(O)c(-c2ccc(O)cc2O)oc2cc(O)cc(O)c12
REMARK SMILES IDX 5 1 3 2 2 3 1 4 22 5 20 6 19 7 17 8 16 9 15 10 14 11 6 12
REMARK SMILES IDX 8 13 7 14 9 15 11 16 12 17 10 18 13 20 4 22 21 24 18 26
REMARK H PARENT 10 19 13 21 4 23 21 25 18 27
REMARK Flexibility Score: inf
ROOT
ATOM      1  C   UNL     1     -10.082 -36.534  40.326  1.00  0.00     0.184 A 
ATOM      2  C   UNL     1      -9.523 -37.805  40.104  1.00  0.00     0.208 A 
ATOM      3  C   UNL     1     -10.369 -38.862  39.733  1.00  0.00     0.238 A 
ATOM      4  O   UNL     1      -9.879 -40.004  39.520  1.00  0.00    -0.285 OA
ATOM      5  C   UNL     1     -11.756 -38.634  39.612  1.00  0.00     0.111 A 
ATOM      6  C   UNL     1     -12.678 -39.644  39.247  1.00  0.00     0.134 A 
ATOM      7  C   UNL     1     -14.044 -39.340  39.157  1.00  0.00     0.093 A 
ATOM      8  C   UNL     1     -14.506 -38.047  39.425  1.00  0.00     0.123 A 
ATOM      9  C   UNL     1     -13.601 -37.047  39.785  1.00  0.00     0.094 A 
ATOM     10  C   UNL     1     -12.235 -37.329  39.879  1.00  0.00     0.146 A 
ATOM     11  O   UNL     1     -11.396 -36.357  40.219  1.00  0.00    -0.451 OA
ENDROOT
BRANCH   1  12
ATOM     12  C   UNL     1      -9.247 -35.376  40.707  1.00  0.00     0.063 A 
ATOM     13  C   UNL     1      -8.674 -33.681  42.354  1.00  0.00     0.047 A 
ATOM     14  C   UNL     1      -9.442 -34.781  41.964  1.00  0.00     0.020 A 
ATOM     15  C   UNL     1      -7.712 -33.153  41.489  1.00  0.00     0.119 A 
ATOM     16  C   UNL     1      -7.526 -33.725  40.224  1.00  0.00     0.093 A 
ATOM     17  C   UNL     1      -8.297 -34.826  39.823  1.00  0.00     0.130 A 
BRANCH  15  18
ATOM     18  O   UNL     1      -6.951 -32.059  41.893  1.00  0.00    -0.508 OA
ATOM     19  H   UNL     1      -7.385 -31.202  42.216  1.00  0.00     0.293 HD
ENDBRANCH  15  18
BRANCH  17  20
ATOM     20  O   UNL     1      -8.137 -35.356  38.542  1.00  0.00    -0.507 OA
ATOM     21  H   UNL     1      -8.911 -35.771  38.038  1.00  0.00     0.293 HD
ENDBRANCH  17  20
ENDBRANCH   1  12
BRANCH   2  22
ATOM     22  O   UNL     1      -8.152 -38.009  40.276  1.00  0.00    -0.502 OA
ATOM     23  H   UNL     1      -7.491 -37.242  40.314  1.00  0.00     0.293 HD
ENDBRANCH   2  22
BRANCH   6  24
ATOM     24  O   UNL     1     -12.248 -40.944  38.975  1.00  0.00    -0.507 OA
ATOM     25  H   UNL     1     -11.545 -41.137  38.270  1.00  0.00     0.293 HD
ENDBRANCH   6  24
BRANCH   8  26
ATOM     26  O   UNL     1     -15.862 -37.745  39.336  1.00  0.00    -0.508 OA
ATOM     27  H   UNL     1     -16.454 -37.714  40.159  1.00  0.00     0.293 HD
ENDBRANCH   8  26
TORSDOF 6
ENDMDL
MODEL 3
REMARK VINA RESULT:    -7.100      1.731      3.662
REMARK INTER + INTRA:          -8.965
REMARK INTER:                  -9.080
REMARK INTRA:                   0.115
REMARK UNBOUND:                -0.411
REMARK SMILES O=c1c(O)c(-c2ccc(O)cc2O)oc2cc(O)cc(O)c12
REMARK SMILES IDX 5 1 3 2 2 3 1 4 22 5 20 6 19 7 17 8 16 9 15 10 14 11 6 12
REMARK SMILES IDX 8 13 7 14 9 15 11 16 12 17 10 18 13 20 4 22 21 24 18 26
REMARK H PARENT 10 19 13 21 4 23 21 25 18 27
REMARK Flexibility Score: inf
ROOT
ATOM      1  C   UNL     1     -10.915 -36.793  40.565  1.00  0.00     0.184 A 
ATOM      2  C   UNL     1     -12.260 -36.478  40.827  1.00  0.00     0.208 A 
ATOM      3  C   UNL     1     -13.228 -37.487  40.707  1.00  0.00     0.238 A 
ATOM      4  O   UNL     1     -14.436 -37.219  40.949  1.00  0.00    -0.285 OA
ATOM      5  C   UNL     1     -12.838 -38.782  40.307  1.00  0.00     0.111 A 
ATOM      6  C   UNL     1     -13.750 -39.854  40.157  1.00  0.00     0.134 A 
ATOM      7  C   UNL     1     -13.285 -41.111  39.746  1.00  0.00     0.093 A 
ATOM      8  C   UNL     1     -11.926 -41.318  39.482  1.00  0.00     0.123 A 
ATOM      9  C   UNL     1     -11.023 -40.264  39.628  1.00  0.00     0.094 A 
ATOM     10  C   UNL     1     -11.466 -39.003  40.038  1.00  0.00     0.146 A 
ATOM     11  O   UNL     1     -10.583 -38.020  40.174  1.00  0.00    -0.451 OA
ENDROOT
BRANCH   1  12
ATOM     12  C   UNL     1      -9.844 -35.782  40.685  1.00  0.00     0.063 A 
ATOM     13  C   UNL     1      -8.987 -33.783  41.772  1.00  0.00     0.047 A 
ATOM     14  C   UNL     1      -9.979 -34.758  41.636  1.00  0.00     0.020 A 
ATOM     15  C   UNL     1      -7.857 -33.809  40.952  1.00  0.00     0.119 A 
ATOM     16  C   UNL     1      -7.725 -34.813  39.984  1.00  0.00     0.093 A 
ATOM     17  C   UNL     1      -8.717 -35.793  39.837  1.00  0.00     0.130 A 
BRANCH  15  18
ATOM     18  O   UNL     1      -6.875 -32.832  41.102  1.00  0.00    -0.508 OA
ATOM     19  H   UNL     1      -7.093 -31.916  41.476  1.00  0.00     0.293 HD
ENDBRANCH  15  18
BRANCH  17  20
ATOM     20  O   UNL     1      -8.597 -36.759  38.836  1.00  0.00    -0.507 OA
ATOM     21  H   UNL     1      -8.010 -36.612  38.024  1.00  0.00     0.293 HD
ENDBRANCH  17  20
ENDBRANCH   1  12
BRANCH   2  22
ATOM     22  O   UNL     1     -12.620 -35.174  41.177  1.00  0.00    -0.502 OA
ATOM     23  H   UNL     1     -13.570 -34.921  41.420  1.00  0.00     0.293 HD
ENDBRANCH   2  22
BRANCH   6  24
ATOM     24  O   UNL     1     -15.111 -39.679  40.411  1.00  0.00    -0.507 OA
ATOM     25  H   UNL     1     -15.464 -39.531  41.350  1.00  0.00     0.293 HD
ENDBRANCH   6  24
BRANCH   8  26
ATOM     26  O   UNL     1     -11.464 -42.566  39.074  1.00  0.00    -0.508 OA
ATOM     27  H   UNL     1     -10.562 -42.677  38.624  1.00  0.00     0.293 HD
ENDBRANCH   8  26
TORSDOF 6
ENDMDL
MODEL 4
REMARK VINA RESULT:    -6.081      2.430      8.058
REMARK INTER + INTRA:          -7.737
REMARK INTER:                  -7.332
REMARK INTRA:                  -0.405
REMARK UNBOUND:                -0.411
REMARK SMILES O=c1c(O)c(-c2ccc(O)cc2O)oc2cc(O)cc(O)c12
REMARK SMILES IDX 5 1 3 2 2 3 1 4 22 5 20 6 19 7 17 8 16 9 15 10 14 11 6 12
REMARK SMILES IDX 8 13 7 14 9 15 11 16 12 17 10 18 13 20 4 22 21 24 18 26
REMARK H PARENT 10 19 13 21 4 23 21 25 18 27
REMARK Flexibility Score: inf
ROOT
ATOM      1  C   UNL     1     -12.652 -38.913  39.427  1.00  0.00     0.184 A 
ATOM      2  C   UNL     1     -13.254 -37.780  40.004  1.00  0.00     0.208 A 
ATOM      3  C   UNL     1     -12.434 -36.741  40.469  1.00  0.00     0.238 A 
ATOM      4  O   UNL     1     -12.961 -35.715  40.979  1.00  0.00    -0.285 OA
ATOM      5  C   UNL     1     -11.032 -36.862  40.369  1.00  0.00     0.111 A 
ATOM      6  C   UNL     1     -10.135 -35.863  40.817  1.00  0.00     0.134 A 
ATOM      7  C   UNL     1      -8.752 -36.062  40.690  1.00  0.00     0.093 A 
ATOM      8  C   UNL     1      -8.250 -37.239  40.125  1.00  0.00     0.123 A 
ATOM      9  C   UNL     1      -9.130 -38.227  39.681  1.00  0.00     0.094 A 
ATOM     10  C   UNL     1     -10.513 -38.047  39.797  1.00  0.00     0.146 A 
ATOM     11  O   UNL     1     -11.327 -39.002  39.362  1.00  0.00    -0.451 OA
ENDROOT
BRANCH   1  12
ATOM     12  C   UNL     1     -13.457 -40.038  38.906  1.00  0.00     0.063 A 
ATOM     13  C   UNL     1     -14.724 -41.010  37.073  1.00  0.00     0.047 A 
ATOM     14  C   UNL     1     -13.956 -39.967  37.595  1.00  0.00     0.020 A 
ATOM     15  C   UNL     1     -15.016 -42.129  37.856  1.00  0.00     0.119 A 
ATOM     16  C   UNL     1     -14.543 -42.199  39.173  1.00  0.00     0.093 A 
ATOM     17  C   UNL     1     -13.775 -41.153  39.707  1.00  0.00     0.130 A 
BRANCH  15  18
ATOM     18  O   UNL     1     -15.780 -43.164  37.320  1.00  0.00    -0.508 OA
ATOM     19  H   UNL     1     -15.567 -43.565  36.415  1.00  0.00     0.293 HD
ENDBRANCH  15  18
BRANCH  17  20
ATOM     20  O   UNL     1     -13.350 -41.212  41.035  1.00  0.00    -0.507 OA
ATOM     21  H   UNL     1     -12.374 -41.112  41.285  1.00  0.00     0.293 HD
ENDBRANCH  17  20
ENDBRANCH   1  12
BRANCH   2  22
ATOM     22  O   UNL     1     -14.644 -37.711  40.130  1.00  0.00    -0.502 OA
ATOM     23  H   UNL     1     -15.111 -36.911  40.538  1.00  0.00     0.293 HD
ENDBRANCH   2  22
BRANCH   6  24
ATOM     24  O   UNL     1     -10.605 -34.678  41.387  1.00  0.00    -0.507 OA
ATOM     25  H   UNL     1     -11.565 -34.580  41.697  1.00  0.00     0.293 HD
ENDBRANCH   6  24
BRANCH   8  26
ATOM     26  O   UNL     1      -6.877 -37.437  39.999  1.00  0.00    -0.508 OA
ATOM     27  H   UNL     1      -6.223 -36.664  40.051  1.00  0.00     0.293 HD
ENDBRANCH   8  26
TORSDOF 6
ENDMDL
MODEL 5
REMARK VINA RESULT:    -6.060      2.153      3.993
REMARK INTER + INTRA:          -7.711
REMARK INTER:                  -7.501
REMARK INTRA:                  -0.210
REMARK UNBOUND:                -0.411
REMARK SMILES O=c1c(O)c(-c2ccc(O)cc2O)oc2cc(O)cc(O)c12
REMARK SMILES IDX 5 1 3 2 2 3 1 4 22 5 20 6 19 7 17 8 16 9 15 10 14 11 6 12
REMARK SMILES IDX 8 13 7 14 9 15 11 16 12 17 10 18 13 20 4 22 21 24 18 26
REMARK H PARENT 10 19 13 21 4 23 21 25 18 27
REMARK Flexibility Score: inf
ROOT
ATOM      1  C   UNL     1     -10.800 -37.422  40.148  1.00  0.00     0.184 A 
ATOM      2  C   UNL     1     -12.096 -37.196  39.652  1.00  0.00     0.208 A 
ATOM      3  C   UNL     1     -13.001 -38.268  39.606  1.00  0.00     0.238 A 
ATOM      4  O   UNL     1     -14.170 -38.076  39.173  1.00  0.00    -0.285 OA
ATOM      5  C   UNL     1     -12.588 -39.546  40.035  1.00  0.00     0.111 A 
ATOM      6  C   UNL     1     -13.435 -40.680  40.018  1.00  0.00     0.134 A 
ATOM      7  C   UNL     1     -12.947 -41.921  40.454  1.00  0.00     0.093 A 
ATOM      8  C   UNL     1     -11.629 -42.049  40.906  1.00  0.00     0.123 A 
ATOM      9  C   UNL     1     -10.789 -40.935  40.925  1.00  0.00     0.094 A 
ATOM     10  C   UNL     1     -11.257 -39.688  40.496  1.00  0.00     0.146 A 
ATOM     11  O   UNL     1     -10.438 -38.644  40.530  1.00  0.00    -0.451 OA
ENDROOT
BRANCH   1  12
ATOM     12  C   UNL     1      -9.803 -36.336  40.235  1.00  0.00     0.063 A 
ATOM     13  C   UNL     1      -7.614 -35.471  39.621  1.00  0.00     0.047 A 
ATOM     14  C   UNL     1      -8.582 -36.477  39.556  1.00  0.00     0.020 A 
ATOM     15  C   UNL     1      -7.848 -34.319  40.376  1.00  0.00     0.119 A 
ATOM     16  C   UNL     1      -9.053 -34.179  41.076  1.00  0.00     0.093 A 
ATOM     17  C   UNL     1     -10.027 -35.186  41.020  1.00  0.00     0.130 A 
BRANCH  15  18
ATOM     18  O   UNL     1      -6.875 -33.323  40.429  1.00  0.00    -0.508 OA
ATOM     19  H   UNL     1      -6.156 -33.322  41.143  1.00  0.00     0.293 HD
ENDBRANCH  15  18
BRANCH  17  20
ATOM     20  O   UNL     1     -11.203 -35.057  41.761  1.00  0.00    -0.507 OA
ATOM     21  H   UNL     1     -11.446 -34.190  42.226  1.00  0.00     0.293 HD
ENDBRANCH  17  20
ENDBRANCH   1  12
BRANCH   2  22
ATOM     22  O   UNL     1     -12.460 -35.928  39.191  1.00  0.00    -0.502 OA
ATOM     23  H   UNL     1     -13.306 -35.768  38.658  1.00  0.00     0.293 HD
ENDBRANCH   2  22
BRANCH   6  24
ATOM     24  O   UNL     1     -14.754 -40.584  39.572  1.00  0.00    -0.507 OA
ATOM     25  H   UNL     1     -15.533 -40.521  40.219  1.00  0.00     0.293 HD
ENDBRANCH   6  24
BRANCH   8  26
ATOM     26  O   UNL     1     -11.143 -43.281  41.338  1.00  0.00    -0.508 OA
ATOM     27  H   UNL     1     -10.958 -43.464  42.318  1.00  0.00     0.293 HD
ENDBRANCH   8  26
TORSDOF 6
ENDMDL
MODEL 6
REMARK VINA RESULT:    -5.983      3.002      7.216
REMARK INTER + INTRA:          -7.618
REMARK INTER:                  -7.203
REMARK INTRA:                  -0.416
REMARK UNBOUND:                -0.411
REMARK SMILES O=c1c(O)c(-c2ccc(O)cc2O)oc2cc(O)cc(O)c12
REMARK SMILES IDX 5 1 3 2 2 3 1 4 22 5 20 6 19 7 17 8 16 9 15 10 14 11 6 12
REMARK SMILES IDX 8 13 7 14 9 15 11 16 12 17 10 18 13 20 4 22 21 24 18 26
REMARK H PARENT 10 19 13 21 4 23 21 25 18 27
REMARK Flexibility Score: inf
ROOT
ATOM      1  C   UNL     1      -8.921 -38.994  39.470  1.00  0.00     0.184 A 
ATOM      2  C   UNL     1     -10.304 -38.799  39.627  1.00  0.00     0.208 A 
ATOM      3  C   UNL     1     -10.760 -37.593  40.180  1.00  0.00     0.238 A 
ATOM      4  O   UNL     1     -11.999 -37.402  40.317  1.00  0.00    -0.285 OA
ATOM      5  C   UNL     1      -9.827 -36.616  40.584  1.00  0.00     0.111 A 
ATOM      6  C   UNL     1     -10.203 -35.375  41.154  1.00  0.00     0.134 A 
ATOM      7  C   UNL     1      -9.213 -34.458  41.539  1.00  0.00     0.093 A 
ATOM      8  C   UNL     1      -7.857 -34.757  41.365  1.00  0.00     0.123 A 
ATOM      9  C   UNL     1      -7.482 -35.979  40.804  1.00  0.00     0.094 A 
ATOM     10  C   UNL     1      -8.453 -36.906  40.412  1.00  0.00     0.146 A 
ATOM     11  O   UNL     1      -8.067 -38.058  39.876  1.00  0.00    -0.451 OA
ENDROOT
BRANCH   1  12
ATOM     12  C   UNL     1      -8.374 -40.235  38.883  1.00  0.00     0.063 A 
ATOM     13  C   UNL     1      -7.942 -41.583  36.906  1.00  0.00     0.047 A 
ATOM     14  C   UNL     1      -8.445 -40.419  37.493  1.00  0.00     0.020 A 
ATOM     15  C   UNL     1      -7.376 -42.583  37.701  1.00  0.00     0.119 A 
ATOM     16  C   UNL     1      -7.321 -42.419  39.091  1.00  0.00     0.093 A 
ATOM     17  C   UNL     1      -7.828 -41.256  39.689  1.00  0.00     0.130 A 
BRANCH  15  18
ATOM     18  O   UNL     1      -6.875 -43.737  37.101  1.00  0.00    -0.508 OA
ATOM     19  H   UNL     1      -7.096 -44.658  37.458  1.00  0.00     0.293 HD
ENDBRANCH  15  18
BRANCH  17  20
ATOM     20  O   UNL     1      -7.812 -41.126  41.078  1.00  0.00    -0.507 OA
ATOM     21  H   UNL     1      -6.944 -41.078  41.597  1.00  0.00     0.293 HD
ENDBRANCH  17  20
ENDBRANCH   1  12
BRANCH   2  22
ATOM     22  O   UNL     1     -11.201 -39.806  39.259  1.00  0.00    -0.502 OA
ATOM     23  H   UNL     1     -10.893 -40.727  38.972  1.00  0.00     0.293 HD
ENDBRANCH   2  22
BRANCH   6  24
ATOM     24  O   UNL     1     -11.546 -35.048  41.341  1.00  0.00    -0.507 OA
ATOM     25  H   UNL     1     -12.105 -35.482  42.068  1.00  0.00     0.293 HD
ENDBRANCH   6  24
BRANCH   8  26
ATOM     26  O   UNL     1      -6.875 -33.848  41.747  1.00  0.00    -0.508 OA
ATOM     27  H   UNL     1      -6.671 -33.665  42.724  1.00  0.00     0.293 HD
ENDBRANCH   8  26
TORSDOF 6
ENDMDL
MODEL 7
REMARK VINA RESULT:    -5.923      4.783      7.485
REMARK INTER + INTRA:          -7.547
REMARK INTER:                  -7.160
REMARK INTRA:                  -0.387
REMARK UNBOUND:                -0.411
REMARK SMILES O=c1c(O)c(-c2ccc(O)cc2O)oc2cc(O)cc(O)c12
REMARK SMILES IDX 5 1 3 2 2 3 1 4 22 5 20 6 19 7 17 8 16 9 15 10 14 11 6 12
REMARK SMILES IDX 8 13 7 14 9 15 11 16 12 17 10 18 13 20 4 22 21 24 18 26
REMARK H PARENT 10 19 13 21 4 23 21 25 18 27
REMARK Flexibility Score: inf
ROOT
ATOM      1  C   UNL     1     -11.409 -40.379  37.677  1.00  0.00     0.184 A 
ATOM      2  C   UNL     1     -12.483 -40.335  36.771  1.00  0.00     0.208 A 
ATOM      3  C   UNL     1     -13.585 -39.518  37.066  1.00  0.00     0.238 A 
ATOM      4  O   UNL     1     -14.551 -39.462  36.256  1.00  0.00    -0.285 OA
ATOM      5  C   UNL     1     -13.603 -38.780  38.267  1.00  0.00     0.111 A 
ATOM      6  C   UNL     1     -14.676 -37.936  38.643  1.00  0.00     0.134 A 
ATOM      7  C   UNL     1     -14.622 -37.241  39.859  1.00  0.00     0.093 A 
ATOM      8  C   UNL     1     -13.517 -37.372  40.708  1.00  0.00     0.123 A 
ATOM      9  C   UNL     1     -12.456 -38.203  40.342  1.00  0.00     0.094 A 
ATOM     10  C   UNL     1     -12.490 -38.904  39.133  1.00  0.00     0.146 A 
ATOM     11  O   UNL     1     -11.464 -39.683  38.808  1.00  0.00    -0.451 OA
ENDROOT
BRANCH   1  12
ATOM     12  C   UNL     1     -10.213 -41.209  37.422  1.00  0.00     0.063 A 
ATOM     13  C   UNL     1      -9.228 -43.421  37.197  1.00  0.00     0.047 A 
ATOM     14  C   UNL     1     -10.340 -42.607  37.429  1.00  0.00     0.020 A 
ATOM     15  C   UNL     1      -7.974 -42.849  36.969  1.00  0.00     0.119 A 
ATOM     16  C   UNL     1      -7.832 -41.456  36.982  1.00  0.00     0.093 A 
ATOM     17  C   UNL     1      -8.942 -40.632  37.220  1.00  0.00     0.130 A 
BRANCH  15  18
ATOM     18  O   UNL     1      -6.876 -43.674  36.734  1.00  0.00    -0.508 OA
ATOM     19  H   UNL     1      -6.369 -44.109  37.496  1.00  0.00     0.293 HD
ENDBRANCH  15  18
BRANCH  17  20
ATOM     20  O   UNL     1      -8.779 -39.247  37.280  1.00  0.00    -0.507 OA
ATOM     21  H   UNL     1      -9.072 -38.712  38.088  1.00  0.00     0.293 HD
ENDBRANCH  17  20
ENDBRANCH   1  12
BRANCH   2  22
ATOM     22  O   UNL     1     -12.456 -41.115  35.611  1.00  0.00    -0.502 OA
ATOM     23  H   UNL     1     -11.775 -40.967  34.876  1.00  0.00     0.293 HD
ENDBRANCH   2  22
BRANCH   6  24
ATOM     24  O   UNL     1     -15.792 -37.785  37.819  1.00  0.00    -0.507 OA
ATOM     25  H   UNL     1     -16.565 -37.180  38.073  1.00  0.00     0.293 HD
ENDBRANCH   6  24
BRANCH   8  26
ATOM     26  O   UNL     1     -13.463 -36.683  41.916  1.00  0.00    -0.508 OA
ATOM     27  H   UNL     1     -14.056 -36.936  42.699  1.00  0.00     0.293 HD
ENDBRANCH   8  26
TORSDOF 6
ENDMDL
MODEL 8
REMARK VINA RESULT:    -5.831      2.922      4.294
REMARK INTER + INTRA:          -7.436
REMARK INTER:                  -7.063
REMARK INTRA:                  -0.373
REMARK UNBOUND:                -0.411
REMARK SMILES O=c1c(O)c(-c2ccc(O)cc2O)oc2cc(O)cc(O)c12
REMARK SMILES IDX 5 1 3 2 2 3 1 4 22 5 20 6 19 7 17 8 16 9 15 10 14 11 6 12
REMARK SMILES IDX 8 13 7 14 9 15 11 16 12 17 10 18 13 20 4 22 21 24 18 26
REMARK H PARENT 10 19 13 21 4 23 21 25 18 27
REMARK Flexibility Score: inf
ROOT
ATOM      1  C   UNL     1      -8.167 -37.980  39.714  1.00  0.00     0.184 A 
ATOM      2  C   UNL     1      -7.652 -38.927  40.616  1.00  0.00     0.208 A 
ATOM      3  C   UNL     1      -7.674 -40.285  40.260  1.00  0.00     0.238 A 
ATOM      4  O   UNL     1      -7.206 -41.143  41.057  1.00  0.00    -0.285 OA
ATOM      5  C   UNL     1      -8.228 -40.670  39.022  1.00  0.00     0.111 A 
ATOM      6  C   UNL     1      -8.294 -42.017  38.589  1.00  0.00     0.134 A 
ATOM      7  C   UNL     1      -8.869 -42.320  37.346  1.00  0.00     0.093 A 
ATOM      8  C   UNL     1      -9.380 -41.305  36.529  1.00  0.00     0.123 A 
ATOM      9  C   UNL     1      -9.318 -39.977  36.952  1.00  0.00     0.094 A 
ATOM     10  C   UNL     1      -8.747 -39.652  38.187  1.00  0.00     0.146 A 
ATOM     11  O   UNL     1      -8.696 -38.379  38.561  1.00  0.00    -0.451 OA
ENDROOT
BRANCH   1  12
ATOM     12  C   UNL     1      -8.162 -36.534  40.020  1.00  0.00     0.063 A 
ATOM     13  C   UNL     1      -6.892 -34.508  40.457  1.00  0.00     0.047 A 
ATOM     14  C   UNL     1      -6.932 -35.873  40.162  1.00  0.00     0.020 A 
ATOM     15  C   UNL     1      -8.078 -33.790  40.628  1.00  0.00     0.119 A 
ATOM     16  C   UNL     1      -9.310 -34.446  40.511  1.00  0.00     0.093 A 
ATOM     17  C   UNL     1      -9.359 -35.817  40.221  1.00  0.00     0.130 A 
BRANCH  15  18
ATOM     18  O   UNL     1      -8.022 -32.428  40.917  1.00  0.00    -0.508 OA
ATOM     19  H   UNL     1      -8.375 -32.058  41.792  1.00  0.00     0.293 HD
ENDBRANCH  15  18
BRANCH  17  20
ATOM     20  O   UNL     1     -10.592 -36.469  40.156  1.00  0.00    -0.507 OA
ATOM     21  H   UNL     1     -10.702 -37.428  40.464  1.00  0.00     0.293 HD
ENDBRANCH  17  20
ENDBRANCH   1  12
BRANCH   2  22
ATOM     22  O   UNL     1      -7.151 -38.517  41.855  1.00  0.00    -0.502 OA
ATOM     23  H   UNL     1      -6.593 -39.125  42.442  1.00  0.00     0.293 HD
ENDBRANCH   2  22
BRANCH   6  24
ATOM     24  O   UNL     1      -7.794 -43.051  39.381  1.00  0.00    -0.507 OA
ATOM     25  H   UNL     1      -7.239 -43.803  38.989  1.00  0.00     0.293 HD
ENDBRANCH   6  24
BRANCH   8  26
ATOM     26  O   UNL     1      -9.951 -41.607  35.296  1.00  0.00    -0.508 OA
ATOM     27  H   UNL     1      -9.382 -41.773  34.473  1.00  0.00     0.293 HD
ENDBRANCH   8  26
TORSDOF 6
ENDMDL
MODEL 9
REMARK VINA RESULT:    -5.785      3.004      6.597
REMARK INTER + INTRA:          -7.380
REMARK INTER:                  -6.974
REMARK INTRA:                  -0.407
REMARK UNBOUND:                -0.411
REMARK SMILES O=c1c(O)c(-c2ccc(O)cc2O)oc2cc(O)cc(O)c12
REMARK SMILES IDX 5 1 3 2 2 3 1 4 22 5 20 6 19 7 17 8 16 9 15 10 14 11 6 12
REMARK SMILES IDX 8 13 7 14 9 15 11 16 12 17 10 18 13 20 4 22 21 24 18 26
REMARK H PARENT 10 19 13 21 4 23 21 25 18 27
REMARK Flexibility Score: inf
ROOT
ATOM      1  C   UNL     1      -9.136 -39.241  39.440  1.00  0.00     0.184 A 
ATOM      2  C   UNL     1      -8.343 -38.157  39.857  1.00  0.00     0.208 A 
ATOM      3  C   UNL     1      -8.974 -37.017  40.380  1.00  0.00     0.238 A 
ATOM      4  O   UNL     1      -8.273 -36.043  40.766  1.00  0.00    -0.285 OA
ATOM      5  C   UNL     1     -10.381 -36.974  40.456  1.00  0.00     0.111 A 
ATOM      6  C   UNL     1     -11.095 -35.863  40.966  1.00  0.00     0.134 A 
ATOM      7  C   UNL     1     -12.497 -35.893  41.000  1.00  0.00     0.093 A 
ATOM      8  C   UNL     1     -13.198 -37.012  40.536  1.00  0.00     0.123 A 
ATOM      9  C   UNL     1     -12.499 -38.109  40.033  1.00  0.00     0.094 A 
ATOM     10  C   UNL     1     -11.101 -38.100  39.991  1.00  0.00     0.146 A 
ATOM     11  O   UNL     1     -10.462 -39.161  39.511  1.00  0.00    -0.451 OA
ENDROOT
BRANCH   1  12
ATOM     12  C   UNL     1      -8.536 -40.475  38.892  1.00  0.00     0.063 A 
ATOM     13  C   UNL     1      -7.913 -41.796  36.948  1.00  0.00     0.047 A 
ATOM     14  C   UNL     1      -8.469 -40.639  37.499  1.00  0.00     0.020 A 
ATOM     15  C   UNL     1      -7.431 -42.809  37.780  1.00  0.00     0.119 A 
ATOM     16  C   UNL     1      -7.514 -42.665  39.171  1.00  0.00     0.093 A 
ATOM     17  C   UNL     1      -8.075 -41.509  39.732  1.00  0.00     0.130 A 
BRANCH  15  18
ATOM     18  O   UNL     1      -6.875 -43.955  37.215  1.00  0.00    -0.508 OA
ATOM     19  H   UNL     1      -6.103 -44.442  37.656  1.00  0.00     0.293 HD
ENDBRANCH  15  18
BRANCH  17  20
ATOM     20  O   UNL     1      -8.197 -41.399  41.118  1.00  0.00    -0.507 OA
ATOM     21  H   UNL     1      -8.444 -42.195  41.695  1.00  0.00     0.293 HD
ENDBRANCH  17  20
ENDBRANCH   1  12
BRANCH   2  22
ATOM     22  O   UNL     1      -6.953 -38.213  39.725  1.00  0.00    -0.502 OA
ATOM     23  H   UNL     1      -6.501 -38.692  38.956  1.00  0.00     0.293 HD
ENDBRANCH   2  22
BRANCH   6  24
ATOM     24  O   UNL     1     -10.425 -34.732  41.435  1.00  0.00    -0.507 OA
ATOM     25  H   UNL     1      -9.420 -34.633  41.345  1.00  0.00     0.293 HD
ENDBRANCH   6  24
BRANCH   8  26
ATOM     26  O   UNL     1     -14.590 -37.041  40.569  1.00  0.00    -0.508 OA
ATOM     27  H   UNL     1     -15.144 -36.223  40.344  1.00  0.00     0.293 HD
ENDBRANCH   8  26
TORSDOF 6
ENDMDL
