MODEL 1
REMARK VINA RESULT:    -5.784      0.000      0.000
REMARK INTER + INTRA:         -11.478
REMARK INTER:                 -10.518
REMARK INTRA:                  -0.960
REMARK UNBOUND:                -0.960
REMARK SMILES CCCCCC=CCC=CCCCCCCCC(=O)[O-]
REMARK SMILES IDX 11 1 12 2 13 3 14 4 15 5 16 6 17 7 18 8 19 9 20 10 10 11
REMARK SMILES IDX 9 12 8 13 7 14 6 15 5 16 4 17 3 18 2 19 1 20
REMARK H PARENT
REMARK Flexibility Score: inf
ROOT
ATOM      1  C   UNL     1      51.386  51.255  37.571  1.00  0.00     0.027 C 
ENDROOT
BRANCH   1   2
ATOM      2  C   UNL     1      51.149  49.946  36.808  1.00  0.00     0.004 C 
BRANCH   2   3
ATOM      3  C   UNL     1      49.668  49.782  36.448  1.00  0.00     0.000 C 
BRANCH   3   4
ATOM      4  C   UNL     1      49.250  50.776  35.358  1.00  0.00     0.000 C 
BRANCH   4   5
ATOM      5  C   UNL     1      47.886  50.396  34.763  1.00  0.00     0.000 C 
BRANCH   5   6
ATOM      6  C   UNL     1      47.647  48.877  34.740  1.00  0.00     0.006 C 
BRANCH   6   7
ATOM      7  C   UNL     1      46.300  48.477  35.353  1.00  0.00     0.053 C 
BRANCH   7   8
ATOM      8  C   UNL     1      45.907  47.109  34.895  1.00  0.00     0.041 C 
ATOM      9  O   UNL     1      44.837  46.584  35.306  1.00  0.00    -0.550 OA
ATOM     10  O   UNL     1      46.690  46.436  33.966  1.00  0.00    -0.550 OA
ENDBRANCH   7   8
ENDBRANCH   6   7
ENDBRANCH   5   6
ENDBRANCH   4   5
ENDBRANCH   3   4
ENDBRANCH   2   3
ENDBRANCH   1   2
BRANCH   1  11
ATOM     11  C   UNL     1      51.763  50.986  39.002  1.00  0.00    -0.031 C 
ATOM     12  C   UNL     1      51.298  51.750  40.003  1.00  0.00    -0.027 C 
BRANCH  12  13
ATOM     13  C   UNL     1      51.672  51.486  41.434  1.00  0.00     0.054 C 
BRANCH  13  14
ATOM     14  C   UNL     1      51.083  50.186  41.903  1.00  0.00    -0.027 C 
ATOM     15  C   UNL     1      49.762  50.038  42.083  1.00  0.00    -0.031 C 
BRANCH  15  16
ATOM     16  C   UNL     1      49.169  48.730  42.536  1.00  0.00     0.027 C 
BRANCH  16  17
ATOM     17  C   UNL     1      49.268  47.639  41.458  1.00  0.00     0.004 C 
BRANCH  17  18
ATOM     18  C   UNL     1      48.046  46.708  41.462  1.00  0.00     0.000 C 
BRANCH  18  19
ATOM     19  C   UNL     1      47.836  46.085  42.847  1.00  0.00    -0.003 C 
ATOM     20  C   UNL     1      46.361  46.093  43.237  1.00  0.00     0.004 C 
ENDBRANCH  18  19
ENDBRANCH  17  18
ENDBRANCH  16  17
ENDBRANCH  15  16
ENDBRANCH  13  14
ENDBRANCH  12  13
ENDBRANCH   1  11
TORSDOF 14
ENDMDL
MODEL 2
REMARK VINA RESULT:    -5.767      4.602      8.183
REMARK INTER + INTRA:         -11.447
REMARK INTER:                 -10.775
REMARK INTRA:                  -0.672
REMARK UNBOUND:                -0.960
REMARK SMILES CCCCCC=CCC=CCCCCCCCC(=O)[O-]
REMARK SMILES IDX 11 1 12 2 13 3 14 4 15 5 16 6 17 7 18 8 19 9 20 10 10 11
REMARK SMILES IDX 9 12 8 13 7 14 6 15 5 16 4 17 3 18 2 19 1 20
REMARK H PARENT
REMARK Flexibility Score: inf
ROOT
ATOM      1  C   UNL     1      51.047  50.877  36.922  1.00  0.00     0.027 C 
ENDROOT
BRANCH   1   2
ATOM      2  C   UNL     1      51.231  50.141  38.254  1.00  0.00     0.004 C 
BRANCH   2   3
ATOM      3  C   UNL     1      52.209  50.893  39.164  1.00  0.00     0.000 C 
BRANCH   3   4
ATOM      4  C   UNL     1      51.470  51.601  40.306  1.00  0.00     0.000 C 
BRANCH   4   5
ATOM      5  C   UNL     1      52.463  52.172  41.330  1.00  0.00     0.000 C 
BRANCH   5   6
ATOM      6  C   UNL     1      51.780  53.029  42.409  1.00  0.00     0.006 C 
BRANCH   6   7
ATOM      7  C   UNL     1      52.004  52.490  43.827  1.00  0.00     0.053 C 
BRANCH   7   8
ATOM      8  C   UNL     1      51.226  51.229  44.031  1.00  0.00     0.041 C 
ATOM      9  O   UNL     1      49.987  51.202  43.799  1.00  0.00    -0.550 OA
ATOM     10  O   UNL     1      51.878  50.066  44.421  1.00  0.00    -0.550 OA
ENDBRANCH   7   8
ENDBRANCH   6   7
ENDBRANCH   5   6
ENDBRANCH   4   5
ENDBRANCH   3   4
ENDBRANCH   2   3
ENDBRANCH   1   2
BRANCH   1  11
ATOM     11  C   UNL     1      50.060  50.162  36.041  1.00  0.00    -0.031 C 
ATOM     12  C   UNL     1      49.128  50.833  35.346  1.00  0.00    -0.027 C 
BRANCH  12  13
ATOM     13  C   UNL     1      48.139  50.124  34.465  1.00  0.00     0.054 C 
BRANCH  13  14
ATOM     14  C   UNL     1      47.128  49.386  35.295  1.00  0.00    -0.027 C 
ATOM     15  C   UNL     1      46.667  48.179  34.932  1.00  0.00    -0.031 C 
BRANCH  15  16
ATOM     16  C   UNL     1      45.666  47.432  35.773  1.00  0.00     0.027 C 
BRANCH  16  17
ATOM     17  C   UNL     1      44.918  46.355  34.972  1.00  0.00     0.004 C 
BRANCH  17  18
ATOM     18  C   UNL     1      45.879  45.404  34.241  1.00  0.00     0.000 C 
BRANCH  18  19
ATOM     19  C   UNL     1      45.117  44.496  33.268  1.00  0.00    -0.003 C 
ATOM     20  C   UNL     1      45.336  43.023  33.603  1.00  0.00     0.004 C 
ENDBRANCH  18  19
ENDBRANCH  17  18
ENDBRANCH  16  17
ENDBRANCH  15  16
ENDBRANCH  13  14
ENDBRANCH  12  13
ENDBRANCH   1  11
TORSDOF 14
ENDMDL
MODEL 3
REMARK VINA RESULT:    -5.758      2.398      4.043
REMARK INTER + INTRA:         -11.430
REMARK INTER:                 -10.374
REMARK INTRA:                  -1.056
REMARK UNBOUND:                -0.960
REMARK SMILES CCCCCC=CCC=CCCCCCCCC(=O)[O-]
REMARK SMILES IDX 11 1 12 2 13 3 14 4 15 5 16 6 17 7 18 8 19 9 20 10 10 11
REMARK SMILES IDX 9 12 8 13 7 14 6 15 5 16 4 17 3 18 2 19 1 20
REMARK H PARENT
REMARK Flexibility Score: inf
ROOT
ATOM      1  C   UNL     1      49.932  50.010  35.984  1.00  0.00     0.027 C 
ENDROOT
BRANCH   1   2
ATOM      2  C   UNL     1      48.923  50.875  35.219  1.00  0.00     0.004 C 
BRANCH   2   3
ATOM      3  C   UNL     1      47.794  50.015  34.640  1.00  0.00     0.000 C 
BRANCH   3   4
ATOM      4  C   UNL     1      47.475  48.829  35.559  1.00  0.00     0.000 C 
BRANCH   4   5
ATOM      5  C   UNL     1      45.958  48.616  35.673  1.00  0.00     0.000 C 
BRANCH   5   6
ATOM      6  C   UNL     1      45.523  47.195  35.279  1.00  0.00     0.006 C 
BRANCH   6   7
ATOM      7  C   UNL     1      46.490  46.529  34.292  1.00  0.00     0.053 C 
BRANCH   7   8
ATOM      8  C   UNL     1      46.311  45.045  34.312  1.00  0.00     0.041 C 
ATOM      9  O   UNL     1      46.990  44.333  35.101  1.00  0.00    -0.550 OA
ATOM     10  O   UNL     1      45.353  44.449  33.501  1.00  0.00    -0.550 OA
ENDBRANCH   7   8
ENDBRANCH   6   7
ENDBRANCH   5   6
ENDBRANCH   4   5
ENDBRANCH   3   4
ENDBRANCH   2   3
ENDBRANCH   1   2
BRANCH   1  11
ATOM     11  C   UNL     1      50.811  50.855  36.865  1.00  0.00    -0.031 C 
ATOM     12  C   UNL     1      51.262  50.402  38.044  1.00  0.00    -0.027 C 
BRANCH  12  13
ATOM     13  C   UNL     1      52.140  51.242  38.928  1.00  0.00     0.054 C 
BRANCH  13  14
ATOM     14  C   UNL     1      51.547  51.357  40.304  1.00  0.00    -0.027 C 
ATOM     15  C   UNL     1      50.838  50.356  40.849  1.00  0.00    -0.031 C 
BRANCH  15  16
ATOM     16  C   UNL     1      50.259  50.464  42.234  1.00  0.00     0.027 C 
BRANCH  16  17
ATOM     17  C   UNL     1      51.252  51.072  43.237  1.00  0.00     0.004 C 
BRANCH  17  18
ATOM     18  C   UNL     1      50.677  52.309  43.944  1.00  0.00     0.000 C 
BRANCH  18  19
ATOM     19  C   UNL     1      51.413  53.581  43.507  1.00  0.00    -0.003 C 
ATOM     20  C   UNL     1      52.925  53.371  43.506  1.00  0.00     0.004 C 
ENDBRANCH  18  19
ENDBRANCH  17  18
ENDBRANCH  16  17
ENDBRANCH  15  16
ENDBRANCH  13  14
ENDBRANCH  12  13
ENDBRANCH   1  11
TORSDOF 14
ENDMDL
MODEL 4
REMARK VINA RESULT:    -5.744      2.894      7.060
REMARK INTER + INTRA:         -11.405
REMARK INTER:                 -10.124
REMARK INTRA:                  -1.281
REMARK UNBOUND:                -0.960
REMARK SMILES CCCCCC=CCC=CCCCCCCCC(=O)[O-]
REMARK SMILES IDX 11 1 12 2 13 3 14 4 15 5 16 6 17 7 18 8 19 9 20 10 10 11
REMARK SMILES IDX 9 12 8 13 7 14 6 15 5 16 4 17 3 18 2 19 1 20
REMARK H PARENT
REMARK Flexibility Score: inf
ROOT
ATOM      1  C   UNL     1      52.474  50.956  40.184  1.00  0.00     0.027 C 
ENDROOT
BRANCH   1   2
ATOM      2  C   UNL     1      51.395  51.987  40.536  1.00  0.00     0.004 C 
BRANCH   2   3
ATOM      3  C   UNL     1      51.730  52.704  41.849  1.00  0.00     0.000 C 
BRANCH   3   4
ATOM      4  C   UNL     1      52.068  51.699  42.957  1.00  0.00     0.000 C 
BRANCH   4   5
ATOM      5  C   UNL     1      50.847  51.442  43.854  1.00  0.00     0.000 C 
BRANCH   5   6
ATOM      6  C   UNL     1      50.357  49.987  43.792  1.00  0.00     0.006 C 
BRANCH   6   7
ATOM      7  C   UNL     1      49.609  49.666  42.492  1.00  0.00     0.053 C 
BRANCH   7   8
ATOM      8  C   UNL     1      50.168  48.429  41.863  1.00  0.00     0.041 C 
ATOM      9  O   UNL     1      50.682  47.529  42.580  1.00  0.00    -0.550 OA
ATOM     10  O   UNL     1      50.069  48.242  40.490  1.00  0.00    -0.550 OA
ENDBRANCH   7   8
ENDBRANCH   6   7
ENDBRANCH   5   6
ENDBRANCH   4   5
ENDBRANCH   3   4
ENDBRANCH   2   3
ENDBRANCH   1   2
BRANCH   1  11
ATOM     11  C   UNL     1      52.320  50.474  38.768  1.00  0.00    -0.031 C 
ATOM     12  C   UNL     1      51.403  51.003  37.944  1.00  0.00    -0.027 C 
BRANCH  12  13
ATOM     13  C   UNL     1      51.244  50.524  36.529  1.00  0.00     0.054 C 
BRANCH  13  14
ATOM     14  C   UNL     1      49.799  50.260  36.220  1.00  0.00    -0.027 C 
ATOM     15  C   UNL     1      49.243  50.655  35.064  1.00  0.00    -0.031 C 
BRANCH  15  16
ATOM     16  C   UNL     1      47.798  50.375  34.747  1.00  0.00     0.027 C 
BRANCH  16  17
ATOM     17  C   UNL     1      47.293  49.086  35.414  1.00  0.00     0.004 C 
BRANCH  17  18
ATOM     18  C   UNL     1      47.064  47.958  34.395  1.00  0.00     0.000 C 
BRANCH  18  19
ATOM     19  C   UNL     1      46.063  46.929  34.932  1.00  0.00    -0.003 C 
ATOM     20  C   UNL     1      44.941  47.607  35.714  1.00  0.00     0.004 C 
ENDBRANCH  18  19
ENDBRANCH  17  18
ENDBRANCH  16  17
ENDBRANCH  15  16
ENDBRANCH  13  14
ENDBRANCH  12  13
ENDBRANCH   1  11
TORSDOF 14
ENDMDL
MODEL 5
REMARK VINA RESULT:    -5.722      6.008      9.855
REMARK INTER + INTRA:         -11.365
REMARK INTER:                 -10.157
REMARK INTRA:                  -1.208
REMARK UNBOUND:                -0.960
REMARK SMILES CCCCCC=CCC=CCCCCCCCC(=O)[O-]
REMARK SMILES IDX 11 1 12 2 13 3 14 4 15 5 16 6 17 7 18 8 19 9 20 10 10 11
REMARK SMILES IDX 9 12 8 13 7 14 6 15 5 16 4 17 3 18 2 19 1 20
REMARK H PARENT
REMARK Flexibility Score: inf
ROOT
ATOM      1  C   UNL     1      45.086  44.090  30.088  1.00  0.00     0.027 C 
ENDROOT
BRANCH   1   2
ATOM      2  C   UNL     1      46.495  44.408  29.574  1.00  0.00     0.004 C 
BRANCH   2   3
ATOM      3  C   UNL     1      46.467  45.591  28.599  1.00  0.00     0.000 C 
BRANCH   3   4
ATOM      4  C   UNL     1      46.313  45.112  27.150  1.00  0.00     0.000 C 
BRANCH   4   5
ATOM      5  C   UNL     1      44.852  45.220  26.689  1.00  0.00     0.000 C 
BRANCH   5   6
ATOM      6  C   UNL     1      44.360  43.957  25.964  1.00  0.00     0.006 C 
BRANCH   6   7
ATOM      7  C   UNL     1      43.449  43.086  26.837  1.00  0.00     0.053 C 
BRANCH   7   8
ATOM      8  C   UNL     1      44.135  41.803  27.184  1.00  0.00     0.041 C 
ATOM      9  O   UNL     1      43.460  40.772  27.449  1.00  0.00    -0.550 OA
ATOM     10  O   UNL     1      45.522  41.727  27.158  1.00  0.00    -0.550 OA
ENDBRANCH   7   8
ENDBRANCH   6   7
ENDBRANCH   5   6
ENDBRANCH   4   5
ENDBRANCH   3   4
ENDBRANCH   2   3
ENDBRANCH   1   2
BRANCH   1  11
ATOM     11  C   UNL     1      45.069  43.977  31.587  1.00  0.00    -0.031 C 
ATOM     12  C   UNL     1      46.000  44.579  32.344  1.00  0.00    -0.027 C 
BRANCH  12  13
ATOM     13  C   UNL     1      45.989  44.468  33.843  1.00  0.00     0.054 C 
BRANCH  13  14
ATOM     14  C   UNL     1      46.227  45.810  34.472  1.00  0.00    -0.027 C 
ATOM     15  C   UNL     1      45.255  46.461  35.130  1.00  0.00    -0.031 C 
BRANCH  15  16
ATOM     16  C   UNL     1      45.498  47.799  35.776  1.00  0.00     0.027 C 
BRANCH  16  17
ATOM     17  C   UNL     1      46.659  48.562  35.120  1.00  0.00     0.004 C 
BRANCH  17  18
ATOM     18  C   UNL     1      47.860  48.716  36.067  1.00  0.00     0.000 C 
BRANCH  18  19
ATOM     19  C   UNL     1      48.725  49.916  35.664  1.00  0.00    -0.003 C 
ATOM     20  C   UNL     1      47.996  50.811  34.666  1.00  0.00     0.004 C 
ENDBRANCH  18  19
ENDBRANCH  17  18
ENDBRANCH  16  17
ENDBRANCH  15  16
ENDBRANCH  13  14
ENDBRANCH  12  13
ENDBRANCH   1  11
TORSDOF 14
ENDMDL
MODEL 6
REMARK VINA RESULT:    -5.668      3.466      7.829
REMARK INTER + INTRA:         -11.267
REMARK INTER:                  -9.648
REMARK INTRA:                  -1.619
REMARK UNBOUND:                -0.960
REMARK SMILES CCCCCC=CCC=CCCCCCCCC(=O)[O-]
REMARK SMILES IDX 11 1 12 2 13 3 14 4 15 5 16 6 17 7 18 8 19 9 20 10 10 11
REMARK SMILES IDX 9 12 8 13 7 14 6 15 5 16 4 17 3 18 2 19 1 20
REMARK H PARENT
REMARK Flexibility Score: inf
ROOT
ATOM      1  C   UNL     1      48.194  46.329  38.522  1.00  0.00     0.027 C 
ENDROOT
BRANCH   1   2
ATOM      2  C   UNL     1      47.071  45.515  39.177  1.00  0.00     0.004 C 
BRANCH   2   3
ATOM      3  C   UNL     1      47.263  45.444  40.696  1.00  0.00     0.000 C 
BRANCH   3   4
ATOM      4  C   UNL     1      48.474  46.272  41.141  1.00  0.00     0.000 C 
BRANCH   4   5
ATOM      5  C   UNL     1      48.131  47.128  42.370  1.00  0.00     0.000 C 
BRANCH   5   6
ATOM      6  C   UNL     1      48.454  48.618  42.168  1.00  0.00     0.006 C 
BRANCH   6   7
ATOM      7  C   UNL     1      49.918  48.862  41.781  1.00  0.00     0.053 C 
BRANCH   7   8
ATOM      8  C   UNL     1      50.324  50.255  42.143  1.00  0.00     0.041 C 
ATOM      9  O   UNL     1      50.770  51.037  41.260  1.00  0.00    -0.550 OA
ATOM     10  O   UNL     1      50.156  50.713  43.444  1.00  0.00    -0.550 OA
ENDBRANCH   7   8
ENDBRANCH   6   7
ENDBRANCH   5   6
ENDBRANCH   4   5
ENDBRANCH   3   4
ENDBRANCH   2   3
ENDBRANCH   1   2
BRANCH   1  11
ATOM     11  C   UNL     1      47.707  47.017  37.276  1.00  0.00    -0.031 C 
ATOM     12  C   UNL     1      46.664  46.542  36.577  1.00  0.00    -0.027 C 
BRANCH  12  13
ATOM     13  C   UNL     1      46.175  47.225  35.331  1.00  0.00     0.054 C 
BRANCH  13  14
ATOM     14  C   UNL     1      46.503  48.690  35.369  1.00  0.00    -0.027 C 
ATOM     15  C   UNL     1      47.510  49.204  34.647  1.00  0.00    -0.031 C 
BRANCH  15  16
ATOM     16  C   UNL     1      47.828  50.675  34.672  1.00  0.00     0.027 C 
BRANCH  16  17
ATOM     17  C   UNL     1      49.125  50.980  35.438  1.00  0.00     0.004 C 
BRANCH  17  18
ATOM     18  C   UNL     1      49.865  49.700  35.857  1.00  0.00     0.000 C 
BRANCH  18  19
ATOM     19  C   UNL     1      50.900  49.998  36.948  1.00  0.00    -0.003 C 
ATOM     20  C   UNL     1      50.720  49.070  38.147  1.00  0.00     0.004 C 
ENDBRANCH  18  19
ENDBRANCH  17  18
ENDBRANCH  16  17
ENDBRANCH  15  16
ENDBRANCH  13  14
ENDBRANCH  12  13
ENDBRANCH   1  11
TORSDOF 14
ENDMDL
MODEL 7
REMARK VINA RESULT:    -5.662      4.920      8.716
REMARK INTER + INTRA:         -11.256
REMARK INTER:                 -10.230
REMARK INTRA:                  -1.027
REMARK UNBOUND:                -0.960
REMARK SMILES CCCCCC=CCC=CCCCCCCCC(=O)[O-]
REMARK SMILES IDX 11 1 12 2 13 3 14 4 15 5 16 6 17 7 18 8 19 9 20 10 10 11
REMARK SMILES IDX 9 12 8 13 7 14 6 15 5 16 4 17 3 18 2 19 1 20
REMARK H PARENT
REMARK Flexibility Score: inf
ROOT
ATOM      1  C   UNL     1      52.157  50.833  40.268  1.00  0.00     0.027 C 
ENDROOT
BRANCH   1   2
ATOM      2  C   UNL     1      51.338  51.834  41.091  1.00  0.00     0.004 C 
BRANCH   2   3
ATOM      3  C   UNL     1      50.757  51.167  42.343  1.00  0.00     0.000 C 
BRANCH   3   4
ATOM      4  C   UNL     1      51.314  51.807  43.620  1.00  0.00     0.000 C 
BRANCH   4   5
ATOM      5  C   UNL     1      51.620  53.296  43.400  1.00  0.00     0.000 C 
BRANCH   5   6
ATOM      6  C   UNL     1      53.011  53.702  43.914  1.00  0.00     0.006 C 
BRANCH   6   7
ATOM      7  C   UNL     1      53.986  52.522  43.988  1.00  0.00     0.053 C 
BRANCH   7   8
ATOM      8  C   UNL     1      55.072  52.682  42.972  1.00  0.00     0.041 C 
ATOM      9  O   UNL     1      54.802  52.645  41.741  1.00  0.00    -0.550 OA
ATOM     10  O   UNL     1      56.376  52.932  43.382  1.00  0.00    -0.550 OA
ENDBRANCH   7   8
ENDBRANCH   6   7
ENDBRANCH   5   6
ENDBRANCH   4   5
ENDBRANCH   3   4
ENDBRANCH   2   3
ENDBRANCH   1   2
BRANCH   1  11
ATOM     11  C   UNL     1      52.033  51.114  38.795  1.00  0.00    -0.031 C 
ATOM     12  C   UNL     1      51.413  50.257  37.969  1.00  0.00    -0.027 C 
BRANCH  12  13
ATOM     13  C   UNL     1      51.288  50.532  36.498  1.00  0.00     0.054 C 
BRANCH  13  14
ATOM     14  C   UNL     1      49.968  50.038  35.979  1.00  0.00    -0.027 C 
ATOM     15  C   UNL     1      49.134  50.841  35.300  1.00  0.00    -0.031 C 
BRANCH  15  16
ATOM     16  C   UNL     1      47.819  50.342  34.765  1.00  0.00     0.027 C 
BRANCH  16  17
ATOM     17  C   UNL     1      47.313  49.103  35.521  1.00  0.00     0.004 C 
BRANCH  17  18
ATOM     18  C   UNL     1      46.922  47.962  34.568  1.00  0.00     0.000 C 
BRANCH  18  19
ATOM     19  C   UNL     1      45.692  47.210  35.089  1.00  0.00    -0.003 C 
ATOM     20  C   UNL     1      45.705  45.752  34.640  1.00  0.00     0.004 C 
ENDBRANCH  18  19
ENDBRANCH  17  18
ENDBRANCH  16  17
ENDBRANCH  15  16
ENDBRANCH  13  14
ENDBRANCH  12  13
ENDBRANCH   1  11
TORSDOF 14
ENDMDL
MODEL 8
REMARK VINA RESULT:    -5.649      4.045      7.019
REMARK INTER + INTRA:         -11.232
REMARK INTER:                  -9.490
REMARK INTRA:                  -1.743
REMARK UNBOUND:                -0.960
REMARK SMILES CCCCCC=CCC=CCCCCCCCC(=O)[O-]
REMARK SMILES IDX 11 1 12 2 13 3 14 4 15 5 16 6 17 7 18 8 19 9 20 10 10 11
REMARK SMILES IDX 9 12 8 13 7 14 6 15 5 16 4 17 3 18 2 19 1 20
REMARK H PARENT
REMARK Flexibility Score: inf
ROOT
ATOM      1  C   UNL     1      51.039  50.087  36.675  1.00  0.00     0.027 C 
ENDROOT
BRANCH   1   2
ATOM      2  C   UNL     1      51.323  51.262  37.618  1.00  0.00     0.004 C 
BRANCH   2   3
ATOM      3  C   UNL     1      51.940  50.772  38.933  1.00  0.00     0.000 C 
BRANCH   3   4
ATOM      4  C   UNL     1      51.644  49.285  39.163  1.00  0.00     0.000 C 
BRANCH   4   5
ATOM      5  C   UNL     1      50.956  49.066  40.519  1.00  0.00     0.000 C 
BRANCH   5   6
ATOM      6  C   UNL     1      50.678  50.381  41.266  1.00  0.00     0.006 C 
BRANCH   6   7
ATOM      7  C   UNL     1      49.751  50.195  42.473  1.00  0.00     0.053 C 
BRANCH   7   8
ATOM      8  C   UNL     1      50.399  50.726  43.712  1.00  0.00     0.041 C 
ATOM      9  O   UNL     1      50.684  49.950  44.663  1.00  0.00    -0.550 OA
ATOM     10  O   UNL     1      50.745  52.069  43.794  1.00  0.00    -0.550 OA
ENDBRANCH   7   8
ENDBRANCH   6   7
ENDBRANCH   5   6
ENDBRANCH   4   5
ENDBRANCH   3   4
ENDBRANCH   2   3
ENDBRANCH   1   2
BRANCH   1  11
ATOM     11  C   UNL     1      49.599  50.075  36.244  1.00  0.00    -0.031 C 
ATOM     12  C   UNL     1      49.230  50.495  35.024  1.00  0.00    -0.027 C 
BRANCH  12  13
ATOM     13  C   UNL     1      47.792  50.486  34.589  1.00  0.00     0.054 C 
BRANCH  13  14
ATOM     14  C   UNL     1      47.060  49.331  35.211  1.00  0.00    -0.027 C 
ATOM     15  C   UNL     1      47.006  48.130  34.614  1.00  0.00    -0.031 C 
BRANCH  15  16
ATOM     16  C   UNL     1      46.288  46.968  35.246  1.00  0.00     0.027 C 
BRANCH  16  17
ATOM     17  C   UNL     1      46.621  46.816  36.738  1.00  0.00     0.004 C 
BRANCH  17  18
ATOM     18  C   UNL     1      48.070  46.358  36.965  1.00  0.00     0.000 C 
BRANCH  18  19
ATOM     19  C   UNL     1      48.712  47.127  38.125  1.00  0.00    -0.003 C 
ATOM     20  C   UNL     1      48.447  46.434  39.460  1.00  0.00     0.004 C 
ENDBRANCH  18  19
ENDBRANCH  17  18
ENDBRANCH  16  17
ENDBRANCH  15  16
ENDBRANCH  13  14
ENDBRANCH  12  13
ENDBRANCH   1  11
TORSDOF 14
ENDMDL
MODEL 9
REMARK VINA RESULT:    -5.594      9.028     12.161
REMARK INTER + INTRA:         -11.132
REMARK INTER:                 -10.084
REMARK INTRA:                  -1.047
REMARK UNBOUND:                -0.960
REMARK SMILES CCCCCC=CCC=CCCCCCCCC(=O)[O-]
REMARK SMILES IDX 11 1 12 2 13 3 14 4 15 5 16 6 17 7 18 8 19 9 20 10 10 11
REMARK SMILES IDX 9 12 8 13 7 14 6 15 5 16 4 17 3 18 2 19 1 20
REMARK H PARENT
REMARK Flexibility Score: inf
ROOT
ATOM      1  C   UNL     1      43.975  53.518  35.141  1.00  0.00     0.027 C 
ENDROOT
BRANCH   1   2
ATOM      2  C   UNL     1      43.355  53.892  36.493  1.00  0.00     0.004 C 
BRANCH   2   3
ATOM      3  C   UNL     1      44.094  55.077  37.124  1.00  0.00     0.000 C 
BRANCH   3   4
ATOM      4  C   UNL     1      43.868  56.363  36.320  1.00  0.00     0.000 C 
BRANCH   4   5
ATOM      5  C   UNL     1      44.561  57.558  36.991  1.00  0.00     0.000 C 
BRANCH   5   6
ATOM      6  C   UNL     1      45.587  57.133  38.055  1.00  0.00     0.006 C 
BRANCH   6   7
ATOM      7  C   UNL     1      46.275  58.326  38.728  1.00  0.00     0.053 C 
BRANCH   7   8
ATOM      8  C   UNL     1      45.858  58.425  40.161  1.00  0.00     0.041 C 
ATOM      9  O   UNL     1      46.711  58.677  41.055  1.00  0.00    -0.550 OA
ATOM     10  O   UNL     1      44.518  58.299  40.506  1.00  0.00    -0.550 OA
ENDBRANCH   7   8
ENDBRANCH   6   7
ENDBRANCH   5   6
ENDBRANCH   4   5
ENDBRANCH   3   4
ENDBRANCH   2   3
ENDBRANCH   1   2
BRANCH   1  11
ATOM     11  C   UNL     1      42.927  53.022  34.183  1.00  0.00    -0.031 C 
ATOM     12  C   UNL     1      41.623  53.043  34.501  1.00  0.00    -0.027 C 
BRANCH  12  13
ATOM     13  C   UNL     1      40.572  52.547  33.548  1.00  0.00     0.054 C 
BRANCH  13  14
ATOM     14  C   UNL     1      40.666  51.056  33.390  1.00  0.00    -0.027 C 
ATOM     15  C   UNL     1      40.147  50.429  32.323  1.00  0.00    -0.031 C 
BRANCH  15  16
ATOM     16  C   UNL     1      40.255  48.937  32.155  1.00  0.00     0.027 C 
BRANCH  16  17
ATOM     17  C   UNL     1      38.909  48.226  32.364  1.00  0.00     0.004 C 
BRANCH  17  18
ATOM     18  C   UNL     1      37.715  49.171  32.153  1.00  0.00     0.000 C 
BRANCH  18  19
ATOM     19  C   UNL     1      37.021  48.888  30.816  1.00  0.00    -0.003 C 
ATOM     20  C   UNL     1      37.483  49.864  29.737  1.00  0.00     0.004 C 
ENDBRANCH  18  19
ENDBRANCH  17  18
ENDBRANCH  16  17
ENDBRANCH  15  16
ENDBRANCH  13  14
ENDBRANCH  12  13
ENDBRANCH   1  11
TORSDOF 14
ENDMDL
