MODEL 1
REMARK VINA RESULT:     0.000      0.000      0.000
REMARK INTER + INTRA:          -0.281
REMARK INTER:                   0.000
REMARK INTRA:                  -0.281
REMARK UNBOUND:                -0.281
REMARK SMILES CCCCCC(=O)[O-]
REMARK SMILES IDX 4 1 5 2 6 3 7 4 8 5 3 6 2 7 1 8
REMARK H PARENT
REMARK Flexibility Score: inf
ROOT
ATOM      1  C   UNL     1      31.338  54.834 182.673  1.00  0.00     0.006 C 
ENDROOT
BRANCH   1   2
ATOM      2  C   UNL     1      32.483  53.826 182.540  1.00  0.00     0.053 C 
BRANCH   2   3
ATOM      3  C   UNL     1      32.797  53.211 183.866  1.00  0.00     0.041 C 
ATOM      4  O   UNL     1      33.967  53.268 184.330  1.00  0.00    -0.550 OA
ATOM      5  O   UNL     1      31.788  52.618 184.613  1.00  0.00    -0.550 OA
ENDBRANCH   2   3
ENDBRANCH   1   2
BRANCH   1   6
ATOM      6  C   UNL     1      31.778  56.063 183.483  1.00  0.00     0.000 C 
BRANCH   6   7
ATOM      7  C   UNL     1      30.877  56.321 184.701  1.00  0.00    -0.003 C 
ATOM      8  C   UNL     1      31.570  56.009 186.026  1.00  0.00     0.004 C 
ENDBRANCH   6   7
ENDBRANCH   1   6
TORSDOF 4
ENDMDL
MODEL 2
REMARK VINA RESULT:     0.000      4.721      5.497
REMARK INTER + INTRA:          -0.281
REMARK INTER:                   0.000
REMARK INTRA:                  -0.281
REMARK UNBOUND:                -0.281
REMARK SMILES CCCCCC(=O)[O-]
REMARK SMILES IDX 4 1 5 2 6 3 7 4 8 5 3 6 2 7 1 8
REMARK H PARENT
REMARK Flexibility Score: inf
ROOT
ATOM      1  C   UNL     1      34.941  53.463 180.273  1.00  0.00     0.006 C 
ENDROOT
BRANCH   1   2
ATOM      2  C   UNL     1      34.130  52.463 179.443  1.00  0.00     0.053 C 
BRANCH   2   3
ATOM      3  C   UNL     1      33.369  53.170 178.367  1.00  0.00     0.041 C 
ATOM      4  O   UNL     1      32.120  53.034 178.280  1.00  0.00    -0.550 OA
ATOM      5  O   UNL     1      34.032  54.019 177.490  1.00  0.00    -0.550 OA
ENDBRANCH   2   3
ENDBRANCH   1   2
BRANCH   1   6
ATOM      6  C   UNL     1      34.016  54.369 181.100  1.00  0.00     0.000 C 
BRANCH   6   7
ATOM      7  C   UNL     1      34.251  55.862 180.824  1.00  0.00    -0.003 C 
ATOM      8  C   UNL     1      33.107  56.506 180.042  1.00  0.00     0.004 C 
ENDBRANCH   6   7
ENDBRANCH   1   6
TORSDOF 4
ENDMDL
MODEL 3
REMARK VINA RESULT:     0.000      8.661      9.340
REMARK INTER + INTRA:          -0.281
REMARK INTER:                   0.000
REMARK INTRA:                  -0.281
REMARK UNBOUND:                -0.281
REMARK SMILES CCCCCC(=O)[O-]
REMARK SMILES IDX 4 1 5 2 6 3 7 4 8 5 3 6 2 7 1 8
REMARK H PARENT
REMARK Flexibility Score: inf
ROOT
ATOM      1  C   UNL     1      37.055  59.611 179.074  1.00  0.00     0.006 C 
ENDROOT
BRANCH   1   2
ATOM      2  C   UNL     1      37.794  58.332 178.666  1.00  0.00     0.053 C 
BRANCH   2   3
ATOM      3  C   UNL     1      38.942  58.073 179.589  1.00  0.00     0.041 C 
ATOM      4  O   UNL     1      40.106  57.937 179.128  1.00  0.00    -0.550 OA
ATOM      5  O   UNL     1      38.735  58.032 180.961  1.00  0.00    -0.550 OA
ENDBRANCH   2   3
ENDBRANCH   1   2
BRANCH   1   6
ATOM      6  C   UNL     1      37.928  60.852 178.829  1.00  0.00     0.000 C 
BRANCH   6   7
ATOM      7  C   UNL     1      38.122  61.697 180.098  1.00  0.00    -0.003 C 
ATOM      8  C   UNL     1      39.543  61.609 180.654  1.00  0.00     0.004 C 
ENDBRANCH   6   7
ENDBRANCH   1   6
TORSDOF 4
ENDMDL
MODEL 4
REMARK VINA RESULT:     0.000      4.713      5.770
REMARK INTER + INTRA:          -0.281
REMARK INTER:                   0.000
REMARK INTRA:                  -0.281
REMARK UNBOUND:                -0.281
REMARK SMILES CCCCCC(=O)[O-]
REMARK SMILES IDX 4 1 5 2 6 3 7 4 8 5 3 6 2 7 1 8
REMARK H PARENT
REMARK Flexibility Score: inf
ROOT
ATOM      1  C   UNL     1      29.289  49.476 183.580  1.00  0.00     0.006 C 
ENDROOT
BRANCH   1   2
ATOM      2  C   UNL     1      28.256  49.461 182.449  1.00  0.00     0.053 C 
BRANCH   2   3
ATOM      3  C   UNL     1      28.846  50.016 181.192  1.00  0.00     0.041 C 
ATOM      4  O   UNL     1      28.292  50.983 180.605  1.00  0.00    -0.550 OA
ATOM      5  O   UNL     1      30.035  49.499 180.695  1.00  0.00    -0.550 OA
ENDBRANCH   2   3
ENDBRANCH   1   2
BRANCH   1   6
ATOM      6  C   UNL     1      29.615  50.916 184.007  1.00  0.00     0.000 C 
BRANCH   6   7
ATOM      7  C   UNL     1      31.117  51.232 183.917  1.00  0.00    -0.003 C 
ATOM      8  C   UNL     1      31.452  52.187 182.771  1.00  0.00     0.004 C 
ENDBRANCH   6   7
ENDBRANCH   1   6
TORSDOF 4
ENDMDL
MODEL 5
REMARK VINA RESULT:     0.000      2.216      3.549
REMARK INTER + INTRA:          -0.281
REMARK INTER:                   0.000
REMARK INTRA:                  -0.281
REMARK UNBOUND:                -0.281
REMARK SMILES CCCCCC(=O)[O-]
REMARK SMILES IDX 4 1 5 2 6 3 7 4 8 5 3 6 2 7 1 8
REMARK H PARENT
REMARK Flexibility Score: inf
ROOT
ATOM      1  C   UNL     1      30.557  54.549 183.266  1.00  0.00     0.006 C 
ENDROOT
BRANCH   1   2
ATOM      2  C   UNL     1      30.157  53.143 183.723  1.00  0.00     0.053 C 
BRANCH   2   3
ATOM      3  C   UNL     1      30.979  52.110 183.021  1.00  0.00     0.041 C 
ATOM      4  O   UNL     1      30.417  51.190 182.370  1.00  0.00    -0.550 OA
ATOM      5  O   UNL     1      32.365  52.191 183.043  1.00  0.00    -0.550 OA
ENDBRANCH   2   3
ENDBRANCH   1   2
BRANCH   1   6
ATOM      6  C   UNL     1      30.157  54.786 181.802  1.00  0.00     0.000 C 
BRANCH   6   7
ATOM      7  C   UNL     1      31.349  55.195 180.923  1.00  0.00    -0.003 C 
ATOM      8  C   UNL     1      31.771  54.095 179.950  1.00  0.00     0.004 C 
ENDBRANCH   6   7
ENDBRANCH   1   6
TORSDOF 4
ENDMDL
MODEL 6
REMARK VINA RESULT:     0.000      9.209     10.214
REMARK INTER + INTRA:          -0.281
REMARK INTER:                   0.000
REMARK INTRA:                  -0.281
REMARK UNBOUND:                -0.281
REMARK SMILES CCCCCC(=O)[O-]
REMARK SMILES IDX 4 1 5 2 6 3 7 4 8 5 3 6 2 7 1 8
REMARK H PARENT
REMARK Flexibility Score: inf
ROOT
ATOM      1  C   UNL     1      29.196  55.332 173.671  1.00  0.00     0.006 C 
ENDROOT
BRANCH   1   2
ATOM      2  C   UNL     1      29.759  55.026 175.062  1.00  0.00     0.053 C 
BRANCH   2   3
ATOM      3  C   UNL     1      28.805  55.470 176.124  1.00  0.00     0.041 C 
ATOM      4  O   UNL     1      29.184  56.266 177.024  1.00  0.00    -0.550 OA
ATOM      5  O   UNL     1      27.483  55.046 176.093  1.00  0.00    -0.550 OA
ENDBRANCH   2   3
ENDBRANCH   1   2
BRANCH   1   6
ATOM      6  C   UNL     1      29.146  56.848 173.421  1.00  0.00     0.000 C 
BRANCH   6   7
ATOM      7  C   UNL     1      27.736  57.339 173.054  1.00  0.00    -0.003 C 
ATOM      8  C   UNL     1      27.087  58.158 174.168  1.00  0.00     0.004 C 
ENDBRANCH   6   7
ENDBRANCH   1   6
TORSDOF 4
ENDMDL
MODEL 7
REMARK VINA RESULT:     0.000      9.047     10.004
REMARK INTER + INTRA:          -0.281
REMARK INTER:                   0.000
REMARK INTRA:                  -0.281
REMARK UNBOUND:                -0.281
REMARK SMILES CCCCCC(=O)[O-]
REMARK SMILES IDX 4 1 5 2 6 3 7 4 8 5 3 6 2 7 1 8
REMARK H PARENT
REMARK Flexibility Score: inf
ROOT
ATOM      1  C   UNL     1      27.116  52.772 174.468  1.00  0.00     0.006 C 
ENDROOT
BRANCH   1   2
ATOM      2  C   UNL     1      28.039  53.600 173.568  1.00  0.00     0.053 C 
BRANCH   2   3
ATOM      3  C   UNL     1      29.471  53.370 173.933  1.00  0.00     0.041 C 
ATOM      4  O   UNL     1      30.213  54.343 174.231  1.00  0.00    -0.550 OA
ATOM      5  O   UNL     1      29.974  52.077 173.993  1.00  0.00    -0.550 OA
ENDBRANCH   2   3
ENDBRANCH   1   2
BRANCH   1   6
ATOM      6  C   UNL     1      27.148  53.292 175.914  1.00  0.00     0.000 C 
BRANCH   6   7
ATOM      7  C   UNL     1      27.536  52.201 176.924  1.00  0.00    -0.003 C 
ATOM      8  C   UNL     1      28.934  52.405 177.508  1.00  0.00     0.004 C 
ENDBRANCH   6   7
ENDBRANCH   1   6
TORSDOF 4
ENDMDL
MODEL 8
REMARK VINA RESULT:     0.000      2.695      3.372
REMARK INTER + INTRA:          -0.281
REMARK INTER:                   0.000
REMARK INTRA:                  -0.281
REMARK UNBOUND:                -0.281
REMARK SMILES CCCCCC(=O)[O-]
REMARK SMILES IDX 4 1 5 2 6 3 7 4 8 5 3 6 2 7 1 8
REMARK H PARENT
REMARK Flexibility Score: inf
ROOT
ATOM      1  C   UNL     1      31.573  54.994 182.552  1.00  0.00     0.006 C 
ENDROOT
BRANCH   1   2
ATOM      2  C   UNL     1      32.016  54.272 181.276  1.00  0.00     0.053 C 
BRANCH   2   3
ATOM      3  C   UNL     1      33.303  54.843 180.771  1.00  0.00     0.041 C 
ATOM      4  O   UNL     1      33.382  55.282 179.593  1.00  0.00    -0.550 OA
ATOM      5  O   UNL     1      34.401  54.938 181.616  1.00  0.00    -0.550 OA
ENDBRANCH   2   3
ENDBRANCH   1   2
BRANCH   1   6
ATOM      6  C   UNL     1      31.163  56.444 182.249  1.00  0.00     0.000 C 
BRANCH   6   7
ATOM      7  C   UNL     1      31.950  57.466 183.085  1.00  0.00    -0.003 C 
ATOM      8  C   UNL     1      32.955  58.261 182.253  1.00  0.00     0.004 C 
ENDBRANCH   6   7
ENDBRANCH   1   6
TORSDOF 4
ENDMDL
MODEL 9
REMARK VINA RESULT:     0.000      8.639      9.123
REMARK INTER + INTRA:          -0.281
REMARK INTER:                   0.000
REMARK INTRA:                  -0.281
REMARK UNBOUND:                -0.281
REMARK SMILES CCCCCC(=O)[O-]
REMARK SMILES IDX 4 1 5 2 6 3 7 4 8 5 3 6 2 7 1 8
REMARK H PARENT
REMARK Flexibility Score: inf
ROOT
ATOM      1  C   UNL     1      26.860  56.051 177.067  1.00  0.00     0.006 C 
ENDROOT
BRANCH   1   2
ATOM      2  C   UNL     1      27.660  55.259 176.028  1.00  0.00     0.053 C 
BRANCH   2   3
ATOM      3  C   UNL     1      29.004  55.879 175.817  1.00  0.00     0.041 C 
ATOM      4  O   UNL     1      29.369  56.223 174.662  1.00  0.00    -0.550 OA
ATOM      5  O   UNL     1      29.835  56.123 176.903  1.00  0.00    -0.550 OA
ENDBRANCH   2   3
ENDBRANCH   1   2
BRANCH   1   6
ATOM      6  C   UNL     1      26.476  57.437 176.525  1.00  0.00     0.000 C 
BRANCH   6   7
ATOM      7  C   UNL     1      26.963  58.580 177.429  1.00  0.00    -0.003 C 
ATOM      8  C   UNL     1      28.112  59.374 176.810  1.00  0.00     0.004 C 
ENDBRANCH   6   7
ENDBRANCH   1   6
TORSDOF 4
ENDMDL
