MODEL 1
REMARK VINA RESULT:    -4.945      0.000      0.000
REMARK INTER + INTRA:          -5.592
REMARK INTER:                  -5.523
REMARK INTRA:                  -0.069
REMARK UNBOUND:                -0.069
REMARK SMILES COc1cc2ccc(=O)oc2c(O)c1O
REMARK SMILES IDX 3 1 14 2 12 3 11 4 5 5 4 6 6 7 7 8 8 9 9 10 10 11 2 12 1 13
REMARK SMILES IDX 15 14 13 16
REMARK H PARENT 15 15 13 17
REMARK Flexibility Score: inf
ROOT
ATOM      1  C   UNL     1       5.854 -18.276  16.785  1.00  0.00     0.165 A 
ATOM      2  C   UNL     1       5.682 -18.664  15.446  1.00  0.00     0.204 A 
ATOM      3  C   UNL     1       4.794 -17.944  14.608  1.00  0.00     0.205 A 
ATOM      4  C   UNL     1       4.091 -16.847  15.124  1.00  0.00     0.184 A 
ATOM      5  C   UNL     1       4.267 -16.461  16.469  1.00  0.00     0.025 A 
ATOM      6  C   UNL     1       5.143 -17.173  17.293  1.00  0.00     0.062 A 
ATOM      7  C   UNL     1       3.547 -15.361  16.949  1.00  0.00     0.020 A 
ATOM      8  C   UNL     1       2.684 -14.680  16.092  1.00  0.00     0.094 A 
ATOM      9  C   UNL     1       2.559 -15.118  14.770  1.00  0.00     0.336 A 
ATOM     10  O   UNL     1       1.786 -14.517  13.980  1.00  0.00    -0.246 OA
ATOM     11  O   UNL     1       3.255 -16.166  14.340  1.00  0.00    -0.419 OA
ENDROOT
BRANCH   1  12
ATOM     12  O   UNL     1       6.744 -19.017  17.582  1.00  0.00    -0.493 OA
ATOM     13  C   UNL     1       6.348 -19.975  18.558  1.00  0.00     0.278 C 
ENDBRANCH   1  12
BRANCH   2  14
ATOM     14  O   UNL     1       6.410 -19.766  14.989  1.00  0.00    -0.502 OA
ATOM     15  H   UNL     1       7.197 -20.167  15.477  1.00  0.00     0.293 HD
ENDBRANCH   2  14
BRANCH   3  16
ATOM     16  O   UNL     1       4.584 -18.284  13.269  1.00  0.00    -0.502 OA
ATOM     17  H   UNL     1       4.117 -19.125  12.963  1.00  0.00     0.293 HD
ENDBRANCH   3  16
TORSDOF 3
ENDMDL
MODEL 2
REMARK VINA RESULT:    -4.512      2.482      5.465
REMARK INTER + INTRA:          -5.108
REMARK INTER:                  -5.040
REMARK INTRA:                  -0.068
REMARK UNBOUND:                -0.069
REMARK SMILES COc1cc2ccc(=O)oc2c(O)c1O
REMARK SMILES IDX 3 1 14 2 12 3 11 4 5 5 4 6 6 7 7 8 8 9 9 10 10 11 2 12 1 13
REMARK SMILES IDX 15 14 13 16
REMARK H PARENT 15 15 13 17
REMARK Flexibility Score: inf
ROOT
ATOM      1  C   UNL     1       4.494 -12.935  15.234  1.00  0.00     0.165 A 
ATOM      2  C   UNL     1       3.227 -13.541  15.217  1.00  0.00     0.204 A 
ATOM      3  C   UNL     1       3.108 -14.926  14.943  1.00  0.00     0.205 A 
ATOM      4  C   UNL     1       4.259 -15.684  14.690  1.00  0.00     0.184 A 
ATOM      5  C   UNL     1       5.529 -15.072  14.708  1.00  0.00     0.025 A 
ATOM      6  C   UNL     1       5.644 -13.705  14.978  1.00  0.00     0.062 A 
ATOM      7  C   UNL     1       6.656 -15.861  14.450  1.00  0.00     0.020 A 
ATOM      8  C   UNL     1       6.495 -17.220  14.186  1.00  0.00     0.094 A 
ATOM      9  C   UNL     1       5.205 -17.760  14.185  1.00  0.00     0.336 A 
ATOM     10  O   UNL     1       5.037 -18.985  13.948  1.00  0.00    -0.246 OA
ATOM     11  O   UNL     1       4.152 -16.987  14.433  1.00  0.00    -0.419 OA
ENDROOT
BRANCH   1  12
ATOM     12  O   UNL     1       4.569 -11.558  15.508  1.00  0.00    -0.493 OA
ATOM     13  C   UNL     1       4.764 -10.547  14.525  1.00  0.00     0.278 C 
ENDBRANCH   1  12
BRANCH   2  14
ATOM     14  O   UNL     1       2.117 -12.733  15.477  1.00  0.00    -0.502 OA
ATOM     15  H   UNL     1       2.171 -11.755  15.721  1.00  0.00     0.293 HD
ENDBRANCH   2  14
BRANCH   3  16
ATOM     16  O   UNL     1       1.874 -15.582  14.915  1.00  0.00    -0.502 OA
ATOM     17  H   UNL     1       1.627 -16.354  15.517  1.00  0.00     0.293 HD
ENDBRANCH   3  16
TORSDOF 3
ENDMDL
MODEL 3
REMARK VINA RESULT:    -4.422      1.794      4.824
REMARK INTER + INTRA:          -5.008
REMARK INTER:                  -4.940
REMARK INTRA:                  -0.068
REMARK UNBOUND:                -0.069
REMARK SMILES COc1cc2ccc(=O)oc2c(O)c1O
REMARK SMILES IDX 3 1 14 2 12 3 11 4 5 5 4 6 6 7 7 8 8 9 9 10 10 11 2 12 1 13
REMARK SMILES IDX 15 14 13 16
REMARK H PARENT 15 15 13 17
REMARK Flexibility Score: inf
ROOT
ATOM      1  C   UNL     1       3.120 -14.037  17.255  1.00  0.00     0.165 A 
ATOM      2  C   UNL     1       2.725 -13.889  15.915  1.00  0.00     0.204 A 
ATOM      3  C   UNL     1       3.049 -14.889  14.965  1.00  0.00     0.205 A 
ATOM      4  C   UNL     1       3.764 -16.024  15.371  1.00  0.00     0.184 A 
ATOM      5  C   UNL     1       4.158 -16.169  16.718  1.00  0.00     0.025 A 
ATOM      6  C   UNL     1       3.838 -15.180  17.652  1.00  0.00     0.062 A 
ATOM      7  C   UNL     1       4.871 -17.316  17.086  1.00  0.00     0.020 A 
ATOM      8  C   UNL     1       5.170 -18.277  16.121  1.00  0.00     0.094 A 
ATOM      9  C   UNL     1       4.747 -18.067  14.805  1.00  0.00     0.336 A 
ATOM     10  O   UNL     1       5.006 -18.922  13.918  1.00  0.00    -0.246 OA
ATOM     11  O   UNL     1       4.071 -16.968  14.483  1.00  0.00    -0.419 OA
ENDROOT
BRANCH   1  12
ATOM     12  O   UNL     1       2.779 -13.021  18.165  1.00  0.00    -0.493 OA
ATOM     13  C   UNL     1       1.922 -13.197  19.288  1.00  0.00     0.278 C 
ENDBRANCH   1  12
BRANCH   2  14
ATOM     14  O   UNL     1       2.014 -12.735  15.571  1.00  0.00    -0.502 OA
ATOM     15  H   UNL     1       1.128 -12.472  15.976  1.00  0.00     0.293 HD
ENDBRANCH   2  14
BRANCH   3  16
ATOM     16  O   UNL     1       2.681 -14.795  13.620  1.00  0.00    -0.502 OA
ATOM     17  H   UNL     1       3.338 -14.716  12.856  1.00  0.00     0.293 HD
ENDBRANCH   3  16
TORSDOF 3
ENDMDL
MODEL 4
REMARK VINA RESULT:    -4.379     12.437     14.568
REMARK INTER + INTRA:          -4.960
REMARK INTER:                  -4.967
REMARK INTRA:                   0.007
REMARK UNBOUND:                -0.069
REMARK SMILES COc1cc2ccc(=O)oc2c(O)c1O
REMARK SMILES IDX 3 1 14 2 12 3 11 4 5 5 4 6 6 7 7 8 8 9 9 10 10 11 2 12 1 13
REMARK SMILES IDX 15 14 13 16
REMARK H PARENT 15 15 13 17
REMARK Flexibility Score: inf
ROOT
ATOM      1  C   UNL     1       0.650 -25.535   3.037  1.00  0.00     0.165 A 
ATOM      2  C   UNL     1      -0.217 -25.450   4.140  1.00  0.00     0.204 A 
ATOM      3  C   UNL     1       0.289 -25.085   5.412  1.00  0.00     0.205 A 
ATOM      4  C   UNL     1       1.655 -24.812   5.562  1.00  0.00     0.184 A 
ATOM      5  C   UNL     1       2.521 -24.898   4.453  1.00  0.00     0.025 A 
ATOM      6  C   UNL     1       2.020 -25.259   3.199  1.00  0.00     0.062 A 
ATOM      7  C   UNL     1       3.880 -24.618   4.642  1.00  0.00     0.020 A 
ATOM      8  C   UNL     1       4.336 -24.263   5.910  1.00  0.00     0.094 A 
ATOM      9  C   UNL     1       3.420 -24.197   6.964  1.00  0.00     0.336 A 
ATOM     10  O   UNL     1       3.812 -23.878   8.117  1.00  0.00    -0.246 OA
ATOM     11  O   UNL     1       2.135 -24.468   6.757  1.00  0.00    -0.419 OA
ENDROOT
BRANCH   1  12
ATOM     12  O   UNL     1       0.108 -25.900   1.793  1.00  0.00    -0.493 OA
ATOM     13  C   UNL     1      -0.493 -24.993   0.875  1.00  0.00     0.278 C 
ENDBRANCH   1  12
BRANCH   2  14
ATOM     14  O   UNL     1      -1.569 -25.734   3.927  1.00  0.00    -0.502 OA
ATOM     15  H   UNL     1      -2.329 -25.261   4.392  1.00  0.00     0.293 HD
ENDBRANCH   2  14
BRANCH   3  16
ATOM     16  O   UNL     1      -0.527 -24.984   6.543  1.00  0.00    -0.502 OA
ATOM     17  H   UNL     1      -1.251 -25.645   6.782  1.00  0.00     0.293 HD
ENDBRANCH   3  16
TORSDOF 3
ENDMDL
MODEL 5
REMARK VINA RESULT:    -4.326      1.156      4.675
REMARK INTER + INTRA:          -4.901
REMARK INTER:                  -4.847
REMARK INTRA:                  -0.053
REMARK UNBOUND:                -0.069
REMARK SMILES COc1cc2ccc(=O)oc2c(O)c1O
REMARK SMILES IDX 3 1 14 2 12 3 11 4 5 5 4 6 6 7 7 8 8 9 9 10 10 11 2 12 1 13
REMARK SMILES IDX 15 14 13 16
REMARK H PARENT 15 15 13 17
REMARK Flexibility Score: inf
ROOT
ATOM      1  C   UNL     1       3.832 -16.678  15.100  1.00  0.00     0.165 A 
ATOM      2  C   UNL     1       4.546 -17.764  14.567  1.00  0.00     0.204 A 
ATOM      3  C   UNL     1       5.181 -18.689  15.433  1.00  0.00     0.205 A 
ATOM      4  C   UNL     1       5.093 -18.512  16.820  1.00  0.00     0.184 A 
ATOM      5  C   UNL     1       4.375 -17.420  17.351  1.00  0.00     0.025 A 
ATOM      6  C   UNL     1       3.749 -16.510  16.494  1.00  0.00     0.062 A 
ATOM      7  C   UNL     1       4.308 -17.277  18.742  1.00  0.00     0.020 A 
ATOM      8  C   UNL     1       4.947 -18.208  19.558  1.00  0.00     0.094 A 
ATOM      9  C   UNL     1       5.641 -19.266  18.963  1.00  0.00     0.336 A 
ATOM     10  O   UNL     1       6.225 -20.117  19.682  1.00  0.00    -0.246 OA
ATOM     11  O   UNL     1       5.688 -19.379  17.639  1.00  0.00    -0.419 OA
ENDROOT
BRANCH   1  12
ATOM     12  O   UNL     1       3.217 -15.784  14.206  1.00  0.00    -0.493 OA
ATOM     13  C   UNL     1       2.156 -14.900  14.551  1.00  0.00     0.278 C 
ENDBRANCH   1  12
BRANCH   2  14
ATOM     14  O   UNL     1       4.598 -17.887  13.175  1.00  0.00    -0.502 OA
ATOM     15  H   UNL     1       3.910 -17.503  12.545  1.00  0.00     0.293 HD
ENDBRANCH   2  14
BRANCH   3  16
ATOM     16  O   UNL     1       5.904 -19.787  14.959  1.00  0.00    -0.502 OA
ATOM     17  H   UNL     1       6.369 -19.817  14.062  1.00  0.00     0.293 HD
ENDBRANCH   3  16
TORSDOF 3
ENDMDL
MODEL 6
REMARK VINA RESULT:    -4.171      1.712      2.995
REMARK INTER + INTRA:          -4.728
REMARK INTER:                  -4.660
REMARK INTRA:                  -0.068
REMARK UNBOUND:                -0.069
REMARK SMILES COc1cc2ccc(=O)oc2c(O)c1O
REMARK SMILES IDX 3 1 14 2 12 3 11 4 5 5 4 6 6 7 7 8 8 9 9 10 10 11 2 12 1 13
REMARK SMILES IDX 15 14 13 16
REMARK H PARENT 15 15 13 17
REMARK Flexibility Score: inf
ROOT
ATOM      1  C   UNL     1       5.226 -18.471  14.536  1.00  0.00     0.165 A 
ATOM      2  C   UNL     1       5.397 -18.625  15.922  1.00  0.00     0.204 A 
ATOM      3  C   UNL     1       4.856 -17.667  16.814  1.00  0.00     0.205 A 
ATOM      4  C   UNL     1       4.152 -16.567  16.305  1.00  0.00     0.184 A 
ATOM      5  C   UNL     1       3.982 -16.416  14.913  1.00  0.00     0.025 A 
ATOM      6  C   UNL     1       4.518 -17.363  14.035  1.00  0.00     0.062 A 
ATOM      7  C   UNL     1       3.274 -15.304  14.442  1.00  0.00     0.020 A 
ATOM      8  C   UNL     1       2.757 -14.384  15.353  1.00  0.00     0.094 A 
ATOM      9  C   UNL     1       2.963 -14.598  16.720  1.00  0.00     0.336 A 
ATOM     10  O   UNL     1       2.506 -13.780  17.559  1.00  0.00    -0.246 OA
ATOM     11  O   UNL     1       3.641 -15.663  17.139  1.00  0.00    -0.419 OA
ENDROOT
BRANCH   1  12
ATOM     12  O   UNL     1       5.779 -19.445  13.685  1.00  0.00    -0.493 OA
ATOM     13  C   UNL     1       6.983 -19.280  12.945  1.00  0.00     0.278 C 
ENDBRANCH   1  12
BRANCH   2  14
ATOM     14  O   UNL     1       6.108 -19.743  16.368  1.00  0.00    -0.502 OA
ATOM     15  H   UNL     1       7.066 -19.942  16.121  1.00  0.00     0.293 HD
ENDBRANCH   2  14
BRANCH   3  16
ATOM     16  O   UNL     1       4.994 -17.769  18.201  1.00  0.00    -0.502 OA
ATOM     17  H   UNL     1       4.380 -17.323  18.867  1.00  0.00     0.293 HD
ENDBRANCH   3  16
TORSDOF 3
ENDMDL
MODEL 7
REMARK VINA RESULT:    -4.159     12.241     14.294
REMARK INTER + INTRA:          -4.715
REMARK INTER:                  -4.663
REMARK INTRA:                  -0.052
REMARK UNBOUND:                -0.069
REMARK SMILES COc1cc2ccc(=O)oc2c(O)c1O
REMARK SMILES IDX 3 1 14 2 12 3 11 4 5 5 4 6 6 7 7 8 8 9 9 10 10 11 2 12 1 13
REMARK SMILES IDX 15 14 13 16
REMARK H PARENT 15 15 13 17
REMARK Flexibility Score: inf
ROOT
ATOM      1  C   UNL     1       0.663 -25.027   4.289  1.00  0.00     0.165 A 
ATOM      2  C   UNL     1       1.164 -24.596   5.529  1.00  0.00     0.204 A 
ATOM      3  C   UNL     1       2.372 -23.858   5.587  1.00  0.00     0.205 A 
ATOM      4  C   UNL     1       3.062 -23.564   4.404  1.00  0.00     0.184 A 
ATOM      5  C   UNL     1       2.556 -23.998   3.161  1.00  0.00     0.025 A 
ATOM      6  C   UNL     1       1.363 -24.726   3.106  1.00  0.00     0.062 A 
ATOM      7  C   UNL     1       3.273 -23.685   2.000  1.00  0.00     0.020 A 
ATOM      8  C   UNL     1       4.457 -22.958   2.101  1.00  0.00     0.094 A 
ATOM      9  C   UNL     1       4.900 -22.559   3.367  1.00  0.00     0.336 A 
ATOM     10  O   UNL     1       5.967 -21.902   3.480  1.00  0.00    -0.246 OA
ATOM     11  O   UNL     1       4.199 -22.870   4.453  1.00  0.00    -0.419 OA
ENDROOT
BRANCH   1  12
ATOM     12  O   UNL     1      -0.539 -25.756   4.275  1.00  0.00    -0.493 OA
ATOM     13  C   UNL     1      -1.247 -26.124   3.096  1.00  0.00     0.278 C 
ENDBRANCH   1  12
BRANCH   2  14
ATOM     14  O   UNL     1       0.431 -24.920   6.674  1.00  0.00    -0.502 OA
ATOM     15  H   UNL     1       0.355 -25.851   7.055  1.00  0.00     0.293 HD
ENDBRANCH   2  14
BRANCH   3  16
ATOM     16  O   UNL     1       2.917 -23.403   6.792  1.00  0.00    -0.502 OA
ATOM     17  H   UNL     1       3.472 -22.564   6.883  1.00  0.00     0.293 HD
ENDBRANCH   3  16
TORSDOF 3
ENDMDL
MODEL 8
REMARK VINA RESULT:    -4.132     12.634     14.459
REMARK INTER + INTRA:          -4.684
REMARK INTER:                  -4.632
REMARK INTRA:                  -0.053
REMARK UNBOUND:                -0.069
REMARK SMILES COc1cc2ccc(=O)oc2c(O)c1O
REMARK SMILES IDX 3 1 14 2 12 3 11 4 5 5 4 6 6 7 7 8 8 9 9 10 10 11 2 12 1 13
REMARK SMILES IDX 15 14 13 16
REMARK H PARENT 15 15 13 17
REMARK Flexibility Score: inf
ROOT
ATOM      1  C   UNL     1       3.823 -23.856   4.624  1.00  0.00     0.165 A 
ATOM      2  C   UNL     1       2.857 -23.839   5.644  1.00  0.00     0.204 A 
ATOM      3  C   UNL     1       1.529 -24.254   5.370  1.00  0.00     0.205 A 
ATOM      4  C   UNL     1       1.189 -24.678   4.079  1.00  0.00     0.184 A 
ATOM      5  C   UNL     1       2.162 -24.693   3.058  1.00  0.00     0.025 A 
ATOM      6  C   UNL     1       3.470 -24.283   3.330  1.00  0.00     0.062 A 
ATOM      7  C   UNL     1       1.784 -25.123   1.780  1.00  0.00     0.020 A 
ATOM      8  C   UNL     1       0.468 -25.522   1.552  1.00  0.00     0.094 A 
ATOM      9  C   UNL     1      -0.444 -25.482   2.612  1.00  0.00     0.336 A 
ATOM     10  O   UNL     1      -1.636 -25.838   2.428  1.00  0.00    -0.246 OA
ATOM     11  O   UNL     1      -0.058 -25.069   3.816  1.00  0.00    -0.419 OA
ENDROOT
BRANCH   1  12
ATOM     12  O   UNL     1       5.127 -23.437   4.937  1.00  0.00    -0.493 OA
ATOM     13  C   UNL     1       6.259 -23.619   4.094  1.00  0.00     0.278 C 
ENDBRANCH   1  12
BRANCH   2  14
ATOM     14  O   UNL     1       3.257 -23.406   6.911  1.00  0.00    -0.502 OA
ATOM     15  H   UNL     1       2.994 -23.857   7.775  1.00  0.00     0.293 HD
ENDBRANCH   2  14
BRANCH   3  16
ATOM     16  O   UNL     1       0.528 -24.259   6.345  1.00  0.00    -0.502 OA
ATOM     17  H   UNL     1       0.004 -25.079   6.617  1.00  0.00     0.293 HD
ENDBRANCH   3  16
TORSDOF 3
ENDMDL
