MODEL 1
REMARK VINA RESULT:    -7.249      0.000      0.000
REMARK INTER + INTRA:         -12.116
REMARK INTER:                 -11.487
REMARK INTRA:                  -0.629
REMARK UNBOUND:                -0.629
REMARK SMILES CCCCCCCCCCCC(=O)[O-]
REMARK SMILES IDX 7 1 8 2 9 3 10 4 11 5 12 6 13 7 14 8 6 9 5 10 4 11 3 12 2 13
REMARK SMILES IDX 1 14
REMARK H PARENT
REMARK Flexibility Score: inf
ROOT
ATOM      1  C   UNL     1       6.398  -2.882  22.150  1.00  0.00     0.000 C 
ENDROOT
BRANCH   1   2
ATOM      2  C   UNL     1       4.898  -2.584  22.302  1.00  0.00     0.000 C 
BRANCH   2   3
ATOM      3  C   UNL     1       4.117  -2.802  20.994  1.00  0.00     0.000 C 
BRANCH   3   4
ATOM      4  C   UNL     1       3.018  -1.749  20.781  1.00  0.00     0.006 C 
BRANCH   4   5
ATOM      5  C   UNL     1       2.901  -1.302  19.318  1.00  0.00     0.053 C 
BRANCH   5   6
ATOM      6  C   UNL     1       3.436   0.086  19.153  1.00  0.00     0.041 C 
ATOM      7  O   UNL     1       2.651   1.042  18.916  1.00  0.00    -0.550 OA
ATOM      8  O   UNL     1       4.793   0.331  19.307  1.00  0.00    -0.550 OA
ENDBRANCH   5   6
ENDBRANCH   4   5
ENDBRANCH   3   4
ENDBRANCH   2   3
ENDBRANCH   1   2
BRANCH   1   9
ATOM      9  C   UNL     1       6.883  -2.754  20.697  1.00  0.00     0.000 C 
BRANCH   9  10
ATOM     10  C   UNL     1       7.338  -4.097  20.100  1.00  0.00    -0.000 C 
BRANCH  10  11
ATOM     11  C   UNL     1       7.770  -5.129  21.163  1.00  0.00    -0.000 C 
BRANCH  11  12
ATOM     12  C   UNL     1       6.867  -6.375  21.164  1.00  0.00    -0.000 C 
BRANCH  12  13
ATOM     13  C   UNL     1       7.616  -7.646  21.593  1.00  0.00    -0.003 C 
ATOM     14  C   UNL     1       6.711  -8.658  22.293  1.00  0.00     0.004 C 
ENDBRANCH  12  13
ENDBRANCH  11  12
ENDBRANCH  10  11
ENDBRANCH   9  10
ENDBRANCH   1   9
TORSDOF 10
ENDMDL
MODEL 2
REMARK VINA RESULT:    -7.227      0.689      1.268
REMARK INTER + INTRA:         -12.081
REMARK INTER:                 -11.610
REMARK INTRA:                  -0.471
REMARK UNBOUND:                -0.629
REMARK SMILES CCCCCCCCCCCC(=O)[O-]
REMARK SMILES IDX 7 1 8 2 9 3 10 4 11 5 12 6 13 7 14 8 6 9 5 10 4 11 3 12 2 13
REMARK SMILES IDX 1 14
REMARK H PARENT
REMARK Flexibility Score: inf
ROOT
ATOM      1  C   UNL     1       6.534  -2.310  21.016  1.00  0.00     0.000 C 
ENDROOT
BRANCH   1   2
ATOM      2  C   UNL     1       5.621  -2.606  22.217  1.00  0.00     0.000 C 
BRANCH   2   3
ATOM      3  C   UNL     1       4.147  -2.266  21.935  1.00  0.00     0.000 C 
BRANCH   3   4
ATOM      4  C   UNL     1       3.824  -2.238  20.433  1.00  0.00     0.006 C 
BRANCH   4   5
ATOM      5  C   UNL     1       2.825  -1.135  20.061  1.00  0.00     0.053 C 
BRANCH   5   6
ATOM      6  C   UNL     1       3.478  -0.115  19.182  1.00  0.00     0.041 C 
ATOM      7  O   UNL     1       4.681   0.205  19.370  1.00  0.00    -0.550 OA
ATOM      8  O   UNL     1       2.772   0.446  18.126  1.00  0.00    -0.550 OA
ENDBRANCH   5   6
ENDBRANCH   4   5
ENDBRANCH   3   4
ENDBRANCH   2   3
ENDBRANCH   1   2
BRANCH   1   9
ATOM      9  C   UNL     1       6.946  -3.582  20.257  1.00  0.00     0.000 C 
BRANCH   9  10
ATOM     10  C   UNL     1       7.597  -4.636  21.170  1.00  0.00    -0.000 C 
BRANCH  10  11
ATOM     11  C   UNL     1       6.928  -6.025  21.083  1.00  0.00    -0.000 C 
BRANCH  11  12
ATOM     12  C   UNL     1       7.790  -7.125  21.725  1.00  0.00    -0.000 C 
BRANCH  12  13
ATOM     13  C   UNL     1       7.229  -8.534  21.478  1.00  0.00    -0.003 C 
ATOM     14  C   UNL     1       6.532  -9.118  22.706  1.00  0.00     0.004 C 
ENDBRANCH  12  13
ENDBRANCH  11  12
ENDBRANCH  10  11
ENDBRANCH   9  10
ENDBRANCH   1   9
TORSDOF 10
ENDMDL
MODEL 3
REMARK VINA RESULT:    -7.208      4.162      7.399
REMARK INTER + INTRA:         -12.050
REMARK INTER:                 -11.520
REMARK INTRA:                  -0.530
REMARK UNBOUND:                -0.629
REMARK SMILES CCCCCCCCCCCC(=O)[O-]
REMARK SMILES IDX 7 1 8 2 9 3 10 4 11 5 12 6 13 7 14 8 6 9 5 10 4 11 3 12 2 13
REMARK SMILES IDX 1 14
REMARK H PARENT
REMARK Flexibility Score: inf
ROOT
ATOM      1  C   UNL     1       6.856  -3.074  20.600  1.00  0.00     0.000 C 
ENDROOT
BRANCH   1   2
ATOM      2  C   UNL     1       7.702  -4.354  20.690  1.00  0.00     0.000 C 
BRANCH   2   3
ATOM      3  C   UNL     1       6.883  -5.572  21.151  1.00  0.00     0.000 C 
BRANCH   3   4
ATOM      4  C   UNL     1       7.770  -6.741  21.609  1.00  0.00     0.006 C 
BRANCH   4   5
ATOM      5  C   UNL     1       7.191  -8.109  21.228  1.00  0.00     0.053 C 
BRANCH   5   6
ATOM      6  C   UNL     1       6.907  -8.916  22.456  1.00  0.00     0.041 C 
ATOM      7  O   UNL     1       6.339 -10.036  22.360  1.00  0.00    -0.550 OA
ATOM      8  O   UNL     1       7.312  -8.454  23.701  1.00  0.00    -0.550 OA
ENDBRANCH   5   6
ENDBRANCH   4   5
ENDBRANCH   3   4
ENDBRANCH   2   3
ENDBRANCH   1   2
BRANCH   1   9
ATOM      9  C   UNL     1       6.224  -2.686  21.947  1.00  0.00     0.000 C 
BRANCH   9  10
ATOM     10  C   UNL     1       4.687  -2.624  21.888  1.00  0.00    -0.000 C 
BRANCH  10  11
ATOM     11  C   UNL     1       4.126  -2.588  20.450  1.00  0.00    -0.000 C 
BRANCH  11  12
ATOM     12  C   UNL     1       2.894  -1.674  20.331  1.00  0.00    -0.000 C 
BRANCH  12  13
ATOM     13  C   UNL     1       3.117  -0.506  19.359  1.00  0.00    -0.003 C 
ATOM     14  C   UNL     1       1.832   0.258  19.046  1.00  0.00     0.004 C 
ENDBRANCH  12  13
ENDBRANCH  11  12
ENDBRANCH  10  11
ENDBRANCH   9  10
ENDBRANCH   1   9
TORSDOF 10
ENDMDL
MODEL 4
REMARK VINA RESULT:    -7.045      1.097      1.293
REMARK INTER + INTRA:         -11.793
REMARK INTER:                 -11.246
REMARK INTRA:                  -0.547
REMARK UNBOUND:                -0.629
REMARK SMILES CCCCCCCCCCCC(=O)[O-]
REMARK SMILES IDX 7 1 8 2 9 3 10 4 11 5 12 6 13 7 14 8 6 9 5 10 4 11 3 12 2 13
REMARK SMILES IDX 1 14
REMARK H PARENT
REMARK Flexibility Score: inf
ROOT
ATOM      1  C   UNL     1       5.991  -2.815  22.028  1.00  0.00     0.000 C 
ENDROOT
BRANCH   1   2
ATOM      2  C   UNL     1       4.650  -2.115  21.759  1.00  0.00     0.000 C 
BRANCH   2   3
ATOM      3  C   UNL     1       3.963  -2.625  20.480  1.00  0.00     0.000 C 
BRANCH   3   4
ATOM      4  C   UNL     1       2.856  -1.680  19.987  1.00  0.00     0.006 C 
BRANCH   4   5
ATOM      5  C   UNL     1       3.400  -0.518  19.145  1.00  0.00     0.053 C 
BRANCH   5   6
ATOM      6  C   UNL     1       2.274   0.253  18.531  1.00  0.00     0.041 C 
ATOM      7  O   UNL     1       2.436   0.840  17.428  1.00  0.00    -0.550 OA
ATOM      8  O   UNL     1       1.032   0.282  19.150  1.00  0.00    -0.550 OA
ENDBRANCH   5   6
ENDBRANCH   4   5
ENDBRANCH   3   4
ENDBRANCH   2   3
ENDBRANCH   1   2
BRANCH   1   9
ATOM      9  C   UNL     1       6.935  -2.775  20.815  1.00  0.00     0.000 C 
BRANCH   9  10
ATOM     10  C   UNL     1       7.520  -4.156  20.470  1.00  0.00    -0.000 C 
BRANCH  10  11
ATOM     11  C   UNL     1       6.767  -5.328  21.134  1.00  0.00    -0.000 C 
BRANCH  11  12
ATOM     12  C   UNL     1       7.724  -6.424  21.634  1.00  0.00    -0.000 C 
BRANCH  12  13
ATOM     13  C   UNL     1       7.289  -7.832  21.198  1.00  0.00    -0.003 C 
ATOM     14  C   UNL     1       6.824  -8.697  22.367  1.00  0.00     0.004 C 
ENDBRANCH  12  13
ENDBRANCH  11  12
ENDBRANCH  10  11
ENDBRANCH   9  10
ENDBRANCH   1   9
TORSDOF 10
ENDMDL
MODEL 5
REMARK VINA RESULT:    -6.806      3.884      7.216
REMARK INTER + INTRA:         -11.414
REMARK INTER:                 -10.884
REMARK INTRA:                  -0.530
REMARK UNBOUND:                -0.629
REMARK SMILES CCCCCCCCCCCC(=O)[O-]
REMARK SMILES IDX 7 1 8 2 9 3 10 4 11 5 12 6 13 7 14 8 6 9 5 10 4 11 3 12 2 13
REMARK SMILES IDX 1 14
REMARK H PARENT
REMARK Flexibility Score: inf
ROOT
ATOM      1  C   UNL     1       6.149  -1.939  21.482  1.00  0.00     0.000 C 
ENDROOT
BRANCH   1   2
ATOM      2  C   UNL     1       6.640  -3.344  21.867  1.00  0.00     0.000 C 
BRANCH   2   3
ATOM      3  C   UNL     1       7.274  -4.093  20.681  1.00  0.00     0.000 C 
BRANCH   3   4
ATOM      4  C   UNL     1       6.957  -5.597  20.696  1.00  0.00     0.006 C 
BRANCH   4   5
ATOM      5  C   UNL     1       7.753  -6.361  21.761  1.00  0.00     0.053 C 
BRANCH   5   6
ATOM      6  C   UNL     1       7.351  -7.802  21.781  1.00  0.00     0.041 C 
ATOM      7  O   UNL     1       7.272  -8.451  20.704  1.00  0.00    -0.550 OA
ATOM      8  O   UNL     1       7.112  -8.441  22.990  1.00  0.00    -0.550 OA
ENDBRANCH   5   6
ENDBRANCH   4   5
ENDBRANCH   3   4
ENDBRANCH   2   3
ENDBRANCH   1   2
BRANCH   1   9
ATOM      9  C   UNL     1       5.626  -1.869  20.038  1.00  0.00     0.000 C 
BRANCH   9  10
ATOM     10  C   UNL     1       4.208  -2.446  19.889  1.00  0.00    -0.000 C 
BRANCH  10  11
ATOM     11  C   UNL     1       3.118  -1.582  20.559  1.00  0.00    -0.000 C 
BRANCH  11  12
ATOM     12  C   UNL     1       2.185  -0.923  19.529  1.00  0.00    -0.000 C 
BRANCH  12  13
ATOM     13  C   UNL     1       2.778   0.363  18.932  1.00  0.00    -0.003 C 
ATOM     14  C   UNL     1       2.069   0.805  17.653  1.00  0.00     0.004 C 
ENDBRANCH  12  13
ENDBRANCH  11  12
ENDBRANCH  10  11
ENDBRANCH   9  10
ENDBRANCH   1   9
TORSDOF 10
ENDMDL
MODEL 6
REMARK VINA RESULT:    -6.508      3.744      6.761
REMARK INTER + INTRA:         -10.941
REMARK INTER:                 -10.012
REMARK INTRA:                  -0.929
REMARK UNBOUND:                -0.629
REMARK SMILES CCCCCCCCCCCC(=O)[O-]
REMARK SMILES IDX 7 1 8 2 9 3 10 4 11 5 12 6 13 7 14 8 6 9 5 10 4 11 3 12 2 13
REMARK SMILES IDX 1 14
REMARK H PARENT
REMARK Flexibility Score: inf
ROOT
ATOM      1  C   UNL     1       5.980  -2.748  22.043  1.00  0.00     0.000 C 
ENDROOT
BRANCH   1   2
ATOM      2  C   UNL     1       6.805  -2.483  20.772  1.00  0.00     0.000 C 
BRANCH   2   3
ATOM      3  C   UNL     1       7.483  -3.755  20.234  1.00  0.00     0.000 C 
BRANCH   3   4
ATOM      4  C   UNL     1       7.507  -4.894  21.266  1.00  0.00     0.006 C 
BRANCH   4   5
ATOM      5  C   UNL     1       6.870  -6.185  20.739  1.00  0.00     0.053 C 
BRANCH   5   6
ATOM      6  C   UNL     1       7.377  -7.367  21.503  1.00  0.00     0.041 C 
ATOM      7  O   UNL     1       7.270  -8.526  21.021  1.00  0.00    -0.550 OA
ATOM      8  O   UNL     1       8.011  -7.186  22.725  1.00  0.00    -0.550 OA
ENDBRANCH   5   6
ENDBRANCH   4   5
ENDBRANCH   3   4
ENDBRANCH   2   3
ENDBRANCH   1   2
BRANCH   1   9
ATOM      9  C   UNL     1       4.472  -2.547  21.823  1.00  0.00     0.000 C 
BRANCH   9  10
ATOM     10  C   UNL     1       4.063  -2.674  20.346  1.00  0.00    -0.000 C 
BRANCH  10  11
ATOM     11  C   UNL     1       2.752  -1.934  20.004  1.00  0.00    -0.000 C 
BRANCH  11  12
ATOM     12  C   UNL     1       2.996  -0.463  19.627  1.00  0.00    -0.000 C 
BRANCH  12  13
ATOM     13  C   UNL     1       4.299  -0.264  18.837  1.00  0.00    -0.003 C 
ATOM     14  C   UNL     1       5.329   0.574  19.592  1.00  0.00     0.004 C 
ENDBRANCH  12  13
ENDBRANCH  11  12
ENDBRANCH  10  11
ENDBRANCH   9  10
ENDBRANCH   1   9
TORSDOF 10
ENDMDL
MODEL 7
REMARK VINA RESULT:    -6.305      3.024      7.094
REMARK INTER + INTRA:         -10.620
REMARK INTER:                 -10.095
REMARK INTRA:                  -0.525
REMARK UNBOUND:                -0.629
REMARK SMILES CCCCCCCCCCCC(=O)[O-]
REMARK SMILES IDX 7 1 8 2 9 3 10 4 11 5 12 6 13 7 14 8 6 9 5 10 4 11 3 12 2 13
REMARK SMILES IDX 1 14
REMARK H PARENT
REMARK Flexibility Score: inf
ROOT
ATOM      1  C   UNL     1       5.248  -0.564  19.928  1.00  0.00     0.000 C 
ENDROOT
BRANCH   1   2
ATOM      2  C   UNL     1       6.150  -1.103  21.050  1.00  0.00     0.000 C 
BRANCH   2   3
ATOM      3  C   UNL     1       5.396  -2.031  22.018  1.00  0.00     0.000 C 
BRANCH   3   4
ATOM      4  C   UNL     1       5.869  -3.491  21.925  1.00  0.00     0.006 C 
BRANCH   4   5
ATOM      5  C   UNL     1       7.050  -3.671  20.963  1.00  0.00     0.053 C 
BRANCH   5   6
ATOM      6  C   UNL     1       6.887  -4.926  20.165  1.00  0.00     0.041 C 
ATOM      7  O   UNL     1       6.816  -4.872  18.909  1.00  0.00    -0.550 OA
ATOM      8  O   UNL     1       6.863  -6.158  20.804  1.00  0.00    -0.550 OA
ENDBRANCH   5   6
ENDBRANCH   4   5
ENDBRANCH   3   4
ENDBRANCH   2   3
ENDBRANCH   1   2
BRANCH   1   9
ATOM      9  C   UNL     1       4.021  -1.455  19.674  1.00  0.00     0.000 C 
BRANCH   9  10
ATOM     10  C   UNL     1       2.696  -0.763  20.038  1.00  0.00    -0.000 C 
BRANCH  10  11
ATOM     11  C   UNL     1       1.613  -0.892  18.946  1.00  0.00    -0.000 C 
BRANCH  11  12
ATOM     12  C   UNL     1       0.885   0.439  18.690  1.00  0.00    -0.000 C 
BRANCH  12  13
ATOM     13  C   UNL     1       1.587   1.302  17.631  1.00  0.00    -0.003 C 
ATOM     14  C   UNL     1       1.168   2.770  17.689  1.00  0.00     0.004 C 
ENDBRANCH  12  13
ENDBRANCH  11  12
ENDBRANCH  10  11
ENDBRANCH   9  10
ENDBRANCH   1   9
TORSDOF 10
ENDMDL
MODEL 8
REMARK VINA RESULT:    -6.141      1.820      2.587
REMARK INTER + INTRA:         -10.361
REMARK INTER:                  -9.698
REMARK INTRA:                  -0.662
REMARK UNBOUND:                -0.629
REMARK SMILES CCCCCCCCCCCC(=O)[O-]
REMARK SMILES IDX 7 1 8 2 9 3 10 4 11 5 12 6 13 7 14 8 6 9 5 10 4 11 3 12 2 13
REMARK SMILES IDX 1 14
REMARK H PARENT
REMARK Flexibility Score: inf
ROOT
ATOM      1  C   UNL     1       6.097  -0.680  20.865  1.00  0.00     0.000 C 
ENDROOT
BRANCH   1   2
ATOM      2  C   UNL     1       5.784   0.458  19.880  1.00  0.00     0.000 C 
BRANCH   2   3
ATOM      3  C   UNL     1       4.683   0.081  18.873  1.00  0.00     0.000 C 
BRANCH   3   4
ATOM      4  C   UNL     1       3.294  -0.014  19.526  1.00  0.00     0.006 C 
BRANCH   4   5
ATOM      5  C   UNL     1       2.599  -1.353  19.246  1.00  0.00     0.053 C 
BRANCH   5   6
ATOM      6  C   UNL     1       3.121  -2.413  20.164  1.00  0.00     0.041 C 
ATOM      7  O   UNL     1       3.585  -3.485  19.694  1.00  0.00    -0.550 OA
ATOM      8  O   UNL     1       3.139  -2.198  21.536  1.00  0.00    -0.550 OA
ENDBRANCH   5   6
ENDBRANCH   4   5
ENDBRANCH   3   4
ENDBRANCH   2   3
ENDBRANCH   1   2
BRANCH   1   9
ATOM      9  C   UNL     1       6.656  -1.931  20.167  1.00  0.00     0.000 C 
BRANCH   9  10
ATOM     10  C   UNL     1       6.842  -3.117  21.128  1.00  0.00    -0.000 C 
BRANCH  10  11
ATOM     11  C   UNL     1       7.193  -4.440  20.415  1.00  0.00    -0.000 C 
BRANCH  11  12
ATOM     12  C   UNL     1       7.753  -5.493  21.386  1.00  0.00    -0.000 C 
BRANCH  12  13
ATOM     13  C   UNL     1       6.850  -6.731  21.499  1.00  0.00    -0.003 C 
ATOM     14  C   UNL     1       7.611  -8.040  21.295  1.00  0.00     0.004 C 
ENDBRANCH  12  13
ENDBRANCH  11  12
ENDBRANCH  10  11
ENDBRANCH   9  10
ENDBRANCH   1   9
TORSDOF 10
ENDMDL
MODEL 9
REMARK VINA RESULT:    -5.653      3.805      6.119
REMARK INTER + INTRA:          -9.587
REMARK INTER:                  -9.068
REMARK INTRA:                  -0.519
REMARK UNBOUND:                -0.629
REMARK SMILES CCCCCCCCCCCC(=O)[O-]
REMARK SMILES IDX 7 1 8 2 9 3 10 4 11 5 12 6 13 7 14 8 6 9 5 10 4 11 3 12 2 13
REMARK SMILES IDX 1 14
REMARK H PARENT
REMARK Flexibility Score: inf
ROOT
ATOM      1  C   UNL     1       2.827   0.484  18.755  1.00  0.00     0.000 C 
ENDROOT
BRANCH   1   2
ATOM      2  C   UNL     1       1.988   1.083  17.615  1.00  0.00     0.000 C 
BRANCH   2   3
ATOM      3  C   UNL     1       0.896   2.039  18.125  1.00  0.00     0.000 C 
BRANCH   3   4
ATOM      4  C   UNL     1       0.876   3.374  17.363  1.00  0.00     0.006 C 
BRANCH   4   5
ATOM      5  C   UNL     1       1.989   4.329  17.813  1.00  0.00     0.053 C 
BRANCH   5   6
ATOM      6  C   UNL     1       1.634   5.742  17.471  1.00  0.00     0.041 C 
ATOM      7  O   UNL     1       1.106   6.489  18.337  1.00  0.00    -0.550 OA
ATOM      8  O   UNL     1       1.930   6.248  16.213  1.00  0.00    -0.550 OA
ENDBRANCH   5   6
ENDBRANCH   4   5
ENDBRANCH   3   4
ENDBRANCH   2   3
ENDBRANCH   1   2
BRANCH   1   9
ATOM      9  C   UNL     1       2.063  -0.584  19.555  1.00  0.00     0.000 C 
BRANCH   9  10
ATOM     10  C   UNL     1       2.821  -1.920  19.640  1.00  0.00    -0.000 C 
BRANCH  10  11
ATOM     11  C   UNL     1       3.531  -2.140  20.994  1.00  0.00    -0.000 C 
BRANCH  11  12
ATOM     12  C   UNL     1       4.918  -2.784  20.824  1.00  0.00    -0.000 C 
BRANCH  12  13
ATOM     13  C   UNL     1       6.049  -1.904  21.377  1.00  0.00    -0.003 C 
ATOM     14  C   UNL     1       6.195  -0.583  20.624  1.00  0.00     0.004 C 
ENDBRANCH  12  13
ENDBRANCH  11  12
ENDBRANCH  10  11
ENDBRANCH   9  10
ENDBRANCH   1   9
TORSDOF 10
ENDMDL
