MODEL 1
REMARK VINA RESULT:    -3.837      0.000      0.000
REMARK INTER + INTRA:         -10.180
REMARK INTER:                  -7.202
REMARK INTRA:                  -2.978
REMARK UNBOUND:                -2.978
REMARK SMILES CCCCCCCCC=CCCCCCCCC(=O)[O-]
REMARK SMILES IDX 10 1 9 2 11 3 12 4 13 5 14 6 15 7 16 8 17 9 18 10 19 11
REMARK SMILES IDX 20 12 8 13 7 14 6 15 5 16 4 17 3 18 2 19 1 20
REMARK H PARENT
REMARK Flexibility Score: inf
ROOT
ATOM      1  C   UNL     1      48.397  -2.723  75.564  1.00  0.00    -0.031 C 
ATOM      2  C   UNL     1      48.004  -1.637  74.872  1.00  0.00    -0.031 C 
ENDROOT
BRANCH   1   3
ATOM      3  C   UNL     1      49.831  -3.052  75.894  1.00  0.00     0.027 C 
BRANCH   3   4
ATOM      4  C   UNL     1      50.006  -4.563  76.105  1.00  0.00     0.004 C 
BRANCH   4   5
ATOM      5  C   UNL     1      50.836  -4.896  77.357  1.00  0.00     0.000 C 
BRANCH   5   6
ATOM      6  C   UNL     1      50.059  -4.837  78.689  1.00  0.00     0.000 C 
BRANCH   6   7
ATOM      7  C   UNL     1      48.594  -5.304  78.613  1.00  0.00     0.000 C 
BRANCH   7   8
ATOM      8  C   UNL     1      47.599  -4.223  79.071  1.00  0.00     0.006 C 
BRANCH   8   9
ATOM      9  C   UNL     1      48.310  -2.964  79.585  1.00  0.00     0.053 C 
BRANCH   9  10
ATOM     10  C   UNL     1      47.777  -1.721  78.940  1.00  0.00     0.041 C 
ATOM     11  O   UNL     1      46.537  -1.573  78.779  1.00  0.00    -0.550 OA
ATOM     12  O   UNL     1      48.648  -0.715  78.545  1.00  0.00    -0.550 OA
ENDBRANCH   9  10
ENDBRANCH   8   9
ENDBRANCH   7   8
ENDBRANCH   6   7
ENDBRANCH   5   6
ENDBRANCH   4   5
ENDBRANCH   3   4
ENDBRANCH   1   3
BRANCH   2  13
ATOM     13  C   UNL     1      48.940  -0.634  74.249  1.00  0.00     0.027 C 
BRANCH  13  14
ATOM     14  C   UNL     1      48.521  -0.322  72.807  1.00  0.00     0.004 C 
BRANCH  14  15
ATOM     15  C   UNL     1      49.365  -1.124  71.805  1.00  0.00     0.000 C 
BRANCH  15  16
ATOM     16  C   UNL     1      50.764  -1.459  72.344  1.00  0.00     0.000 C 
BRANCH  16  17
ATOM     17  C   UNL     1      51.027  -2.975  72.411  1.00  0.00    -0.000 C 
BRANCH  17  18
ATOM     18  C   UNL     1      49.939  -3.788  71.676  1.00  0.00    -0.000 C 
BRANCH  18  19
ATOM     19  C   UNL     1      49.205  -4.790  72.582  1.00  0.00    -0.003 C 
ATOM     20  C   UNL     1      47.685  -4.698  72.467  1.00  0.00     0.004 C 
ENDBRANCH  18  19
ENDBRANCH  17  18
ENDBRANCH  16  17
ENDBRANCH  15  16
ENDBRANCH  14  15
ENDBRANCH  13  14
ENDBRANCH   2  13
TORSDOF 15
ENDMDL
MODEL 2
REMARK VINA RESULT:    -3.829      1.700      5.564
REMARK INTER + INTRA:         -10.164
REMARK INTER:                  -7.569
REMARK INTRA:                  -2.595
REMARK UNBOUND:                -2.978
REMARK SMILES CCCCCCCCC=CCCCCCCCC(=O)[O-]
REMARK SMILES IDX 10 1 9 2 11 3 12 4 13 5 14 6 15 7 16 8 17 9 18 10 19 11
REMARK SMILES IDX 20 12 8 13 7 14 6 15 5 16 4 17 3 18 2 19 1 20
REMARK H PARENT
REMARK Flexibility Score: inf
ROOT
ATOM      1  C   UNL     1      50.864  -3.936  72.361  1.00  0.00    -0.031 C 
ATOM      2  C   UNL     1      49.629  -4.349  72.021  1.00  0.00    -0.031 C 
ENDROOT
BRANCH   1   3
ATOM      3  C   UNL     1      51.171  -3.021  73.520  1.00  0.00     0.027 C 
BRANCH   3   4
ATOM      4  C   UNL     1      52.258  -2.006  73.137  1.00  0.00     0.004 C 
BRANCH   4   5
ATOM      5  C   UNL     1      51.829  -1.081  71.986  1.00  0.00     0.000 C 
BRANCH   5   6
ATOM      6  C   UNL     1      50.645  -0.146  72.306  1.00  0.00     0.000 C 
BRANCH   6   7
ATOM      7  C   UNL     1      49.324  -0.498  71.599  1.00  0.00     0.000 C 
BRANCH   7   8
ATOM      8  C   UNL     1      48.089  -0.236  72.479  1.00  0.00     0.006 C 
BRANCH   8   9
ATOM      9  C   UNL     1      48.367  -0.511  73.962  1.00  0.00     0.053 C 
BRANCH   9  10
ATOM     10  C   UNL     1      47.416   0.227  74.853  1.00  0.00     0.041 C 
ATOM     11  O   UNL     1      47.101   1.419  74.595  1.00  0.00    -0.550 OA
ATOM     12  O   UNL     1      46.856  -0.410  75.953  1.00  0.00    -0.550 OA
ENDBRANCH   9  10
ENDBRANCH   8   9
ENDBRANCH   7   8
ENDBRANCH   6   7
ENDBRANCH   5   6
ENDBRANCH   4   5
ENDBRANCH   3   4
ENDBRANCH   1   3
BRANCH   2  13
ATOM     13  C   UNL     1      48.359  -3.891  72.692  1.00  0.00     0.027 C 
BRANCH  13  14
ATOM     14  C   UNL     1      48.002  -4.812  73.865  1.00  0.00     0.004 C 
BRANCH  14  15
ATOM     15  C   UNL     1      47.420  -4.007  75.036  1.00  0.00     0.000 C 
BRANCH  15  16
ATOM     16  C   UNL     1      48.485  -3.610  76.070  1.00  0.00     0.000 C 
BRANCH  16  17
ATOM     17  C   UNL     1      49.444  -4.765  76.408  1.00  0.00    -0.000 C 
BRANCH  17  18
ATOM     18  C   UNL     1      49.431  -5.111  77.913  1.00  0.00    -0.000 C 
BRANCH  18  19
ATOM     19  C   UNL     1      48.023  -5.376  78.470  1.00  0.00    -0.003 C 
ATOM     20  C   UNL     1      47.636  -6.852  78.443  1.00  0.00     0.004 C 
ENDBRANCH  18  19
ENDBRANCH  17  18
ENDBRANCH  16  17
ENDBRANCH  15  16
ENDBRANCH  14  15
ENDBRANCH  13  14
ENDBRANCH   2  13
TORSDOF 15
ENDMDL
MODEL 3
REMARK VINA RESULT:    -3.822      2.869      4.301
REMARK INTER + INTRA:         -10.152
REMARK INTER:                  -7.794
REMARK INTRA:                  -2.359
REMARK UNBOUND:                -2.978
REMARK SMILES CCCCCCCCC=CCCCCCCCC(=O)[O-]
REMARK SMILES IDX 10 1 9 2 11 3 12 4 13 5 14 6 15 7 16 8 17 9 18 10 19 11
REMARK SMILES IDX 20 12 8 13 7 14 6 15 5 16 4 17 3 18 2 19 1 20
REMARK H PARENT
REMARK Flexibility Score: inf
ROOT
ATOM      1  C   UNL     1      46.941  -4.218  75.037  1.00  0.00    -0.031 C 
ATOM      2  C   UNL     1      46.866  -4.958  73.914  1.00  0.00    -0.031 C 
ENDROOT
BRANCH   1   3
ATOM      3  C   UNL     1      47.671  -2.904  75.146  1.00  0.00     0.027 C 
BRANCH   3   4
ATOM      4  C   UNL     1      48.581  -2.889  76.383  1.00  0.00     0.004 C 
BRANCH   4   5
ATOM      5  C   UNL     1      49.224  -4.258  76.665  1.00  0.00     0.000 C 
BRANCH   5   6
ATOM      6  C   UNL     1      49.329  -4.634  78.157  1.00  0.00     0.000 C 
BRANCH   6   7
ATOM      7  C   UNL     1      48.299  -5.668  78.645  1.00  0.00     0.000 C 
BRANCH   7   8
ATOM      8  C   UNL     1      48.121  -6.841  77.665  1.00  0.00     0.006 C 
BRANCH   8   9
ATOM      9  C   UNL     1      47.013  -7.803  78.110  1.00  0.00     0.053 C 
BRANCH   9  10
ATOM     10  C   UNL     1      46.430  -8.555  76.953  1.00  0.00     0.041 C 
ATOM     11  O   UNL     1      46.844  -9.711  76.675  1.00  0.00    -0.550 OA
ATOM     12  O   UNL     1      45.409  -7.990  76.201  1.00  0.00    -0.550 OA
ENDBRANCH   9  10
ENDBRANCH   8   9
ENDBRANCH   7   8
ENDBRANCH   6   7
ENDBRANCH   5   6
ENDBRANCH   4   5
ENDBRANCH   3   4
ENDBRANCH   1   3
BRANCH   2  13
ATOM     13  C   UNL     1      47.570  -4.628  72.623  1.00  0.00     0.027 C 
BRANCH  13  14
ATOM     14  C   UNL     1      49.035  -5.077  72.674  1.00  0.00     0.004 C 
BRANCH  14  15
ATOM     15  C   UNL     1      49.952  -4.031  72.025  1.00  0.00     0.000 C 
BRANCH  15  16
ATOM     16  C   UNL     1      50.721  -3.193  73.059  1.00  0.00     0.000 C 
BRANCH  16  17
ATOM     17  C   UNL     1      50.445  -1.685  72.925  1.00  0.00    -0.000 C 
BRANCH  17  18
ATOM     18  C   UNL     1      49.568  -1.360  71.697  1.00  0.00    -0.000 C 
BRANCH  18  19
ATOM     19  C   UNL     1      48.180  -0.808  72.061  1.00  0.00    -0.003 C 
ATOM     20  C   UNL     1      48.242   0.512  72.826  1.00  0.00     0.004 C 
ENDBRANCH  18  19
ENDBRANCH  17  18
ENDBRANCH  16  17
ENDBRANCH  15  16
ENDBRANCH  14  15
ENDBRANCH  13  14
ENDBRANCH   2  13
TORSDOF 15
ENDMDL
MODEL 4
REMARK VINA RESULT:    -3.811      2.660      5.156
REMARK INTER + INTRA:         -10.130
REMARK INTER:                  -7.336
REMARK INTRA:                  -2.794
REMARK UNBOUND:                -2.978
REMARK SMILES CCCCCCCCC=CCCCCCCCC(=O)[O-]
REMARK SMILES IDX 10 1 9 2 11 3 12 4 13 5 14 6 15 7 16 8 17 9 18 10 19 11
REMARK SMILES IDX 20 12 8 13 7 14 6 15 5 16 4 17 3 18 2 19 1 20
REMARK H PARENT
REMARK Flexibility Score: inf
ROOT
ATOM      1  C   UNL     1      49.368  -0.939  71.613  1.00  0.00    -0.031 C 
ATOM      2  C   UNL     1      48.377  -0.135  72.043  1.00  0.00    -0.031 C 
ENDROOT
BRANCH   1   3
ATOM      3  C   UNL     1      50.720  -1.053  72.269  1.00  0.00     0.027 C 
BRANCH   3   4
ATOM      4  C   UNL     1      51.060  -2.522  72.562  1.00  0.00     0.004 C 
BRANCH   4   5
ATOM      5  C   UNL     1      50.126  -3.504  71.834  1.00  0.00     0.000 C 
BRANCH   5   6
ATOM      6  C   UNL     1      49.281  -4.406  72.757  1.00  0.00     0.000 C 
BRANCH   6   7
ATOM      7  C   UNL     1      47.778  -4.076  72.796  1.00  0.00     0.000 C 
BRANCH   7   8
ATOM      8  C   UNL     1      46.899  -5.320  73.015  1.00  0.00     0.006 C 
BRANCH   8   9
ATOM      9  C   UNL     1      46.012  -5.189  74.260  1.00  0.00     0.053 C 
BRANCH   9  10
ATOM     10  C   UNL     1      45.389  -6.497  74.640  1.00  0.00     0.041 C 
ATOM     11  O   UNL     1      45.862  -7.173  75.591  1.00  0.00    -0.550 OA
ATOM     12  O   UNL     1      44.267  -6.956  73.961  1.00  0.00    -0.550 OA
ENDBRANCH   9  10
ENDBRANCH   8   9
ENDBRANCH   7   8
ENDBRANCH   6   7
ENDBRANCH   5   6
ENDBRANCH   4   5
ENDBRANCH   3   4
ENDBRANCH   1   3
BRANCH   2  13
ATOM     13  C   UNL     1      48.499   0.835  73.190  1.00  0.00     0.027 C 
BRANCH  13  14
ATOM     14  C   UNL     1      47.491   0.498  74.295  1.00  0.00     0.004 C 
BRANCH  14  15
ATOM     15  C   UNL     1      47.771  -0.891  74.887  1.00  0.00     0.000 C 
BRANCH  15  16
ATOM     16  C   UNL     1      49.076  -0.939  75.695  1.00  0.00     0.000 C 
BRANCH  16  17
ATOM     17  C   UNL     1      49.611  -2.371  75.876  1.00  0.00    -0.000 C 
BRANCH  17  18
ATOM     18  C   UNL     1      48.515  -3.345  76.359  1.00  0.00    -0.000 C 
BRANCH  18  19
ATOM     19  C   UNL     1      49.004  -4.796  76.507  1.00  0.00    -0.003 C 
ATOM     20  C   UNL     1      48.327  -5.541  77.655  1.00  0.00     0.004 C 
ENDBRANCH  18  19
ENDBRANCH  17  18
ENDBRANCH  16  17
ENDBRANCH  15  16
ENDBRANCH  14  15
ENDBRANCH  13  14
ENDBRANCH   2  13
TORSDOF 15
ENDMDL
MODEL 5
REMARK VINA RESULT:    -3.783      3.255      5.852
REMARK INTER + INTRA:         -10.079
REMARK INTER:                  -7.803
REMARK INTRA:                  -2.276
REMARK UNBOUND:                -2.978
REMARK SMILES CCCCCCCCC=CCCCCCCCC(=O)[O-]
REMARK SMILES IDX 10 1 9 2 11 3 12 4 13 5 14 6 15 7 16 8 17 9 18 10 19 11
REMARK SMILES IDX 20 12 8 13 7 14 6 15 5 16 4 17 3 18 2 19 1 20
REMARK H PARENT
REMARK Flexibility Score: inf
ROOT
ATOM      1  C   UNL     1      48.081   0.704  74.888  1.00  0.00    -0.031 C 
ATOM      2  C   UNL     1      48.257  -0.221  75.851  1.00  0.00    -0.031 C 
ENDROOT
BRANCH   1   3
ATOM      3  C   UNL     1      48.928   0.815  73.646  1.00  0.00     0.027 C 
BRANCH   3   4
ATOM      4  C   UNL     1      48.238   0.133  72.456  1.00  0.00     0.004 C 
BRANCH   4   5
ATOM      5  C   UNL     1      49.210  -0.702  71.605  1.00  0.00     0.000 C 
BRANCH   5   6
ATOM      6  C   UNL     1      50.370  -1.352  72.387  1.00  0.00     0.000 C 
BRANCH   6   7
ATOM      7  C   UNL     1      51.774  -0.842  72.018  1.00  0.00     0.000 C 
BRANCH   7   8
ATOM      8  C   UNL     1      52.889  -1.828  72.410  1.00  0.00     0.006 C 
BRANCH   8   9
ATOM      9  C   UNL     1      52.337  -3.220  72.743  1.00  0.00     0.053 C 
BRANCH   9  10
ATOM     10  C   UNL     1      53.282  -4.002  73.605  1.00  0.00     0.041 C 
ATOM     11  O   UNL     1      54.518  -3.765  73.566  1.00  0.00    -0.550 OA
ATOM     12  O   UNL     1      52.794  -4.971  74.471  1.00  0.00    -0.550 OA
ENDBRANCH   9  10
ENDBRANCH   8   9
ENDBRANCH   7   8
ENDBRANCH   6   7
ENDBRANCH   5   6
ENDBRANCH   4   5
ENDBRANCH   3   4
ENDBRANCH   1   3
BRANCH   2  13
ATOM     13  C   UNL     1      49.378  -1.228  75.875  1.00  0.00     0.027 C 
BRANCH  13  14
ATOM     14  C   UNL     1      48.834  -2.639  76.131  1.00  0.00     0.004 C 
BRANCH  14  15
ATOM     15  C   UNL     1      48.968  -3.514  74.876  1.00  0.00     0.000 C 
BRANCH  15  16
ATOM     16  C   UNL     1      47.635  -3.697  74.136  1.00  0.00     0.000 C 
BRANCH  16  17
ATOM     17  C   UNL     1      47.823  -4.064  72.653  1.00  0.00    -0.000 C 
BRANCH  17  18
ATOM     18  C   UNL     1      48.701  -5.321  72.470  1.00  0.00    -0.000 C 
BRANCH  18  19
ATOM     19  C   UNL     1      47.898  -6.632  72.442  1.00  0.00    -0.003 C 
ATOM     20  C   UNL     1      46.439  -6.432  72.040  1.00  0.00     0.004 C 
ENDBRANCH  18  19
ENDBRANCH  17  18
ENDBRANCH  16  17
ENDBRANCH  15  16
ENDBRANCH  14  15
ENDBRANCH  13  14
ENDBRANCH   2  13
TORSDOF 15
ENDMDL
MODEL 6
REMARK VINA RESULT:    -3.760      3.195      6.884
REMARK INTER + INTRA:         -10.034
REMARK INTER:                  -8.282
REMARK INTRA:                  -1.752
REMARK UNBOUND:                -2.978
REMARK SMILES CCCCCCCCC=CCCCCCCCC(=O)[O-]
REMARK SMILES IDX 10 1 9 2 11 3 12 4 13 5 14 6 15 7 16 8 17 9 18 10 19 11
REMARK SMILES IDX 20 12 8 13 7 14 6 15 5 16 4 17 3 18 2 19 1 20
REMARK H PARENT
REMARK Flexibility Score: inf
ROOT
ATOM      1  C   UNL     1      48.250   0.295  75.004  1.00  0.00    -0.031 C 
ATOM      2  C   UNL     1      48.489  -0.735  75.837  1.00  0.00    -0.031 C 
ENDROOT
BRANCH   1   3
ATOM      3  C   UNL     1      48.984   0.535  73.709  1.00  0.00     0.027 C 
BRANCH   3   4
ATOM      4  C   UNL     1      48.184  -0.015  72.520  1.00  0.00     0.004 C 
BRANCH   4   5
ATOM      5  C   UNL     1      49.044  -0.860  71.565  1.00  0.00     0.000 C 
BRANCH   5   6
ATOM      6  C   UNL     1      49.441  -2.251  72.101  1.00  0.00     0.000 C 
BRANCH   6   7
ATOM      7  C   UNL     1      50.940  -2.586  72.003  1.00  0.00     0.000 C 
BRANCH   7   8
ATOM      8  C   UNL     1      51.832  -1.532  72.682  1.00  0.00     0.006 C 
BRANCH   8   9
ATOM      9  C   UNL     1      53.108  -1.251  71.877  1.00  0.00     0.053 C 
BRANCH   9  10
ATOM     10  C   UNL     1      53.107   0.132  71.300  1.00  0.00     0.041 C 
ATOM     11  O   UNL     1      52.051   0.817  71.295  1.00  0.00    -0.550 OA
ATOM     12  O   UNL     1      54.281   0.674  70.794  1.00  0.00    -0.550 OA
ENDBRANCH   9  10
ENDBRANCH   8   9
ENDBRANCH   7   8
ENDBRANCH   6   7
ENDBRANCH   5   6
ENDBRANCH   4   5
ENDBRANCH   3   4
ENDBRANCH   1   3
BRANCH   2  13
ATOM     13  C   UNL     1      49.584  -1.753  75.647  1.00  0.00     0.027 C 
BRANCH  13  14
ATOM     14  C   UNL     1      49.492  -2.854  76.710  1.00  0.00     0.004 C 
BRANCH  14  15
ATOM     15  C   UNL     1      48.028  -3.201  77.016  1.00  0.00     0.000 C 
BRANCH  15  16
ATOM     16  C   UNL     1      47.874  -4.066  78.276  1.00  0.00     0.000 C 
BRANCH  16  17
ATOM     17  C   UNL     1      49.175  -4.795  78.658  1.00  0.00    -0.000 C 
BRANCH  17  18
ATOM     18  C   UNL     1      49.100  -6.310  78.373  1.00  0.00    -0.000 C 
BRANCH  18  19
ATOM     19  C   UNL     1      50.410  -6.897  77.822  1.00  0.00    -0.003 C 
ATOM     20  C   UNL     1      51.654  -6.204  78.372  1.00  0.00     0.004 C 
ENDBRANCH  18  19
ENDBRANCH  17  18
ENDBRANCH  16  17
ENDBRANCH  15  16
ENDBRANCH  14  15
ENDBRANCH  13  14
ENDBRANCH   2  13
TORSDOF 15
ENDMDL
MODEL 7
REMARK VINA RESULT:    -3.757      3.341      6.831
REMARK INTER + INTRA:         -10.029
REMARK INTER:                  -7.872
REMARK INTRA:                  -2.157
REMARK UNBOUND:                -2.978
REMARK SMILES CCCCCCCCC=CCCCCCCCC(=O)[O-]
REMARK SMILES IDX 10 1 9 2 11 3 12 4 13 5 14 6 15 7 16 8 17 9 18 10 19 11
REMARK SMILES IDX 20 12 8 13 7 14 6 15 5 16 4 17 3 18 2 19 1 20
REMARK H PARENT
REMARK Flexibility Score: inf
ROOT
ATOM      1  C   UNL     1      48.826  -5.036  74.935  1.00  0.00    -0.031 C 
ATOM      2  C   UNL     1      49.892  -4.766  75.711  1.00  0.00    -0.031 C 
ENDROOT
BRANCH   1   3
ATOM      3  C   UNL     1      47.858  -4.001  74.422  1.00  0.00     0.027 C 
BRANCH   3   4
ATOM      4  C   UNL     1      47.899  -3.931  72.888  1.00  0.00     0.004 C 
BRANCH   4   5
ATOM      5  C   UNL     1      49.094  -4.694  72.290  1.00  0.00     0.000 C 
BRANCH   5   6
ATOM      6  C   UNL     1      50.169  -3.807  71.629  1.00  0.00     0.000 C 
BRANCH   6   7
ATOM      7  C   UNL     1      50.388  -2.437  72.296  1.00  0.00     0.000 C 
BRANCH   7   8
ATOM      8  C   UNL     1      51.852  -2.201  72.706  1.00  0.00     0.006 C 
BRANCH   8   9
ATOM      9  C   UNL     1      52.486  -3.450  73.333  1.00  0.00     0.053 C 
BRANCH   9  10
ATOM     10  C   UNL     1      53.897  -3.649  72.872  1.00  0.00     0.041 C 
ATOM     11  O   UNL     1      54.747  -4.172  73.641  1.00  0.00    -0.550 OA
ATOM     12  O   UNL     1      54.266  -3.285  71.584  1.00  0.00    -0.550 OA
ENDBRANCH   9  10
ENDBRANCH   8   9
ENDBRANCH   7   8
ENDBRANCH   6   7
ENDBRANCH   5   6
ENDBRANCH   4   5
ENDBRANCH   3   4
ENDBRANCH   1   3
BRANCH   2  13
ATOM     13  C   UNL     1      50.229  -3.402  76.257  1.00  0.00     0.027 C 
BRANCH  13  14
ATOM     14  C   UNL     1      49.529  -3.167  77.601  1.00  0.00     0.004 C 
BRANCH  14  15
ATOM     15  C   UNL     1      49.367  -4.485  78.373  1.00  0.00     0.000 C 
BRANCH  15  16
ATOM     16  C   UNL     1      47.900  -4.805  78.696  1.00  0.00     0.000 C 
BRANCH  16  17
ATOM     17  C   UNL     1      47.592  -6.312  78.625  1.00  0.00    -0.000 C 
BRANCH  17  18
ATOM     18  C   UNL     1      48.836  -7.144  78.245  1.00  0.00    -0.000 C 
BRANCH  18  19
ATOM     19  C   UNL     1      48.499  -8.555  77.735  1.00  0.00    -0.003 C 
ATOM     20  C   UNL     1      47.387  -9.230  78.534  1.00  0.00     0.004 C 
ENDBRANCH  18  19
ENDBRANCH  17  18
ENDBRANCH  16  17
ENDBRANCH  15  16
ENDBRANCH  14  15
ENDBRANCH  13  14
ENDBRANCH   2  13
TORSDOF 15
ENDMDL
MODEL 8
REMARK VINA RESULT:    -3.718      2.119      3.610
REMARK INTER + INTRA:          -9.956
REMARK INTER:                  -7.171
REMARK INTRA:                  -2.785
REMARK UNBOUND:                -2.978
REMARK SMILES CCCCCCCCC=CCCCCCCCC(=O)[O-]
REMARK SMILES IDX 10 1 9 2 11 3 12 4 13 5 14 6 15 7 16 8 17 9 18 10 19 11
REMARK SMILES IDX 20 12 8 13 7 14 6 15 5 16 4 17 3 18 2 19 1 20
REMARK H PARENT
REMARK Flexibility Score: inf
ROOT
ATOM      1  C   UNL     1      48.603  -3.394  75.513  1.00  0.00    -0.031 C 
ATOM      2  C   UNL     1      48.257  -4.502  74.831  1.00  0.00    -0.031 C 
ENDROOT
BRANCH   1   3
ATOM      3  C   UNL     1      47.897  -2.066  75.402  1.00  0.00     0.027 C 
BRANCH   3   4
ATOM      4  C   UNL     1      48.679  -0.972  76.143  1.00  0.00     0.004 C 
BRANCH   4   5
ATOM      5  C   UNL     1      49.638  -1.540  77.203  1.00  0.00     0.000 C 
BRANCH   5   6
ATOM      6  C   UNL     1      49.184  -1.346  78.665  1.00  0.00     0.000 C 
BRANCH   6   7
ATOM      7  C   UNL     1      48.466  -2.554  79.292  1.00  0.00     0.000 C 
BRANCH   7   8
ATOM      8  C   UNL     1      49.235  -3.872  79.098  1.00  0.00     0.006 C 
BRANCH   8   9
ATOM      9  C   UNL     1      48.306  -5.034  78.722  1.00  0.00     0.053 C 
BRANCH   9  10
ATOM     10  C   UNL     1      49.068  -6.203  78.179  1.00  0.00     0.041 C 
ATOM     11  O   UNL     1      48.644  -7.375  78.359  1.00  0.00    -0.550 OA
ATOM     12  O   UNL     1      50.231  -5.997  77.449  1.00  0.00    -0.550 OA
ENDBRANCH   9  10
ENDBRANCH   8   9
ENDBRANCH   7   8
ENDBRANCH   6   7
ENDBRANCH   5   6
ENDBRANCH   4   5
ENDBRANCH   3   4
ENDBRANCH   1   3
BRANCH   2  13
ATOM     13  C   UNL     1      47.167  -4.560  73.791  1.00  0.00     0.027 C 
BRANCH  13  14
ATOM     14  C   UNL     1      47.757  -4.446  72.380  1.00  0.00     0.004 C 
BRANCH  14  15
ATOM     15  C   UNL     1      49.246  -4.821  72.376  1.00  0.00     0.000 C 
BRANCH  15  16
ATOM     16  C   UNL     1      50.117  -3.783  71.653  1.00  0.00     0.000 C 
BRANCH  16  17
ATOM     17  C   UNL     1      50.940  -2.918  72.625  1.00  0.00    -0.000 C 
BRANCH  17  18
ATOM     18  C   UNL     1      50.377  -1.486  72.751  1.00  0.00    -0.000 C 
BRANCH  18  19
ATOM     19  C   UNL     1      49.281  -1.164  71.722  1.00  0.00    -0.003 C 
ATOM     20  C   UNL     1      48.258  -0.153  72.233  1.00  0.00     0.004 C 
ENDBRANCH  18  19
ENDBRANCH  17  18
ENDBRANCH  16  17
ENDBRANCH  15  16
ENDBRANCH  14  15
ENDBRANCH  13  14
ENDBRANCH   2  13
TORSDOF 15
ENDMDL
MODEL 9
REMARK VINA RESULT:    -3.716      1.189      2.252
REMARK INTER + INTRA:          -9.952
REMARK INTER:                  -7.316
REMARK INTRA:                  -2.636
REMARK UNBOUND:                -2.978
REMARK SMILES CCCCCCCCC=CCCCCCCCC(=O)[O-]
REMARK SMILES IDX 10 1 9 2 11 3 12 4 13 5 14 6 15 7 16 8 17 9 18 10 19 11
REMARK SMILES IDX 20 12 8 13 7 14 6 15 5 16 4 17 3 18 2 19 1 20
REMARK H PARENT
REMARK Flexibility Score: inf
ROOT
ATOM      1  C   UNL     1      48.015  -0.266  74.237  1.00  0.00    -0.031 C 
ATOM      2  C   UNL     1      48.573   0.349  73.178  1.00  0.00    -0.031 C 
ENDROOT
BRANCH   1   3
ATOM      3  C   UNL     1      48.184  -1.727  74.564  1.00  0.00     0.027 C 
BRANCH   3   4
ATOM      4  C   UNL     1      48.389  -1.927  76.073  1.00  0.00     0.004 C 
BRANCH   4   5
ATOM      5  C   UNL     1      49.874  -2.021  76.464  1.00  0.00     0.000 C 
BRANCH   5   6
ATOM      6  C   UNL     1      50.462  -3.447  76.455  1.00  0.00     0.000 C 
BRANCH   6   7
ATOM      7  C   UNL     1      49.435  -4.579  76.637  1.00  0.00     0.000 C 
BRANCH   7   8
ATOM      8  C   UNL     1      49.360  -5.088  78.087  1.00  0.00     0.006 C 
BRANCH   8   9
ATOM      9  C   UNL     1      47.943  -4.981  78.664  1.00  0.00     0.053 C 
BRANCH   9  10
ATOM     10  C   UNL     1      47.718  -3.666  79.347  1.00  0.00     0.041 C 
ATOM     11  O   UNL     1      46.547  -3.255  79.560  1.00  0.00    -0.550 OA
ATOM     12  O   UNL     1      48.802  -2.910  79.774  1.00  0.00    -0.550 OA
ENDBRANCH   9  10
ENDBRANCH   8   9
ENDBRANCH   7   8
ENDBRANCH   6   7
ENDBRANCH   5   6
ENDBRANCH   4   5
ENDBRANCH   3   4
ENDBRANCH   1   3
BRANCH   2  13
ATOM     13  C   UNL     1      49.380  -0.347  72.112  1.00  0.00     0.027 C 
BRANCH  13  14
ATOM     14  C   UNL     1      50.799   0.230  72.042  1.00  0.00     0.004 C 
BRANCH  14  15
ATOM     15  C   UNL     1      51.847  -0.893  72.019  1.00  0.00     0.000 C 
BRANCH  15  16
ATOM     16  C   UNL     1      51.653  -1.908  73.156  1.00  0.00     0.000 C 
BRANCH  16  17
ATOM     17  C   UNL     1      52.070  -3.335  72.757  1.00  0.00    -0.000 C 
BRANCH  17  18
ATOM     18  C   UNL     1      50.905  -4.339  72.885  1.00  0.00    -0.000 C 
BRANCH  18  19
ATOM     19  C   UNL     1      49.776  -4.104  71.869  1.00  0.00    -0.003 C 
ATOM     20  C   UNL     1      48.399  -4.489  72.404  1.00  0.00     0.004 C 
ENDBRANCH  18  19
ENDBRANCH  17  18
ENDBRANCH  16  17
ENDBRANCH  15  16
ENDBRANCH  14  15
ENDBRANCH  13  14
ENDBRANCH   2  13
TORSDOF 15
ENDMDL
