MODEL 1
REMARK VINA RESULT:    -4.780      0.000      0.000
REMARK INTER + INTRA:          -6.259
REMARK INTER:                  -5.759
REMARK INTRA:                  -0.501
REMARK UNBOUND:                -0.501
REMARK SMILES CCCCc1oc(O)c2ccccc12
REMARK SMILES IDX 4 1 5 2 7 3 6 4 9 5 14 6 10 7 13 8 11 9 12 10 8 11 3 13 2 14
REMARK SMILES IDX 1 15
REMARK H PARENT 8 12
REMARK Flexibility Score: inf
ROOT
ATOM      1  C   UNL     1      12.412  77.796   6.241  1.00  0.00     0.076 C 
ENDROOT
BRANCH   1   2
ATOM      2  C   UNL     1      12.481  79.181   6.806  1.00  0.00     0.116 A 
ATOM      3  C   UNL     1      13.176  80.852   7.957  1.00  0.00     0.290 A 
ATOM      4  O   UNL     1      13.378  79.577   7.691  1.00  0.00    -0.430 OA
ATOM      5  C   UNL     1      12.109  81.318   7.215  1.00  0.00     0.066 A 
ATOM      6  C   UNL     1      11.667  80.251   6.479  1.00  0.00     0.027 A 
ATOM      7  C   UNL     1      11.509  82.573   7.129  1.00  0.00     0.016 A 
ATOM      8  C   UNL     1      10.591  80.363   5.597  1.00  0.00     0.012 A 
ATOM      9  C   UNL     1      10.420  82.718   6.249  1.00  0.00     0.001 A 
ATOM     10  C   UNL     1       9.964  81.618   5.487  1.00  0.00     0.001 A 
BRANCH   3  11
ATOM     11  O   UNL     1      13.945  81.590   8.852  1.00  0.00    -0.480 OA
ATOM     12  H   UNL     1      14.623  81.141   9.456  1.00  0.00     0.297 HD
ENDBRANCH   3  11
ENDBRANCH   1   2
BRANCH   1  13
ATOM     13  C   UNL     1      11.535  76.900   7.125  1.00  0.00     0.008 C 
BRANCH  13  14
ATOM     14  C   UNL     1      10.060  76.915   6.696  1.00  0.00    -0.003 C 
ATOM     15  C   UNL     1       9.883  76.773   5.185  1.00  0.00     0.004 C 
ENDBRANCH  13  14
ENDBRANCH   1  13
TORSDOF 4
ENDMDL
MODEL 2
REMARK VINA RESULT:    -4.756      1.992      3.737
REMARK INTER + INTRA:          -6.229
REMARK INTER:                  -5.808
REMARK INTRA:                  -0.421
REMARK UNBOUND:                -0.501
REMARK SMILES CCCCc1oc(O)c2ccccc12
REMARK SMILES IDX 4 1 5 2 7 3 6 4 9 5 14 6 10 7 13 8 11 9 12 10 8 11 3 13 2 14
REMARK SMILES IDX 1 15
REMARK H PARENT 8 12
REMARK Flexibility Score: inf
ROOT
ATOM      1  C   UNL     1      14.560  79.479   7.569  1.00  0.00     0.076 C 
ENDROOT
BRANCH   1   2
ATOM      2  C   UNL     1      13.399  80.409   7.384  1.00  0.00     0.116 A 
ATOM      3  C   UNL     1      12.184  82.167   7.556  1.00  0.00     0.290 A 
ATOM      4  O   UNL     1      13.311  81.603   7.941  1.00  0.00    -0.430 OA
ATOM      5  C   UNL     1      11.504  81.315   6.709  1.00  0.00     0.066 A 
ATOM      6  C   UNL     1      12.282  80.193   6.598  1.00  0.00     0.027 A 
ATOM      7  C   UNL     1      10.290  81.440   6.037  1.00  0.00     0.016 A 
ATOM      8  C   UNL     1      11.902  79.113   5.801  1.00  0.00     0.012 A 
ATOM      9  C   UNL     1       9.878  80.366   5.226  1.00  0.00     0.001 A 
ATOM     10  C   UNL     1      10.681  79.208   5.108  1.00  0.00     0.001 A 
BRANCH   3  11
ATOM     11  O   UNL     1      11.772  83.434   7.958  1.00  0.00    -0.480 OA
ATOM     12  H   UNL     1      11.222  83.566   8.798  1.00  0.00     0.297 HD
ENDBRANCH   3  11
ENDBRANCH   1   2
BRANCH   1  13
ATOM     13  C   UNL     1      15.879  80.207   7.283  1.00  0.00     0.008 C 
BRANCH  13  14
ATOM     14  C   UNL     1      15.984  80.684   5.826  1.00  0.00    -0.003 C 
ATOM     15  C   UNL     1      15.914  82.204   5.695  1.00  0.00     0.004 C 
ENDBRANCH  13  14
ENDBRANCH   1  13
TORSDOF 4
ENDMDL
MODEL 3
REMARK VINA RESULT:    -4.647      0.917      1.526
REMARK INTER + INTRA:          -6.098
REMARK INTER:                  -5.814
REMARK INTRA:                  -0.284
REMARK UNBOUND:                -0.501
REMARK SMILES CCCCc1oc(O)c2ccccc12
REMARK SMILES IDX 4 1 5 2 7 3 6 4 9 5 14 6 10 7 13 8 11 9 12 10 8 11 3 13 2 14
REMARK SMILES IDX 1 15
REMARK H PARENT 8 12
REMARK Flexibility Score: inf
ROOT
ATOM      1  C   UNL     1      11.625  78.254   5.978  1.00  0.00     0.076 C 
ENDROOT
BRANCH   1   2
ATOM      2  C   UNL     1      11.983  79.552   6.634  1.00  0.00     0.116 A 
ATOM      3  C   UNL     1      13.046  80.970   7.843  1.00  0.00     0.290 A 
ATOM      4  O   UNL     1      12.993  79.706   7.471  1.00  0.00    -0.430 OA
ATOM      5  C   UNL     1      12.037  81.678   7.223  1.00  0.00     0.066 A 
ATOM      6  C   UNL     1      11.360  80.773   6.449  1.00  0.00     0.027 A 
ATOM      7  C   UNL     1      11.673  83.023   7.275  1.00  0.00     0.016 A 
ATOM      8  C   UNL     1      10.268  81.149   5.666  1.00  0.00     0.012 A 
ATOM      9  C   UNL     1      10.573  83.433   6.496  1.00  0.00     0.001 A 
ATOM     10  C   UNL     1       9.875  82.500   5.695  1.00  0.00     0.001 A 
BRANCH   3  11
ATOM     11  O   UNL     1      13.993  81.480   8.726  1.00  0.00    -0.480 OA
ATOM     12  H   UNL     1      14.817  80.948   8.978  1.00  0.00     0.297 HD
ENDBRANCH   3  11
ENDBRANCH   1   2
BRANCH   1  13
ATOM     13  C   UNL     1      11.360  77.176   7.036  1.00  0.00     0.008 C 
BRANCH  13  14
ATOM     14  C   UNL     1      12.406  76.051   7.005  1.00  0.00    -0.003 C 
ATOM     15  C   UNL     1      13.377  76.114   8.183  1.00  0.00     0.004 C 
ENDBRANCH  13  14
ENDBRANCH   1  13
TORSDOF 4
ENDMDL
MODEL 4
REMARK VINA RESULT:    -4.601      2.242      5.219
REMARK INTER + INTRA:          -6.043
REMARK INTER:                  -5.780
REMARK INTRA:                  -0.263
REMARK UNBOUND:                -0.501
REMARK SMILES CCCCc1oc(O)c2ccccc12
REMARK SMILES IDX 4 1 5 2 7 3 6 4 9 5 14 6 10 7 13 8 11 9 12 10 8 11 3 13 2 14
REMARK SMILES IDX 1 15
REMARK H PARENT 8 12
REMARK Flexibility Score: inf
ROOT
ATOM      1  C   UNL     1      11.204  83.422   7.264  1.00  0.00     0.076 C 
ENDROOT
BRANCH   1   2
ATOM      2  C   UNL     1      11.271  81.984   6.850  1.00  0.00     0.116 A 
ATOM      3  C   UNL     1      10.758  80.146   5.871  1.00  0.00     0.290 A 
ATOM      4  O   UNL     1      10.394  81.400   6.054  1.00  0.00    -0.430 OA
ATOM      5  C   UNL     1      11.922  79.894   6.567  1.00  0.00     0.066 A 
ATOM      6  C   UNL     1      12.251  81.069   7.191  1.00  0.00     0.027 A 
ATOM      7  C   UNL     1      12.704  78.748   6.694  1.00  0.00     0.016 A 
ATOM      8  C   UNL     1      13.392  81.183   7.986  1.00  0.00     0.012 A 
ATOM      9  C   UNL     1      13.862  78.831   7.491  1.00  0.00     0.001 A 
ATOM     10  C   UNL     1      14.204  80.043   8.133  1.00  0.00     0.001 A 
BRANCH   3  11
ATOM     11  O   UNL     1      10.053  79.241   5.083  1.00  0.00    -0.480 OA
ATOM     12  H   UNL     1       9.118  78.943   5.334  1.00  0.00     0.297 HD
ENDBRANCH   3  11
ENDBRANCH   1   2
BRANCH   1  13
ATOM     13  C   UNL     1      11.336  84.338   6.040  1.00  0.00     0.008 C 
BRANCH  13  14
ATOM     14  C   UNL     1       9.975  84.834   5.528  1.00  0.00    -0.003 C 
ATOM     15  C   UNL     1       9.881  84.827   4.003  1.00  0.00     0.004 C 
ENDBRANCH  13  14
ENDBRANCH   1  13
TORSDOF 4
ENDMDL
MODEL 5
REMARK VINA RESULT:    -4.531      1.297      2.162
REMARK INTER + INTRA:          -5.959
REMARK INTER:                  -5.472
REMARK INTRA:                  -0.487
REMARK UNBOUND:                -0.501
REMARK SMILES CCCCc1oc(O)c2ccccc12
REMARK SMILES IDX 4 1 5 2 7 3 6 4 9 5 14 6 10 7 13 8 11 9 12 10 8 11 3 13 2 14
REMARK SMILES IDX 1 15
REMARK H PARENT 8 12
REMARK Flexibility Score: inf
ROOT
ATOM      1  C   UNL     1      12.627  77.308   6.777  1.00  0.00     0.076 C 
ENDROOT
BRANCH   1   2
ATOM      2  C   UNL     1      12.601  78.764   7.126  1.00  0.00     0.116 A 
ATOM      3  C   UNL     1      13.161  80.626   8.031  1.00  0.00     0.290 A 
ATOM      4  O   UNL     1      13.440  79.339   7.969  1.00  0.00    -0.430 OA
ATOM      5  C   UNL     1      12.103  80.913   7.193  1.00  0.00     0.066 A 
ATOM      6  C   UNL     1      11.747  79.724   6.614  1.00  0.00     0.027 A 
ATOM      7  C   UNL     1      11.443  82.104   6.897  1.00  0.00     0.016 A 
ATOM      8  C   UNL     1      10.703  79.640   5.691  1.00  0.00     0.012 A 
ATOM      9  C   UNL     1      10.384  82.052   5.971  1.00  0.00     0.001 A 
ATOM     10  C   UNL     1      10.017  80.826   5.371  1.00  0.00     0.001 A 
BRANCH   3  11
ATOM     11  O   UNL     1      13.854  81.533   8.828  1.00  0.00    -0.480 OA
ATOM     12  H   UNL     1      14.829  81.391   9.060  1.00  0.00     0.297 HD
ENDBRANCH   3  11
ENDBRANCH   1   2
BRANCH   1  13
ATOM     13  C   UNL     1      13.962  76.940   6.117  1.00  0.00     0.008 C 
BRANCH  13  14
ATOM     14  C   UNL     1      14.175  77.661   4.777  1.00  0.00    -0.003 C 
ATOM     15  C   UNL     1      15.401  78.573   4.786  1.00  0.00     0.004 C 
ENDBRANCH  13  14
ENDBRANCH   1  13
TORSDOF 4
ENDMDL
MODEL 6
REMARK VINA RESULT:    -4.483      2.029      3.581
REMARK INTER + INTRA:          -5.900
REMARK INTER:                  -5.451
REMARK INTRA:                  -0.450
REMARK UNBOUND:                -0.501
REMARK SMILES CCCCc1oc(O)c2ccccc12
REMARK SMILES IDX 4 1 5 2 7 3 6 4 9 5 14 6 10 7 13 8 11 9 12 10 8 11 3 13 2 14
REMARK SMILES IDX 1 15
REMARK H PARENT 8 12
REMARK Flexibility Score: inf
ROOT
ATOM      1  C   UNL     1      11.664  78.043   6.582  1.00  0.00     0.076 C 
ENDROOT
BRANCH   1   2
ATOM      2  C   UNL     1      12.706  79.040   6.986  1.00  0.00     0.116 A 
ATOM      3  C   UNL     1      13.681  80.592   8.100  1.00  0.00     0.290 A 
ATOM      4  O   UNL     1      12.580  79.873   8.003  1.00  0.00    -0.430 OA
ATOM      5  C   UNL     1      14.570  80.216   7.114  1.00  0.00     0.066 A 
ATOM      6  C   UNL     1      13.948  79.223   6.404  1.00  0.00     0.027 A 
ATOM      7  C   UNL     1      15.853  80.656   6.797  1.00  0.00     0.016 A 
ATOM      8  C   UNL     1      14.568  78.594   5.323  1.00  0.00     0.012 A 
ATOM      9  C   UNL     1      16.505  80.043   5.709  1.00  0.00     0.001 A 
ATOM     10  C   UNL     1      15.865  79.017   4.977  1.00  0.00     0.001 A 
BRANCH   3  11
ATOM     11  O   UNL     1      13.885  81.572   9.067  1.00  0.00    -0.480 OA
ATOM     12  H   UNL     1      13.168  82.253   9.285  1.00  0.00     0.297 HD
ENDBRANCH   3  11
ENDBRANCH   1   2
BRANCH   1  13
ATOM     13  C   UNL     1      10.325  78.745   6.321  1.00  0.00     0.008 C 
BRANCH  13  14
ATOM     14  C   UNL     1      10.429  79.821   5.229  1.00  0.00    -0.003 C 
ATOM     15  C   UNL     1       9.908  81.182   5.691  1.00  0.00     0.004 C 
ENDBRANCH  13  14
ENDBRANCH   1  13
TORSDOF 4
ENDMDL
MODEL 7
REMARK VINA RESULT:    -4.469      2.084      3.105
REMARK INTER + INTRA:          -5.884
REMARK INTER:                  -5.598
REMARK INTRA:                  -0.286
REMARK UNBOUND:                -0.501
REMARK SMILES CCCCc1oc(O)c2ccccc12
REMARK SMILES IDX 4 1 5 2 7 3 6 4 9 5 14 6 10 7 13 8 11 9 12 10 8 11 3 13 2 14
REMARK SMILES IDX 1 15
REMARK H PARENT 8 12
REMARK Flexibility Score: inf
ROOT
ATOM      1  C   UNL     1      14.705  79.309   7.310  1.00  0.00     0.076 C 
ENDROOT
BRANCH   1   2
ATOM      2  C   UNL     1      13.538  80.244   7.224  1.00  0.00     0.116 A 
ATOM      3  C   UNL     1      12.343  82.002   7.512  1.00  0.00     0.290 A 
ATOM      4  O   UNL     1      13.493  81.428   7.808  1.00  0.00    -0.430 OA
ATOM      5  C   UNL     1      11.604  81.167   6.698  1.00  0.00     0.066 A 
ATOM      6  C   UNL     1      12.368  80.046   6.513  1.00  0.00     0.027 A 
ATOM      7  C   UNL     1      10.346  81.308   6.114  1.00  0.00     0.016 A 
ATOM      8  C   UNL     1      11.930  78.981   5.724  1.00  0.00     0.012 A 
ATOM      9  C   UNL     1       9.875  80.249   5.314  1.00  0.00     0.001 A 
ATOM     10  C   UNL     1      10.664  79.092   5.120  1.00  0.00     0.001 A 
BRANCH   3  11
ATOM     11  O   UNL     1      11.965  83.262   7.965  1.00  0.00    -0.480 OA
ATOM     12  H   UNL     1      11.023  83.608   7.831  1.00  0.00     0.297 HD
ENDBRANCH   3  11
ENDBRANCH   1   2
BRANCH   1  13
ATOM     13  C   UNL     1      14.444  78.224   8.363  1.00  0.00     0.008 C 
BRANCH  13  14
ATOM     14  C   UNL     1      14.986  76.850   7.938  1.00  0.00    -0.003 C 
ATOM     15  C   UNL     1      15.781  76.161   9.047  1.00  0.00     0.004 C 
ENDBRANCH  13  14
ENDBRANCH   1  13
TORSDOF 4
ENDMDL
MODEL 8
REMARK VINA RESULT:    -4.299      2.011      3.890
REMARK INTER + INTRA:          -5.679
REMARK INTER:                  -5.191
REMARK INTRA:                  -0.489
REMARK UNBOUND:                -0.501
REMARK SMILES CCCCc1oc(O)c2ccccc12
REMARK SMILES IDX 4 1 5 2 7 3 6 4 9 5 14 6 10 7 13 8 11 9 12 10 8 11 3 13 2 14
REMARK SMILES IDX 1 15
REMARK H PARENT 8 12
REMARK Flexibility Score: inf
ROOT
ATOM      1  C   UNL     1      13.798  79.435   7.966  1.00  0.00     0.076 C 
ENDROOT
BRANCH   1   2
ATOM      2  C   UNL     1      12.546  79.586   7.158  1.00  0.00     0.116 A 
ATOM      3  C   UNL     1      10.810  79.049   6.019  1.00  0.00     0.290 A 
ATOM      4  O   UNL     1      11.868  78.575   6.645  1.00  0.00    -0.430 OA
ATOM      5  C   UNL     1      10.784  80.425   6.126  1.00  0.00     0.066 A 
ATOM      6  C   UNL     1      11.892  80.767   6.856  1.00  0.00     0.027 A 
ATOM      7  C   UNL     1       9.888  81.381   5.654  1.00  0.00     0.016 A 
ATOM      8  C   UNL     1      12.182  82.095   7.170  1.00  0.00     0.012 A 
ATOM      9  C   UNL     1      10.155  82.731   5.952  1.00  0.00     0.001 A 
ATOM     10  C   UNL     1      11.296  83.086   6.707  1.00  0.00     0.001 A 
BRANCH   3  11
ATOM     11  O   UNL     1       9.876  78.254   5.361  1.00  0.00    -0.480 OA
ATOM     12  H   UNL     1       9.232  77.664   5.876  1.00  0.00     0.297 HD
ENDBRANCH   3  11
ENDBRANCH   1   2
BRANCH   1  13
ATOM     13  C   UNL     1      15.009  79.242   7.044  1.00  0.00     0.008 C 
BRANCH  13  14
ATOM     14  C   UNL     1      16.016  80.398   7.146  1.00  0.00    -0.003 C 
ATOM     15  C   UNL     1      15.780  81.481   6.095  1.00  0.00     0.004 C 
ENDBRANCH  13  14
ENDBRANCH   1  13
TORSDOF 4
ENDMDL
MODEL 9
REMARK VINA RESULT:    -4.270      1.292      4.495
REMARK INTER + INTRA:          -5.645
REMARK INTER:                  -5.372
REMARK INTRA:                  -0.273
REMARK UNBOUND:                -0.501
REMARK SMILES CCCCc1oc(O)c2ccccc12
REMARK SMILES IDX 4 1 5 2 7 3 6 4 9 5 14 6 10 7 13 8 11 9 12 10 8 11 3 13 2 14
REMARK SMILES IDX 1 15
REMARK H PARENT 8 12
REMARK Flexibility Score: inf
ROOT
ATOM      1  C   UNL     1      10.173  81.518   6.153  1.00  0.00     0.076 C 
ENDROOT
BRANCH   1   2
ATOM      2  C   UNL     1      11.401  80.898   6.745  1.00  0.00     0.116 A 
ATOM      3  C   UNL     1      13.294  80.739   7.740  1.00  0.00     0.290 A 
ATOM      4  O   UNL     1      12.385  81.585   7.297  1.00  0.00    -0.430 OA
ATOM      5  C   UNL     1      12.894  79.446   7.475  1.00  0.00     0.066 A 
ATOM      6  C   UNL     1      11.683  79.547   6.841  1.00  0.00     0.027 A 
ATOM      7  C   UNL     1      13.485  78.212   7.741  1.00  0.00     0.016 A 
ATOM      8  C   UNL     1      10.973  78.419   6.430  1.00  0.00     0.012 A 
ATOM      9  C   UNL     1      12.794  77.054   7.337  1.00  0.00     0.001 A 
ATOM     10  C   UNL     1      11.543  77.158   6.685  1.00  0.00     0.001 A 
BRANCH   3  11
ATOM     11  O   UNL     1      14.469  81.127   8.378  1.00  0.00    -0.480 OA
ATOM     12  H   UNL     1      15.114  80.441   8.753  1.00  0.00     0.297 HD
ENDBRANCH   3  11
ENDBRANCH   1   2
BRANCH   1  13
ATOM     13  C   UNL     1       9.875  82.864   6.826  1.00  0.00     0.008 C 
BRANCH  13  14
ATOM     14  C   UNL     1      10.043  84.052   5.867  1.00  0.00    -0.003 C 
ATOM     15  C   UNL     1      11.307  84.863   6.146  1.00  0.00     0.004 C 
ENDBRANCH  13  14
ENDBRANCH   1  13
TORSDOF 4
ENDMDL
