MODEL 1
REMARK VINA RESULT:    -4.899      0.000      0.000
REMARK INTER + INTRA:          -7.461
REMARK INTER:                  -7.191
REMARK INTRA:                  -0.271
REMARK UNBOUND:                -0.271
REMARK SMILES O=C([O-])CCCCCCCC(=O)[O-]
REMARK SMILES IDX 7 1 6 2 5 3 4 4 2 5 1 6 3 7 8 8 9 9 10 10 11 11 12 12 13 13
REMARK H PARENT
REMARK Flexibility Score: inf
ROOT
ATOM      1  C   UNL     1       3.731  44.319  12.282  1.00  0.00     0.000 C 
ENDROOT
BRANCH   1   2
ATOM      2  C   UNL     1       4.444  44.847  11.027  1.00  0.00     0.000 C 
BRANCH   2   3
ATOM      3  C   UNL     1       3.985  46.260  10.635  1.00  0.00     0.006 C 
BRANCH   3   4
ATOM      4  C   UNL     1       4.314  46.556   9.170  1.00  0.00     0.053 C 
BRANCH   4   5
ATOM      5  C   UNL     1       3.344  47.544   8.603  1.00  0.00     0.041 C 
ATOM      6  O   UNL     1       2.279  47.810   9.218  1.00  0.00    -0.550 OA
ATOM      7  O   UNL     1       3.595  48.136   7.372  1.00  0.00    -0.550 OA
ENDBRANCH   4   5
ENDBRANCH   3   4
ENDBRANCH   2   3
ENDBRANCH   1   2
BRANCH   1   8
ATOM      8  C   UNL     1       2.528  43.425  11.948  1.00  0.00     0.000 C 
BRANCH   8   9
ATOM      9  C   UNL     1       2.989  42.037  11.478  1.00  0.00     0.006 C 
BRANCH   9  10
ATOM     10  C   UNL     1       4.149  41.493  12.323  1.00  0.00     0.053 C 
BRANCH  10  11
ATOM     11  C   UNL     1       3.842  40.137  12.882  1.00  0.00     0.041 C 
ATOM     12  O   UNL     1       4.744  39.468  13.451  1.00  0.00    -0.550 OA
ATOM     13  O   UNL     1       2.552  39.627  12.803  1.00  0.00    -0.550 OA
ENDBRANCH  10  11
ENDBRANCH   9  10
ENDBRANCH   8   9
ENDBRANCH   1   8
TORSDOF 8
ENDMDL
MODEL 2
REMARK VINA RESULT:    -4.898      1.597      7.245
REMARK INTER + INTRA:          -7.459
REMARK INTER:                  -7.167
REMARK INTRA:                  -0.292
REMARK UNBOUND:                -0.271
REMARK SMILES O=C([O-])CCCCCCCC(=O)[O-]
REMARK SMILES IDX 7 1 6 2 5 3 4 4 2 5 1 6 3 7 8 8 9 9 10 10 11 11 12 12 13 13
REMARK H PARENT
REMARK Flexibility Score: inf
ROOT
ATOM      1  C   UNL     1       2.766  43.008  10.027  1.00  0.00     0.000 C 
ENDROOT
BRANCH   1   2
ATOM      2  C   UNL     1       3.010  43.051  11.544  1.00  0.00     0.000 C 
BRANCH   2   3
ATOM      3  C   UNL     1       3.769  41.817  12.057  1.00  0.00     0.006 C 
BRANCH   3   4
ATOM      4  C   UNL     1       2.795  40.711  12.471  1.00  0.00     0.053 C 
BRANCH   4   5
ATOM      5  C   UNL     1       3.540  39.462  12.822  1.00  0.00     0.041 C 
ATOM      6  O   UNL     1       4.656  39.531  13.401  1.00  0.00    -0.550 OA
ATOM      7  O   UNL     1       3.026  38.221  12.465  1.00  0.00    -0.550 OA
ENDBRANCH   4   5
ENDBRANCH   3   4
ENDBRANCH   2   3
ENDBRANCH   1   2
BRANCH   1   8
ATOM      8  C   UNL     1       3.794  43.834   9.238  1.00  0.00     0.000 C 
BRANCH   8   9
ATOM      9  C   UNL     1       3.595  45.337   9.485  1.00  0.00     0.006 C 
BRANCH   9  10
ATOM     10  C   UNL     1       4.842  45.998  10.087  1.00  0.00     0.053 C 
BRANCH  10  11
ATOM     11  C   UNL     1       5.280  47.190   9.292  1.00  0.00     0.041 C 
ATOM     12  O   UNL     1       4.494  47.722   8.464  1.00  0.00    -0.550 OA
ATOM     13  O   UNL     1       6.543  47.732   9.488  1.00  0.00    -0.550 OA
ENDBRANCH  10  11
ENDBRANCH   9  10
ENDBRANCH   8   9
ENDBRANCH   1   8
TORSDOF 8
ENDMDL
MODEL 3
REMARK VINA RESULT:    -4.866      1.412      1.759
REMARK INTER + INTRA:          -7.413
REMARK INTER:                  -7.105
REMARK INTRA:                  -0.309
REMARK UNBOUND:                -0.271
REMARK SMILES O=C([O-])CCCCCCCC(=O)[O-]
REMARK SMILES IDX 7 1 6 2 5 3 4 4 2 5 1 6 3 7 8 8 9 9 10 10 11 11 12 12 13 13
REMARK H PARENT
REMARK Flexibility Score: inf
ROOT
ATOM      1  C   UNL     1       2.689  43.287   9.983  1.00  0.00     0.000 C 
ENDROOT
BRANCH   1   2
ATOM      2  C   UNL     1       3.995  44.045   9.695  1.00  0.00     0.000 C 
BRANCH   2   3
ATOM      3  C   UNL     1       4.427  44.943  10.865  1.00  0.00     0.006 C 
BRANCH   3   4
ATOM      4  C   UNL     1       3.969  46.387  10.644  1.00  0.00     0.053 C 
BRANCH   4   5
ATOM      5  C   UNL     1       4.718  47.005   9.505  1.00  0.00     0.041 C 
ATOM      6  O   UNL     1       5.960  47.190   9.589  1.00  0.00    -0.550 OA
ATOM      7  O   UNL     1       4.035  47.421   8.369  1.00  0.00    -0.550 OA
ENDBRANCH   4   5
ENDBRANCH   3   4
ENDBRANCH   2   3
ENDBRANCH   1   2
BRANCH   1   8
ATOM      8  C   UNL     1       2.531  42.920  11.466  1.00  0.00     0.000 C 
BRANCH   8   9
ATOM      9  C   UNL     1       3.408  41.711  11.828  1.00  0.00     0.006 C 
BRANCH   9  10
ATOM     10  C   UNL     1       2.635  40.650  12.624  1.00  0.00     0.053 C 
BRANCH  10  11
ATOM     11  C   UNL     1       3.462  39.424  12.866  1.00  0.00     0.041 C 
ATOM     12  O   UNL     1       4.570  39.515  13.457  1.00  0.00    -0.550 OA
ATOM     13  O   UNL     1       2.995  38.179  12.467  1.00  0.00    -0.550 OA
ENDBRANCH  10  11
ENDBRANCH   9  10
ENDBRANCH   8   9
ENDBRANCH   1   8
TORSDOF 8
ENDMDL
MODEL 4
REMARK VINA RESULT:    -4.759      1.541      2.049
REMARK INTER + INTRA:          -7.255
REMARK INTER:                  -6.851
REMARK INTRA:                  -0.404
REMARK UNBOUND:                -0.271
REMARK SMILES O=C([O-])CCCCCCCC(=O)[O-]
REMARK SMILES IDX 7 1 6 2 5 3 4 4 2 5 1 6 3 7 8 8 9 9 10 10 11 11 12 12 13 13
REMARK H PARENT
REMARK Flexibility Score: inf
ROOT
ATOM      1  C   UNL     1       1.858  43.975  10.284  1.00  0.00     0.000 C 
ENDROOT
BRANCH   1   2
ATOM      2  C   UNL     1       2.465  45.288   9.765  1.00  0.00     0.000 C 
BRANCH   2   3
ATOM      3  C   UNL     1       3.973  45.177   9.494  1.00  0.00     0.006 C 
BRANCH   3   4
ATOM      4  C   UNL     1       4.745  46.268  10.241  1.00  0.00     0.053 C 
BRANCH   4   5
ATOM      5  C   UNL     1       5.326  47.252   9.276  1.00  0.00     0.041 C 
ATOM      6  O   UNL     1       4.614  47.736   8.358  1.00  0.00    -0.550 OA
ATOM      7  O   UNL     1       6.669  47.598   9.360  1.00  0.00    -0.550 OA
ENDBRANCH   4   5
ENDBRANCH   3   4
ENDBRANCH   2   3
ENDBRANCH   1   2
BRANCH   1   8
ATOM      8  C   UNL     1       2.082  43.774  11.791  1.00  0.00     0.000 C 
BRANCH   8   9
ATOM      9  C   UNL     1       2.257  42.284  12.126  1.00  0.00     0.006 C 
BRANCH   9  10
ATOM     10  C   UNL     1       3.716  41.827  11.994  1.00  0.00     0.053 C 
BRANCH  10  11
ATOM     11  C   UNL     1       3.956  40.526  12.698  1.00  0.00     0.041 C 
ATOM     12  O   UNL     1       3.046  39.657  12.751  1.00  0.00    -0.550 OA
ATOM     13  O   UNL     1       5.195  40.261  13.267  1.00  0.00    -0.550 OA
ENDBRANCH  10  11
ENDBRANCH   9  10
ENDBRANCH   8   9
ENDBRANCH   1   8
TORSDOF 8
ENDMDL
MODEL 5
REMARK VINA RESULT:    -4.708      1.718      2.118
REMARK INTER + INTRA:          -7.181
REMARK INTER:                  -6.624
REMARK INTRA:                  -0.557
REMARK UNBOUND:                -0.271
REMARK SMILES O=C([O-])CCCCCCCC(=O)[O-]
REMARK SMILES IDX 7 1 6 2 5 3 4 4 2 5 1 6 3 7 8 8 9 9 10 10 11 11 12 12 13 13
REMARK H PARENT
REMARK Flexibility Score: inf
ROOT
ATOM      1  C   UNL     1       1.517  43.433  11.992  1.00  0.00     0.000 C 
ENDROOT
BRANCH   1   2
ATOM      2  C   UNL     1       0.862  44.408  11.001  1.00  0.00     0.000 C 
BRANCH   2   3
ATOM      3  C   UNL     1       1.627  44.504   9.671  1.00  0.00     0.006 C 
BRANCH   3   4
ATOM      4  C   UNL     1       1.981  45.958   9.349  1.00  0.00     0.053 C 
BRANCH   4   5
ATOM      5  C   UNL     1       3.466  46.136   9.295  1.00  0.00     0.041 C 
ATOM      6  O   UNL     1       3.967  47.290   9.300  1.00  0.00    -0.550 OA
ATOM      7  O   UNL     1       4.295  45.026   9.190  1.00  0.00    -0.550 OA
ENDBRANCH   4   5
ENDBRANCH   3   4
ENDBRANCH   2   3
ENDBRANCH   1   2
BRANCH   1   8
ATOM      8  C   UNL     1       3.020  43.697  12.176  1.00  0.00     0.000 C 
BRANCH   8   9
ATOM      9  C   UNL     1       3.839  42.430  11.883  1.00  0.00     0.006 C 
BRANCH   9  10
ATOM     10  C   UNL     1       3.022  41.148  12.092  1.00  0.00     0.053 C 
BRANCH  10  11
ATOM     11  C   UNL     1       3.841  40.065  12.726  1.00  0.00     0.041 C 
ATOM     12  O   UNL     1       4.984  40.323  13.187  1.00  0.00    -0.550 OA
ATOM     13  O   UNL     1       3.328  38.779  12.839  1.00  0.00    -0.550 OA
ENDBRANCH  10  11
ENDBRANCH   9  10
ENDBRANCH   8   9
ENDBRANCH   1   8
TORSDOF 8
ENDMDL
MODEL 6
REMARK VINA RESULT:    -4.659      2.907      3.525
REMARK INTER + INTRA:          -7.108
REMARK INTER:                  -6.321
REMARK INTRA:                  -0.787
REMARK UNBOUND:                -0.271
REMARK SMILES O=C([O-])CCCCCCCC(=O)[O-]
REMARK SMILES IDX 7 1 6 2 5 3 4 4 2 5 1 6 3 7 8 8 9 9 10 10 11 11 12 12 13 13
REMARK H PARENT
REMARK Flexibility Score: inf
ROOT
ATOM      1  C   UNL     1       3.931  44.371  12.168  1.00  0.00     0.000 C 
ENDROOT
BRANCH   1   2
ATOM      2  C   UNL     1       4.807  45.177  11.196  1.00  0.00     0.000 C 
BRANCH   2   3
ATOM      3  C   UNL     1       4.087  46.413  10.636  1.00  0.00     0.006 C 
BRANCH   3   4
ATOM      4  C   UNL     1       4.228  46.484   9.113  1.00  0.00     0.053 C 
BRANCH   4   5
ATOM      5  C   UNL     1       3.313  47.526   8.550  1.00  0.00     0.041 C 
ATOM      6  O   UNL     1       2.232  47.801   9.133  1.00  0.00    -0.550 OA
ATOM      7  O   UNL     1       3.631  48.158   7.355  1.00  0.00    -0.550 OA
ENDBRANCH   4   5
ENDBRANCH   3   4
ENDBRANCH   2   3
ENDBRANCH   1   2
BRANCH   1   8
ATOM      8  C   UNL     1       3.687  42.931  11.691  1.00  0.00     0.000 C 
BRANCH   8   9
ATOM      9  C   UNL     1       2.290  42.788  11.068  1.00  0.00     0.006 C 
BRANCH   9  10
ATOM     10  C   UNL     1       2.240  43.310   9.626  1.00  0.00     0.053 C 
BRANCH  10  11
ATOM     11  C   UNL     1       1.192  44.368   9.454  1.00  0.00     0.041 C 
ATOM     12  O   UNL     1       0.628  44.523   8.339  1.00  0.00    -0.550 OA
ATOM     13  O   UNL     1       0.817  45.158  10.532  1.00  0.00    -0.550 OA
ENDBRANCH  10  11
ENDBRANCH   9  10
ENDBRANCH   8   9
ENDBRANCH   1   8
TORSDOF 8
ENDMDL
MODEL 7
REMARK VINA RESULT:    -4.603      2.117      2.715
REMARK INTER + INTRA:          -7.027
REMARK INTER:                  -6.331
REMARK INTRA:                  -0.696
REMARK UNBOUND:                -0.271
REMARK SMILES O=C([O-])CCCCCCCC(=O)[O-]
REMARK SMILES IDX 7 1 6 2 5 3 4 4 2 5 1 6 3 7 8 8 9 9 10 10 11 11 12 12 13 13
REMARK H PARENT
REMARK Flexibility Score: inf
ROOT
ATOM      1  C   UNL     1       4.317  44.965  11.438  1.00  0.00     0.000 C 
ENDROOT
BRANCH   1   2
ATOM      2  C   UNL     1       4.020  44.756   9.945  1.00  0.00     0.000 C 
BRANCH   2   3
ATOM      3  C   UNL     1       2.779  45.531   9.474  1.00  0.00     0.006 C 
BRANCH   3   4
ATOM      4  C   UNL     1       1.552  44.618   9.422  1.00  0.00     0.053 C 
BRANCH   4   5
ATOM      5  C   UNL     1       0.590  44.972  10.512  1.00  0.00     0.041 C 
ATOM      6  O   UNL     1      -0.127  46.003  10.415  1.00  0.00    -0.550 OA
ATOM      7  O   UNL     1       0.520  44.191  11.659  1.00  0.00    -0.550 OA
ENDBRANCH   4   5
ENDBRANCH   3   4
ENDBRANCH   2   3
ENDBRANCH   1   2
BRANCH   1   8
ATOM      8  C   UNL     1       3.888  43.768  12.300  1.00  0.00     0.000 C 
BRANCH   8   9
ATOM      9  C   UNL     1       3.777  42.492  11.451  1.00  0.00     0.006 C 
BRANCH   9  10
ATOM     10  C   UNL     1       2.861  41.443  12.095  1.00  0.00     0.053 C 
BRANCH  10  11
ATOM     11  C   UNL     1       3.639  40.276  12.624  1.00  0.00     0.041 C 
ATOM     12  O   UNL     1       4.846  40.417  12.955  1.00  0.00    -0.550 OA
ATOM     13  O   UNL     1       3.022  39.042  12.781  1.00  0.00    -0.550 OA
ENDBRANCH  10  11
ENDBRANCH   9  10
ENDBRANCH   8   9
ENDBRANCH   1   8
TORSDOF 8
ENDMDL
MODEL 8
REMARK VINA RESULT:    -4.581      1.787      6.389
REMARK INTER + INTRA:          -6.994
REMARK INTER:                  -6.392
REMARK INTRA:                  -0.601
REMARK UNBOUND:                -0.271
REMARK SMILES O=C([O-])CCCCCCCC(=O)[O-]
REMARK SMILES IDX 7 1 6 2 5 3 4 4 2 5 1 6 3 7 8 8 9 9 10 10 11 11 12 12 13 13
REMARK H PARENT
REMARK Flexibility Score: inf
ROOT
ATOM      1  C   UNL     1       4.179  46.206  10.661  1.00  0.00     0.000 C 
ENDROOT
BRANCH   1   2
ATOM      2  C   UNL     1       4.105  44.788  11.250  1.00  0.00     0.000 C 
BRANCH   2   3
ATOM      3  C   UNL     1       4.118  43.696  10.168  1.00  0.00     0.006 C 
BRANCH   3   4
ATOM      4  C   UNL     1       2.848  42.844  10.238  1.00  0.00     0.053 C 
BRANCH   4   5
ATOM      5  C   UNL     1       2.703  42.230  11.595  1.00  0.00     0.041 C 
ATOM      6  O   UNL     1       3.541  41.385  12.001  1.00  0.00    -0.550 OA
ATOM      7  O   UNL     1       1.612  42.557  12.392  1.00  0.00    -0.550 OA
ENDBRANCH   4   5
ENDBRANCH   3   4
ENDBRANCH   2   3
ENDBRANCH   1   2
BRANCH   1   8
ATOM      8  C   UNL     1       4.384  46.205   9.139  1.00  0.00     0.000 C 
BRANCH   8   9
ATOM      9  C   UNL     1       3.733  47.440   8.497  1.00  0.00     0.006 C 
BRANCH   9  10
ATOM     10  C   UNL     1       2.311  47.685   9.017  1.00  0.00     0.053 C 
BRANCH  10  11
ATOM     11  C   UNL     1       1.304  46.836   8.301  1.00  0.00     0.041 C 
ATOM     12  O   UNL     1       0.732  47.270   7.266  1.00  0.00    -0.550 OA
ATOM     13  O   UNL     1       1.022  45.555   8.757  1.00  0.00    -0.550 OA
ENDBRANCH  10  11
ENDBRANCH   9  10
ENDBRANCH   8   9
ENDBRANCH   1   8
TORSDOF 8
ENDMDL
MODEL 9
REMARK VINA RESULT:    -4.549      1.563      2.466
REMARK INTER + INTRA:          -6.948
REMARK INTER:                  -6.454
REMARK INTRA:                  -0.494
REMARK UNBOUND:                -0.271
REMARK SMILES O=C([O-])CCCCCCCC(=O)[O-]
REMARK SMILES IDX 7 1 6 2 5 3 4 4 2 5 1 6 3 7 8 8 9 9 10 10 11 11 12 12 13 13
REMARK H PARENT
REMARK Flexibility Score: inf
ROOT
ATOM      1  C   UNL     1       4.036  46.159  10.849  1.00  0.00     0.000 C 
ENDROOT
BRANCH   1   2
ATOM      2  C   UNL     1       4.915  46.397   9.611  1.00  0.00     0.000 C 
BRANCH   2   3
ATOM      3  C   UNL     1       4.296  47.406   8.631  1.00  0.00     0.006 C 
BRANCH   3   4
ATOM      4  C   UNL     1       2.773  47.260   8.586  1.00  0.00     0.053 C 
BRANCH   4   5
ATOM      5  C   UNL     1       2.142  48.513   8.064  1.00  0.00     0.041 C 
ATOM      6  O   UNL     1       2.766  49.246   7.254  1.00  0.00    -0.550 OA
ATOM      7  O   UNL     1       0.884  48.896   8.511  1.00  0.00    -0.550 OA
ENDBRANCH   4   5
ENDBRANCH   3   4
ENDBRANCH   2   3
ENDBRANCH   1   2
BRANCH   1   8
ATOM      8  C   UNL     1       4.155  44.727  11.393  1.00  0.00     0.000 C 
BRANCH   8   9
ATOM      9  C   UNL     1       4.112  43.701  10.250  1.00  0.00     0.006 C 
BRANCH   9  10
ATOM     10  C   UNL     1       2.841  42.842  10.287  1.00  0.00     0.053 C 
BRANCH  10  11
ATOM     11  C   UNL     1       2.639  42.206  11.629  1.00  0.00     0.041 C 
ATOM     12  O   UNL     1       3.454  41.342  12.049  1.00  0.00    -0.550 OA
ATOM     13  O   UNL     1       1.570  42.590  12.428  1.00  0.00    -0.550 OA
ENDBRANCH  10  11
ENDBRANCH   9  10
ENDBRANCH   8   9
ENDBRANCH   1   8
TORSDOF 8
ENDMDL
