MODEL 1
REMARK VINA RESULT:    -3.625      0.000      0.000
REMARK INTER + INTRA:          -4.432
REMARK INTER:                  -4.261
REMARK INTRA:                  -0.171
REMARK UNBOUND:                -0.171
REMARK SMILES O=C([O-])CCC(=O)[O-]
REMARK SMILES IDX 4 1 2 2 1 3 3 4 5 5 6 6 7 7 8 8
REMARK H PARENT
REMARK Flexibility Score: inf
ROOT
ATOM      1  C   UNL     1       3.992  34.334  54.533  1.00  0.00     0.059 C 
ENDROOT
BRANCH   1   2
ATOM      2  C   UNL     1       3.881  35.628  55.281  1.00  0.00     0.042 C 
ATOM      3  O   UNL     1       4.912  36.309  55.523  1.00  0.00    -0.550 OA
ATOM      4  O   UNL     1       2.645  36.060  55.746  1.00  0.00    -0.550 OA
ENDBRANCH   1   2
BRANCH   1   5
ATOM      5  C   UNL     1       3.184  34.362  53.231  1.00  0.00     0.059 C 
BRANCH   5   6
ATOM      6  C   UNL     1       3.770  35.318  52.238  1.00  0.00     0.042 C 
ATOM      7  O   UNL     1       3.026  36.130  51.625  1.00  0.00    -0.550 OA
ATOM      8  O   UNL     1       5.130  35.286  51.958  1.00  0.00    -0.550 OA
ENDBRANCH   5   6
ENDBRANCH   1   5
TORSDOF 3
ENDMDL
MODEL 2
REMARK VINA RESULT:    -3.622      1.472      2.132
REMARK INTER + INTRA:          -4.428
REMARK INTER:                  -4.316
REMARK INTRA:                  -0.112
REMARK UNBOUND:                -0.171
REMARK SMILES O=C([O-])CCC(=O)[O-]
REMARK SMILES IDX 4 1 2 2 1 3 3 4 5 5 6 6 7 7 8 8
REMARK H PARENT
REMARK Flexibility Score: inf
ROOT
ATOM      1  C   UNL     1       4.403  35.297  54.981  1.00  0.00     0.059 C 
ENDROOT
BRANCH   1   2
ATOM      2  C   UNL     1       2.906  35.315  54.934  1.00  0.00     0.042 C 
ATOM      3  O   UNL     1       2.265  36.226  55.523  1.00  0.00    -0.550 OA
ATOM      4  O   UNL     1       2.217  34.304  54.275  1.00  0.00    -0.550 OA
ENDBRANCH   1   2
BRANCH   1   5
ATOM      5  C   UNL     1       5.016  36.093  53.823  1.00  0.00     0.059 C 
BRANCH   5   6
ATOM      6  C   UNL     1       5.016  35.304  52.550  1.00  0.00     0.042 C 
ATOM      7  O   UNL     1       5.942  34.483  52.315  1.00  0.00    -0.550 OA
ATOM      8  O   UNL     1       4.019  35.505  51.605  1.00  0.00    -0.550 OA
ENDBRANCH   5   6
ENDBRANCH   1   5
TORSDOF 3
ENDMDL
MODEL 3
REMARK VINA RESULT:    -3.618      1.483      3.381
REMARK INTER + INTRA:          -4.424
REMARK INTER:                  -4.309
REMARK INTRA:                  -0.114
REMARK UNBOUND:                -0.171
REMARK SMILES O=C([O-])CCC(=O)[O-]
REMARK SMILES IDX 4 1 2 2 1 3 3 4 5 5 6 6 7 7 8 8
REMARK H PARENT
REMARK Flexibility Score: inf
ROOT
ATOM      1  C   UNL     1       5.005  36.122  53.837  1.00  0.00     0.059 C 
ENDROOT
BRANCH   1   2
ATOM      2  C   UNL     1       5.037  35.321  52.571  1.00  0.00     0.042 C 
ATOM      3  O   UNL     1       5.977  34.510  52.359  1.00  0.00    -0.550 OA
ATOM      4  O   UNL     1       4.052  35.500  51.608  1.00  0.00    -0.550 OA
ENDBRANCH   1   2
BRANCH   1   5
ATOM      5  C   UNL     1       4.395  35.326  54.996  1.00  0.00     0.059 C 
BRANCH   5   6
ATOM      6  C   UNL     1       2.898  35.329  54.941  1.00  0.00     0.042 C 
ATOM      7  O   UNL     1       2.245  36.234  55.526  1.00  0.00    -0.550 OA
ATOM      8  O   UNL     1       2.223  34.313  54.279  1.00  0.00    -0.550 OA
ENDBRANCH   5   6
ENDBRANCH   1   5
TORSDOF 3
ENDMDL
MODEL 4
REMARK VINA RESULT:    -3.616     11.766     13.097
REMARK INTER + INTRA:          -4.421
REMARK INTER:                  -4.254
REMARK INTRA:                  -0.167
REMARK UNBOUND:                -0.171
REMARK SMILES O=C([O-])CCC(=O)[O-]
REMARK SMILES IDX 4 1 2 2 1 3 3 4 5 5 6 6 7 7 8 8
REMARK H PARENT
REMARK Flexibility Score: inf
ROOT
ATOM      1  C   UNL     1      10.794  33.301  42.408  1.00  0.00     0.059 C 
ENDROOT
BRANCH   1   2
ATOM      2  C   UNL     1       9.984  33.958  43.482  1.00  0.00     0.042 C 
ATOM      3  O   UNL     1       9.891  35.214  43.525  1.00  0.00    -0.550 OA
ATOM      4  O   UNL     1       9.367  33.188  44.460  1.00  0.00    -0.550 OA
ENDBRANCH   1   2
BRANCH   1   5
ATOM      5  C   UNL     1      10.104  33.393  41.042  1.00  0.00     0.059 C 
BRANCH   5   6
ATOM      6  C   UNL     1       8.758  32.735  41.057  1.00  0.00     0.042 C 
ATOM      7  O   UNL     1       8.668  31.479  41.096  1.00  0.00    -0.550 OA
ATOM      8  O   UNL     1       7.606  33.506  40.988  1.00  0.00    -0.550 OA
ENDBRANCH   5   6
ENDBRANCH   1   5
TORSDOF 3
ENDMDL
MODEL 5
REMARK VINA RESULT:    -3.613      0.032      3.591
REMARK INTER + INTRA:          -4.418
REMARK INTER:                  -4.249
REMARK INTRA:                  -0.169
REMARK UNBOUND:                -0.171
REMARK SMILES O=C([O-])CCC(=O)[O-]
REMARK SMILES IDX 4 1 2 2 1 3 3 4 5 5 6 6 7 7 8 8
REMARK H PARENT
REMARK Flexibility Score: inf
ROOT
ATOM      1  C   UNL     1       3.165  34.376  53.205  1.00  0.00     0.059 C 
ENDROOT
BRANCH   1   2
ATOM      2  C   UNL     1       3.758  35.332  52.216  1.00  0.00     0.042 C 
ATOM      3  O   UNL     1       3.016  36.128  51.581  1.00  0.00    -0.550 OA
ATOM      4  O   UNL     1       5.124  35.316  51.963  1.00  0.00    -0.550 OA
ENDBRANCH   1   2
BRANCH   1   5
ATOM      5  C   UNL     1       3.971  34.338  54.509  1.00  0.00     0.059 C 
BRANCH   5   6
ATOM      6  C   UNL     1       3.870  35.631  55.258  1.00  0.00     0.042 C 
ATOM      7  O   UNL     1       4.905  36.311  55.489  1.00  0.00    -0.550 OA
ATOM      8  O   UNL     1       2.641  36.065  55.738  1.00  0.00    -0.550 OA
ENDBRANCH   5   6
ENDBRANCH   1   5
TORSDOF 3
ENDMDL
MODEL 6
REMARK VINA RESULT:    -3.601      8.613     10.343
REMARK INTER + INTRA:          -4.404
REMARK INTER:                  -4.325
REMARK INTRA:                  -0.079
REMARK UNBOUND:                -0.171
REMARK SMILES O=C([O-])CCC(=O)[O-]
REMARK SMILES IDX 4 1 2 2 1 3 3 4 5 5 6 6 7 7 8 8
REMARK H PARENT
REMARK Flexibility Score: inf
ROOT
ATOM      1  C   UNL     1       5.345  42.315  46.240  1.00  0.00     0.059 C 
ENDROOT
BRANCH   1   2
ATOM      2  C   UNL     1       5.880  41.917  44.899  1.00  0.00     0.042 C 
ATOM      3  O   UNL     1       6.744  41.003  44.808  1.00  0.00    -0.550 OA
ATOM      4  O   UNL     1       5.459  42.582  43.755  1.00  0.00    -0.550 OA
ENDBRANCH   1   2
BRANCH   1   5
ATOM      5  C   UNL     1       5.266  41.119  47.196  1.00  0.00     0.059 C 
BRANCH   5   6
ATOM      6  C   UNL     1       5.986  41.390  48.481  1.00  0.00     0.042 C 
ATOM      7  O   UNL     1       5.405  42.008  49.413  1.00  0.00    -0.550 OA
ATOM      8  O   UNL     1       7.309  40.998  48.636  1.00  0.00    -0.550 OA
ENDBRANCH   5   6
ENDBRANCH   1   5
TORSDOF 3
ENDMDL
MODEL 7
REMARK VINA RESULT:    -3.599      8.603      9.777
REMARK INTER + INTRA:          -4.401
REMARK INTER:                  -4.331
REMARK INTRA:                  -0.070
REMARK UNBOUND:                -0.171
REMARK SMILES O=C([O-])CCC(=O)[O-]
REMARK SMILES IDX 4 1 2 2 1 3 3 4 5 5 6 6 7 7 8 8
REMARK H PARENT
REMARK Flexibility Score: inf
ROOT
ATOM      1  C   UNL     1       5.249  41.137  47.212  1.00  0.00     0.059 C 
ENDROOT
BRANCH   1   2
ATOM      2  C   UNL     1       5.954  41.425  48.501  1.00  0.00     0.042 C 
ATOM      3  O   UNL     1       5.371  42.073  49.411  1.00  0.00    -0.550 OA
ATOM      4  O   UNL     1       7.270  41.017  48.682  1.00  0.00    -0.550 OA
ENDBRANCH   1   2
BRANCH   1   5
ATOM      5  C   UNL     1       5.252  42.354  46.280  1.00  0.00     0.059 C 
BRANCH   5   6
ATOM      6  C   UNL     1       5.796  42.012  44.927  1.00  0.00     0.042 C 
ATOM      7  O   UNL     1       5.421  42.659  43.912  1.00  0.00    -0.550 OA
ATOM      8  O   UNL     1       6.684  40.956  44.779  1.00  0.00    -0.550 OA
ENDBRANCH   5   6
ENDBRANCH   1   5
TORSDOF 3
ENDMDL
MODEL 8
REMARK VINA RESULT:    -3.598     11.718     13.361
REMARK INTER + INTRA:          -4.400
REMARK INTER:                  -4.229
REMARK INTRA:                  -0.171
REMARK UNBOUND:                -0.171
REMARK SMILES O=C([O-])CCC(=O)[O-]
REMARK SMILES IDX 4 1 2 2 1 3 3 4 5 5 6 6 7 7 8 8
REMARK H PARENT
REMARK Flexibility Score: inf
ROOT
ATOM      1  C   UNL     1      10.097  33.459  41.091  1.00  0.00     0.059 C 
ENDROOT
BRANCH   1   2
ATOM      2  C   UNL     1       8.769  32.767  41.079  1.00  0.00     0.042 C 
ATOM      3  O   UNL     1       8.710  31.509  41.103  1.00  0.00    -0.550 OA
ATOM      4  O   UNL     1       7.597  33.509  40.998  1.00  0.00    -0.550 OA
ENDBRANCH   1   2
BRANCH   1   5
ATOM      5  C   UNL     1      10.787  33.335  42.454  1.00  0.00     0.059 C 
BRANCH   5   6
ATOM      6  C   UNL     1       9.994  33.999  43.537  1.00  0.00     0.042 C 
ATOM      7  O   UNL     1       9.938  35.256  43.601  1.00  0.00    -0.550 OA
ATOM      8  O   UNL     1       9.351  33.233  44.500  1.00  0.00    -0.550 OA
ENDBRANCH   5   6
ENDBRANCH   1   5
TORSDOF 3
ENDMDL
MODEL 9
REMARK VINA RESULT:    -3.419     11.049     12.711
REMARK INTER + INTRA:          -4.190
REMARK INTER:                  -4.071
REMARK INTRA:                  -0.119
REMARK UNBOUND:                -0.171
REMARK SMILES O=C([O-])CCC(=O)[O-]
REMARK SMILES IDX 4 1 2 2 1 3 3 4 5 5 6 6 7 7 8 8
REMARK H PARENT
REMARK Flexibility Score: inf
ROOT
ATOM      1  C   UNL     1       8.163  31.997  42.396  1.00  0.00     0.059 C 
ENDROOT
BRANCH   1   2
ATOM      2  C   UNL     1       7.887  32.391  43.815  1.00  0.00     0.042 C 
ATOM      3  O   UNL     1       8.778  32.964  44.497  1.00  0.00    -0.550 OA
ATOM      4  O   UNL     1       6.663  32.088  44.397  1.00  0.00    -0.550 OA
ENDBRANCH   1   2
BRANCH   1   5
ATOM      5  C   UNL     1       8.291  33.221  41.483  1.00  0.00     0.059 C 
BRANCH   5   6
ATOM      6  C   UNL     1       9.713  33.465  41.080  1.00  0.00     0.042 C 
ATOM      7  O   UNL     1      10.143  33.025  39.981  1.00  0.00    -0.550 OA
ATOM      8  O   UNL     1      10.573  34.141  41.935  1.00  0.00    -0.550 OA
ENDBRANCH   5   6
ENDBRANCH   1   5
TORSDOF 3
ENDMDL
