MODEL 1
REMARK VINA RESULT:     7.731      0.000      0.000
REMARK INTER + INTRA:           8.950
REMARK INTER:                   9.087
REMARK INTRA:                  -0.137
REMARK UNBOUND:                -0.137
REMARK SMILES O=C([O-])C=Cc1ccc(O)c(O)c1
REMARK SMILES IDX 6 1 13 2 7 3 11 4 8 5 9 6 5 7 4 8 2 9 1 10 3 11 12 12 10 14
REMARK H PARENT 12 13 10 15
REMARK Flexibility Score: inf
ROOT
ATOM      1  C   UNL     1      10.134  10.446  31.088  1.00  0.00    -0.022 A 
ATOM      2  C   UNL     1      11.441  10.175  30.649  1.00  0.00     0.058 A 
ATOM      3  C   UNL     1       9.599  11.733  30.876  1.00  0.00     0.012 A 
ATOM      4  C   UNL     1      12.211  11.173  30.034  1.00  0.00     0.157 A 
ATOM      5  C   UNL     1      10.367  12.726  30.263  1.00  0.00     0.051 A 
ATOM      6  C   UNL     1      11.674  12.452  29.843  1.00  0.00     0.157 A 
ENDROOT
BRANCH   1   7
ATOM      7  C   UNL     1       9.358   9.352  31.723  1.00  0.00     0.010 C 
ATOM      8  C   UNL     1       8.017   9.305  31.743  1.00  0.00     0.025 C 
BRANCH   8   9
ATOM      9  C   UNL     1       7.280   8.209  32.393  1.00  0.00     0.064 C 
ATOM     10  O   UNL     1       7.501   7.897  33.594  1.00  0.00    -0.545 OA
ATOM     11  O   UNL     1       6.327   7.504  31.670  1.00  0.00    -0.545 OA
ENDBRANCH   8   9
ENDBRANCH   1   7
BRANCH   4  12
ATOM     12  O   UNL     1      13.511  10.901  29.610  1.00  0.00    -0.504 OA
ATOM     13  H   UNL     1      13.776  10.971  28.633  1.00  0.00     0.293 HD
ENDBRANCH   4  12
BRANCH   6  14
ATOM     14  O   UNL     1      12.443  13.441  29.232  1.00  0.00    -0.504 OA
ATOM     15  H   UNL     1      13.048  14.050  29.772  1.00  0.00     0.293 HD
ENDBRANCH   6  14
TORSDOF 4
ENDMDL
MODEL 2
REMARK VINA RESULT:     9.924      3.099      6.496
REMARK INTER + INTRA:          11.528
REMARK INTER:                  11.668
REMARK INTRA:                  -0.141
REMARK UNBOUND:                -0.137
REMARK SMILES O=C([O-])C=Cc1ccc(O)c(O)c1
REMARK SMILES IDX 6 1 13 2 7 3 11 4 8 5 9 6 5 7 4 8 2 9 1 10 3 11 12 12 10 14
REMARK H PARENT 12 13 10 15
REMARK Flexibility Score: inf
ROOT
ATOM      1  C   UNL     1      11.259  12.762  28.848  1.00  0.00    -0.022 A 
ATOM      2  C   UNL     1      10.303  11.890  29.397  1.00  0.00     0.058 A 
ATOM      3  C   UNL     1      12.457  12.988  29.555  1.00  0.00     0.012 A 
ATOM      4  C   UNL     1      10.523  11.275  30.638  1.00  0.00     0.157 A 
ATOM      5  C   UNL     1      12.675  12.375  30.791  1.00  0.00     0.051 A 
ATOM      6  C   UNL     1      11.711  11.520  31.338  1.00  0.00     0.157 A 
ENDROOT
BRANCH   1   7
ATOM      7  C   UNL     1      10.982  13.378  27.527  1.00  0.00     0.010 C 
ATOM      8  C   UNL     1      11.866  14.133  26.857  1.00  0.00     0.025 C 
BRANCH   8   9
ATOM      9  C   UNL     1      11.551  14.738  25.553  1.00  0.00     0.064 C 
ATOM     10  O   UNL     1      12.343  15.550  25.003  1.00  0.00    -0.545 OA
ATOM     11  O   UNL     1      10.359  14.412  24.919  1.00  0.00    -0.545 OA
ENDBRANCH   8   9
ENDBRANCH   1   7
BRANCH   4  12
ATOM     12  O   UNL     1       9.566  10.420  31.182  1.00  0.00    -0.504 OA
ATOM     13  H   UNL     1       9.199  10.560  32.116  1.00  0.00     0.293 HD
ENDBRANCH   4  12
BRANCH   6  14
ATOM     14  O   UNL     1      11.925  10.908  32.571  1.00  0.00    -0.504 OA
ATOM     15  H   UNL     1      11.996   9.900  32.657  1.00  0.00     0.293 HD
ENDBRANCH   6  14
TORSDOF 4
ENDMDL
MODEL 3
REMARK VINA RESULT:    10.387      8.160      8.671
REMARK INTER + INTRA:          12.072
REMARK INTER:                  12.206
REMARK INTRA:                  -0.133
REMARK UNBOUND:                -0.137
REMARK SMILES O=C([O-])C=Cc1ccc(O)c(O)c1
REMARK SMILES IDX 6 1 13 2 7 3 11 4 8 5 9 6 5 7 4 8 2 9 1 10 3 11 12 12 10 14
REMARK H PARENT 12 13 10 15
REMARK Flexibility Score: inf
ROOT
ATOM      1  C   UNL     1      11.937   1.906  30.523  1.00  0.00    -0.022 A 
ATOM      2  C   UNL     1      12.051   2.614  29.316  1.00  0.00     0.058 A 
ATOM      3  C   UNL     1      12.994   1.971  31.453  1.00  0.00     0.012 A 
ATOM      4  C   UNL     1      13.208   3.354  29.027  1.00  0.00     0.157 A 
ATOM      5  C   UNL     1      14.144   2.708  31.164  1.00  0.00     0.051 A 
ATOM      6  C   UNL     1      14.257   3.399  29.951  1.00  0.00     0.157 A 
ENDROOT
BRANCH   1   7
ATOM      7  C   UNL     1      10.688   1.147  30.785  1.00  0.00     0.010 C 
ATOM      8  C   UNL     1       9.522   1.397  30.170  1.00  0.00     0.025 C 
BRANCH   8   9
ATOM      9  C   UNL     1       8.300   0.632  30.464  1.00  0.00     0.064 C 
ATOM     10  O   UNL     1       8.347  -0.602  30.718  1.00  0.00    -0.545 OA
ATOM     11  O   UNL     1       7.071   1.279  30.456  1.00  0.00    -0.545 OA
ENDBRANCH   8   9
ENDBRANCH   1   7
BRANCH   4  12
ATOM     12  O   UNL     1      13.320   4.047  27.822  1.00  0.00    -0.504 OA
ATOM     13  H   UNL     1      12.820   3.750  26.991  1.00  0.00     0.293 HD
ENDBRANCH   4  12
BRANCH   6  14
ATOM     14  O   UNL     1      15.405   4.134  29.660  1.00  0.00    -0.504 OA
ATOM     15  H   UNL     1      15.380   4.927  29.029  1.00  0.00     0.293 HD
ENDBRANCH   6  14
TORSDOF 4
ENDMDL
