MODEL 1
REMARK VINA RESULT:    -2.945      0.000      0.000
REMARK INTER + INTRA:          -3.295
REMARK INTER:                  -3.289
REMARK INTRA:                  -0.006
REMARK UNBOUND:                -0.006
REMARK SMILES CCCC(=O)[O-]
REMARK SMILES IDX 3 1 4 2 5 3 6 4 2 5 1 6
REMARK H PARENT
REMARK Flexibility Score: inf
ROOT
ATOM      1  C   UNL     1      22.078  37.571   3.311  1.00  0.00     0.052 C 
ENDROOT
BRANCH   1   2
ATOM      2  C   UNL     1      22.332  38.248   4.621  1.00  0.00     0.041 C 
ATOM      3  O   UNL     1      22.371  39.505   4.687  1.00  0.00    -0.550 OA
ATOM      4  O   UNL     1      22.476  37.493   5.778  1.00  0.00    -0.550 OA
ENDBRANCH   1   2
BRANCH   1   5
ATOM      5  C   UNL     1      20.839  36.676   3.402  1.00  0.00     0.003 C 
ATOM      6  C   UNL     1      20.451  36.134   2.029  1.00  0.00     0.004 C 
ENDBRANCH   1   5
TORSDOF 2
ENDMDL
MODEL 2
REMARK VINA RESULT:    -2.894      3.225      4.024
REMARK INTER + INTRA:          -3.238
REMARK INTER:                  -3.200
REMARK INTRA:                  -0.038
REMARK UNBOUND:                -0.006
REMARK SMILES CCCC(=O)[O-]
REMARK SMILES IDX 3 1 4 2 5 3 6 4 2 5 1 6
REMARK H PARENT
REMARK Flexibility Score: inf
ROOT
ATOM      1  C   UNL     1      20.609  36.306   2.193  1.00  0.00     0.052 C 
ENDROOT
BRANCH   1   2
ATOM      2  C   UNL     1      21.444  35.195   1.641  1.00  0.00     0.041 C 
ATOM      3  O   UNL     1      22.614  35.008   2.068  1.00  0.00    -0.550 OA
ATOM      4  O   UNL     1      20.913  34.332   0.690  1.00  0.00    -0.550 OA
ENDBRANCH   1   2
BRANCH   1   5
ATOM      5  C   UNL     1      21.317  36.972   3.375  1.00  0.00     0.003 C 
ATOM      6  C   UNL     1      20.635  36.622   4.694  1.00  0.00     0.004 C 
ENDBRANCH   1   5
TORSDOF 2
ENDMDL
MODEL 3
REMARK VINA RESULT:    -2.860      2.238      3.296
REMARK INTER + INTRA:          -3.201
REMARK INTER:                  -3.188
REMARK INTRA:                  -0.013
REMARK UNBOUND:                -0.006
REMARK SMILES CCCC(=O)[O-]
REMARK SMILES IDX 3 1 4 2 5 3 6 4 2 5 1 6
REMARK H PARENT
REMARK Flexibility Score: inf
ROOT
ATOM      1  C   UNL     1      22.123  37.555   3.268  1.00  0.00     0.052 C 
ENDROOT
BRANCH   1   2
ATOM      2  C   UNL     1      20.862  36.755   3.185  1.00  0.00     0.041 C 
ATOM      3  O   UNL     1      20.423  36.379   2.066  1.00  0.00    -0.550 OA
ATOM      4  O   UNL     1      20.197  36.381   4.346  1.00  0.00    -0.550 OA
ENDBRANCH   1   2
BRANCH   1   5
ATOM      5  C   UNL     1      22.218  38.267   4.621  1.00  0.00     0.003 C 
ATOM      6  C   UNL     1      22.775  39.679   4.461  1.00  0.00     0.004 C 
ENDBRANCH   1   5
TORSDOF 2
ENDMDL
MODEL 4
REMARK VINA RESULT:    -2.772     12.151     12.842
REMARK INTER + INTRA:          -3.101
REMARK INTER:                  -3.051
REMARK INTRA:                  -0.050
REMARK UNBOUND:                -0.006
REMARK SMILES CCCC(=O)[O-]
REMARK SMILES IDX 3 1 4 2 5 3 6 4 2 5 1 6
REMARK H PARENT
REMARK Flexibility Score: inf
ROOT
ATOM      1  C   UNL     1      14.169  27.678   8.665  1.00  0.00     0.052 C 
ENDROOT
BRANCH   1   2
ATOM      2  C   UNL     1      15.039  27.841   7.459  1.00  0.00     0.041 C 
ATOM      3  O   UNL     1      16.209  28.292   7.579  1.00  0.00    -0.550 OA
ATOM      4  O   UNL     1      14.578  27.448   6.209  1.00  0.00    -0.550 OA
ENDBRANCH   1   2
BRANCH   1   5
ATOM      5  C   UNL     1      13.580  29.027   9.086  1.00  0.00     0.003 C 
ATOM      6  C   UNL     1      12.309  29.341   8.302  1.00  0.00     0.004 C 
ENDBRANCH   1   5
TORSDOF 2
ENDMDL
MODEL 5
REMARK VINA RESULT:    -2.755     16.899     17.871
REMARK INTER + INTRA:          -3.083
REMARK INTER:                  -3.077
REMARK INTRA:                  -0.006
REMARK UNBOUND:                -0.006
REMARK SMILES CCCC(=O)[O-]
REMARK SMILES IDX 3 1 4 2 5 3 6 4 2 5 1 6
REMARK H PARENT
REMARK Flexibility Score: inf
ROOT
ATOM      1  C   UNL     1       5.357  34.340  -2.070  1.00  0.00     0.052 C 
ENDROOT
BRANCH   1   2
ATOM      2  C   UNL     1       6.701  33.709  -2.254  1.00  0.00     0.041 C 
ATOM      3  O   UNL     1       7.529  33.695  -1.306  1.00  0.00    -0.550 OA
ATOM      4  O   UNL     1       7.022  33.094  -3.458  1.00  0.00    -0.550 OA
ENDBRANCH   1   2
BRANCH   1   5
ATOM      5  C   UNL     1       4.248  33.369  -2.484  1.00  0.00     0.003 C 
ATOM      6  C   UNL     1       2.876  33.895  -2.074  1.00  0.00     0.004 C 
ENDBRANCH   1   5
TORSDOF 2
ENDMDL
MODEL 6
REMARK VINA RESULT:    -2.691     16.015     16.997
REMARK INTER + INTRA:          -3.012
REMARK INTER:                  -2.998
REMARK INTRA:                  -0.014
REMARK UNBOUND:                -0.006
REMARK SMILES CCCC(=O)[O-]
REMARK SMILES IDX 3 1 4 2 5 3 6 4 2 5 1 6
REMARK H PARENT
REMARK Flexibility Score: inf
ROOT
ATOM      1  C   UNL     1       6.180  33.760  -2.549  1.00  0.00     0.052 C 
ENDROOT
BRANCH   1   2
ATOM      2  C   UNL     1       7.351  33.753  -1.619  1.00  0.00     0.041 C 
ATOM      3  O   UNL     1       8.379  33.081  -1.898  1.00  0.00    -0.550 OA
ATOM      4  O   UNL     1       7.328  34.529  -0.466  1.00  0.00    -0.550 OA
ENDBRANCH   1   2
BRANCH   1   5
ATOM      5  C   UNL     1       4.965  34.405  -1.878  1.00  0.00     0.003 C 
ATOM      6  C   UNL     1       3.679  33.668  -2.242  1.00  0.00     0.004 C 
ENDBRANCH   1   5
TORSDOF 2
ENDMDL
MODEL 7
REMARK VINA RESULT:    -2.670     14.280     14.703
REMARK INTER + INTRA:          -2.988
REMARK INTER:                  -2.949
REMARK INTRA:                  -0.039
REMARK UNBOUND:                -0.006
REMARK SMILES CCCC(=O)[O-]
REMARK SMILES IDX 3 1 4 2 5 3 6 4 2 5 1 6
REMARK H PARENT
REMARK Flexibility Score: inf
ROOT
ATOM      1  C   UNL     1       9.780  33.047  -0.754  1.00  0.00     0.052 C 
ENDROOT
BRANCH   1   2
ATOM      2  C   UNL     1       8.446  33.442  -1.305  1.00  0.00     0.041 C 
ATOM      3  O   UNL     1       8.078  33.023  -2.434  1.00  0.00    -0.550 OA
ATOM      4  O   UNL     1       7.588  34.231  -0.550  1.00  0.00    -0.550 OA
ENDBRANCH   1   2
BRANCH   1   5
ATOM      5  C   UNL     1       9.977  31.532  -0.860  1.00  0.00     0.003 C 
ATOM      6  C   UNL     1      11.132  31.192  -1.797  1.00  0.00     0.004 C 
ENDBRANCH   1   5
TORSDOF 2
ENDMDL
MODEL 8
REMARK VINA RESULT:    -2.667     13.194     13.784
REMARK INTER + INTRA:          -2.984
REMARK INTER:                  -2.920
REMARK INTRA:                  -0.064
REMARK UNBOUND:                -0.006
REMARK SMILES CCCC(=O)[O-]
REMARK SMILES IDX 3 1 4 2 5 3 6 4 2 5 1 6
REMARK H PARENT
REMARK Flexibility Score: inf
ROOT
ATOM      1  C   UNL     1       8.570  33.484  -0.916  1.00  0.00     0.052 C 
ENDROOT
BRANCH   1   2
ATOM      2  C   UNL     1       9.279  34.205   0.186  1.00  0.00     0.041 C 
ATOM      3  O   UNL     1       8.828  34.167   1.362  1.00  0.00    -0.550 OA
ATOM      4  O   UNL     1      10.466  34.878  -0.073  1.00  0.00    -0.550 OA
ENDBRANCH   1   2
BRANCH   1   5
ATOM      5  C   UNL     1       9.528  32.534  -1.639  1.00  0.00     0.003 C 
ATOM      6  C   UNL     1      10.045  31.451  -0.696  1.00  0.00     0.004 C 
ENDBRANCH   1   5
TORSDOF 2
ENDMDL
MODEL 9
REMARK VINA RESULT:    -2.612     13.692     14.282
REMARK INTER + INTRA:          -2.923
REMARK INTER:                  -2.871
REMARK INTRA:                  -0.051
REMARK UNBOUND:                -0.006
REMARK SMILES CCCC(=O)[O-]
REMARK SMILES IDX 3 1 4 2 5 3 6 4 2 5 1 6
REMARK H PARENT
REMARK Flexibility Score: inf
ROOT
ATOM      1  C   UNL     1      10.247  33.236  -0.953  1.00  0.00     0.052 C 
ENDROOT
BRANCH   1   2
ATOM      2  C   UNL     1      10.359  31.745  -0.997  1.00  0.00     0.041 C 
ATOM      3  O   UNL     1       9.924  31.048  -0.042  1.00  0.00    -0.550 OA
ATOM      4  O   UNL     1      10.899  31.120  -2.114  1.00  0.00    -0.550 OA
ENDBRANCH   1   2
BRANCH   1   5
ATOM      5  C   UNL     1       8.887  33.655  -0.388  1.00  0.00     0.003 C 
ATOM      6  C   UNL     1       7.828  33.707  -1.485  1.00  0.00     0.004 C 
ENDBRANCH   1   5
TORSDOF 2
ENDMDL
