MODEL 1
REMARK VINA RESULT:    -4.393      0.000      0.000
REMARK INTER + INTRA:          -4.817
REMARK INTER:                  -4.778
REMARK INTRA:                  -0.038
REMARK UNBOUND:                -0.038
REMARK SMILES CC1(C)[C@H]2CC=C(CO)[C@@H]1C2
REMARK SMILES IDX 8 1 7 2 1 3 2 4 4 5 3 6 10 7 5 8 11 9 6 10 9 11
REMARK H PARENT 9 12
REMARK Flexibility Score: inf
ROOT
ATOM      1  C   UNL     1      33.444  79.810  22.994  1.00  0.00     0.187 C 
ENDROOT
BRANCH   1   2
ATOM      2  C   UNL     1      32.124  80.117  22.342  1.00  0.00    -0.045 C 
ATOM      3  C   UNL     1      29.810  78.315  22.723  1.00  0.00     0.012 C 
ATOM      4  C   UNL     1      30.204  78.850  21.318  1.00  0.00    -0.026 C 
ATOM      5  C   UNL     1      29.776  80.290  20.922  1.00  0.00    -0.000 C 
ATOM      6  C   UNL     1      29.777  77.801  20.261  1.00  0.00     0.012 C 
ATOM      7  C   UNL     1      31.658  79.347  21.100  1.00  0.00     0.023 C 
ATOM      8  C   UNL     1      29.902  81.255  22.152  1.00  0.00     0.031 C 
ATOM      9  C   UNL     1      31.104  80.424  20.148  1.00  0.00     0.013 C 
ATOM     10  C   UNL     1      31.269  81.058  22.839  1.00  0.00    -0.025 C 
ENDBRANCH   1   2
BRANCH   1  11
ATOM     11  O   UNL     1      34.493  80.094  22.110  1.00  0.00    -0.392 OA
ATOM     12  H   UNL     1      34.700  81.059  22.218  1.00  0.00     0.211 HD
ENDBRANCH   1  11
TORSDOF 2
ENDMDL
MODEL 2
REMARK VINA RESULT:    -4.369      2.346      3.772
REMARK INTER + INTRA:          -4.790
REMARK INTER:                  -4.768
REMARK INTRA:                  -0.022
REMARK UNBOUND:                -0.038
REMARK SMILES CC1(C)[C@H]2CC=C(CO)[C@@H]1C2
REMARK SMILES IDX 8 1 7 2 1 3 2 4 4 5 3 6 10 7 5 8 11 9 6 10 9 11
REMARK H PARENT 9 12
REMARK Flexibility Score: inf
ROOT
ATOM      1  C   UNL     1      29.820  76.864  20.809  1.00  0.00     0.187 C 
ENDROOT
BRANCH   1   2
ATOM      2  C   UNL     1      30.073  78.337  20.972  1.00  0.00    -0.045 C 
ATOM      3  C   UNL     1      32.822  79.413  20.789  1.00  0.00     0.012 C 
ATOM      4  C   UNL     1      31.857  79.832  21.933  1.00  0.00    -0.026 C 
ATOM      5  C   UNL     1      30.777  80.910  21.639  1.00  0.00    -0.000 C 
ATOM      6  C   UNL     1      32.705  80.180  23.182  1.00  0.00     0.012 C 
ATOM      7  C   UNL     1      30.666  78.898  22.272  1.00  0.00     0.023 C 
ATOM      8  C   UNL     1      30.189  80.715  20.198  1.00  0.00     0.031 C 
ATOM      9  C   UNL     1      29.825  80.150  22.585  1.00  0.00     0.013 C 
ATOM     10  C   UNL     1      29.828  79.233  19.971  1.00  0.00    -0.025 C 
ENDBRANCH   1   2
BRANCH   1  11
ATOM     11  O   UNL     1      28.693  76.658  20.002  1.00  0.00    -0.392 OA
ATOM     12  H   UNL     1      28.888  75.862  19.441  1.00  0.00     0.211 HD
ENDBRANCH   1  11
TORSDOF 2
ENDMDL
MODEL 3
REMARK VINA RESULT:    -4.351      2.033      2.990
REMARK INTER + INTRA:          -4.771
REMARK INTER:                  -4.703
REMARK INTRA:                  -0.068
REMARK UNBOUND:                -0.038
REMARK SMILES CC1(C)[C@H]2CC=C(CO)[C@@H]1C2
REMARK SMILES IDX 8 1 7 2 1 3 2 4 4 5 3 6 10 7 5 8 11 9 6 10 9 11
REMARK H PARENT 9 12
REMARK Flexibility Score: inf
ROOT
ATOM      1  C   UNL     1      29.973  81.424  23.622  1.00  0.00     0.187 C 
ENDROOT
BRANCH   1   2
ATOM      2  C   UNL     1      30.718  80.455  22.746  1.00  0.00    -0.045 C 
ATOM      3  C   UNL     1      30.147  80.312  19.847  1.00  0.00     0.012 C 
ATOM      4  C   UNL     1      30.259  79.031  20.721  1.00  0.00    -0.026 C 
ATOM      5  C   UNL     1      31.672  78.492  21.075  1.00  0.00    -0.000 C 
ATOM      6  C   UNL     1      29.354  77.938  20.098  1.00  0.00     0.012 C 
ATOM      7  C   UNL     1      30.052  79.163  22.253  1.00  0.00     0.023 C 
ATOM      8  C   UNL     1      32.654  79.680  21.362  1.00  0.00     0.031 C 
ATOM      9  C   UNL     1      31.117  78.067  22.450  1.00  0.00     0.013 C 
ATOM     10  C   UNL     1      31.994  80.691  22.320  1.00  0.00    -0.025 C 
ENDBRANCH   1   2
BRANCH   1  11
ATOM     11  O   UNL     1      28.993  82.091  22.875  1.00  0.00    -0.392 OA
ATOM     12  H   UNL     1      28.275  82.344  23.513  1.00  0.00     0.211 HD
ENDBRANCH   1  11
TORSDOF 2
ENDMDL
MODEL 4
REMARK VINA RESULT:    -4.304      2.208      3.610
REMARK INTER + INTRA:          -4.720
REMARK INTER:                  -4.663
REMARK INTRA:                  -0.056
REMARK UNBOUND:                -0.038
REMARK SMILES CC1(C)[C@H]2CC=C(CO)[C@@H]1C2
REMARK SMILES IDX 8 1 7 2 1 3 2 4 4 5 3 6 10 7 5 8 11 9 6 10 9 11
REMARK H PARENT 9 12
REMARK Flexibility Score: inf
ROOT
ATOM      1  C   UNL     1      30.188  81.070  19.389  1.00  0.00     0.187 C 
ENDROOT
BRANCH   1   2
ATOM      2  C   UNL     1      30.646  79.951  20.283  1.00  0.00    -0.045 C 
ATOM      3  C   UNL     1      29.750  79.818  23.098  1.00  0.00     0.012 C 
ATOM      4  C   UNL     1      31.240  79.617  22.707  1.00  0.00    -0.026 C 
ATOM      5  C   UNL     1      31.687  78.233  22.160  1.00  0.00    -0.000 C 
ATOM      6  C   UNL     1      32.122  80.091  23.890  1.00  0.00     0.012 C 
ATOM      7  C   UNL     1      31.728  80.182  21.346  1.00  0.00     0.023 C 
ATOM      8  C   UNL     1      30.580  77.633  21.224  1.00  0.00     0.031 C 
ATOM      9  C   UNL     1      32.670  78.968  21.226  1.00  0.00     0.013 C 
ATOM     10  C   UNL     1      30.103  78.700  20.218  1.00  0.00    -0.025 C 
ENDBRANCH   1   2
BRANCH   1  11
ATOM     11  O   UNL     1      28.980  81.599  19.864  1.00  0.00    -0.392 OA
ATOM     12  H   UNL     1      29.051  82.586  19.778  1.00  0.00     0.211 HD
ENDBRANCH   1  11
TORSDOF 2
ENDMDL
MODEL 5
REMARK VINA RESULT:    -4.176      2.110      3.390
REMARK INTER + INTRA:          -4.581
REMARK INTER:                  -4.535
REMARK INTRA:                  -0.046
REMARK UNBOUND:                -0.038
REMARK SMILES CC1(C)[C@H]2CC=C(CO)[C@@H]1C2
REMARK SMILES IDX 8 1 7 2 1 3 2 4 4 5 3 6 10 7 5 8 11 9 6 10 9 11
REMARK H PARENT 9 12
REMARK Flexibility Score: inf
ROOT
ATOM      1  C   UNL     1      30.141  80.861  19.517  1.00  0.00     0.187 C 
ENDROOT
BRANCH   1   2
ATOM      2  C   UNL     1      30.878  80.421  20.751  1.00  0.00    -0.045 C 
ATOM      3  C   UNL     1      30.337  77.774  21.956  1.00  0.00     0.012 C 
ATOM      4  C   UNL     1      30.416  79.063  22.821  1.00  0.00    -0.026 C 
ATOM      5  C   UNL     1      31.816  79.616  23.207  1.00  0.00    -0.000 C 
ATOM      6  C   UNL     1      29.500  78.876  24.056  1.00  0.00     0.012 C 
ATOM      7  C   UNL     1      30.195  80.432  22.126  1.00  0.00     0.023 C 
ATOM      8  C   UNL     1      32.816  79.457  22.009  1.00  0.00     0.031 C 
ATOM      9  C   UNL     1      31.238  81.041  23.083  1.00  0.00     0.013 C 
ATOM     10  C   UNL     1      32.162  79.959  20.706  1.00  0.00    -0.025 C 
ENDBRANCH   1   2
BRANCH   1  11
ATOM     11  O   UNL     1      28.995  81.583  19.874  1.00  0.00    -0.392 OA
ATOM     12  H   UNL     1      28.242  81.192  19.358  1.00  0.00     0.211 HD
ENDBRANCH   1  11
TORSDOF 2
ENDMDL
MODEL 6
REMARK VINA RESULT:    -4.159      2.244      3.347
REMARK INTER + INTRA:          -4.562
REMARK INTER:                  -4.514
REMARK INTRA:                  -0.048
REMARK UNBOUND:                -0.038
REMARK SMILES CC1(C)[C@H]2CC=C(CO)[C@@H]1C2
REMARK SMILES IDX 8 1 7 2 1 3 2 4 4 5 3 6 10 7 5 8 11 9 6 10 9 11
REMARK H PARENT 9 12
REMARK Flexibility Score: inf
ROOT
ATOM      1  C   UNL     1      29.354  77.091  22.553  1.00  0.00     0.187 C 
ENDROOT
BRANCH   1   2
ATOM      2  C   UNL     1      30.409  78.123  22.268  1.00  0.00    -0.045 C 
ATOM      3  C   UNL     1      29.673  80.970  21.948  1.00  0.00     0.012 C 
ATOM      4  C   UNL     1      30.630  80.258  20.952  1.00  0.00    -0.026 C 
ATOM      5  C   UNL     1      32.119  80.072  21.353  1.00  0.00    -0.000 C 
ATOM      6  C   UNL     1      30.477  80.933  19.566  1.00  0.00     0.012 C 
ATOM      7  C   UNL     1      30.581  78.710  20.861  1.00  0.00     0.023 C 
ATOM      8  C   UNL     1      32.235  79.724  22.878  1.00  0.00     0.031 C 
ATOM      9  C   UNL     1      32.102  78.717  20.616  1.00  0.00     0.013 C 
ATOM     10  C   UNL     1      31.231  78.611  23.243  1.00  0.00    -0.025 C 
ENDBRANCH   1   2
BRANCH   1  11
ATOM     11  O   UNL     1      28.725  76.706  21.362  1.00  0.00    -0.392 OA
ATOM     12  H   UNL     1      28.548  77.540  20.854  1.00  0.00     0.211 HD
ENDBRANCH   1  11
TORSDOF 2
ENDMDL
MODEL 7
REMARK VINA RESULT:    -4.059      1.079      2.077
REMARK INTER + INTRA:          -4.453
REMARK INTER:                  -4.395
REMARK INTRA:                  -0.059
REMARK UNBOUND:                -0.038
REMARK SMILES CC1(C)[C@H]2CC=C(CO)[C@@H]1C2
REMARK SMILES IDX 8 1 7 2 1 3 2 4 4 5 3 6 10 7 5 8 11 9 6 10 9 11
REMARK H PARENT 9 12
REMARK Flexibility Score: inf
ROOT
ATOM      1  C   UNL     1      33.605  80.031  21.878  1.00  0.00     0.187 C 
ENDROOT
BRANCH   1   2
ATOM      2  C   UNL     1      32.259  79.571  21.391  1.00  0.00    -0.045 C 
ATOM      3  C   UNL     1      29.805  80.275  22.885  1.00  0.00     0.012 C 
ATOM      4  C   UNL     1      30.066  78.828  22.381  1.00  0.00    -0.026 C 
ATOM      5  C   UNL     1      29.779  78.495  20.891  1.00  0.00    -0.000 C 
ATOM      6  C   UNL     1      29.362  77.842  23.347  1.00  0.00     0.012 C 
ATOM      7  C   UNL     1      31.527  78.407  22.073  1.00  0.00     0.023 C 
ATOM      8  C   UNL     1      30.200  79.694  19.972  1.00  0.00     0.031 C 
ATOM      9  C   UNL     1      30.992  77.542  20.916  1.00  0.00     0.013 C 
ATOM     10  C   UNL     1      31.612  80.183  20.356  1.00  0.00    -0.025 C 
ENDBRANCH   1   2
BRANCH   1  11
ATOM     11  O   UNL     1      33.814  79.597  23.193  1.00  0.00    -0.392 OA
ATOM     12  H   UNL     1      34.163  80.378  23.697  1.00  0.00     0.211 HD
ENDBRANCH   1  11
TORSDOF 2
ENDMDL
MODEL 8
REMARK VINA RESULT:    -3.922      6.794      8.199
REMARK INTER + INTRA:          -4.304
REMARK INTER:                  -4.243
REMARK INTRA:                  -0.061
REMARK UNBOUND:                -0.038
REMARK SMILES CC1(C)[C@H]2CC=C(CO)[C@@H]1C2
REMARK SMILES IDX 8 1 7 2 1 3 2 4 4 5 3 6 10 7 5 8 11 9 6 10 9 11
REMARK H PARENT 9 12
REMARK Flexibility Score: inf
ROOT
ATOM      1  C   UNL     1      34.701  71.947  19.914  1.00  0.00     0.187 C 
ENDROOT
BRANCH   1   2
ATOM      2  C   UNL     1      33.219  72.136  20.082  1.00  0.00    -0.045 C 
ATOM      3  C   UNL     1      31.317  70.695  18.334  1.00  0.00     0.012 C 
ATOM      4  C   UNL     1      31.166  72.214  18.625  1.00  0.00    -0.026 C 
ATOM      5  C   UNL     1      30.521  72.655  19.968  1.00  0.00    -0.000 C 
ATOM      6  C   UNL     1      30.484  72.878  17.403  1.00  0.00     0.012 C 
ATOM      7  C   UNL     1      32.416  73.001  19.101  1.00  0.00     0.023 C 
ATOM      8  C   UNL     1      30.986  71.714  21.133  1.00  0.00     0.031 C 
ATOM      9  C   UNL     1      31.490  73.855  19.988  1.00  0.00     0.013 C 
ATOM     10  C   UNL     1      32.516  71.525  21.081  1.00  0.00    -0.025 C 
ENDBRANCH   1   2
BRANCH   1  11
ATOM     11  O   UNL     1      34.954  70.819  19.123  1.00  0.00    -0.392 OA
ATOM     12  H   UNL     1      35.829  70.975  18.681  1.00  0.00     0.211 HD
ENDBRANCH   1  11
TORSDOF 2
ENDMDL
MODEL 9
REMARK VINA RESULT:    -3.916      8.995     10.088
REMARK INTER + INTRA:          -4.298
REMARK INTER:                  -4.252
REMARK INTRA:                  -0.046
REMARK UNBOUND:                -0.038
REMARK SMILES CC1(C)[C@H]2CC=C(CO)[C@@H]1C2
REMARK SMILES IDX 8 1 7 2 1 3 2 4 4 5 3 6 10 7 5 8 11 9 6 10 9 11
REMARK H PARENT 9 12
REMARK Flexibility Score: inf
ROOT
ATOM      1  C   UNL     1      32.844  70.499  22.895  1.00  0.00     0.187 C 
ENDROOT
BRANCH   1   2
ATOM      2  C   UNL     1      33.506  70.616  21.550  1.00  0.00    -0.045 C 
ATOM      3  C   UNL     1      31.936  71.406  19.171  1.00  0.00     0.012 C 
ATOM      4  C   UNL     1      32.922  70.204  19.136  1.00  0.00    -0.026 C 
ATOM      5  C   UNL     1      34.439  70.489  18.967  1.00  0.00    -0.000 C 
ATOM      6  C   UNL     1      32.400  69.178  18.098  1.00  0.00     0.012 C 
ATOM      7  C   UNL     1      33.315  69.534  20.479  1.00  0.00     0.023 C 
ATOM      8  C   UNL     1      34.848  71.767  19.779  1.00  0.00     0.031 C 
ATOM      9  C   UNL     1      34.722  69.294  19.900  1.00  0.00     0.013 C 
ATOM     10  C   UNL     1      34.269  71.694  21.206  1.00  0.00    -0.025 C 
ENDBRANCH   1   2
BRANCH   1  11
ATOM     11  O   UNL     1      32.389  69.189  23.094  1.00  0.00    -0.392 OA
ATOM     12  H   UNL     1      33.135  68.588  22.833  1.00  0.00     0.211 HD
ENDBRANCH   1  11
TORSDOF 2
ENDMDL
