MODEL 1
REMARK VINA RESULT:    -4.444      0.000      0.000
REMARK INTER + INTRA:          -4.728
REMARK INTER:                  -4.704
REMARK INTRA:                  -0.024
REMARK UNBOUND:                -0.024
REMARK SMILES O=C([O-])c1cccnc1
REMARK SMILES IDX 4 1 5 2 9 3 6 4 8 5 7 6 2 7 1 8 3 9
REMARK H PARENT
REMARK Flexibility Score: inf
ROOT
ATOM      1  C   UNL     1       3.431  -8.587   4.900  1.00  0.00     0.016 A 
ATOM      2  C   UNL     1       3.135  -8.119   6.189  1.00  0.00     0.013 A 
ATOM      3  C   UNL     1       4.711  -8.334   4.374  1.00  0.00     0.120 A 
ATOM      4  C   UNL     1       4.098  -7.422   6.921  1.00  0.00     0.021 A 
ATOM      5  N   UNL     1       5.631  -7.652   5.108  1.00  0.00    -0.264 NA
ATOM      6  C   UNL     1       5.353  -7.195   6.358  1.00  0.00     0.111 A 
ENDROOT
BRANCH   1   7
ATOM      7  C   UNL     1       2.419  -9.327   4.115  1.00  0.00     0.073 C 
ATOM      8  O   UNL     1       1.295  -9.600   4.615  1.00  0.00    -0.545 OA
ATOM      9  O   UNL     1       2.695  -9.732   2.814  1.00  0.00    -0.545 OA
ENDBRANCH   1   7
TORSDOF 1
ENDMDL
MODEL 2
REMARK VINA RESULT:    -4.441      2.968      3.670
REMARK INTER + INTRA:          -4.724
REMARK INTER:                  -4.708
REMARK INTRA:                  -0.016
REMARK UNBOUND:                -0.024
REMARK SMILES O=C([O-])c1cccnc1
REMARK SMILES IDX 4 1 5 2 9 3 6 4 8 5 7 6 2 7 1 8 3 9
REMARK H PARENT
REMARK Flexibility Score: inf
ROOT
ATOM      1  C   UNL     1       4.542  -8.317   5.374  1.00  0.00     0.016 A 
ATOM      2  C   UNL     1       3.436  -8.795   6.093  1.00  0.00     0.013 A 
ATOM      3  C   UNL     1       4.511  -8.395   3.970  1.00  0.00     0.120 A 
ATOM      4  C   UNL     1       2.338  -9.331   5.418  1.00  0.00     0.021 A 
ATOM      5  N   UNL     1       3.429  -8.922   3.336  1.00  0.00    -0.264 NA
ATOM      6  C   UNL     1       2.353  -9.387   4.025  1.00  0.00     0.111 A 
ENDROOT
BRANCH   1   7
ATOM      7  C   UNL     1       5.711  -7.747   6.078  1.00  0.00     0.073 C 
ATOM      8  O   UNL     1       5.782  -6.509   6.303  1.00  0.00    -0.545 OA
ATOM      9  O   UNL     1       6.748  -8.570   6.502  1.00  0.00    -0.545 OA
ENDBRANCH   1   7
TORSDOF 1
ENDMDL
MODEL 3
REMARK VINA RESULT:    -4.155      1.048      1.682
REMARK INTER + INTRA:          -4.422
REMARK INTER:                  -4.399
REMARK INTRA:                  -0.024
REMARK UNBOUND:                -0.024
REMARK SMILES O=C([O-])c1cccnc1
REMARK SMILES IDX 4 1 5 2 9 3 6 4 8 5 7 6 2 7 1 8 3 9
REMARK H PARENT
REMARK Flexibility Score: inf
ROOT
ATOM      1  C   UNL     1       3.452  -8.818   4.914  1.00  0.00     0.016 A 
ATOM      2  C   UNL     1       4.596  -8.425   4.203  1.00  0.00     0.013 A 
ATOM      3  C   UNL     1       3.500  -8.804   6.320  1.00  0.00     0.120 A 
ATOM      4  C   UNL     1       5.747  -8.031   4.888  1.00  0.00     0.021 A 
ATOM      5  N   UNL     1       4.635  -8.417   6.962  1.00  0.00    -0.264 NA
ATOM      6  C   UNL     1       5.747  -8.034   6.282  1.00  0.00     0.111 A 
ENDROOT
BRANCH   1   7
ATOM      7  C   UNL     1       2.226  -9.237   4.199  1.00  0.00     0.073 C 
ATOM      8  O   UNL     1       1.213  -9.626   4.840  1.00  0.00    -0.545 OA
ATOM      9  O   UNL     1       2.177  -9.207   2.811  1.00  0.00    -0.545 OA
ENDBRANCH   1   7
TORSDOF 1
ENDMDL
MODEL 4
REMARK VINA RESULT:    -3.973      1.236      1.819
REMARK INTER + INTRA:          -4.229
REMARK INTER:                  -4.210
REMARK INTRA:                  -0.019
REMARK UNBOUND:                -0.024
REMARK SMILES O=C([O-])c1cccnc1
REMARK SMILES IDX 4 1 5 2 9 3 6 4 8 5 7 6 2 7 1 8 3 9
REMARK H PARENT
REMARK Flexibility Score: inf
ROOT
ATOM      1  C   UNL     1       3.822  -8.172   5.526  1.00  0.00     0.016 A 
ATOM      2  C   UNL     1       5.175  -8.223   5.157  1.00  0.00     0.013 A 
ATOM      3  C   UNL     1       3.471  -7.447   6.679  1.00  0.00     0.120 A 
ATOM      4  C   UNL     1       6.137  -7.565   5.925  1.00  0.00     0.021 A 
ATOM      5  N   UNL     1       4.429  -6.815   7.410  1.00  0.00    -0.264 NA
ATOM      6  C   UNL     1       5.741  -6.859   7.060  1.00  0.00     0.111 A 
ENDROOT
BRANCH   1   7
ATOM      7  C   UNL     1       2.794  -8.865   4.720  1.00  0.00     0.073 C 
ATOM      8  O   UNL     1       1.914  -9.574   5.278  1.00  0.00    -0.545 OA
ATOM      9  O   UNL     1       2.785  -8.743   3.336  1.00  0.00    -0.545 OA
ENDBRANCH   1   7
TORSDOF 1
ENDMDL
MODEL 5
REMARK VINA RESULT:    -3.925      3.111      4.010
REMARK INTER + INTRA:          -4.179
REMARK INTER:                  -4.162
REMARK INTRA:                  -0.017
REMARK UNBOUND:                -0.024
REMARK SMILES O=C([O-])c1cccnc1
REMARK SMILES IDX 4 1 5 2 9 3 6 4 8 5 7 6 2 7 1 8 3 9
REMARK H PARENT
REMARK Flexibility Score: inf
ROOT
ATOM      1  C   UNL     1       4.759  -8.385   5.501  1.00  0.00     0.016 A 
ATOM      2  C   UNL     1       4.498  -8.432   4.123  1.00  0.00     0.013 A 
ATOM      3  C   UNL     1       3.753  -8.812   6.387  1.00  0.00     0.120 A 
ATOM      4  C   UNL     1       3.266  -8.894   3.657  1.00  0.00     0.021 A 
ATOM      5  N   UNL     1       2.560  -9.257   5.907  1.00  0.00    -0.264 NA
ATOM      6  C   UNL     1       2.299  -9.306   4.574  1.00  0.00     0.111 A 
ENDROOT
BRANCH   1   7
ATOM      7  C   UNL     1       6.061  -7.898   6.006  1.00  0.00     0.073 C 
ATOM      8  O   UNL     1       6.888  -8.699   6.519  1.00  0.00    -0.545 OA
ATOM      9  O   UNL     1       6.389  -6.550   5.922  1.00  0.00    -0.545 OA
ENDBRANCH   1   7
TORSDOF 1
ENDMDL
MODEL 6
REMARK VINA RESULT:    -3.750     17.322     17.622
REMARK INTER + INTRA:          -3.993
REMARK INTER:                  -3.970
REMARK INTRA:                  -0.024
REMARK UNBOUND:                -0.024
REMARK SMILES O=C([O-])c1cccnc1
REMARK SMILES IDX 4 1 5 2 9 3 6 4 8 5 7 6 2 7 1 8 3 9
REMARK H PARENT
REMARK Flexibility Score: inf
ROOT
ATOM      1  C   UNL     1       0.191   5.690  -4.406  1.00  0.00     0.016 A 
ATOM      2  C   UNL     1      -0.052   5.848  -5.779  1.00  0.00     0.013 A 
ATOM      3  C   UNL     1       1.523   5.558  -3.973  1.00  0.00     0.120 A 
ATOM      4  C   UNL     1       1.013   5.872  -6.682  1.00  0.00     0.021 A 
ATOM      5  N   UNL     1       2.542   5.584  -4.874  1.00  0.00    -0.264 NA
ATOM      6  C   UNL     1       2.317   5.736  -6.205  1.00  0.00     0.111 A 
ENDROOT
BRANCH   1   7
ATOM      7  C   UNL     1      -0.929   5.665  -3.440  1.00  0.00     0.073 C 
ATOM      8  O   UNL     1      -0.709   5.507  -2.209  1.00  0.00    -0.545 OA
ATOM      9  O   UNL     1      -2.239   5.813  -3.879  1.00  0.00    -0.545 OA
ENDBRANCH   1   7
TORSDOF 1
ENDMDL
MODEL 7
REMARK VINA RESULT:    -3.718     17.567     17.952
REMARK INTER + INTRA:          -3.959
REMARK INTER:                  -3.935
REMARK INTRA:                  -0.024
REMARK UNBOUND:                -0.024
REMARK SMILES O=C([O-])c1cccnc1
REMARK SMILES IDX 4 1 5 2 9 3 6 4 8 5 7 6 2 7 1 8 3 9
REMARK H PARENT
REMARK Flexibility Score: inf
ROOT
ATOM      1  C   UNL     1       1.309   5.726  -5.419  1.00  0.00     0.016 A 
ATOM      2  C   UNL     1       0.001   5.920  -5.889  1.00  0.00     0.013 A 
ATOM      3  C   UNL     1       1.507   5.580  -4.034  1.00  0.00     0.120 A 
ATOM      4  C   UNL     1      -1.068   5.965  -4.992  1.00  0.00     0.021 A 
ATOM      5  N   UNL     1       0.448   5.628  -3.181  1.00  0.00    -0.264 NA
ATOM      6  C   UNL     1      -0.822   5.816  -3.627  1.00  0.00     0.111 A 
ENDROOT
BRANCH   1   7
ATOM      7  C   UNL     1       2.449   5.677  -6.360  1.00  0.00     0.073 C 
ATOM      8  O   UNL     1       2.285   5.949  -7.580  1.00  0.00    -0.545 OA
ATOM      9  O   UNL     1       3.717   5.328  -5.911  1.00  0.00    -0.545 OA
ENDBRANCH   1   7
TORSDOF 1
ENDMDL
MODEL 8
REMARK VINA RESULT:    -3.683      8.574      9.472
REMARK INTER + INTRA:          -3.923
REMARK INTER:                  -3.907
REMARK INTRA:                  -0.016
REMARK UNBOUND:                -0.024
REMARK SMILES O=C([O-])c1cccnc1
REMARK SMILES IDX 4 1 5 2 9 3 6 4 8 5 7 6 2 7 1 8 3 9
REMARK H PARENT
REMARK Flexibility Score: inf
ROOT
ATOM      1  C   UNL     1       7.112  -0.111   4.806  1.00  0.00     0.016 A 
ATOM      2  C   UNL     1       7.293   0.934   3.888  1.00  0.00     0.013 A 
ATOM      3  C   UNL     1       8.236  -0.595   5.500  1.00  0.00     0.120 A 
ATOM      4  C   UNL     1       8.565   1.470   3.678  1.00  0.00     0.021 A 
ATOM      5  N   UNL     1       9.464  -0.055   5.276  1.00  0.00    -0.264 NA
ATOM      6  C   UNL     1       9.650   0.957   4.389  1.00  0.00     0.111 A 
ENDROOT
BRANCH   1   7
ATOM      7  C   UNL     1       5.769  -0.687   5.037  1.00  0.00     0.073 C 
ATOM      8  O   UNL     1       5.409  -1.734   4.435  1.00  0.00    -0.545 OA
ATOM      9  O   UNL     1       4.886  -0.080   5.922  1.00  0.00    -0.545 OA
ENDBRANCH   1   7
TORSDOF 1
ENDMDL
MODEL 9
REMARK VINA RESULT:    -3.662      8.536      9.419
REMARK INTER + INTRA:          -3.900
REMARK INTER:                  -3.884
REMARK INTRA:                  -0.016
REMARK UNBOUND:                -0.024
REMARK SMILES O=C([O-])c1cccnc1
REMARK SMILES IDX 4 1 5 2 9 3 6 4 8 5 7 6 2 7 1 8 3 9
REMARK H PARENT
REMARK Flexibility Score: inf
ROOT
ATOM      1  C   UNL     1       7.082  -0.126   4.810  1.00  0.00     0.016 A 
ATOM      2  C   UNL     1       8.186  -0.576   5.550  1.00  0.00     0.013 A 
ATOM      3  C   UNL     1       7.284   0.892   3.860  1.00  0.00     0.120 A 
ATOM      4  C   UNL     1       9.447  -0.018   5.338  1.00  0.00     0.021 A 
ATOM      5  N   UNL     1       8.524   1.419   3.674  1.00  0.00    -0.264 NA
ATOM      6  C   UNL     1       9.598   0.990   4.386  1.00  0.00     0.111 A 
ENDROOT
BRANCH   1   7
ATOM      7  C   UNL     1       5.740  -0.711   5.025  1.00  0.00     0.073 C 
ATOM      8  O   UNL     1       5.376  -1.731   4.382  1.00  0.00    -0.545 OA
ATOM      9  O   UNL     1       4.863  -0.141   5.941  1.00  0.00    -0.545 OA
ENDBRANCH   1   7
TORSDOF 1
ENDMDL
