MODEL 1
REMARK VINA RESULT:    -5.137      0.000      0.000
REMARK INTER + INTRA:          -5.579
REMARK INTER:                  -5.437
REMARK INTRA:                  -0.142
REMARK UNBOUND:                -0.142
REMARK SMILES C=C1CC=C(C(C)C)CC1
REMARK SMILES IDX 5 1 4 2 3 3 2 4 1 5 10 6 9 7 6 8 7 9 8 10
REMARK H PARENT
REMARK Flexibility Score: inf
ROOT
ATOM      1  C   UNL     1     149.292 143.453 161.171  1.00  0.00    -0.071 C 
ATOM      2  C   UNL     1     150.208 144.444 161.235  1.00  0.00    -0.023 C 
ATOM      3  C   UNL     1     150.406 145.244 162.497  1.00  0.00     0.057 C 
ATOM      4  C   UNL     1     150.220 144.376 163.724  1.00  0.00    -0.073 C 
ATOM      5  C   UNL     1     150.834 144.693 164.872  1.00  0.00     0.008 C 
ATOM      6  C   UNL     1     149.311 143.164 163.667  1.00  0.00     0.035 C 
ATOM      7  C   UNL     1     148.450 143.166 162.395  1.00  0.00     0.035 C 
ENDROOT
BRANCH   1   8
ATOM      8  C   UNL     1     149.114 142.618 159.913  1.00  0.00     0.008 C 
ATOM      9  C   UNL     1     149.236 143.483 158.652  1.00  0.00     0.012 C 
ATOM     10  C   UNL     1     147.786 141.853 159.932  1.00  0.00     0.012 C 
ENDBRANCH   1   8
TORSDOF 1
ENDMDL
MODEL 2
REMARK VINA RESULT:    -5.135      5.840      6.584
REMARK INTER + INTRA:          -5.577
REMARK INTER:                  -5.435
REMARK INTRA:                  -0.142
REMARK UNBOUND:                -0.142
REMARK SMILES C=C1CC=C(C(C)C)CC1
REMARK SMILES IDX 5 1 4 2 3 3 2 4 1 5 10 6 9 7 6 8 7 9 8 10
REMARK H PARENT
REMARK Flexibility Score: inf
ROOT
ATOM      1  C   UNL     1     143.436 141.470 161.220  1.00  0.00    -0.071 C 
ATOM      2  C   UNL     1     144.444 140.572 161.266  1.00  0.00    -0.023 C 
ATOM      3  C   UNL     1     145.252 140.368 162.523  1.00  0.00     0.057 C 
ATOM      4  C   UNL     1     144.384 140.519 163.756  1.00  0.00    -0.073 C 
ATOM      5  C   UNL     1     144.717 139.893 164.892  1.00  0.00     0.008 C 
ATOM      6  C   UNL     1     143.156 141.407 163.716  1.00  0.00     0.035 C 
ATOM      7  C   UNL     1     143.139 142.288 162.459  1.00  0.00     0.035 C 
ENDROOT
BRANCH   1   8
ATOM      8  C   UNL     1     142.594 141.653 159.968  1.00  0.00     0.008 C 
ATOM      9  C   UNL     1     143.442 141.484 158.700  1.00  0.00     0.012 C 
ATOM     10  C   UNL     1     141.870 143.004 159.973  1.00  0.00     0.012 C 
ENDBRANCH   1   8
TORSDOF 1
ENDMDL
MODEL 3
REMARK VINA RESULT:    -5.134      5.837      6.563
REMARK INTER + INTRA:          -5.576
REMARK INTER:                  -5.434
REMARK INTRA:                  -0.142
REMARK UNBOUND:                -0.142
REMARK SMILES C=C1CC=C(C(C)C)CC1
REMARK SMILES IDX 5 1 4 2 3 3 2 4 1 5 10 6 9 7 6 8 7 9 8 10
REMARK H PARENT
REMARK Flexibility Score: inf
ROOT
ATOM      1  C   UNL     1     147.305 149.282 161.205  1.00  0.00    -0.071 C 
ATOM      2  C   UNL     1     146.319 150.203 161.272  1.00  0.00    -0.023 C 
ATOM      3  C   UNL     1     145.517 150.397 162.534  1.00  0.00     0.057 C 
ATOM      4  C   UNL     1     146.381 150.198 163.762  1.00  0.00    -0.073 C 
ATOM      5  C   UNL     1     146.065 150.806 164.912  1.00  0.00     0.008 C 
ATOM      6  C   UNL     1     147.588 149.282 163.701  1.00  0.00     0.035 C 
ATOM      7  C   UNL     1     147.584 148.430 162.424  1.00  0.00     0.035 C 
ENDROOT
BRANCH   1   8
ATOM      8  C   UNL     1     148.142 149.108 159.947  1.00  0.00     0.008 C 
ATOM      9  C   UNL     1     147.283 149.258 158.685  1.00  0.00     0.012 C 
ATOM     10  C   UNL     1     148.887 147.768 159.952  1.00  0.00     0.012 C 
ENDBRANCH   1   8
TORSDOF 1
ENDMDL
MODEL 4
REMARK VINA RESULT:    -5.126      8.483      9.286
REMARK INTER + INTRA:          -5.567
REMARK INTER:                  -5.426
REMARK INTRA:                  -0.142
REMARK UNBOUND:                -0.142
REMARK SMILES C=C1CC=C(C(C)C)CC1
REMARK SMILES IDX 5 1 4 2 3 3 2 4 1 5 10 6 9 7 6 8 7 9 8 10
REMARK H PARENT
REMARK Flexibility Score: inf
ROOT
ATOM      1  C   UNL     1     141.486 147.314 161.208  1.00  0.00    -0.071 C 
ATOM      2  C   UNL     1     140.595 146.301 161.264  1.00  0.00    -0.023 C 
ATOM      3  C   UNL     1     140.404 145.498 162.526  1.00  0.00     0.057 C 
ATOM      4  C   UNL     1     140.555 146.373 163.753  1.00  0.00    -0.073 C 
ATOM      5  C   UNL     1     139.938 146.043 164.895  1.00  0.00     0.008 C 
ATOM      6  C   UNL     1     141.435 147.607 163.702  1.00  0.00     0.035 C 
ATOM      7  C   UNL     1     142.308 147.624 162.440  1.00  0.00     0.035 C 
ENDROOT
BRANCH   1   8
ATOM      8  C   UNL     1     141.656 148.151 159.949  1.00  0.00     0.008 C 
ATOM      9  C   UNL     1     141.516 147.289 158.688  1.00  0.00     0.012 C 
ATOM     10  C   UNL     1     142.989 148.908 159.957  1.00  0.00     0.012 C 
ENDBRANCH   1   8
TORSDOF 1
ENDMDL
MODEL 5
REMARK VINA RESULT:    -4.862      5.846      7.526
REMARK INTER + INTRA:          -5.288
REMARK INTER:                  -5.109
REMARK INTRA:                  -0.180
REMARK UNBOUND:                -0.142
REMARK SMILES C=C1CC=C(C(C)C)CC1
REMARK SMILES IDX 5 1 4 2 3 3 2 4 1 5 10 6 9 7 6 8 7 9 8 10
REMARK H PARENT
REMARK Flexibility Score: inf
ROOT
ATOM      1  C   UNL     1     143.905 141.335 163.411  1.00  0.00    -0.071 C 
ATOM      2  C   UNL     1     143.027 142.211 162.873  1.00  0.00    -0.023 C 
ATOM      3  C   UNL     1     143.108 142.604 161.420  1.00  0.00     0.057 C 
ATOM      4  C   UNL     1     143.550 141.434 160.566  1.00  0.00    -0.073 C 
ATOM      5  C   UNL     1     143.198 141.373 159.275  1.00  0.00     0.008 C 
ATOM      6  C   UNL     1     144.421 140.345 161.161  1.00  0.00     0.035 C 
ATOM      7  C   UNL     1     144.989 140.762 162.525  1.00  0.00     0.035 C 
ENDROOT
BRANCH   1   8
ATOM      8  C   UNL     1     143.805 140.907 164.867  1.00  0.00     0.008 C 
ATOM      9  C   UNL     1     144.992 140.022 165.266  1.00  0.00     0.012 C 
ATOM     10  C   UNL     1     142.472 140.206 165.153  1.00  0.00     0.012 C 
ENDBRANCH   1   8
TORSDOF 1
ENDMDL
MODEL 6
REMARK VINA RESULT:    -4.850      8.525      9.886
REMARK INTER + INTRA:          -5.275
REMARK INTER:                  -5.095
REMARK INTRA:                  -0.180
REMARK UNBOUND:                -0.142
REMARK SMILES C=C1CC=C(C(C)C)CC1
REMARK SMILES IDX 5 1 4 2 3 3 2 4 1 5 10 6 9 7 6 8 7 9 8 10
REMARK H PARENT
REMARK Flexibility Score: inf
ROOT
ATOM      1  C   UNL     1     141.372 146.841 163.415  1.00  0.00    -0.071 C 
ATOM      2  C   UNL     1     142.231 147.733 162.874  1.00  0.00    -0.023 C 
ATOM      3  C   UNL     1     142.612 147.665 161.417  1.00  0.00     0.057 C 
ATOM      4  C   UNL     1     141.441 147.211 160.570  1.00  0.00    -0.073 C 
ATOM      5  C   UNL     1     141.364 147.569 159.282  1.00  0.00     0.008 C 
ATOM      6  C   UNL     1     140.370 146.322 161.170  1.00  0.00     0.035 C 
ATOM      7  C   UNL     1     140.806 145.753 162.528  1.00  0.00     0.035 C 
ENDROOT
BRANCH   1   8
ATOM      8  C   UNL     1     140.955 146.928 164.874  1.00  0.00     0.008 C 
ATOM      9  C   UNL     1     140.087 145.728 165.275  1.00  0.00     0.012 C 
ATOM     10  C   UNL     1     140.242 148.251 165.174  1.00  0.00     0.012 C 
ENDBRANCH   1   8
TORSDOF 1
ENDMDL
MODEL 7
REMARK VINA RESULT:    -4.836      5.889      7.737
REMARK INTER + INTRA:          -5.260
REMARK INTER:                  -5.082
REMARK INTRA:                  -0.178
REMARK UNBOUND:                -0.142
REMARK SMILES C=C1CC=C(C(C)C)CC1
REMARK SMILES IDX 5 1 4 2 3 3 2 4 1 5 10 6 9 7 6 8 7 9 8 10
REMARK H PARENT
REMARK Flexibility Score: inf
ROOT
ATOM      1  C   UNL     1     146.875 149.365 163.439  1.00  0.00    -0.071 C 
ATOM      2  C   UNL     1     147.690 148.396 162.967  1.00  0.00    -0.023 C 
ATOM      3  C   UNL     1     147.635 147.964 161.523  1.00  0.00     0.057 C 
ATOM      4  C   UNL     1     147.339 149.141 160.616  1.00  0.00    -0.073 C 
ATOM      5  C   UNL     1     147.750 149.126 159.341  1.00  0.00     0.008 C 
ATOM      6  C   UNL     1     146.547 150.323 161.140  1.00  0.00     0.035 C 
ATOM      7  C   UNL     1     145.887 150.005 162.489  1.00  0.00     0.035 C 
ENDROOT
BRANCH   1   8
ATOM      8  C   UNL     1     146.953 149.830 164.884  1.00  0.00     0.008 C 
ATOM      9  C   UNL     1     145.748 150.707 165.249  1.00  0.00     0.012 C 
ATOM     10  C   UNL     1     148.272 150.557 165.167  1.00  0.00     0.012 C 
ENDBRANCH   1   8
TORSDOF 1
ENDMDL
MODEL 8
REMARK VINA RESULT:    -4.740      2.855      3.442
REMARK INTER + INTRA:          -5.159
REMARK INTER:                  -5.023
REMARK INTRA:                  -0.136
REMARK UNBOUND:                -0.142
REMARK SMILES C=C1CC=C(C(C)C)CC1
REMARK SMILES IDX 5 1 4 2 3 3 2 4 1 5 10 6 9 7 6 8 7 9 8 10
REMARK H PARENT
REMARK Flexibility Score: inf
ROOT
ATOM      1  C   UNL     1     148.871 145.818 163.203  1.00  0.00    -0.071 C 
ATOM      2  C   UNL     1     150.148 145.451 162.957  1.00  0.00    -0.023 C 
ATOM      3  C   UNL     1     150.931 144.634 163.954  1.00  0.00     0.057 C 
ATOM      4  C   UNL     1     150.035 143.640 164.663  1.00  0.00    -0.073 C 
ATOM      5  C   UNL     1     150.549 142.508 165.162  1.00  0.00     0.008 C 
ATOM      6  C   UNL     1     148.559 143.940 164.841  1.00  0.00     0.035 C 
ATOM      7  C   UNL     1     148.239 145.405 164.514  1.00  0.00     0.035 C 
ENDROOT
BRANCH   1   8
ATOM      8  C   UNL     1     148.065 146.610 162.185  1.00  0.00     0.008 C 
ATOM      9  C   UNL     1     148.824 146.741 160.858  1.00  0.00     0.012 C 
ATOM     10  C   UNL     1     147.669 147.985 162.734  1.00  0.00     0.012 C 
ENDBRANCH   1   8
TORSDOF 1
ENDMDL
MODEL 9
REMARK VINA RESULT:    -4.728      4.332      5.930
REMARK INTER + INTRA:          -5.146
REMARK INTER:                  -5.010
REMARK INTRA:                  -0.136
REMARK UNBOUND:                -0.142
REMARK SMILES C=C1CC=C(C(C)C)CC1
REMARK SMILES IDX 5 1 4 2 3 3 2 4 1 5 10 6 9 7 6 8 7 9 8 10
REMARK H PARENT
REMARK Flexibility Score: inf
ROOT
ATOM      1  C   UNL     1     145.821 141.817 163.186  1.00  0.00    -0.071 C 
ATOM      2  C   UNL     1     145.440 140.541 162.960  1.00  0.00    -0.023 C 
ATOM      3  C   UNL     1     144.627 139.778 163.974  1.00  0.00     0.057 C 
ATOM      4  C   UNL     1     143.647 140.691 164.683  1.00  0.00    -0.073 C 
ATOM      5  C   UNL     1     142.516 140.193 165.199  1.00  0.00     0.008 C 
ATOM      6  C   UNL     1     143.962 142.166 164.840  1.00  0.00     0.035 C 
ATOM      7  C   UNL     1     145.427 142.469 164.494  1.00  0.00     0.035 C 
ENDROOT
BRANCH   1   8
ATOM      8  C   UNL     1     146.609 142.604 162.150  1.00  0.00     0.008 C 
ATOM      9  C   UNL     1     146.772 141.803 160.852  1.00  0.00     0.012 C 
ATOM     10  C   UNL     1     147.969 143.047 162.701  1.00  0.00     0.012 C 
ENDBRANCH   1   8
TORSDOF 1
ENDMDL
