MODEL 1
REMARK VINA RESULT:    -4.080      0.000      0.000
REMARK INTER + INTRA:          -6.129
REMARK INTER:                  -5.750
REMARK INTRA:                  -0.379
REMARK UNBOUND:                -0.379
REMARK SMILES CCCCCCCCC(=O)[O-]
REMARK SMILES IDX 6 1 7 2 8 3 9 4 10 5 11 6 5 7 4 8 3 9 2 10 1 11
REMARK H PARENT
REMARK Flexibility Score: inf
ROOT
ATOM      1  C   UNL     1      -9.498   2.320  15.685  1.00  0.00     0.000 C 
ENDROOT
BRANCH   1   2
ATOM      2  C   UNL     1      -9.669   0.840  15.315  1.00  0.00     0.006 C 
BRANCH   2   3
ATOM      3  C   UNL     1     -10.414   0.654  13.988  1.00  0.00     0.053 C 
BRANCH   3   4
ATOM      4  C   UNL     1     -11.850   0.281  14.203  1.00  0.00     0.041 C 
ATOM      5  O   UNL     1     -12.539   0.888  15.064  1.00  0.00    -0.550 OA
ATOM      6  O   UNL     1     -12.435  -0.713  13.428  1.00  0.00    -0.550 OA
ENDBRANCH   3   4
ENDBRANCH   2   3
ENDBRANCH   1   2
BRANCH   1   7
ATOM      7  C   UNL     1      -9.708   2.539  17.187  1.00  0.00     0.000 C 
BRANCH   7   8
ATOM      8  C   UNL     1     -10.049   1.223  17.895  1.00  0.00    -0.000 C 
BRANCH   8   9
ATOM      9  C   UNL     1      -9.182   1.026  19.145  1.00  0.00    -0.000 C 
BRANCH   9  10
ATOM     10  C   UNL     1      -8.932  -0.462  19.413  1.00  0.00    -0.003 C 
ATOM     11  C   UNL     1      -9.180  -0.807  20.878  1.00  0.00     0.004 C 
ENDBRANCH   9  10
ENDBRANCH   8   9
ENDBRANCH   7   8
ENDBRANCH   1   7
TORSDOF 7
ENDMDL
MODEL 2
REMARK VINA RESULT:    -3.938      1.306      1.899
REMARK INTER + INTRA:          -5.928
REMARK INTER:                  -5.618
REMARK INTRA:                  -0.310
REMARK UNBOUND:                -0.379
REMARK SMILES CCCCCCCCC(=O)[O-]
REMARK SMILES IDX 6 1 7 2 8 3 9 4 10 5 11 6 5 7 4 8 3 9 2 10 1 11
REMARK H PARENT
REMARK Flexibility Score: inf
ROOT
ATOM      1  C   UNL     1     -11.151   1.387  17.523  1.00  0.00     0.000 C 
ENDROOT
BRANCH   1   2
ATOM      2  C   UNL     1     -11.152   1.623  16.006  1.00  0.00     0.006 C 
BRANCH   2   3
ATOM      3  C   UNL     1     -12.364   0.982  15.318  1.00  0.00     0.053 C 
BRANCH   3   4
ATOM      4  C   UNL     1     -11.961   0.161  14.131  1.00  0.00     0.041 C 
ATOM      5  O   UNL     1     -12.839  -0.311  13.361  1.00  0.00    -0.550 OA
ATOM      6  O   UNL     1     -10.617  -0.052  13.856  1.00  0.00    -0.550 OA
ENDBRANCH   3   4
ENDBRANCH   2   3
ENDBRANCH   1   2
BRANCH   1   7
ATOM      7  C   UNL     1      -9.733   1.489  18.095  1.00  0.00     0.000 C 
BRANCH   7   8
ATOM      8  C   UNL     1      -9.668   0.913  19.515  1.00  0.00    -0.000 C 
BRANCH   8   9
ATOM      9  C   UNL     1      -9.042  -0.488  19.514  1.00  0.00    -0.000 C 
BRANCH   9  10
ATOM     10  C   UNL     1     -10.016  -1.526  20.084  1.00  0.00    -0.003 C 
ATOM     11  C   UNL     1     -11.408  -0.930  20.272  1.00  0.00     0.004 C 
ENDBRANCH   9  10
ENDBRANCH   8   9
ENDBRANCH   7   8
ENDBRANCH   1   7
TORSDOF 7
ENDMDL
MODEL 3
REMARK VINA RESULT:    -3.923      1.527      2.130
REMARK INTER + INTRA:          -5.907
REMARK INTER:                  -5.307
REMARK INTRA:                  -0.600
REMARK UNBOUND:                -0.379
REMARK SMILES CCCCCCCCC(=O)[O-]
REMARK SMILES IDX 6 1 7 2 8 3 9 4 10 5 11 6 5 7 4 8 3 9 2 10 1 11
REMARK H PARENT
REMARK Flexibility Score: inf
ROOT
ATOM      1  C   UNL     1     -10.744   2.280  18.041  1.00  0.00     0.000 C 
ENDROOT
BRANCH   1   2
ATOM      2  C   UNL     1     -11.079   1.426  16.811  1.00  0.00     0.006 C 
BRANCH   2   3
ATOM      3  C   UNL     1      -9.865   1.222  15.895  1.00  0.00     0.053 C 
BRANCH   3   4
ATOM      4  C   UNL     1     -10.261   0.665  14.561  1.00  0.00     0.041 C 
ATOM      5  O   UNL     1      -9.378   0.356  13.718  1.00  0.00    -0.550 OA
ATOM      6  O   UNL     1     -11.601   0.455  14.264  1.00  0.00    -0.550 OA
ENDBRANCH   3   4
ENDBRANCH   2   3
ENDBRANCH   1   2
BRANCH   1   7
ATOM      7  C   UNL     1      -9.326   1.986  18.545  1.00  0.00     0.000 C 
BRANCH   7   8
ATOM      8  C   UNL     1      -9.358   1.084  19.784  1.00  0.00    -0.000 C 
BRANCH   8   9
ATOM      9  C   UNL     1      -9.035  -0.370  19.416  1.00  0.00    -0.000 C 
BRANCH   9  10
ATOM     10  C   UNL     1      -9.921  -1.346  20.198  1.00  0.00    -0.003 C 
ATOM     11  C   UNL     1     -11.392  -0.954  20.099  1.00  0.00     0.004 C 
ENDBRANCH   9  10
ENDBRANCH   8   9
ENDBRANCH   7   8
ENDBRANCH   1   7
TORSDOF 7
ENDMDL
MODEL 4
REMARK VINA RESULT:    -3.844      3.104      5.282
REMARK INTER + INTRA:          -5.796
REMARK INTER:                  -5.258
REMARK INTRA:                  -0.538
REMARK UNBOUND:                -0.379
REMARK SMILES CCCCCCCCC(=O)[O-]
REMARK SMILES IDX 6 1 7 2 8 3 9 4 10 5 11 6 5 7 4 8 3 9 2 10 1 11
REMARK H PARENT
REMARK Flexibility Score: inf
ROOT
ATOM      1  C   UNL     1     -10.493   1.703  19.266  1.00  0.00     0.000 C 
ENDROOT
BRANCH   1   2
ATOM      2  C   UNL     1      -9.048   1.187  19.221  1.00  0.00     0.006 C 
BRANCH   2   3
ATOM      3  C   UNL     1      -8.979  -0.337  19.062  1.00  0.00     0.053 C 
BRANCH   3   4
ATOM      4  C   UNL     1      -9.565  -1.047  20.244  1.00  0.00     0.041 C 
ATOM      5  O   UNL     1     -10.557  -1.810  20.096  1.00  0.00    -0.550 OA
ATOM      6  O   UNL     1      -8.996  -0.895  21.501  1.00  0.00    -0.550 OA
ENDBRANCH   3   4
ENDBRANCH   2   3
ENDBRANCH   1   2
BRANCH   1   7
ATOM      7  C   UNL     1     -10.900   2.318  17.922  1.00  0.00     0.000 C 
BRANCH   7   8
ATOM      8  C   UNL     1     -11.684   1.312  17.071  1.00  0.00    -0.000 C 
BRANCH   8   9
ATOM      9  C   UNL     1     -11.324   1.448  15.586  1.00  0.00    -0.000 C 
BRANCH   9  10
ATOM     10  C   UNL     1      -9.833   1.178  15.354  1.00  0.00    -0.003 C 
ATOM     11  C   UNL     1      -9.607   0.418  14.050  1.00  0.00     0.004 C 
ENDBRANCH   9  10
ENDBRANCH   8   9
ENDBRANCH   7   8
ENDBRANCH   1   7
TORSDOF 7
ENDMDL
MODEL 5
REMARK VINA RESULT:    -3.811      2.774      3.466
REMARK INTER + INTRA:          -5.749
REMARK INTER:                  -5.498
REMARK INTRA:                  -0.252
REMARK UNBOUND:                -0.379
REMARK SMILES CCCCCCCCC(=O)[O-]
REMARK SMILES IDX 6 1 7 2 8 3 9 4 10 5 11 6 5 7 4 8 3 9 2 10 1 11
REMARK H PARENT
REMARK Flexibility Score: inf
ROOT
ATOM      1  C   UNL     1      -9.693   3.228  17.134  1.00  0.00     0.000 C 
ENDROOT
BRANCH   1   2
ATOM      2  C   UNL     1      -9.619   2.562  15.753  1.00  0.00     0.006 C 
BRANCH   2   3
ATOM      3  C   UNL     1     -10.185   1.136  15.764  1.00  0.00     0.053 C 
BRANCH   3   4
ATOM      4  C   UNL     1     -10.288   0.566  14.382  1.00  0.00     0.041 C 
ATOM      5  O   UNL     1      -9.244   0.310  13.725  1.00  0.00    -0.550 OA
ATOM      6  O   UNL     1     -11.533   0.287  13.833  1.00  0.00    -0.550 OA
ENDBRANCH   3   4
ENDBRANCH   2   3
ENDBRANCH   1   2
BRANCH   1   7
ATOM      7  C   UNL     1      -9.137   2.302  18.222  1.00  0.00     0.000 C 
BRANCH   7   8
ATOM      8  C   UNL     1      -8.254   3.077  19.207  1.00  0.00    -0.000 C 
BRANCH   8   9
ATOM      9  C   UNL     1      -6.832   3.247  18.659  1.00  0.00    -0.000 C 
BRANCH   9  10
ATOM     10  C   UNL     1      -6.086   4.362  19.400  1.00  0.00    -0.003 C 
ATOM     11  C   UNL     1      -4.681   4.554  18.837  1.00  0.00     0.004 C 
ENDBRANCH   9  10
ENDBRANCH   8   9
ENDBRANCH   7   8
ENDBRANCH   1   7
TORSDOF 7
ENDMDL
MODEL 6
REMARK VINA RESULT:    -3.788     11.676     12.991
REMARK INTER + INTRA:          -5.718
REMARK INTER:                  -5.248
REMARK INTRA:                  -0.470
REMARK UNBOUND:                -0.379
REMARK SMILES CCCCCCCCC(=O)[O-]
REMARK SMILES IDX 6 1 7 2 8 3 9 4 10 5 11 6 5 7 4 8 3 9 2 10 1 11
REMARK H PARENT
REMARK Flexibility Score: inf
ROOT
ATOM      1  C   UNL     1      -1.333  -8.834  16.820  1.00  0.00     0.000 C 
ENDROOT
BRANCH   1   2
ATOM      2  C   UNL     1      -2.609  -7.989  16.699  1.00  0.00     0.006 C 
BRANCH   2   3
ATOM      3  C   UNL     1      -2.321  -6.485  16.782  1.00  0.00     0.053 C 
BRANCH   3   4
ATOM      4  C   UNL     1      -2.085  -6.039  18.193  1.00  0.00     0.041 C 
ATOM      5  O   UNL     1      -1.277  -5.103  18.434  1.00  0.00    -0.550 OA
ATOM      6  O   UNL     1      -2.781  -6.633  19.237  1.00  0.00    -0.550 OA
ENDBRANCH   3   4
ENDBRANCH   2   3
ENDBRANCH   1   2
BRANCH   1   7
ATOM      7  C   UNL     1      -1.513 -10.201  16.152  1.00  0.00     0.000 C 
BRANCH   7   8
ATOM      8  C   UNL     1      -2.978 -10.651  16.201  1.00  0.00    -0.000 C 
BRANCH   8   9
ATOM      9  C   UNL     1      -3.334 -11.507  14.980  1.00  0.00    -0.000 C 
BRANCH   9  10
ATOM     10  C   UNL     1      -4.783 -11.266  14.542  1.00  0.00    -0.003 C 
ATOM     11  C   UNL     1      -5.453 -10.209  15.414  1.00  0.00     0.004 C 
ENDBRANCH   9  10
ENDBRANCH   8   9
ENDBRANCH   7   8
ENDBRANCH   1   7
TORSDOF 7
ENDMDL
MODEL 7
REMARK VINA RESULT:    -3.782      3.093      5.606
REMARK INTER + INTRA:          -5.709
REMARK INTER:                  -5.371
REMARK INTRA:                  -0.339
REMARK UNBOUND:                -0.379
REMARK SMILES CCCCCCCCC(=O)[O-]
REMARK SMILES IDX 6 1 7 2 8 3 9 4 10 5 11 6 5 7 4 8 3 9 2 10 1 11
REMARK H PARENT
REMARK Flexibility Score: inf
ROOT
ATOM      1  C   UNL     1     -10.867   0.951  18.467  1.00  0.00     0.000 C 
ENDROOT
BRANCH   1   2
ATOM      2  C   UNL     1      -9.496   1.037  19.153  1.00  0.00     0.006 C 
BRANCH   2   3
ATOM      3  C   UNL     1      -8.843  -0.341  19.322  1.00  0.00     0.053 C 
BRANCH   3   4
ATOM      4  C   UNL     1      -9.484  -1.129  20.424  1.00  0.00     0.041 C 
ATOM      5  O   UNL     1     -10.340  -2.013  20.154  1.00  0.00    -0.550 OA
ATOM      6  O   UNL     1      -9.111  -0.912  21.744  1.00  0.00    -0.550 OA
ENDBRANCH   3   4
ENDBRANCH   2   3
ENDBRANCH   1   2
BRANCH   1   7
ATOM      7  C   UNL     1     -10.887   1.774  17.174  1.00  0.00     0.000 C 
BRANCH   7   8
ATOM      8  C   UNL     1     -10.000   1.135  16.099  1.00  0.00    -0.000 C 
BRANCH   8   9
ATOM      9  C   UNL     1     -10.694   1.146  14.732  1.00  0.00    -0.000 C 
BRANCH   9  10
ATOM     10  C   UNL     1     -12.153   0.691  14.851  1.00  0.00    -0.003 C 
ATOM     11  C   UNL     1     -12.514  -0.296  13.746  1.00  0.00     0.004 C 
ENDBRANCH   9  10
ENDBRANCH   8   9
ENDBRANCH   7   8
ENDBRANCH   1   7
TORSDOF 7
ENDMDL
MODEL 8
REMARK VINA RESULT:    -3.772      1.660      3.029
REMARK INTER + INTRA:          -5.695
REMARK INTER:                  -5.399
REMARK INTRA:                  -0.296
REMARK UNBOUND:                -0.379
REMARK SMILES CCCCCCCCC(=O)[O-]
REMARK SMILES IDX 6 1 7 2 8 3 9 4 10 5 11 6 5 7 4 8 3 9 2 10 1 11
REMARK H PARENT
REMARK Flexibility Score: inf
ROOT
ATOM      1  C   UNL     1      -9.392   1.028  18.931  1.00  0.00     0.000 C 
ENDROOT
BRANCH   1   2
ATOM      2  C   UNL     1     -10.761   1.235  18.268  1.00  0.00     0.006 C 
BRANCH   2   3
ATOM      3  C   UNL     1     -10.655   1.363  16.743  1.00  0.00     0.053 C 
BRANCH   3   4
ATOM      4  C   UNL     1     -11.970   1.722  16.122  1.00  0.00     0.041 C 
ATOM      5  O   UNL     1     -12.475   2.859  16.322  1.00  0.00    -0.550 OA
ATOM      6  O   UNL     1     -12.622   0.816  15.296  1.00  0.00    -0.550 OA
ENDBRANCH   3   4
ENDBRANCH   2   3
ENDBRANCH   1   2
BRANCH   1   7
ATOM      7  C   UNL     1      -9.053  -0.463  19.040  1.00  0.00     0.000 C 
BRANCH   7   8
ATOM      8  C   UNL     1      -9.807  -1.117  20.203  1.00  0.00    -0.000 C 
BRANCH   8   9
ATOM      9  C   UNL     1      -9.030  -0.970  21.517  1.00  0.00    -0.000 C 
BRANCH   9  10
ATOM     10  C   UNL     1      -9.782  -0.067  22.503  1.00  0.00    -0.003 C 
ATOM     11  C   UNL     1      -9.252  -0.241  23.923  1.00  0.00     0.004 C 
ENDBRANCH   9  10
ENDBRANCH   8   9
ENDBRANCH   7   8
ENDBRANCH   1   7
TORSDOF 7
ENDMDL
MODEL 9
REMARK VINA RESULT:    -3.680      2.253      2.807
REMARK INTER + INTRA:          -5.564
REMARK INTER:                  -5.184
REMARK INTRA:                  -0.380
REMARK UNBOUND:                -0.379
REMARK SMILES CCCCCCCCC(=O)[O-]
REMARK SMILES IDX 6 1 7 2 8 3 9 4 10 5 11 6 5 7 4 8 3 9 2 10 1 11
REMARK H PARENT
REMARK Flexibility Score: inf
ROOT
ATOM      1  C   UNL     1     -11.136   2.917  16.176  1.00  0.00     0.000 C 
ENDROOT
BRANCH   1   2
ATOM      2  C   UNL     1     -11.467   1.424  16.315  1.00  0.00     0.006 C 
BRANCH   2   3
ATOM      3  C   UNL     1     -12.478   0.952  15.262  1.00  0.00     0.053 C 
BRANCH   3   4
ATOM      4  C   UNL     1     -11.815   0.189  14.156  1.00  0.00     0.041 C 
ATOM      5  O   UNL     1     -12.506  -0.492  13.353  1.00  0.00    -0.550 OA
ATOM      6  O   UNL     1     -10.437   0.259  13.990  1.00  0.00    -0.550 OA
ENDBRANCH   3   4
ENDBRANCH   2   3
ENDBRANCH   1   2
BRANCH   1   7
ATOM      7  C   UNL     1      -9.620   3.144  16.154  1.00  0.00     0.000 C 
BRANCH   7   8
ATOM      8  C   UNL     1      -9.211   4.229  17.157  1.00  0.00    -0.000 C 
BRANCH   8   9
ATOM      9  C   UNL     1      -9.172   3.673  18.586  1.00  0.00    -0.000 C 
BRANCH   9  10
ATOM     10  C   UNL     1      -7.885   2.878  18.833  1.00  0.00    -0.003 C 
ATOM     11  C   UNL     1      -6.684   3.808  18.985  1.00  0.00     0.004 C 
ENDBRANCH   9  10
ENDBRANCH   8   9
ENDBRANCH   7   8
ENDBRANCH   1   7
TORSDOF 7
ENDMDL
