MODEL 1
REMARK VINA RESULT:    -5.826      0.000      0.000
REMARK INTER + INTRA:         -15.411
REMARK INTER:                 -12.637
REMARK INTRA:                  -2.773
REMARK UNBOUND:                -2.773
REMARK SMILES CCCCCCCCCCCCCCCCCCCCCC(=O)[O-]
REMARK SMILES IDX 12 1 11 2 10 3 9 4 8 5 7 6 6 7 5 8 4 9 3 10 2 11 1 12 13 13
REMARK SMILES IDX 14 14 15 15 16 16 17 17 18 18 19 19 20 20 21 21 22 22 23 23
REMARK SMILES IDX 24 24
REMARK H PARENT
REMARK Flexibility Score: inf
ROOT
ATOM      1  C   UNL     1      10.428   2.804  21.047  1.00  0.00     0.000 C 
ENDROOT
BRANCH   1   2
ATOM      2  C   UNL     1      10.046   2.619  19.573  1.00  0.00     0.000 C 
BRANCH   2   3
ATOM      3  C   UNL     1      10.858   3.559  18.670  1.00  0.00     0.000 C 
BRANCH   3   4
ATOM      4  C   UNL     1      11.766   4.515  19.464  1.00  0.00    -0.000 C 
BRANCH   4   5
ATOM      5  C   UNL     1      11.934   5.901  18.805  1.00  0.00    -0.000 C 
BRANCH   5   6
ATOM      6  C   UNL     1      11.939   7.039  19.837  1.00  0.00    -0.000 C 
BRANCH   6   7
ATOM      7  C   UNL     1      11.146   6.651  21.091  1.00  0.00    -0.000 C 
BRANCH   7   8
ATOM      8  C   UNL     1       9.685   7.114  20.981  1.00  0.00    -0.000 C 
BRANCH   8   9
ATOM      9  C   UNL     1       8.686   5.950  21.081  1.00  0.00    -0.000 C 
BRANCH   9  10
ATOM     10  C   UNL     1       8.020   5.625  19.736  1.00  0.00    -0.000 C 
BRANCH  10  11
ATOM     11  C   UNL     1       8.364   6.687  18.685  1.00  0.00    -0.003 C 
ATOM     12  C   UNL     1       8.442   6.076  17.289  1.00  0.00     0.004 C 
ENDBRANCH  10  11
ENDBRANCH   9  10
ENDBRANCH   8   9
ENDBRANCH   7   8
ENDBRANCH   6   7
ENDBRANCH   5   6
ENDBRANCH   4   5
ENDBRANCH   3   4
ENDBRANCH   2   3
ENDBRANCH   1   2
BRANCH   1  13
ATOM     13  C   UNL     1      10.344   1.471  21.805  1.00  0.00     0.000 C 
BRANCH  13  14
ATOM     14  C   UNL     1      11.123   1.489  23.129  1.00  0.00     0.000 C 
BRANCH  14  15
ATOM     15  C   UNL     1      10.981   0.180  23.920  1.00  0.00     0.000 C 
BRANCH  15  16
ATOM     16  C   UNL     1      10.403   0.441  25.316  1.00  0.00     0.000 C 
BRANCH  16  17
ATOM     17  C   UNL     1      11.161  -0.360  26.386  1.00  0.00     0.000 C 
BRANCH  17  18
ATOM     18  C   UNL     1      12.440  -1.020  25.843  1.00  0.00     0.000 C 
BRANCH  18  19
ATOM     19  C   UNL     1      13.703  -0.800  26.701  1.00  0.00     0.000 C 
BRANCH  19  20
ATOM     20  C   UNL     1      13.605   0.348  27.726  1.00  0.00     0.006 C 
BRANCH  20  21
ATOM     21  C   UNL     1      14.557   1.523  27.455  1.00  0.00     0.053 C 
BRANCH  21  22
ATOM     22  C   UNL     1      14.722   1.783  25.989  1.00  0.00     0.041 C 
ATOM     23  O   UNL     1      15.826   1.561  25.426  1.00  0.00    -0.550 OA
ATOM     24  O   UNL     1      13.667   2.306  25.253  1.00  0.00    -0.550 OA
ENDBRANCH  21  22
ENDBRANCH  20  21
ENDBRANCH  19  20
ENDBRANCH  18  19
ENDBRANCH  17  18
ENDBRANCH  16  17
ENDBRANCH  15  16
ENDBRANCH  14  15
ENDBRANCH  13  14
ENDBRANCH   1  13
TORSDOF 20
ENDMDL
MODEL 2
REMARK VINA RESULT:    -5.685      2.640      8.809
REMARK INTER + INTRA:         -15.106
REMARK INTER:                 -13.063
REMARK INTRA:                  -2.043
REMARK UNBOUND:                -2.773
REMARK SMILES CCCCCCCCCCCCCCCCCCCCCC(=O)[O-]
REMARK SMILES IDX 12 1 11 2 10 3 9 4 8 5 7 6 6 7 5 8 4 9 3 10 2 11 1 12 13 13
REMARK SMILES IDX 14 14 15 15 16 16 17 17 18 18 19 19 20 20 21 21 22 22 23 23
REMARK SMILES IDX 24 24
REMARK H PARENT
REMARK Flexibility Score: inf
ROOT
ATOM      1  C   UNL     1      10.535   3.506  20.337  1.00  0.00     0.000 C 
ENDROOT
BRANCH   1   2
ATOM      2  C   UNL     1      10.239   2.185  21.056  1.00  0.00     0.000 C 
BRANCH   2   3
ATOM      3  C   UNL     1      10.892   2.153  22.446  1.00  0.00     0.000 C 
BRANCH   3   4
ATOM      4  C   UNL     1      10.973   0.734  23.036  1.00  0.00    -0.000 C 
BRANCH   4   5
ATOM      5  C   UNL     1      11.546   0.690  24.468  1.00  0.00    -0.000 C 
BRANCH   5   6
ATOM      6  C   UNL     1      10.477   0.331  25.512  1.00  0.00    -0.000 C 
BRANCH   6   7
ATOM      7  C   UNL     1      11.082  -0.479  26.665  1.00  0.00    -0.000 C 
BRANCH   7   8
ATOM      8  C   UNL     1      12.617  -0.440  26.617  1.00  0.00    -0.000 C 
BRANCH   8   9
ATOM      9  C   UNL     1      13.227   0.334  27.797  1.00  0.00    -0.000 C 
BRANCH   9  10
ATOM     10  C   UNL     1      14.384   1.249  27.368  1.00  0.00    -0.000 C 
BRANCH  10  11
ATOM     11  C   UNL     1      15.029   0.744  26.073  1.00  0.00    -0.003 C 
ATOM     12  C   UNL     1      15.338   1.898  25.124  1.00  0.00     0.004 C 
ENDBRANCH  10  11
ENDBRANCH   9  10
ENDBRANCH   8   9
ENDBRANCH   7   8
ENDBRANCH   6   7
ENDBRANCH   5   6
ENDBRANCH   4   5
ENDBRANCH   3   4
ENDBRANCH   2   3
ENDBRANCH   1   2
BRANCH   1  13
ATOM     13  C   UNL     1       9.881   3.532  18.948  1.00  0.00     0.000 C 
BRANCH  13  14
ATOM     14  C   UNL     1       8.366   3.785  19.006  1.00  0.00     0.000 C 
BRANCH  14  15
ATOM     15  C   UNL     1       8.021   5.257  19.278  1.00  0.00     0.000 C 
BRANCH  15  16
ATOM     16  C   UNL     1       8.052   6.076  17.982  1.00  0.00     0.000 C 
BRANCH  16  17
ATOM     17  C   UNL     1       9.035   7.251  18.095  1.00  0.00     0.000 C 
BRANCH  17  18
ATOM     18  C   UNL     1      10.317   7.038  17.272  1.00  0.00     0.000 C 
BRANCH  18  19
ATOM     19  C   UNL     1      11.511   6.462  18.060  1.00  0.00     0.000 C 
BRANCH  19  20
ATOM     20  C   UNL     1      12.062   7.376  19.173  1.00  0.00     0.006 C 
BRANCH  20  21
ATOM     21  C   UNL     1      11.770   6.885  20.599  1.00  0.00     0.053 C 
BRANCH  21  22
ATOM     22  C   UNL     1      10.930   7.861  21.365  1.00  0.00     0.041 C 
ATOM     23  O   UNL     1      11.429   8.943  21.773  1.00  0.00    -0.550 OA
ATOM     24  O   UNL     1       9.607   7.558  21.661  1.00  0.00    -0.550 OA
ENDBRANCH  21  22
ENDBRANCH  20  21
ENDBRANCH  19  20
ENDBRANCH  18  19
ENDBRANCH  17  18
ENDBRANCH  16  17
ENDBRANCH  15  16
ENDBRANCH  14  15
ENDBRANCH  13  14
ENDBRANCH   1  13
TORSDOF 20
ENDMDL
MODEL 3
REMARK VINA RESULT:    -5.681      2.174      8.491
REMARK INTER + INTRA:         -15.097
REMARK INTER:                 -12.812
REMARK INTRA:                  -2.285
REMARK UNBOUND:                -2.773
REMARK SMILES CCCCCCCCCCCCCCCCCCCCCC(=O)[O-]
REMARK SMILES IDX 12 1 11 2 10 3 9 4 8 5 7 6 6 7 5 8 4 9 3 10 2 11 1 12 13 13
REMARK SMILES IDX 14 14 15 15 16 16 17 17 18 18 19 19 20 20 21 21 22 22 23 23
REMARK SMILES IDX 24 24
REMARK H PARENT
REMARK Flexibility Score: inf
ROOT
ATOM      1  C   UNL     1      10.729   2.405  22.105  1.00  0.00     0.000 C 
ENDROOT
BRANCH   1   2
ATOM      2  C   UNL     1      10.599   0.924  22.480  1.00  0.00     0.000 C 
BRANCH   2   3
ATOM      3  C   UNL     1      11.361   0.612  23.776  1.00  0.00     0.000 C 
BRANCH   3   4
ATOM      4  C   UNL     1      10.428   0.391  24.980  1.00  0.00    -0.000 C 
BRANCH   4   5
ATOM      5  C   UNL     1      11.171   0.020  26.280  1.00  0.00    -0.000 C 
BRANCH   5   6
ATOM      6  C   UNL     1      12.367  -0.909  26.023  1.00  0.00    -0.000 C 
BRANCH   6   7
ATOM      7  C   UNL     1      13.475  -0.681  27.059  1.00  0.00    -0.000 C 
BRANCH   7   8
ATOM      8  C   UNL     1      14.047   0.740  26.947  1.00  0.00    -0.000 C 
BRANCH   8   9
ATOM      9  C   UNL     1      15.128   0.859  25.861  1.00  0.00    -0.000 C 
BRANCH   9  10
ATOM     10  C   UNL     1      15.013   2.160  25.053  1.00  0.00    -0.000 C 
BRANCH  10  11
ATOM     11  C   UNL     1      13.592   2.728  25.131  1.00  0.00    -0.003 C 
ATOM     12  C   UNL     1      13.485   4.052  24.379  1.00  0.00     0.004 C 
ENDBRANCH  10  11
ENDBRANCH   9  10
ENDBRANCH   8   9
ENDBRANCH   7   8
ENDBRANCH   6   7
ENDBRANCH   5   6
ENDBRANCH   4   5
ENDBRANCH   3   4
ENDBRANCH   2   3
ENDBRANCH   1   2
BRANCH   1  13
ATOM     13  C   UNL     1      10.244   2.651  20.669  1.00  0.00     0.000 C 
BRANCH  13  14
ATOM     14  C   UNL     1       9.524   3.999  20.506  1.00  0.00     0.000 C 
BRANCH  14  15
ATOM     15  C   UNL     1       8.751   4.102  19.183  1.00  0.00     0.000 C 
BRANCH  15  16
ATOM     16  C   UNL     1       7.836   5.333  19.176  1.00  0.00     0.000 C 
BRANCH  16  17
ATOM     17  C   UNL     1       8.405   6.438  18.273  1.00  0.00     0.000 C 
BRANCH  17  18
ATOM     18  C   UNL     1       9.648   5.987  17.487  1.00  0.00     0.000 C 
BRANCH  18  19
ATOM     19  C   UNL     1      10.896   6.872  17.674  1.00  0.00     0.000 C 
BRANCH  19  20
ATOM     20  C   UNL     1      11.874   6.403  18.770  1.00  0.00     0.006 C 
BRANCH  20  21
ATOM     21  C   UNL     1      12.093   7.419  19.902  1.00  0.00     0.053 C 
BRANCH  21  22
ATOM     22  C   UNL     1      11.387   7.015  21.160  1.00  0.00     0.041 C 
ATOM     23  O   UNL     1      11.877   6.124  21.903  1.00  0.00    -0.550 OA
ATOM     24  O   UNL     1      10.170   7.596  21.492  1.00  0.00    -0.550 OA
ENDBRANCH  21  22
ENDBRANCH  20  21
ENDBRANCH  19  20
ENDBRANCH  18  19
ENDBRANCH  17  18
ENDBRANCH  16  17
ENDBRANCH  15  16
ENDBRANCH  14  15
ENDBRANCH  13  14
ENDBRANCH   1  13
TORSDOF 20
ENDMDL
MODEL 4
REMARK VINA RESULT:    -5.659      2.439      8.555
REMARK INTER + INTRA:         -15.048
REMARK INTER:                 -12.766
REMARK INTRA:                  -2.283
REMARK UNBOUND:                -2.773
REMARK SMILES CCCCCCCCCCCCCCCCCCCCCC(=O)[O-]
REMARK SMILES IDX 12 1 11 2 10 3 9 4 8 5 7 6 6 7 5 8 4 9 3 10 2 11 1 12 13 13
REMARK SMILES IDX 14 14 15 15 16 16 17 17 18 18 19 19 20 20 21 21 22 22 23 23
REMARK SMILES IDX 24 24
REMARK H PARENT
REMARK Flexibility Score: inf
ROOT
ATOM      1  C   UNL     1      10.451   3.768  21.056  1.00  0.00     0.000 C 
ENDROOT
BRANCH   1   2
ATOM      2  C   UNL     1      10.977   2.837  22.156  1.00  0.00     0.000 C 
BRANCH   2   3
ATOM      3  C   UNL     1      10.297   1.462  22.088  1.00  0.00     0.000 C 
BRANCH   3   4
ATOM      4  C   UNL     1      11.041   0.386  22.900  1.00  0.00    -0.000 C 
BRANCH   4   5
ATOM      5  C   UNL     1      11.540   0.881  24.274  1.00  0.00    -0.000 C 
BRANCH   5   6
ATOM      6  C   UNL     1      10.662   0.377  25.429  1.00  0.00    -0.000 C 
BRANCH   6   7
ATOM      7  C   UNL     1      11.518  -0.208  26.558  1.00  0.00    -0.000 C 
BRANCH   7   8
ATOM      8  C   UNL     1      12.786  -0.871  25.999  1.00  0.00    -0.000 C 
BRANCH   8   9
ATOM      9  C   UNL     1      14.037  -0.555  26.835  1.00  0.00    -0.000 C 
BRANCH   9  10
ATOM     10  C   UNL     1      14.002   0.854  27.442  1.00  0.00    -0.000 C 
BRANCH  10  11
ATOM     11  C   UNL     1      14.363   1.911  26.393  1.00  0.00    -0.003 C 
ATOM     12  C   UNL     1      15.594   1.496  25.593  1.00  0.00     0.004 C 
ENDBRANCH  10  11
ENDBRANCH   9  10
ENDBRANCH   8   9
ENDBRANCH   7   8
ENDBRANCH   6   7
ENDBRANCH   5   6
ENDBRANCH   4   5
ENDBRANCH   3   4
ENDBRANCH   2   3
ENDBRANCH   1   2
BRANCH   1  13
ATOM     13  C   UNL     1      10.165   2.984  19.767  1.00  0.00     0.000 C 
BRANCH  13  14
ATOM     14  C   UNL     1      10.505   3.780  18.497  1.00  0.00     0.000 C 
BRANCH  14  15
ATOM     15  C   UNL     1      11.961   4.268  18.475  1.00  0.00     0.000 C 
BRANCH  15  16
ATOM     16  C   UNL     1      12.027   5.796  18.360  1.00  0.00     0.000 C 
BRANCH  16  17
ATOM     17  C   UNL     1      10.732   6.361  17.758  1.00  0.00     0.000 C 
BRANCH  17  18
ATOM     18  C   UNL     1      10.133   7.504  18.595  1.00  0.00     0.000 C 
BRANCH  18  19
ATOM     19  C   UNL     1       9.828   7.148  20.064  1.00  0.00     0.000 C 
BRANCH  19  20
ATOM     20  C   UNL     1      10.633   7.944  21.110  1.00  0.00     0.006 C 
BRANCH  20  21
ATOM     21  C   UNL     1      11.953   7.282  21.534  1.00  0.00     0.053 C 
BRANCH  21  22
ATOM     22  C   UNL     1      13.105   8.237  21.463  1.00  0.00     0.041 C 
ATOM     23  O   UNL     1      13.632   8.673  22.521  1.00  0.00    -0.550 OA
ATOM     24  O   UNL     1      13.572   8.675  20.231  1.00  0.00    -0.550 OA
ENDBRANCH  21  22
ENDBRANCH  20  21
ENDBRANCH  19  20
ENDBRANCH  18  19
ENDBRANCH  17  18
ENDBRANCH  16  17
ENDBRANCH  15  16
ENDBRANCH  14  15
ENDBRANCH  13  14
ENDBRANCH   1  13
TORSDOF 20
ENDMDL
MODEL 5
REMARK VINA RESULT:    -5.605      2.917      8.391
REMARK INTER + INTRA:         -14.932
REMARK INTER:                 -12.203
REMARK INTRA:                  -2.729
REMARK UNBOUND:                -2.773
REMARK SMILES CCCCCCCCCCCCCCCCCCCCCC(=O)[O-]
REMARK SMILES IDX 12 1 11 2 10 3 9 4 8 5 7 6 6 7 5 8 4 9 3 10 2 11 1 12 13 13
REMARK SMILES IDX 14 14 15 15 16 16 17 17 18 18 19 19 20 20 21 21 22 22 23 23
REMARK SMILES IDX 24 24
REMARK H PARENT
REMARK Flexibility Score: inf
ROOT
ATOM      1  C   UNL     1      11.786   4.744  22.085  1.00  0.00     0.000 C 
ENDROOT
BRANCH   1   2
ATOM      2  C   UNL     1      12.269   3.625  23.015  1.00  0.00     0.000 C 
BRANCH   2   3
ATOM      3  C   UNL     1      13.271   4.158  24.049  1.00  0.00     0.000 C 
BRANCH   3   4
ATOM      4  C   UNL     1      13.633   3.118  25.124  1.00  0.00    -0.000 C 
BRANCH   4   5
ATOM      5  C   UNL     1      14.845   2.238  24.753  1.00  0.00    -0.000 C 
BRANCH   5   6
ATOM      6  C   UNL     1      15.467   1.555  25.981  1.00  0.00    -0.000 C 
BRANCH   6   7
ATOM      7  C   UNL     1      14.759   0.231  26.293  1.00  0.00    -0.000 C 
BRANCH   7   8
ATOM      8  C   UNL     1      14.106   0.271  27.682  1.00  0.00    -0.000 C 
BRANCH   8   9
ATOM      9  C   UNL     1      12.575   0.394  27.613  1.00  0.00    -0.000 C 
BRANCH   9  10
ATOM     10  C   UNL     1      11.958  -0.508  26.535  1.00  0.00    -0.000 C 
BRANCH  10  11
ATOM     11  C   UNL     1      10.743   0.167  25.887  1.00  0.00    -0.003 C 
ATOM     12  C   UNL     1      11.022   0.522  24.430  1.00  0.00     0.004 C 
ENDBRANCH  10  11
ENDBRANCH   9  10
ENDBRANCH   8   9
ENDBRANCH   7   8
ENDBRANCH   6   7
ENDBRANCH   5   6
ENDBRANCH   4   5
ENDBRANCH   3   4
ENDBRANCH   2   3
ENDBRANCH   1   2
BRANCH   1  13
ATOM     13  C   UNL     1      10.454   4.367  21.420  1.00  0.00     0.000 C 
BRANCH  13  14
ATOM     14  C   UNL     1      10.275   2.848  21.264  1.00  0.00     0.000 C 
BRANCH  14  15
ATOM     15  C   UNL     1       9.858   2.443  19.842  1.00  0.00     0.000 C 
BRANCH  15  16
ATOM     16  C   UNL     1       9.141   3.597  19.130  1.00  0.00     0.000 C 
BRANCH  16  17
ATOM     17  C   UNL     1       9.934   4.065  17.900  1.00  0.00     0.000 C 
BRANCH  17  18
ATOM     18  C   UNL     1      11.435   3.744  17.999  1.00  0.00     0.000 C 
BRANCH  18  19
ATOM     19  C   UNL     1      12.340   4.948  18.326  1.00  0.00     0.000 C 
BRANCH  19  20
ATOM     20  C   UNL     1      11.698   6.331  18.095  1.00  0.00     0.006 C 
BRANCH  20  21
ATOM     21  C   UNL     1      11.617   7.210  19.352  1.00  0.00     0.053 C 
BRANCH  21  22
ATOM     22  C   UNL     1      10.201   7.532  19.719  1.00  0.00     0.041 C 
ATOM     23  O   UNL     1       9.912   7.861  20.900  1.00  0.00    -0.550 OA
ATOM     24  O   UNL     1       9.196   7.433  18.766  1.00  0.00    -0.550 OA
ENDBRANCH  21  22
ENDBRANCH  20  21
ENDBRANCH  19  20
ENDBRANCH  18  19
ENDBRANCH  17  18
ENDBRANCH  16  17
ENDBRANCH  15  16
ENDBRANCH  14  15
ENDBRANCH  13  14
ENDBRANCH   1  13
TORSDOF 20
ENDMDL
MODEL 6
REMARK VINA RESULT:    -5.578      1.150      2.966
REMARK INTER + INTRA:         -14.874
REMARK INTER:                 -12.733
REMARK INTRA:                  -2.140
REMARK UNBOUND:                -2.773
REMARK SMILES CCCCCCCCCCCCCCCCCCCCCC(=O)[O-]
REMARK SMILES IDX 12 1 11 2 10 3 9 4 8 5 7 6 6 7 5 8 4 9 3 10 2 11 1 12 13 13
REMARK SMILES IDX 14 14 15 15 16 16 17 17 18 18 19 19 20 20 21 21 22 22 23 23
REMARK SMILES IDX 24 24
REMARK H PARENT
REMARK Flexibility Score: inf
ROOT
ATOM      1  C   UNL     1       9.836   3.209  20.122  1.00  0.00     0.000 C 
ENDROOT
BRANCH   1   2
ATOM      2  C   UNL     1       9.902   4.349  21.146  1.00  0.00     0.000 C 
BRANCH   2   3
ATOM      3  C   UNL     1       8.762   5.354  20.928  1.00  0.00     0.000 C 
BRANCH   3   4
ATOM      4  C   UNL     1       8.122   5.241  19.532  1.00  0.00    -0.000 C 
BRANCH   4   5
ATOM      5  C   UNL     1       8.356   6.478  18.640  1.00  0.00    -0.000 C 
BRANCH   5   6
ATOM      6  C   UNL     1       9.297   6.177  17.463  1.00  0.00    -0.000 C 
BRANCH   6   7
ATOM      7  C   UNL     1      10.595   6.986  17.574  1.00  0.00    -0.000 C 
BRANCH   7   8
ATOM      8  C   UNL     1      11.648   6.224  18.394  1.00  0.00    -0.000 C 
BRANCH   8   9
ATOM      9  C   UNL     1      12.484   7.152  19.290  1.00  0.00    -0.000 C 
BRANCH   9  10
ATOM     10  C   UNL     1      11.745   7.559  20.573  1.00  0.00    -0.000 C 
BRANCH  10  11
ATOM     11  C   UNL     1      12.704   8.217  21.571  1.00  0.00    -0.003 C 
ATOM     12  C   UNL     1      12.123   9.517  22.119  1.00  0.00     0.004 C 
ENDBRANCH  10  11
ENDBRANCH   9  10
ENDBRANCH   8   9
ENDBRANCH   7   8
ENDBRANCH   6   7
ENDBRANCH   5   6
ENDBRANCH   4   5
ENDBRANCH   3   4
ENDBRANCH   2   3
ENDBRANCH   1   2
BRANCH   1  13
ATOM     13  C   UNL     1      10.275   1.880  20.754  1.00  0.00     0.000 C 
BRANCH  13  14
ATOM     14  C   UNL     1      10.650   2.021  22.237  1.00  0.00     0.000 C 
BRANCH  14  15
ATOM     15  C   UNL     1      10.676   0.673  22.974  1.00  0.00     0.000 C 
BRANCH  15  16
ATOM     16  C   UNL     1      11.569   0.744  24.218  1.00  0.00     0.000 C 
BRANCH  16  17
ATOM     17  C   UNL     1      10.781   0.378  25.485  1.00  0.00     0.000 C 
BRANCH  17  18
ATOM     18  C   UNL     1      11.592  -0.489  26.463  1.00  0.00     0.000 C 
BRANCH  18  19
ATOM     19  C   UNL     1      13.076  -0.680  26.091  1.00  0.00     0.000 C 
BRANCH  19  20
ATOM     20  C   UNL     1      14.084  -0.188  27.149  1.00  0.00     0.006 C 
BRANCH  20  21
ATOM     21  C   UNL     1      14.254   1.338  27.201  1.00  0.00     0.053 C 
BRANCH  21  22
ATOM     22  C   UNL     1      14.758   1.889  25.903  1.00  0.00     0.041 C 
ATOM     23  O   UNL     1      15.887   1.544  25.463  1.00  0.00    -0.550 OA
ATOM     24  O   UNL     1      13.997   2.811  25.196  1.00  0.00    -0.550 OA
ENDBRANCH  21  22
ENDBRANCH  20  21
ENDBRANCH  19  20
ENDBRANCH  18  19
ENDBRANCH  17  18
ENDBRANCH  16  17
ENDBRANCH  15  16
ENDBRANCH  14  15
ENDBRANCH  13  14
ENDBRANCH   1  13
TORSDOF 20
ENDMDL
MODEL 7
REMARK VINA RESULT:    -5.555      2.915      8.843
REMARK INTER + INTRA:         -14.822
REMARK INTER:                 -12.376
REMARK INTRA:                  -2.446
REMARK UNBOUND:                -2.773
REMARK SMILES CCCCCCCCCCCCCCCCCCCCCC(=O)[O-]
REMARK SMILES IDX 12 1 11 2 10 3 9 4 8 5 7 6 6 7 5 8 4 9 3 10 2 11 1 12 13 13
REMARK SMILES IDX 14 14 15 15 16 16 17 17 18 18 19 19 20 20 21 21 22 22 23 23
REMARK SMILES IDX 24 24
REMARK H PARENT
REMARK Flexibility Score: inf
ROOT
ATOM      1  C   UNL     1       9.534   4.753  21.278  1.00  0.00     0.000 C 
ENDROOT
BRANCH   1   2
ATOM      2  C   UNL     1      10.828   3.952  21.473  1.00  0.00     0.000 C 
BRANCH   2   3
ATOM      3  C   UNL     1      10.528   2.464  21.702  1.00  0.00     0.000 C 
BRANCH   3   4
ATOM      4  C   UNL     1      11.313   1.871  22.886  1.00  0.00    -0.000 C 
BRANCH   4   5
ATOM      5  C   UNL     1      10.553   0.760  23.640  1.00  0.00    -0.000 C 
BRANCH   5   6
ATOM      6  C   UNL     1      11.446   0.028  24.654  1.00  0.00    -0.000 C 
BRANCH   6   7
ATOM      7  C   UNL     1      10.825   0.057  26.056  1.00  0.00    -0.000 C 
BRANCH   7   8
ATOM      8  C   UNL     1      11.915   0.068  27.139  1.00  0.00    -0.000 C 
BRANCH   8   9
ATOM      9  C   UNL     1      13.223  -0.588  26.669  1.00  0.00    -0.000 C 
BRANCH   9  10
ATOM     10  C   UNL     1      14.468   0.075  27.275  1.00  0.00    -0.000 C 
BRANCH  10  11
ATOM     11  C   UNL     1      14.549   1.553  26.878  1.00  0.00    -0.003 C 
ATOM     12  C   UNL     1      14.763   1.709  25.375  1.00  0.00     0.004 C 
ENDBRANCH  10  11
ENDBRANCH   9  10
ENDBRANCH   8   9
ENDBRANCH   7   8
ENDBRANCH   6   7
ENDBRANCH   5   6
ENDBRANCH   4   5
ENDBRANCH   3   4
ENDBRANCH   2   3
ENDBRANCH   1   2
BRANCH   1  13
ATOM     13  C   UNL     1       9.816   6.262  21.303  1.00  0.00     0.000 C 
BRANCH  13  14
ATOM     14  C   UNL     1      11.311   6.592  21.171  1.00  0.00     0.000 C 
BRANCH  14  15
ATOM     15  C   UNL     1      11.640   7.349  19.876  1.00  0.00     0.000 C 
BRANCH  15  16
ATOM     16  C   UNL     1      11.878   6.374  18.716  1.00  0.00     0.000 C 
BRANCH  16  17
ATOM     17  C   UNL     1      10.705   6.398  17.725  1.00  0.00     0.000 C 
BRANCH  17  18
ATOM     18  C   UNL     1       9.971   5.049  17.634  1.00  0.00     0.000 C 
BRANCH  18  19
ATOM     19  C   UNL     1      10.846   3.810  17.915  1.00  0.00     0.000 C 
BRANCH  19  20
ATOM     20  C   UNL     1      10.178   2.455  17.608  1.00  0.00     0.006 C 
BRANCH  20  21
ATOM     21  C   UNL     1       8.894   2.185  18.406  1.00  0.00     0.053 C 
BRANCH  21  22
ATOM     22  C   UNL     1       8.433   0.768  18.262  1.00  0.00     0.041 C 
ATOM     23  O   UNL     1       8.564  -0.042  19.218  1.00  0.00    -0.550 OA
ATOM     24  O   UNL     1       7.894   0.330  17.059  1.00  0.00    -0.550 OA
ENDBRANCH  21  22
ENDBRANCH  20  21
ENDBRANCH  19  20
ENDBRANCH  18  19
ENDBRANCH  17  18
ENDBRANCH  16  17
ENDBRANCH  15  16
ENDBRANCH  14  15
ENDBRANCH  13  14
ENDBRANCH   1  13
TORSDOF 20
ENDMDL
MODEL 8
REMARK VINA RESULT:    -5.531      2.031      3.698
REMARK INTER + INTRA:         -14.771
REMARK INTER:                 -12.489
REMARK INTRA:                  -2.282
REMARK UNBOUND:                -2.773
REMARK SMILES CCCCCCCCCCCCCCCCCCCCCC(=O)[O-]
REMARK SMILES IDX 12 1 11 2 10 3 9 4 8 5 7 6 6 7 5 8 4 9 3 10 2 11 1 12 13 13
REMARK SMILES IDX 14 14 15 15 16 16 17 17 18 18 19 19 20 20 21 21 22 22 23 23
REMARK SMILES IDX 24 24
REMARK H PARENT
REMARK Flexibility Score: inf
ROOT
ATOM      1  C   UNL     1      10.608   7.193  21.379  1.00  0.00     0.000 C 
ENDROOT
BRANCH   1   2
ATOM      2  C   UNL     1      11.875   7.975  21.014  1.00  0.00     0.000 C 
BRANCH   2   3
ATOM      3  C   UNL     1      12.437   7.516  19.660  1.00  0.00     0.000 C 
BRANCH   3   4
ATOM      4  C   UNL     1      11.375   7.496  18.547  1.00  0.00    -0.000 C 
BRANCH   4   5
ATOM      5  C   UNL     1      11.312   6.163  17.773  1.00  0.00    -0.000 C 
BRANCH   5   6
ATOM      6  C   UNL     1      12.306   5.125  18.319  1.00  0.00    -0.000 C 
BRANCH   6   7
ATOM      7  C   UNL     1      11.572   3.921  18.920  1.00  0.00    -0.000 C 
BRANCH   7   8
ATOM      8  C   UNL     1      10.786   3.162  17.840  1.00  0.00    -0.000 C 
BRANCH   8   9
ATOM      9  C   UNL     1       9.348   2.834  18.275  1.00  0.00    -0.000 C 
BRANCH   9  10
ATOM     10  C   UNL     1       8.894   3.661  19.486  1.00  0.00    -0.000 C 
BRANCH  10  11
ATOM     11  C   UNL     1       7.637   4.473  19.154  1.00  0.00    -0.003 C 
ATOM     12  C   UNL     1       7.966   5.652  18.243  1.00  0.00     0.004 C 
ENDBRANCH  10  11
ENDBRANCH   9  10
ENDBRANCH   8   9
ENDBRANCH   7   8
ENDBRANCH   6   7
ENDBRANCH   5   6
ENDBRANCH   4   5
ENDBRANCH   3   4
ENDBRANCH   2   3
ENDBRANCH   1   2
BRANCH   1  13
ATOM     13  C   UNL     1      10.944   5.731  21.711  1.00  0.00     0.000 C 
BRANCH  13  14
ATOM     14  C   UNL     1      12.224   5.590  22.550  1.00  0.00     0.000 C 
BRANCH  14  15
ATOM     15  C   UNL     1      12.493   4.141  22.983  1.00  0.00     0.000 C 
BRANCH  15  16
ATOM     16  C   UNL     1      13.258   4.097  24.311  1.00  0.00     0.000 C 
BRANCH  16  17
ATOM     17  C   UNL     1      13.388   2.656  24.826  1.00  0.00     0.000 C 
BRANCH  17  18
ATOM     18  C   UNL     1      14.851   2.191  24.938  1.00  0.00     0.000 C 
BRANCH  18  19
ATOM     19  C   UNL     1      15.143   1.232  26.109  1.00  0.00     0.000 C 
BRANCH  19  20
ATOM     20  C   UNL     1      14.370   1.532  27.409  1.00  0.00     0.006 C 
BRANCH  20  21
ATOM     21  C   UNL     1      13.597   0.333  27.979  1.00  0.00     0.053 C 
BRANCH  21  22
ATOM     22  C   UNL     1      12.695  -0.287  26.956  1.00  0.00     0.041 C 
ATOM     23  O   UNL     1      11.581   0.238  26.693  1.00  0.00    -0.550 OA
ATOM     24  O   UNL     1      13.068  -1.465  26.322  1.00  0.00    -0.550 OA
ENDBRANCH  21  22
ENDBRANCH  20  21
ENDBRANCH  19  20
ENDBRANCH  18  19
ENDBRANCH  17  18
ENDBRANCH  16  17
ENDBRANCH  15  16
ENDBRANCH  14  15
ENDBRANCH  13  14
ENDBRANCH   1  13
TORSDOF 20
ENDMDL
MODEL 9
REMARK VINA RESULT:    -5.528      1.312      2.900
REMARK INTER + INTRA:         -14.765
REMARK INTER:                 -12.865
REMARK INTRA:                  -1.900
REMARK UNBOUND:                -2.773
REMARK SMILES CCCCCCCCCCCCCCCCCCCCCC(=O)[O-]
REMARK SMILES IDX 12 1 11 2 10 3 9 4 8 5 7 6 6 7 5 8 4 9 3 10 2 11 1 12 13 13
REMARK SMILES IDX 14 14 15 15 16 16 17 17 18 18 19 19 20 20 21 21 22 22 23 23
REMARK SMILES IDX 24 24
REMARK H PARENT
REMARK Flexibility Score: inf
ROOT
ATOM      1  C   UNL     1       9.857   2.275  19.975  1.00  0.00     0.000 C 
ENDROOT
BRANCH   1   2
ATOM      2  C   UNL     1       9.800   2.698  18.503  1.00  0.00     0.000 C 
BRANCH   2   3
ATOM      3  C   UNL     1      10.529   4.031  18.282  1.00  0.00     0.000 C 
BRANCH   3   4
ATOM      4  C   UNL     1       9.627   5.111  17.657  1.00  0.00    -0.000 C 
BRANCH   4   5
ATOM      5  C   UNL     1       9.301   6.276  18.613  1.00  0.00    -0.000 C 
BRANCH   5   6
ATOM      6  C   UNL     1       8.325   5.862  19.725  1.00  0.00    -0.000 C 
BRANCH   6   7
ATOM      7  C   UNL     1       8.832   6.311  21.101  1.00  0.00    -0.000 C 
BRANCH   7   8
ATOM      8  C   UNL     1       9.893   7.413  20.962  1.00  0.00    -0.000 C 
BRANCH   8   9
ATOM      9  C   UNL     1      11.294   6.943  21.386  1.00  0.00    -0.000 C 
BRANCH   9  10
ATOM     10  C   UNL     1      12.408   7.867  20.873  1.00  0.00    -0.000 C 
BRANCH  10  11
ATOM     11  C   UNL     1      13.090   8.598  22.035  1.00  0.00    -0.003 C 
ATOM     12  C   UNL     1      12.398   9.924  22.334  1.00  0.00     0.004 C 
ENDBRANCH  10  11
ENDBRANCH   9  10
ENDBRANCH   8   9
ENDBRANCH   7   8
ENDBRANCH   6   7
ENDBRANCH   5   6
ENDBRANCH   4   5
ENDBRANCH   3   4
ENDBRANCH   2   3
ENDBRANCH   1   2
BRANCH   1  13
ATOM     13  C   UNL     1      10.580   3.333  20.821  1.00  0.00     0.000 C 
BRANCH  13  14
ATOM     14  C   UNL     1      10.927   2.833  22.232  1.00  0.00     0.000 C 
BRANCH  14  15
ATOM     15  C   UNL     1      10.590   1.348  22.434  1.00  0.00     0.000 C 
BRANCH  15  16
ATOM     16  C   UNL     1      11.355   0.769  23.631  1.00  0.00     0.000 C 
BRANCH  16  17
ATOM     17  C   UNL     1      10.398   0.416  24.779  1.00  0.00     0.000 C 
BRANCH  17  18
ATOM     18  C   UNL     1      11.122   0.226  26.123  1.00  0.00     0.000 C 
BRANCH  18  19
ATOM     19  C   UNL     1      12.148  -0.924  26.155  1.00  0.00     0.000 C 
BRANCH  19  20
ATOM     20  C   UNL     1      13.366  -0.689  27.072  1.00  0.00     0.006 C 
BRANCH  20  21
ATOM     21  C   UNL     1      14.675  -0.394  26.323  1.00  0.00     0.053 C 
BRANCH  21  22
ATOM     22  C   UNL     1      14.886   1.075  26.124  1.00  0.00     0.041 C 
ATOM     23  O   UNL     1      15.376   1.505  25.047  1.00  0.00    -0.550 OA
ATOM     24  O   UNL     1      14.578   1.967  27.143  1.00  0.00    -0.550 OA
ENDBRANCH  21  22
ENDBRANCH  20  21
ENDBRANCH  19  20
ENDBRANCH  18  19
ENDBRANCH  17  18
ENDBRANCH  16  17
ENDBRANCH  15  16
ENDBRANCH  14  15
ENDBRANCH  13  14
ENDBRANCH   1  13
TORSDOF 20
ENDMDL
