MODEL 1
REMARK VINA RESULT:    -3.466      0.000      0.000
REMARK INTER + INTRA:          -4.403
REMARK INTER:                  -4.277
REMARK INTRA:                  -0.127
REMARK UNBOUND:                -0.127
REMARK SMILES CCCCCC(=O)[O-]
REMARK SMILES IDX 4 1 5 2 6 3 7 4 8 5 3 6 2 7 1 8
REMARK H PARENT
REMARK Flexibility Score: inf
ROOT
ATOM      1  C   UNL     1       0.898   7.391 -11.042  1.00  0.00     0.006 C 
ENDROOT
BRANCH   1   2
ATOM      2  C   UNL     1      -0.565   7.843 -10.939  1.00  0.00     0.053 C 
BRANCH   2   3
ATOM      3  C   UNL     1      -1.474   6.656 -10.893  1.00  0.00     0.041 C 
ATOM      4  O   UNL     1      -1.475   5.820 -11.834  1.00  0.00    -0.550 OA
ATOM      5  O   UNL     1      -2.287   6.446  -9.785  1.00  0.00    -0.550 OA
ENDBRANCH   2   3
ENDBRANCH   1   2
BRANCH   1   6
ATOM      6  C   UNL     1       1.789   7.994  -9.941  1.00  0.00     0.000 C 
BRANCH   6   7
ATOM      7  C   UNL     1       1.606   7.368  -8.547  1.00  0.00    -0.003 C 
ATOM      8  C   UNL     1       0.791   8.247  -7.599  1.00  0.00     0.004 C 
ENDBRANCH   6   7
ENDBRANCH   1   6
TORSDOF 4
ENDMDL
MODEL 2
REMARK VINA RESULT:    -3.407      2.692      4.250
REMARK INTER + INTRA:          -4.330
REMARK INTER:                  -4.219
REMARK INTRA:                  -0.110
REMARK UNBOUND:                -0.127
REMARK SMILES CCCCCC(=O)[O-]
REMARK SMILES IDX 4 1 5 2 6 3 7 4 8 5 3 6 2 7 1 8
REMARK H PARENT
REMARK Flexibility Score: inf
ROOT
ATOM      1  C   UNL     1      -1.487   7.711  -8.921  1.00  0.00     0.006 C 
ENDROOT
BRANCH   1   2
ATOM      2  C   UNL     1      -0.317   6.737  -9.113  1.00  0.00     0.053 C 
BRANCH   2   3
ATOM      3  C   UNL     1       0.895   7.229  -8.387  1.00  0.00     0.041 C 
ATOM      4  O   UNL     1       2.041   7.063  -8.881  1.00  0.00    -0.550 OA
ATOM      5  O   UNL     1       0.755   7.916  -7.187  1.00  0.00    -0.550 OA
ENDBRANCH   2   3
ENDBRANCH   1   2
BRANCH   1   6
ATOM      6  C   UNL     1      -1.909   8.403 -10.231  1.00  0.00     0.000 C 
BRANCH   6   7
ATOM      7  C   UNL     1      -3.189   7.840 -10.875  1.00  0.00    -0.003 C 
ATOM      8  C   UNL     1      -2.918   6.661 -11.810  1.00  0.00     0.004 C 
ENDBRANCH   6   7
ENDBRANCH   1   6
TORSDOF 4
ENDMDL
MODEL 3
REMARK VINA RESULT:    -3.392      2.711      4.069
REMARK INTER + INTRA:          -4.311
REMARK INTER:                  -4.138
REMARK INTRA:                  -0.174
REMARK UNBOUND:                -0.127
REMARK SMILES CCCCCC(=O)[O-]
REMARK SMILES IDX 4 1 5 2 6 3 7 4 8 5 3 6 2 7 1 8
REMARK H PARENT
REMARK Flexibility Score: inf
ROOT
ATOM      1  C   UNL     1       0.239   6.868  -8.739  1.00  0.00     0.006 C 
ENDROOT
BRANCH   1   2
ATOM      2  C   UNL     1       1.459   7.760  -8.472  1.00  0.00     0.053 C 
BRANCH   2   3
ATOM      3  C   UNL     1       2.169   8.067  -9.752  1.00  0.00     0.041 C 
ATOM      4  O   UNL     1       2.987   9.022  -9.810  1.00  0.00    -0.550 OA
ATOM      5  O   UNL     1       1.966   7.266 -10.870  1.00  0.00    -0.550 OA
ENDBRANCH   2   3
ENDBRANCH   1   2
BRANCH   1   6
ATOM      6  C   UNL     1      -1.084   7.656  -8.759  1.00  0.00     0.000 C 
BRANCH   6   7
ATOM      7  C   UNL     1      -2.151   7.101  -9.720  1.00  0.00    -0.003 C 
ATOM      8  C   UNL     1      -1.597   6.775 -11.106  1.00  0.00     0.004 C 
ENDBRANCH   6   7
ENDBRANCH   1   6
TORSDOF 4
ENDMDL
MODEL 4
REMARK VINA RESULT:    -3.368      2.851      4.499
REMARK INTER + INTRA:          -4.282
REMARK INTER:                  -4.215
REMARK INTRA:                  -0.067
REMARK UNBOUND:                -0.127
REMARK SMILES CCCCCC(=O)[O-]
REMARK SMILES IDX 4 1 5 2 6 3 7 4 8 5 3 6 2 7 1 8
REMARK H PARENT
REMARK Flexibility Score: inf
ROOT
ATOM      1  C   UNL     1      -1.581   7.767  -8.759  1.00  0.00     0.006 C 
ENDROOT
BRANCH   1   2
ATOM      2  C   UNL     1      -0.409   6.825  -9.066  1.00  0.00     0.053 C 
BRANCH   2   3
ATOM      3  C   UNL     1       0.820   7.267  -8.337  1.00  0.00     0.041 C 
ATOM      4  O   UNL     1       0.726   7.804  -7.203  1.00  0.00    -0.550 OA
ATOM      5  O   UNL     1       2.075   7.041  -8.889  1.00  0.00    -0.550 OA
ENDBRANCH   2   3
ENDBRANCH   1   2
BRANCH   1   6
ATOM      6  C   UNL     1      -2.182   8.407 -10.023  1.00  0.00     0.000 C 
BRANCH   6   7
ATOM      7  C   UNL     1      -2.973   7.441 -10.923  1.00  0.00    -0.003 C 
ATOM      8  C   UNL     1      -4.084   8.132 -11.712  1.00  0.00     0.004 C 
ENDBRANCH   6   7
ENDBRANCH   1   6
TORSDOF 4
ENDMDL
MODEL 5
REMARK VINA RESULT:    -3.367      1.851      2.991
REMARK INTER + INTRA:          -4.281
REMARK INTER:                  -4.004
REMARK INTRA:                  -0.277
REMARK UNBOUND:                -0.127
REMARK SMILES CCCCCC(=O)[O-]
REMARK SMILES IDX 4 1 5 2 6 3 7 4 8 5 3 6 2 7 1 8
REMARK H PARENT
REMARK Flexibility Score: inf
ROOT
ATOM      1  C   UNL     1       2.082   7.863  -9.306  1.00  0.00     0.006 C 
ENDROOT
BRANCH   1   2
ATOM      2  C   UNL     1       1.234   7.474  -8.088  1.00  0.00     0.053 C 
BRANCH   2   3
ATOM      3  C   UNL     1      -0.174   7.188  -8.503  1.00  0.00     0.041 C 
ATOM      4  O   UNL     1      -0.426   6.219  -9.267  1.00  0.00    -0.550 OA
ATOM      5  O   UNL     1      -1.216   7.962  -8.007  1.00  0.00    -0.550 OA
ENDBRANCH   2   3
ENDBRANCH   1   2
BRANCH   1   6
ATOM      6  C   UNL     1       1.526   9.088 -10.055  1.00  0.00     0.000 C 
BRANCH   6   7
ATOM      7  C   UNL     1       1.291   8.873 -11.561  1.00  0.00    -0.003 C 
ATOM      8  C   UNL     1       1.509   7.425 -11.999  1.00  0.00     0.004 C 
ENDBRANCH   6   7
ENDBRANCH   1   6
TORSDOF 4
ENDMDL
MODEL 6
REMARK VINA RESULT:    -3.360      1.247      1.618
REMARK INTER + INTRA:          -4.273
REMARK INTER:                  -4.029
REMARK INTRA:                  -0.244
REMARK UNBOUND:                -0.127
REMARK SMILES CCCCCC(=O)[O-]
REMARK SMILES IDX 4 1 5 2 6 3 7 4 8 5 3 6 2 7 1 8
REMARK H PARENT
REMARK Flexibility Score: inf
ROOT
ATOM      1  C   UNL     1      -0.034   8.843 -10.446  1.00  0.00     0.006 C 
ENDROOT
BRANCH   1   2
ATOM      2  C   UNL     1      -1.467   8.353 -10.690  1.00  0.00     0.053 C 
BRANCH   2   3
ATOM      3  C   UNL     1      -1.948   7.548  -9.525  1.00  0.00     0.041 C 
ATOM      4  O   UNL     1      -2.255   6.337  -9.674  1.00  0.00    -0.550 OA
ATOM      5  O   UNL     1      -2.011   8.124  -8.261  1.00  0.00    -0.550 OA
ENDBRANCH   2   3
ENDBRANCH   1   2
BRANCH   1   6
ATOM      6  C   UNL     1       0.989   7.694 -10.383  1.00  0.00     0.000 C 
BRANCH   6   7
ATOM      7  C   UNL     1       1.997   7.789  -9.223  1.00  0.00    -0.003 C 
ATOM      8  C   UNL     1       1.388   7.420  -7.871  1.00  0.00     0.004 C 
ENDBRANCH   6   7
ENDBRANCH   1   6
TORSDOF 4
ENDMDL
MODEL 7
REMARK VINA RESULT:    -3.310      1.369      1.979
REMARK INTER + INTRA:          -4.210
REMARK INTER:                  -4.071
REMARK INTRA:                  -0.139
REMARK UNBOUND:                -0.127
REMARK SMILES CCCCCC(=O)[O-]
REMARK SMILES IDX 4 1 5 2 6 3 7 4 8 5 3 6 2 7 1 8
REMARK H PARENT
REMARK Flexibility Score: inf
ROOT
ATOM      1  C   UNL     1      -0.182   6.626  -9.074  1.00  0.00     0.006 C 
ENDROOT
BRANCH   1   2
ATOM      2  C   UNL     1      -1.530   7.357  -9.107  1.00  0.00     0.053 C 
BRANCH   2   3
ATOM      3  C   UNL     1      -2.256   7.055 -10.380  1.00  0.00     0.041 C 
ATOM      4  O   UNL     1      -1.833   6.156 -11.153  1.00  0.00    -0.550 OA
ATOM      5  O   UNL     1      -3.429   7.733 -10.689  1.00  0.00    -0.550 OA
ENDBRANCH   2   3
ENDBRANCH   1   2
BRANCH   1   6
ATOM      6  C   UNL     1       0.907   7.413  -8.321  1.00  0.00     0.000 C 
BRANCH   6   7
ATOM      7  C   UNL     1       2.004   8.016  -9.217  1.00  0.00    -0.003 C 
ATOM      8  C   UNL     1       1.794   7.718 -10.702  1.00  0.00     0.004 C 
ENDBRANCH   6   7
ENDBRANCH   1   6
TORSDOF 4
ENDMDL
MODEL 8
REMARK VINA RESULT:    -3.227      2.033      3.586
REMARK INTER + INTRA:          -4.109
REMARK INTER:                  -3.891
REMARK INTRA:                  -0.218
REMARK UNBOUND:                -0.127
REMARK SMILES CCCCCC(=O)[O-]
REMARK SMILES IDX 4 1 5 2 6 3 7 4 8 5 3 6 2 7 1 8
REMARK H PARENT
REMARK Flexibility Score: inf
ROOT
ATOM      1  C   UNL     1       0.008   8.472 -10.494  1.00  0.00     0.006 C 
ENDROOT
BRANCH   1   2
ATOM      2  C   UNL     1       0.964   8.598  -9.301  1.00  0.00     0.053 C 
BRANCH   2   3
ATOM      3  C   UNL     1       0.387   7.921  -8.098  1.00  0.00     0.041 C 
ATOM      4  O   UNL     1       1.145   7.430  -7.221  1.00  0.00    -0.550 OA
ATOM      5  O   UNL     1      -0.991   7.877  -7.919  1.00  0.00    -0.550 OA
ENDBRANCH   2   3
ENDBRANCH   1   2
BRANCH   1   6
ATOM      6  C   UNL     1       0.275   7.215 -11.344  1.00  0.00     0.000 C 
BRANCH   6   7
ATOM      7  C   UNL     1      -0.944   6.295 -11.537  1.00  0.00    -0.003 C 
ATOM      8  C   UNL     1      -2.245   6.912 -11.025  1.00  0.00     0.004 C 
ENDBRANCH   6   7
ENDBRANCH   1   6
TORSDOF 4
ENDMDL
MODEL 9
REMARK VINA RESULT:    -3.174      1.495      1.974
REMARK INTER + INTRA:          -4.043
REMARK INTER:                  -3.940
REMARK INTRA:                  -0.103
REMARK UNBOUND:                -0.127
REMARK SMILES CCCCCC(=O)[O-]
REMARK SMILES IDX 4 1 5 2 6 3 7 4 8 5 3 6 2 7 1 8
REMARK H PARENT
REMARK Flexibility Score: inf
ROOT
ATOM      1  C   UNL     1      -1.437   7.159  -9.142  1.00  0.00     0.006 C 
ENDROOT
BRANCH   1   2
ATOM      2  C   UNL     1      -1.770   7.928 -10.427  1.00  0.00     0.053 C 
BRANCH   2   3
ATOM      3  C   UNL     1      -2.579   7.073 -11.351  1.00  0.00     0.041 C 
ATOM      4  O   UNL     1      -3.726   7.442 -11.715  1.00  0.00    -0.550 OA
ATOM      5  O   UNL     1      -2.045   5.891 -11.850  1.00  0.00    -0.550 OA
ENDBRANCH   2   3
ENDBRANCH   1   2
BRANCH   1   6
ATOM      6  C   UNL     1      -0.028   6.539  -9.164  1.00  0.00     0.000 C 
BRANCH   6   7
ATOM      7  C   UNL     1       1.114   7.519  -8.839  1.00  0.00    -0.003 C 
ATOM      8  C   UNL     1       0.817   8.402  -7.627  1.00  0.00     0.004 C 
ENDBRANCH   6   7
ENDBRANCH   1   6
TORSDOF 4
ENDMDL
