MODEL 1
REMARK VINA RESULT:    -3.409      0.000      0.000
REMARK INTER + INTRA:          -3.897
REMARK INTER:                  -3.708
REMARK INTRA:                  -0.189
REMARK UNBOUND:                -0.189
REMARK SMILES Cc1ccc(C(C)C)c(O)c1
REMARK SMILES IDX 1 1 2 2 11 3 9 4 5 5 4 6 3 7 10 8 6 10 7 11 8 12
REMARK H PARENT 10 9
REMARK Flexibility Score: inf
ROOT
ATOM      1  C   UNL     1      64.444   3.712  49.693  1.00  0.00     0.044 C 
ATOM      2  C   UNL     1      65.268   4.528  50.643  1.00  0.00    -0.047 A 
ATOM      3  C   UNL     1      64.649   5.392  51.554  1.00  0.00     0.049 A 
ATOM      4  C   UNL     1      65.407   6.179  52.430  1.00  0.00     0.119 A 
ATOM      5  C   UNL     1      66.826   6.159  52.354  1.00  0.00    -0.004 A 
ATOM      6  C   UNL     1      67.434   5.261  51.449  1.00  0.00     0.008 A 
ATOM      7  C   UNL     1      66.664   4.470  50.595  1.00  0.00     0.004 A 
ENDROOT
BRANCH   4   8
ATOM      8  O   UNL     1      64.709   6.947  53.366  1.00  0.00    -0.508 OA
ATOM      9  H   UNL     1      64.920   7.913  53.578  1.00  0.00     0.293 HD
ENDBRANCH   4   8
BRANCH   5  10
ATOM     10  C   UNL     1      67.686   7.030  53.265  1.00  0.00     0.017 C 
ATOM     11  C   UNL     1      68.879   6.226  53.793  1.00  0.00     0.012 C 
ATOM     12  C   UNL     1      68.162   8.331  52.598  1.00  0.00     0.012 C 
ENDBRANCH   5  10
TORSDOF 2
ENDMDL
MODEL 2
REMARK VINA RESULT:    -3.406     14.607     15.704
REMARK INTER + INTRA:          -3.893
REMARK INTER:                  -3.709
REMARK INTRA:                  -0.184
REMARK UNBOUND:                -0.189
REMARK SMILES Cc1ccc(C(C)C)c(O)c1
REMARK SMILES IDX 1 1 2 2 11 3 9 4 5 5 4 6 3 7 10 8 6 10 7 11 8 12
REMARK H PARENT 10 9
REMARK Flexibility Score: inf
ROOT
ATOM      1  C   UNL     1      80.150   3.633  48.875  1.00  0.00     0.044 C 
ATOM      2  C   UNL     1      80.330   2.400  49.709  1.00  0.00    -0.047 A 
ATOM      3  C   UNL     1      81.244   2.391  50.771  1.00  0.00     0.049 A 
ATOM      4  C   UNL     1      81.440   1.240  51.543  1.00  0.00     0.119 A 
ATOM      5  C   UNL     1      80.759   0.038  51.209  1.00  0.00    -0.004 A 
ATOM      6  C   UNL     1      79.820   0.073  50.155  1.00  0.00     0.008 A 
ATOM      7  C   UNL     1      79.623   1.234  49.405  1.00  0.00     0.004 A 
ENDROOT
BRANCH   4   8
ATOM      8  O   UNL     1      82.305   1.343  52.636  1.00  0.00    -0.508 OA
ATOM      9  H   UNL     1      82.525   2.210  53.105  1.00  0.00     0.293 HD
ENDBRANCH   4   8
BRANCH   5  10
ATOM     10  C   UNL     1      80.974  -1.248  52.003  1.00  0.00     0.017 C 
ATOM     11  C   UNL     1      79.628  -1.822  52.455  1.00  0.00     0.012 C 
ATOM     12  C   UNL     1      81.787  -2.308  51.241  1.00  0.00     0.012 C 
ENDBRANCH   5  10
TORSDOF 2
ENDMDL
MODEL 3
REMARK VINA RESULT:    -3.397     14.585     15.767
REMARK INTER + INTRA:          -3.883
REMARK INTER:                  -3.698
REMARK INTRA:                  -0.186
REMARK UNBOUND:                -0.189
REMARK SMILES Cc1ccc(C(C)C)c(O)c1
REMARK SMILES IDX 1 1 2 2 11 3 9 4 5 5 4 6 3 7 10 8 6 10 7 11 8 12
REMARK H PARENT 10 9
REMARK Flexibility Score: inf
ROOT
ATOM      1  C   UNL     1      72.791  -9.583  51.211  1.00  0.00     0.044 C 
ATOM      2  C   UNL     1      71.563  -9.335  52.035  1.00  0.00    -0.047 A 
ATOM      3  C   UNL     1      71.101 -10.311  52.926  1.00  0.00     0.049 A 
ATOM      4  C   UNL     1      69.941 -10.103  53.684  1.00  0.00     0.119 A 
ATOM      5  C   UNL     1      69.178  -8.918  53.503  1.00  0.00    -0.004 A 
ATOM      6  C   UNL     1      69.675  -7.932  52.622  1.00  0.00     0.008 A 
ATOM      7  C   UNL     1      70.842  -8.147  51.887  1.00  0.00     0.004 A 
ENDROOT
BRANCH   4   8
ATOM      8  O   UNL     1      69.599 -11.091  54.612  1.00  0.00    -0.508 OA
ATOM      9  H   UNL     1      68.651 -11.384  54.804  1.00  0.00     0.293 HD
ENDBRANCH   4   8
BRANCH   5  10
ATOM     10  C   UNL     1      67.889  -8.672  54.282  1.00  0.00     0.017 C 
ATOM     11  C   UNL     1      67.911  -7.276  54.912  1.00  0.00     0.012 C 
ATOM     12  C   UNL     1      66.618  -8.867  53.439  1.00  0.00     0.012 C 
ENDBRANCH   5  10
TORSDOF 2
ENDMDL
MODEL 4
REMARK VINA RESULT:    -3.385     15.056     17.822
REMARK INTER + INTRA:          -3.870
REMARK INTER:                  -3.683
REMARK INTRA:                  -0.187
REMARK UNBOUND:                -0.189
REMARK SMILES Cc1ccc(C(C)C)c(O)c1
REMARK SMILES IDX 1 1 2 2 11 3 9 4 5 5 4 6 3 7 10 8 6 10 7 11 8 12
REMARK H PARENT 10 9
REMARK Flexibility Score: inf
ROOT
ATOM      1  C   UNL     1      80.044   1.812  66.431  1.00  0.00     0.044 C 
ATOM      2  C   UNL     1      79.388   2.854  65.575  1.00  0.00    -0.047 A 
ATOM      3  C   UNL     1      80.142   3.591  64.654  1.00  0.00     0.049 A 
ATOM      4  C   UNL     1      79.548   4.584  63.866  1.00  0.00     0.119 A 
ATOM      5  C   UNL     1      78.174   4.903  64.044  1.00  0.00    -0.004 A 
ATOM      6  C   UNL     1      77.422   4.130  64.955  1.00  0.00     0.008 A 
ATOM      7  C   UNL     1      78.026   3.131  65.721  1.00  0.00     0.004 A 
ENDROOT
BRANCH   4   8
ATOM      8  O   UNL     1      80.354   5.211  62.912  1.00  0.00    -0.508 OA
ATOM      9  H   UNL     1      80.686   4.765  62.068  1.00  0.00     0.293 HD
ENDBRANCH   4   8
BRANCH   5  10
ATOM     10  C   UNL     1      77.499   6.003  63.230  1.00  0.00     0.017 C 
ATOM     11  C   UNL     1      76.153   5.510  62.689  1.00  0.00     0.012 C 
ATOM     12  C   UNL     1      77.321   7.318  64.008  1.00  0.00     0.012 C 
ENDBRANCH   5  10
TORSDOF 2
ENDMDL
MODEL 5
REMARK VINA RESULT:    -3.354     20.278     21.572
REMARK INTER + INTRA:          -3.837
REMARK INTER:                  -3.648
REMARK INTRA:                  -0.189
REMARK UNBOUND:                -0.189
REMARK SMILES Cc1ccc(C(C)C)c(O)c1
REMARK SMILES IDX 1 1 2 2 11 3 9 4 5 5 4 6 3 7 10 8 6 10 7 11 8 12
REMARK H PARENT 10 9
REMARK Flexibility Score: inf
ROOT
ATOM      1  C   UNL     1      69.291  -8.860  68.510  1.00  0.00     0.044 C 
ATOM      2  C   UNL     1      70.573  -8.581  67.782  1.00  0.00    -0.047 A 
ATOM      3  C   UNL     1      71.017  -9.447  66.775  1.00  0.00     0.049 A 
ATOM      4  C   UNL     1      72.223  -9.213  66.104  1.00  0.00     0.119 A 
ATOM      5  C   UNL     1      73.049  -8.122  66.490  1.00  0.00    -0.004 A 
ATOM      6  C   UNL     1      72.572  -7.243  67.486  1.00  0.00     0.008 A 
ATOM      7  C   UNL     1      71.359  -7.480  68.134  1.00  0.00     0.004 A 
ENDROOT
BRANCH   4   8
ATOM      8  O   UNL     1      72.549 -10.077  65.055  1.00  0.00    -0.508 OA
ATOM      9  H   UNL     1      73.441 -10.081  64.580  1.00  0.00     0.293 HD
ENDBRANCH   4   8
BRANCH   5  10
ATOM     10  C   UNL     1      74.388  -7.856  65.808  1.00  0.00     0.017 C 
ATOM     11  C   UNL     1      74.559  -6.357  65.546  1.00  0.00     0.012 C 
ATOM     12  C   UNL     1      75.592  -8.411  66.587  1.00  0.00     0.012 C 
ENDBRANCH   5  10
TORSDOF 2
ENDMDL
MODEL 6
REMARK VINA RESULT:    -3.308     14.074     15.397
REMARK INTER + INTRA:          -3.787
REMARK INTER:                  -3.604
REMARK INTRA:                  -0.183
REMARK UNBOUND:                -0.189
REMARK SMILES Cc1ccc(C(C)C)c(O)c1
REMARK SMILES IDX 1 1 2 2 11 3 9 4 5 5 4 6 3 7 10 8 6 10 7 11 8 12
REMARK H PARENT 10 9
REMARK Flexibility Score: inf
ROOT
ATOM      1  C   UNL     1      79.918  -2.864  51.206  1.00  0.00     0.044 C 
ATOM      2  C   UNL     1      80.190  -1.407  50.975  1.00  0.00    -0.047 A 
ATOM      3  C   UNL     1      81.169  -0.743  51.725  1.00  0.00     0.049 A 
ATOM      4  C   UNL     1      81.417   0.622  51.537  1.00  0.00     0.119 A 
ATOM      5  C   UNL     1      80.623   1.368  50.624  1.00  0.00    -0.004 A 
ATOM      6  C   UNL     1      79.661   0.677  49.856  1.00  0.00     0.008 A 
ATOM      7  C   UNL     1      79.437  -0.688  50.042  1.00  0.00     0.004 A 
ENDROOT
BRANCH   4   8
ATOM      8  O   UNL     1      82.469   1.186  52.264  1.00  0.00    -0.508 OA
ATOM      9  H   UNL     1      82.860   0.781  53.103  1.00  0.00     0.293 HD
ENDBRANCH   4   8
BRANCH   5  10
ATOM     10  C   UNL     1      80.838   2.865  50.420  1.00  0.00     0.017 C 
ATOM     11  C   UNL     1      81.080   3.166  48.938  1.00  0.00     0.012 C 
ATOM     12  C   UNL     1      79.690   3.729  50.968  1.00  0.00     0.012 C 
ENDBRANCH   5  10
TORSDOF 2
ENDMDL
MODEL 7
REMARK VINA RESULT:    -3.267      1.098      4.052
REMARK INTER + INTRA:          -3.742
REMARK INTER:                  -3.559
REMARK INTRA:                  -0.183
REMARK UNBOUND:                -0.189
REMARK SMILES Cc1ccc(C(C)C)c(O)c1
REMARK SMILES IDX 1 1 2 2 11 3 9 4 5 5 4 6 3 7 10 8 6 10 7 11 8 12
REMARK H PARENT 10 9
REMARK Flexibility Score: inf
ROOT
ATOM      1  C   UNL     1      69.623   7.011  52.716  1.00  0.00     0.044 C 
ATOM      2  C   UNL     1      68.271   6.467  52.364  1.00  0.00    -0.047 A 
ATOM      3  C   UNL     1      67.117   7.014  52.938  1.00  0.00     0.049 A 
ATOM      4  C   UNL     1      65.849   6.500  52.637  1.00  0.00     0.119 A 
ATOM      5  C   UNL     1      65.727   5.363  51.793  1.00  0.00    -0.004 A 
ATOM      6  C   UNL     1      66.898   4.843  51.200  1.00  0.00     0.008 A 
ATOM      7  C   UNL     1      68.153   5.377  51.496  1.00  0.00     0.004 A 
ENDROOT
BRANCH   4   8
ATOM      8  O   UNL     1      64.746   7.159  53.186  1.00  0.00    -0.508 OA
ATOM      9  H   UNL     1      64.697   7.487  54.140  1.00  0.00     0.293 HD
ENDBRANCH   4   8
BRANCH   5  10
ATOM     10  C   UNL     1      64.367   4.751  51.472  1.00  0.00     0.017 C 
ATOM     11  C   UNL     1      64.033   4.953  49.991  1.00  0.00     0.012 C 
ATOM     12  C   UNL     1      64.259   3.265  51.854  1.00  0.00     0.012 C 
ENDBRANCH   5  10
TORSDOF 2
ENDMDL
MODEL 8
REMARK VINA RESULT:    -3.264     17.066     19.638
REMARK INTER + INTRA:          -3.739
REMARK INTER:                  -3.557
REMARK INTRA:                  -0.182
REMARK UNBOUND:                -0.189
REMARK SMILES Cc1ccc(C(C)C)c(O)c1
REMARK SMILES IDX 1 1 2 2 11 3 9 4 5 5 4 6 3 7 10 8 6 10 7 11 8 12
REMARK H PARENT 10 9
REMARK Flexibility Score: inf
ROOT
ATOM      1  C   UNL     1      78.450   4.199  63.059  1.00  0.00     0.044 C 
ATOM      2  C   UNL     1      78.782   3.644  64.412  1.00  0.00    -0.047 A 
ATOM      3  C   UNL     1      77.785   3.516  65.388  1.00  0.00     0.049 A 
ATOM      4  C   UNL     1      78.085   3.022  66.663  1.00  0.00     0.119 A 
ATOM      5  C   UNL     1      79.429   2.709  67.004  1.00  0.00    -0.004 A 
ATOM      6  C   UNL     1      80.415   2.816  66.000  1.00  0.00     0.008 A 
ATOM      7  C   UNL     1      80.097   3.293  64.727  1.00  0.00     0.004 A 
ENDROOT
BRANCH   4   8
ATOM      8  O   UNL     1      77.017   2.846  67.548  1.00  0.00    -0.508 OA
ATOM      9  H   UNL     1      76.461   2.004  67.604  1.00  0.00     0.293 HD
ENDBRANCH   4   8
BRANCH   5  10
ATOM     10  C   UNL     1      79.802   2.204  68.396  1.00  0.00     0.017 C 
ATOM     11  C   UNL     1      80.294   0.756  68.317  1.00  0.00     0.012 C 
ATOM     12  C   UNL     1      80.834   3.090  69.112  1.00  0.00     0.012 C 
ENDBRANCH   5  10
TORSDOF 2
ENDMDL
MODEL 9
REMARK VINA RESULT:    -3.261     20.738     21.713
REMARK INTER + INTRA:          -3.736
REMARK INTER:                  -3.554
REMARK INTRA:                  -0.182
REMARK UNBOUND:                -0.189
REMARK SMILES Cc1ccc(C(C)C)c(O)c1
REMARK SMILES IDX 1 1 2 2 11 3 9 4 5 5 4 6 3 7 10 8 6 10 7 11 8 12
REMARK H PARENT 10 9
REMARK Flexibility Score: inf
ROOT
ATOM      1  C   UNL     1      75.492  -6.533  66.478  1.00  0.00     0.044 C 
ATOM      2  C   UNL     1      74.185  -7.250  66.647  1.00  0.00    -0.047 A 
ATOM      3  C   UNL     1      73.944  -8.448  65.964  1.00  0.00     0.049 A 
ATOM      4  C   UNL     1      72.720  -9.116  66.093  1.00  0.00     0.119 A 
ATOM      5  C   UNL     1      71.677  -8.543  66.870  1.00  0.00    -0.004 A 
ATOM      6  C   UNL     1      71.948  -7.350  67.575  1.00  0.00     0.008 A 
ATOM      7  C   UNL     1      73.180  -6.705  67.450  1.00  0.00     0.004 A 
ENDROOT
BRANCH   4   8
ATOM      8  O   UNL     1      72.593 -10.349  65.446  1.00  0.00    -0.508 OA
ATOM      9  H   UNL     1      71.811 -10.605  64.860  1.00  0.00     0.293 HD
ENDBRANCH   4   8
BRANCH   5  10
ATOM     10  C   UNL     1      70.316  -9.221  67.004  1.00  0.00     0.017 C 
ATOM     11  C   UNL     1      70.005  -9.494  68.479  1.00  0.00     0.012 C 
ATOM     12  C   UNL     1      69.172  -8.433  66.345  1.00  0.00     0.012 C 
ENDBRANCH   5  10
TORSDOF 2
ENDMDL
