MODEL 1
REMARK VINA RESULT:    -2.719      0.000      0.000
REMARK INTER + INTRA:          -5.025
REMARK INTER:                  -4.149
REMARK INTRA:                  -0.876
REMARK UNBOUND:                -0.876
REMARK SMILES O=C([O-])CCCCCCCCC(=O)[O-]
REMARK SMILES IDX 7 1 6 2 5 3 4 4 2 5 1 6 3 7 8 8 9 9 10 10 11 11 12 12 13 13
REMARK SMILES IDX 14 14
REMARK H PARENT
REMARK Flexibility Score: inf
ROOT
ATOM      1  C   UNL     1      18.760   7.969  16.875  1.00  0.00     0.000 C 
ENDROOT
BRANCH   1   2
ATOM      2  C   UNL     1      19.262   6.958  15.838  1.00  0.00     0.000 C 
BRANCH   2   3
ATOM      3  C   UNL     1      20.767   7.128  15.584  1.00  0.00     0.006 C 
BRANCH   3   4
ATOM      4  C   UNL     1      21.581   7.116  16.885  1.00  0.00     0.053 C 
BRANCH   4   5
ATOM      5  C   UNL     1      23.050   7.237  16.622  1.00  0.00     0.041 C 
ATOM      6  O   UNL     1      23.698   8.216  17.078  1.00  0.00    -0.550 OA
ATOM      7  O   UNL     1      23.710   6.251  15.899  1.00  0.00    -0.550 OA
ENDBRANCH   4   5
ENDBRANCH   3   4
ENDBRANCH   2   3
ENDBRANCH   1   2
BRANCH   1   8
ATOM      8  C   UNL     1      18.266   9.255  16.197  1.00  0.00     0.000 C 
BRANCH   8   9
ATOM      9  C   UNL     1      18.742  10.532  16.913  1.00  0.00     0.000 C 
BRANCH   9  10
ATOM     10  C   UNL     1      20.043  10.378  17.721  1.00  0.00     0.006 C 
BRANCH  10  11
ATOM     11  C   UNL     1      21.268  10.953  16.999  1.00  0.00     0.053 C 
BRANCH  11  12
ATOM     12  C   UNL     1      21.262  12.448  17.070  1.00  0.00     0.041 C 
ATOM     13  O   UNL     1      21.555  13.131  16.055  1.00  0.00    -0.550 OA
ATOM     14  O   UNL     1      20.886  13.086  18.246  1.00  0.00    -0.550 OA
ENDBRANCH  11  12
ENDBRANCH  10  11
ENDBRANCH   9  10
ENDBRANCH   8   9
ENDBRANCH   1   8
TORSDOF 9
ENDMDL
MODEL 2
REMARK VINA RESULT:    -2.694      1.293      5.506
REMARK INTER + INTRA:          -4.987
REMARK INTER:                  -4.386
REMARK INTRA:                  -0.601
REMARK UNBOUND:                -0.876
REMARK SMILES O=C([O-])CCCCCCCCC(=O)[O-]
REMARK SMILES IDX 7 1 6 2 5 3 4 4 2 5 1 6 3 7 8 8 9 9 10 10 11 11 12 12 13 13
REMARK SMILES IDX 14 14
REMARK H PARENT
REMARK Flexibility Score: inf
ROOT
ATOM      1  C   UNL     1      19.407   8.689  16.436  1.00  0.00     0.000 C 
ENDROOT
BRANCH   1   2
ATOM      2  C   UNL     1      20.265   9.057  17.652  1.00  0.00     0.000 C 
BRANCH   2   3
ATOM      3  C   UNL     1      21.210  10.224  17.328  1.00  0.00     0.006 C 
BRANCH   3   4
ATOM      4  C   UNL     1      20.449  11.524  17.038  1.00  0.00     0.053 C 
BRANCH   4   5
ATOM      5  C   UNL     1      21.355  12.716  17.066  1.00  0.00     0.041 C 
ATOM      6  O   UNL     1      21.651  13.314  15.998  1.00  0.00    -0.550 OA
ATOM      7  O   UNL     1      21.847  13.186  18.277  1.00  0.00    -0.550 OA
ENDBRANCH   4   5
ENDBRANCH   3   4
ENDBRANCH   2   3
ENDBRANCH   1   2
BRANCH   1   8
ATOM      8  C   UNL     1      20.190   7.804  15.456  1.00  0.00     0.000 C 
BRANCH   8   9
ATOM      9  C   UNL     1      20.874   6.608  16.141  1.00  0.00     0.000 C 
BRANCH   9  10
ATOM     10  C   UNL     1      22.282   6.274  15.614  1.00  0.00     0.006 C 
BRANCH  10  11
ATOM     11  C   UNL     1      23.402   6.832  16.501  1.00  0.00     0.053 C 
BRANCH  11  12
ATOM     12  C   UNL     1      24.737   6.581  15.875  1.00  0.00     0.041 C 
ATOM     13  O   UNL     1      25.792   6.857  16.503  1.00  0.00    -0.550 OA
ATOM     14  O   UNL     1      24.817   5.996  14.617  1.00  0.00    -0.550 OA
ENDBRANCH  11  12
ENDBRANCH  10  11
ENDBRANCH   9  10
ENDBRANCH   8   9
ENDBRANCH   1   8
TORSDOF 9
ENDMDL
MODEL 3
REMARK VINA RESULT:    -2.678      0.366      4.998
REMARK INTER + INTRA:          -4.962
REMARK INTER:                  -4.211
REMARK INTRA:                  -0.751
REMARK UNBOUND:                -0.876
REMARK SMILES O=C([O-])CCCCCCCCC(=O)[O-]
REMARK SMILES IDX 7 1 6 2 5 3 4 4 2 5 1 6 3 7 8 8 9 9 10 10 11 11 12 12 13 13
REMARK SMILES IDX 14 14
REMARK H PARENT
REMARK Flexibility Score: inf
ROOT
ATOM      1  C   UNL     1      18.272   9.494  16.312  1.00  0.00     0.000 C 
ENDROOT
BRANCH   1   2
ATOM      2  C   UNL     1      18.735  10.856  16.842  1.00  0.00     0.000 C 
BRANCH   2   3
ATOM      3  C   UNL     1      19.985  10.711  17.722  1.00  0.00     0.006 C 
BRANCH   3   4
ATOM      4  C   UNL     1      21.250  11.230  17.025  1.00  0.00     0.053 C 
BRANCH   4   5
ATOM      5  C   UNL     1      21.276  12.726  16.964  1.00  0.00     0.041 C 
ATOM      6  O   UNL     1      21.644  13.312  15.912  1.00  0.00    -0.550 OA
ATOM      7  O   UNL     1      20.863  13.474  18.060  1.00  0.00    -0.550 OA
ENDBRANCH   4   5
ENDBRANCH   3   4
ENDBRANCH   2   3
ENDBRANCH   1   2
BRANCH   1   8
ATOM      8  C   UNL     1      19.019   8.348  17.011  1.00  0.00     0.000 C 
BRANCH   8   9
ATOM      9  C   UNL     1      19.389   7.201  16.054  1.00  0.00     0.000 C 
BRANCH   9  10
ATOM     10  C   UNL     1      20.891   7.074  15.741  1.00  0.00     0.006 C 
BRANCH  10  11
ATOM     11  C   UNL     1      21.785   7.544  16.896  1.00  0.00     0.053 C 
BRANCH  11  12
ATOM     12  C   UNL     1      23.205   7.141  16.653  1.00  0.00     0.041 C 
ATOM     13  O   UNL     1      23.468   6.183  15.880  1.00  0.00    -0.550 OA
ATOM     14  O   UNL     1      24.241   7.854  17.244  1.00  0.00    -0.550 OA
ENDBRANCH  11  12
ENDBRANCH  10  11
ENDBRANCH   9  10
ENDBRANCH   8   9
ENDBRANCH   1   8
TORSDOF 9
ENDMDL
MODEL 4
REMARK VINA RESULT:    -2.675      2.650      5.578
REMARK INTER + INTRA:          -4.959
REMARK INTER:                  -4.172
REMARK INTRA:                  -0.786
REMARK UNBOUND:                -0.876
REMARK SMILES O=C([O-])CCCCCCCCC(=O)[O-]
REMARK SMILES IDX 7 1 6 2 5 3 4 4 2 5 1 6 3 7 8 8 9 9 10 10 11 11 12 12 13 13
REMARK SMILES IDX 14 14
REMARK H PARENT
REMARK Flexibility Score: inf
ROOT
ATOM      1  C   UNL     1      22.710   5.506  15.767  1.00  0.00     0.000 C 
ENDROOT
BRANCH   1   2
ATOM      2  C   UNL     1      21.652   6.615  15.719  1.00  0.00     0.000 C 
BRANCH   2   3
ATOM      3  C   UNL     1      21.524   7.315  17.081  1.00  0.00     0.006 C 
BRANCH   3   4
ATOM      4  C   UNL     1      22.143   8.719  17.073  1.00  0.00     0.053 C 
BRANCH   4   5
ATOM      5  C   UNL     1      21.104   9.782  16.894  1.00  0.00     0.041 C 
ATOM      6  O   UNL     1      21.438  10.996  16.862  1.00  0.00    -0.550 OA
ATOM      7  O   UNL     1      19.770   9.431  16.731  1.00  0.00    -0.550 OA
ENDBRANCH   4   5
ENDBRANCH   3   4
ENDBRANCH   2   3
ENDBRANCH   1   2
BRANCH   1   8
ATOM      8  C   UNL     1      23.714   5.653  14.615  1.00  0.00     0.000 C 
BRANCH   8   9
ATOM      9  C   UNL     1      25.000   6.389  15.029  1.00  0.00     0.000 C 
BRANCH   9  10
ATOM     10  C   UNL     1      25.280   6.408  16.543  1.00  0.00     0.006 C 
BRANCH  10  11
ATOM     11  C   UNL     1      25.664   7.799  17.063  1.00  0.00     0.053 C 
BRANCH  11  12
ATOM     12  C   UNL     1      26.211   7.704  18.453  1.00  0.00     0.041 C 
ATOM     13  O   UNL     1      26.861   6.686  18.808  1.00  0.00    -0.550 OA
ATOM     14  O   UNL     1      26.044   8.760  19.340  1.00  0.00    -0.550 OA
ENDBRANCH  11  12
ENDBRANCH  10  11
ENDBRANCH   9  10
ENDBRANCH   8   9
ENDBRANCH   1   8
TORSDOF 9
ENDMDL
MODEL 5
REMARK VINA RESULT:    -2.643      1.456      2.073
REMARK INTER + INTRA:          -4.909
REMARK INTER:                  -4.407
REMARK INTRA:                  -0.502
REMARK UNBOUND:                -0.876
REMARK SMILES O=C([O-])CCCCCCCCC(=O)[O-]
REMARK SMILES IDX 7 1 6 2 5 3 4 4 2 5 1 6 3 7 8 8 9 9 10 10 11 11 12 12 13 13
REMARK SMILES IDX 14 14
REMARK H PARENT
REMARK Flexibility Score: inf
ROOT
ATOM      1  C   UNL     1      20.373   7.569  15.542  1.00  0.00     0.000 C 
ENDROOT
BRANCH   1   2
ATOM      2  C   UNL     1      21.080   6.564  16.458  1.00  0.00     0.000 C 
BRANCH   2   3
ATOM      3  C   UNL     1      22.458   6.181  15.899  1.00  0.00     0.006 C 
BRANCH   3   4
ATOM      4  C   UNL     1      23.592   6.992  16.539  1.00  0.00     0.053 C 
BRANCH   4   5
ATOM      5  C   UNL     1      24.922   6.656  15.939  1.00  0.00     0.041 C 
ATOM      6  O   UNL     1      25.002   6.294  14.736  1.00  0.00    -0.550 OA
ATOM      7  O   UNL     1      26.078   6.775  16.700  1.00  0.00    -0.550 OA
ENDBRANCH   4   5
ENDBRANCH   3   4
ENDBRANCH   2   3
ENDBRANCH   1   2
BRANCH   1   8
ATOM      8  C   UNL     1      18.875   7.653  15.868  1.00  0.00     0.000 C 
BRANCH   8   9
ATOM      9  C   UNL     1      18.421   9.075  16.245  1.00  0.00     0.000 C 
BRANCH   9  10
ATOM     10  C   UNL     1      19.204   9.723  17.402  1.00  0.00     0.006 C 
BRANCH  10  11
ATOM     11  C   UNL     1      19.528  11.201  17.151  1.00  0.00     0.053 C 
BRANCH  11  12
ATOM     12  C   UNL     1      21.004  11.392  16.994  1.00  0.00     0.041 C 
ATOM     13  O   UNL     1      21.768  10.393  16.933  1.00  0.00    -0.550 OA
ATOM     14  O   UNL     1      21.531  12.671  16.867  1.00  0.00    -0.550 OA
ENDBRANCH  11  12
ENDBRANCH  10  11
ENDBRANCH   9  10
ENDBRANCH   8   9
ENDBRANCH   1   8
TORSDOF 9
ENDMDL
MODEL 6
REMARK VINA RESULT:    -2.602      1.229      5.161
REMARK INTER + INTRA:          -4.847
REMARK INTER:                  -4.097
REMARK INTRA:                  -0.749
REMARK UNBOUND:                -0.876
REMARK SMILES O=C([O-])CCCCCCCCC(=O)[O-]
REMARK SMILES IDX 7 1 6 2 5 3 4 4 2 5 1 6 3 7 8 8 9 9 10 10 11 11 12 12 13 13
REMARK SMILES IDX 14 14
REMARK H PARENT
REMARK Flexibility Score: inf
ROOT
ATOM      1  C   UNL     1      19.960   8.274  15.878  1.00  0.00     0.000 C 
ENDROOT
BRANCH   1   2
ATOM      2  C   UNL     1      19.218   9.324  16.713  1.00  0.00     0.000 C 
BRANCH   2   3
ATOM      3  C   UNL     1      20.171  10.026  17.691  1.00  0.00     0.006 C 
BRANCH   3   4
ATOM      4  C   UNL     1      21.262  10.826  16.968  1.00  0.00     0.053 C 
BRANCH   4   5
ATOM      5  C   UNL     1      20.992  12.298  17.012  1.00  0.00     0.041 C 
ATOM      6  O   UNL     1      20.210  12.775  17.876  1.00  0.00    -0.550 OA
ATOM      7  O   UNL     1      21.631  13.149  16.118  1.00  0.00    -0.550 OA
ENDBRANCH   4   5
ENDBRANCH   3   4
ENDBRANCH   2   3
ENDBRANCH   1   2
BRANCH   1   8
ATOM      8  C   UNL     1      20.382   7.079  16.746  1.00  0.00     0.000 C 
BRANCH   8   9
ATOM      9  C   UNL     1      21.730   6.473  16.317  1.00  0.00     0.000 C 
BRANCH   9  10
ATOM     10  C   UNL     1      22.881   6.669  17.321  1.00  0.00     0.006 C 
BRANCH  10  11
ATOM     11  C   UNL     1      23.660   7.970  17.092  1.00  0.00     0.053 C 
BRANCH  11  12
ATOM     12  C   UNL     1      25.089   7.671  16.763  1.00  0.00     0.041 C 
ATOM     13  O   UNL     1      26.014   8.339  17.294  1.00  0.00    -0.550 OA
ATOM     14  O   UNL     1      25.401   6.623  15.905  1.00  0.00    -0.550 OA
ENDBRANCH  11  12
ENDBRANCH  10  11
ENDBRANCH   9  10
ENDBRANCH   8   9
ENDBRANCH   1   8
TORSDOF 9
ENDMDL
MODEL 7
REMARK VINA RESULT:    -2.531      1.532      5.618
REMARK INTER + INTRA:          -4.738
REMARK INTER:                  -4.286
REMARK INTRA:                  -0.452
REMARK UNBOUND:                -0.876
REMARK SMILES O=C([O-])CCCCCCCCC(=O)[O-]
REMARK SMILES IDX 7 1 6 2 5 3 4 4 2 5 1 6 3 7 8 8 9 9 10 10 11 11 12 12 13 13
REMARK SMILES IDX 14 14
REMARK H PARENT
REMARK Flexibility Score: inf
ROOT
ATOM      1  C   UNL     1      18.927   8.004  16.501  1.00  0.00     0.000 C 
ENDROOT
BRANCH   1   2
ATOM      2  C   UNL     1      18.358   9.413  16.299  1.00  0.00     0.000 C 
BRANCH   2   3
ATOM      3  C   UNL     1      18.810  10.358  17.422  1.00  0.00     0.006 C 
BRANCH   3   4
ATOM      4  C   UNL     1      19.278  11.717  16.886  1.00  0.00     0.053 C 
BRANCH   4   5
ATOM      5  C   UNL     1      20.742  11.930  17.115  1.00  0.00     0.041 C 
ATOM      6  O   UNL     1      21.353  11.257  17.986  1.00  0.00    -0.550 OA
ATOM      7  O   UNL     1      21.440  12.852  16.344  1.00  0.00    -0.550 OA
ENDBRANCH   4   5
ENDBRANCH   3   4
ENDBRANCH   2   3
ENDBRANCH   1   2
BRANCH   1   8
ATOM      8  C   UNL     1      20.446   8.049  16.721  1.00  0.00     0.000 C 
BRANCH   8   9
ATOM      9  C   UNL     1      21.209   7.038  15.848  1.00  0.00     0.000 C 
BRANCH   9  10
ATOM     10  C   UNL     1      22.458   6.422  16.506  1.00  0.00     0.006 C 
BRANCH  10  11
ATOM     11  C   UNL     1      22.925   5.135  15.814  1.00  0.00     0.053 C 
BRANCH  11  12
ATOM     12  C   UNL     1      23.771   5.460  14.623  1.00  0.00     0.041 C 
ATOM     13  O   UNL     1      23.384   5.144  13.468  1.00  0.00    -0.550 OA
ATOM     14  O   UNL     1      24.963   6.154  14.786  1.00  0.00    -0.550 OA
ENDBRANCH  11  12
ENDBRANCH  10  11
ENDBRANCH   9  10
ENDBRANCH   8   9
ENDBRANCH   1   8
TORSDOF 9
ENDMDL
MODEL 8
REMARK VINA RESULT:    -2.529      3.691      5.883
REMARK INTER + INTRA:          -4.735
REMARK INTER:                  -4.020
REMARK INTRA:                  -0.715
REMARK UNBOUND:                -0.876
REMARK SMILES O=C([O-])CCCCCCCCC(=O)[O-]
REMARK SMILES IDX 7 1 6 2 5 3 4 4 2 5 1 6 3 7 8 8 9 9 10 10 11 11 12 12 13 13
REMARK SMILES IDX 14 14
REMARK H PARENT
REMARK Flexibility Score: inf
ROOT
ATOM      1  C   UNL     1      24.778   7.032  15.843  1.00  0.00     0.000 C 
ENDROOT
BRANCH   1   2
ATOM      2  C   UNL     1      25.888   6.720  16.854  1.00  0.00     0.000 C 
BRANCH   2   3
ATOM      3  C   UNL     1      25.329   6.648  18.283  1.00  0.00     0.006 C 
BRANCH   3   4
ATOM      4  C   UNL     1      25.310   8.019  18.970  1.00  0.00     0.053 C 
BRANCH   4   5
ATOM      5  C   UNL     1      26.694   8.535  19.218  1.00  0.00     0.041 C 
ATOM      6  O   UNL     1      27.411   8.022  20.117  1.00  0.00    -0.550 OA
ATOM      7  O   UNL     1      27.203   9.562  18.434  1.00  0.00    -0.550 OA
ENDBRANCH   4   5
ENDBRANCH   3   4
ENDBRANCH   2   3
ENDBRANCH   1   2
BRANCH   1   8
ATOM      8  C   UNL     1      24.712   5.958  14.748  1.00  0.00     0.000 C 
BRANCH   8   9
ATOM      9  C   UNL     1      23.388   5.174  14.754  1.00  0.00     0.000 C 
BRANCH   9  10
ATOM     10  C   UNL     1      22.736   5.007  16.140  1.00  0.00     0.006 C 
BRANCH  10  11
ATOM     11  C   UNL     1      21.245   5.366  16.146  1.00  0.00     0.053 C 
BRANCH  11  12
ATOM     12  C   UNL     1      21.063   6.845  16.003  1.00  0.00     0.041 C 
ATOM     13  O   UNL     1      20.471   7.315  14.997  1.00  0.00    -0.550 OA
ATOM     14  O   UNL     1      21.507   7.700  17.004  1.00  0.00    -0.550 OA
ENDBRANCH  11  12
ENDBRANCH  10  11
ENDBRANCH   9  10
ENDBRANCH   8   9
ENDBRANCH   1   8
TORSDOF 9
ENDMDL
MODEL 9
REMARK VINA RESULT:    -2.487      3.286      6.576
REMARK INTER + INTRA:          -4.671
REMARK INTER:                  -4.033
REMARK INTRA:                  -0.638
REMARK UNBOUND:                -0.876
REMARK SMILES O=C([O-])CCCCCCCCC(=O)[O-]
REMARK SMILES IDX 7 1 6 2 5 3 4 4 2 5 1 6 3 7 8 8 9 9 10 10 11 11 12 12 13 13
REMARK SMILES IDX 14 14
REMARK H PARENT
REMARK Flexibility Score: inf
ROOT
ATOM      1  C   UNL     1      26.261   8.596  19.182  1.00  0.00     0.000 C 
ENDROOT
BRANCH   1   2
ATOM      2  C   UNL     1      25.101   7.954  19.952  1.00  0.00     0.000 C 
BRANCH   2   3
ATOM      3  C   UNL     1      24.004   8.985  20.259  1.00  0.00     0.006 C 
BRANCH   3   4
ATOM      4  C   UNL     1      22.623   8.525  19.777  1.00  0.00     0.053 C 
BRANCH   4   5
ATOM      5  C   UNL     1      22.180   9.278  18.560  1.00  0.00     0.041 C 
ATOM      6  O   UNL     1      21.451  10.298  18.676  1.00  0.00    -0.550 OA
ATOM      7  O   UNL     1      22.599   8.871  17.300  1.00  0.00    -0.550 OA
ENDBRANCH   4   5
ENDBRANCH   3   4
ENDBRANCH   2   3
ENDBRANCH   1   2
BRANCH   1   8
ATOM      8  C   UNL     1      26.149   8.311  17.678  1.00  0.00     0.000 C 
BRANCH   8   9
ATOM      9  C   UNL     1      26.083   6.808  17.355  1.00  0.00     0.000 C 
BRANCH   9  10
ATOM     10  C   UNL     1      24.794   6.350  16.648  1.00  0.00     0.006 C 
BRANCH  10  11
ATOM     11  C   UNL     1      24.943   6.273  15.123  1.00  0.00     0.053 C 
BRANCH  11  12
ATOM     12  C   UNL     1      23.716   5.676  14.509  1.00  0.00     0.041 C 
ATOM     13  O   UNL     1      23.817   4.876  13.543  1.00  0.00    -0.550 OA
ATOM     14  O   UNL     1      22.463   5.968  15.034  1.00  0.00    -0.550 OA
ENDBRANCH  11  12
ENDBRANCH  10  11
ENDBRANCH   9  10
ENDBRANCH   8   9
ENDBRANCH   1   8
TORSDOF 9
ENDMDL
