MODEL 1
REMARK VINA RESULT:    -9.233      0.000      0.000
REMARK INTER + INTRA:          -9.773
REMARK INTER:                  -9.773
REMARK INTRA:                   0.000
REMARK UNBOUND:                 0.000
REMARK SMILES C[C@H]1CC[C@H]2[N@H+](C1)C[C@H]1[C@H]3C[C@H]4[C@H](CC(=O)[C@H]5C[C@H](O)CC[C@]54C)[C@@H]3CC[C@H]1[C@]2(C)O
REMARK SMILES IDX 5 1 6 2 8 3 7 4 4 5 29 6 3 7 28 8 30 9 2 10 27 11 9 12 1 13
REMARK SMILES IDX 26 14 10 15 25 16 11 17 13 18 12 19 14 20 23 21 15 22 17 23
REMARK SMILES IDX 22 24 24 25 16 26 18 27 21 28 19 29 31 31 20 33
REMARK H PARENT 6 30 31 32 20 34
REMARK Flexibility Score: inf
ROOT
ATOM      1  C   UNL     1       4.615   7.912 -23.137  1.00  0.00     0.216 C 
ATOM      2  N   UNL     1       4.455   7.191 -24.433  1.00  0.00    -0.330 N 
ATOM      3  C   UNL     1       3.250   6.335 -24.413  1.00  0.00     0.266 C 
ATOM      4  C   UNL     1       4.300   8.136 -25.572  1.00  0.00     0.265 C 
ATOM      5  C   UNL     1       5.771   8.951 -23.212  1.00  0.00     0.069 C 
ATOM      6  C   UNL     1       4.799   6.940 -21.912  1.00  0.00     0.117 C 
ATOM      7  C   UNL     1       5.578   9.920 -24.373  1.00  0.00     0.015 C 
ATOM      8  C   UNL     1       3.635   5.872 -21.895  1.00  0.00     0.036 C 
ATOM      9  C   UNL     1       6.221   6.310 -21.904  1.00  0.00     0.049 C 
ATOM     10  C   UNL     1       5.469   9.128 -25.678  1.00  0.00     0.041 C 
ATOM     11  C   UNL     1       3.710   4.780 -20.760  1.00  0.00     0.007 C 
ATOM     12  C   UNL     1       3.246   5.285 -23.287  1.00  0.00     0.054 C 
ATOM     13  C   UNL     1       5.274  10.076 -26.867  1.00  0.00     0.013 C 
ATOM     14  C   UNL     1       3.989   3.321 -21.212  1.00  0.00     0.004 C 
ATOM     15  C   UNL     1       3.827   3.875 -23.640  1.00  0.00     0.002 C 
ATOM     16  C   UNL     1       4.709   3.299 -22.559  1.00  0.00    -0.004 C 
ATOM     17  C   UNL     1       4.656   3.647 -24.898  1.00  0.00     0.009 C 
ATOM     18  C   UNL     1       5.216   1.973 -23.143  1.00  0.00     0.003 C 
ATOM     19  C   UNL     1       5.291   2.242 -24.683  1.00  0.00    -0.000 C 
ATOM     20  C   UNL     1       4.385   0.743 -22.752  1.00  0.00     0.080 C 
ATOM     21  C   UNL     1       4.754   1.086 -25.630  1.00  0.00    -0.020 C 
ATOM     22  C   UNL     1       4.846  -0.438 -23.550  1.00  0.00     0.136 C 
ATOM     23  C   UNL     1       5.169  -0.310 -25.030  1.00  0.00     0.065 C 
ATOM     24  C   UNL     1       3.200   1.143 -25.853  1.00  0.00     0.010 C 
ATOM     25  C   UNL     1       5.448   1.280 -27.008  1.00  0.00     0.012 C 
ATOM     26  O   UNL     1       5.000  -1.511 -22.983  1.00  0.00    -0.299 OA
ATOM     27  C   UNL     1       4.563  -1.496 -25.818  1.00  0.00     0.043 C 
ATOM     28  C   UNL     1       2.623  -0.078 -26.589  1.00  0.00     0.032 C 
ATOM     29  C   UNL     1       3.033  -1.391 -25.912  1.00  0.00     0.115 C 
ATOM     30  H   UNL     1       5.296   6.603 -24.621  1.00  0.00     0.348 HD
ENDROOT
BRANCH   6  31
ATOM     31  O   UNL     1       4.668   7.745 -20.757  1.00  0.00    -0.384 OA
ATOM     32  H   UNL     1       5.418   8.392 -20.723  1.00  0.00     0.211 HD
ENDBRANCH   6  31
BRANCH  29  33
ATOM     33  O   UNL     1       2.502  -2.491 -26.605  1.00  0.00    -0.393 OA
ATOM     34  H   UNL     1       2.432  -2.241 -27.565  1.00  0.00     0.210 HD
ENDBRANCH  29  33
TORSDOF 2
ENDMDL
MODEL 2
REMARK VINA RESULT:    -9.059      2.341      7.751
REMARK INTER + INTRA:          -9.588
REMARK INTER:                  -9.588
REMARK INTRA:                   0.000
REMARK UNBOUND:                 0.000
REMARK SMILES C[C@H]1CC[C@H]2[N@H+](C1)C[C@H]1[C@H]3C[C@H]4[C@H](CC(=O)[C@H]5C[C@H](O)CC[C@]54C)[C@@H]3CC[C@H]1[C@]2(C)O
REMARK SMILES IDX 5 1 6 2 8 3 7 4 4 5 29 6 3 7 28 8 30 9 2 10 27 11 9 12 1 13
REMARK SMILES IDX 26 14 10 15 25 16 11 17 13 18 12 19 14 20 23 21 15 22 17 23
REMARK SMILES IDX 22 24 24 25 16 26 18 27 21 28 19 29 31 31 20 33
REMARK H PARENT 6 30 31 32 20 34
REMARK Flexibility Score: inf
ROOT
ATOM      1  C   UNL     1       4.675  -0.439 -22.892  1.00  0.00     0.216 C 
ATOM      2  N   UNL     1       3.908   0.244 -23.973  1.00  0.00    -0.330 N 
ATOM      3  C   UNL     1       4.798   1.099 -24.788  1.00  0.00     0.266 C 
ATOM      4  C   UNL     1       3.274  -0.733 -24.899  1.00  0.00     0.265 C 
ATOM      5  C   UNL     1       3.789  -1.478 -22.146  1.00  0.00     0.069 C 
ATOM      6  C   UNL     1       5.346   0.568 -21.884  1.00  0.00     0.117 C 
ATOM      7  C   UNL     1       3.168  -2.480 -23.112  1.00  0.00     0.015 C 
ATOM      8  C   UNL     1       6.198   1.635 -22.679  1.00  0.00     0.036 C 
ATOM      9  C   UNL     1       4.288   1.199 -20.934  1.00  0.00     0.049 C 
ATOM     10  C   UNL     1       2.356  -1.726 -24.168  1.00  0.00     0.041 C 
ATOM     11  C   UNL     1       6.886   2.759 -21.813  1.00  0.00     0.007 C 
ATOM     12  C   UNL     1       5.539   2.181 -23.982  1.00  0.00     0.054 C 
ATOM     13  C   UNL     1       1.718  -2.708 -25.158  1.00  0.00     0.013 C 
ATOM     14  C   UNL     1       6.349   4.204 -21.992  1.00  0.00     0.004 C 
ATOM     15  C   UNL     1       4.846   3.581 -23.883  1.00  0.00     0.002 C 
ATOM     16  C   UNL     1       4.911   4.189 -22.503  1.00  0.00    -0.004 C 
ATOM     17  C   UNL     1       3.382   3.774 -24.260  1.00  0.00     0.009 C 
ATOM     18  C   UNL     1       4.118   5.498 -22.623  1.00  0.00     0.003 C 
ATOM     19  C   UNL     1       3.032   5.185 -23.705  1.00  0.00    -0.000 C 
ATOM     20  C   UNL     1       4.974   6.737 -22.919  1.00  0.00     0.080 C 
ATOM     21  C   UNL     1       2.771   6.313 -24.792  1.00  0.00    -0.020 C 
ATOM     22  C   UNL     1       4.074   7.896 -23.226  1.00  0.00     0.136 C 
ATOM     23  C   UNL     1       2.841   7.726 -24.100  1.00  0.00     0.065 C 
ATOM     24  C   UNL     1       3.771   6.247 -26.002  1.00  0.00     0.010 C 
ATOM     25  C   UNL     1       1.333   6.081 -25.338  1.00  0.00     0.012 C 
ATOM     26  O   UNL     1       4.322   8.985 -22.727  1.00  0.00    -0.299 OA
ATOM     27  C   UNL     1       2.738   8.888 -25.117  1.00  0.00     0.043 C 
ATOM     28  C   UNL     1       3.680   7.447 -26.960  1.00  0.00     0.032 C 
ATOM     29  C   UNL     1       3.808   8.778 -26.212  1.00  0.00     0.115 C 
ATOM     30  H   UNL     1       3.149   0.828 -23.559  1.00  0.00     0.348 HD
ENDROOT
BRANCH   6  31
ATOM     31  O   UNL     1       6.235  -0.203 -21.100  1.00  0.00    -0.384 OA
ATOM     32  H   UNL     1       6.870   0.401 -20.637  1.00  0.00     0.211 HD
ENDBRANCH   6  31
BRANCH  29  33
ATOM     33  O   UNL     1       3.714   9.858 -27.107  1.00  0.00    -0.393 OA
ATOM     34  H   UNL     1       2.937  10.414 -26.833  1.00  0.00     0.210 HD
ENDBRANCH  29  33
TORSDOF 2
ENDMDL
MODEL 3
REMARK VINA RESULT:    -8.928      2.025      7.878
REMARK INTER + INTRA:          -9.450
REMARK INTER:                  -9.450
REMARK INTRA:                   0.000
REMARK UNBOUND:                 0.000
REMARK SMILES C[C@H]1CC[C@H]2[N@H+](C1)C[C@H]1[C@H]3C[C@H]4[C@H](CC(=O)[C@H]5C[C@H](O)CC[C@]54C)[C@@H]3CC[C@H]1[C@]2(C)O
REMARK SMILES IDX 5 1 6 2 8 3 7 4 4 5 29 6 3 7 28 8 30 9 2 10 27 11 9 12 1 13
REMARK SMILES IDX 26 14 10 15 25 16 11 17 13 18 12 19 14 20 23 21 15 22 17 23
REMARK SMILES IDX 22 24 24 25 16 26 18 27 21 28 19 29 31 31 20 33
REMARK H PARENT 6 30 31 32 20 34
REMARK Flexibility Score: inf
ROOT
ATOM      1  C   UNL     1       4.066  -0.740 -23.874  1.00  0.00     0.216 C 
ATOM      2  N   UNL     1       3.357   0.271 -24.713  1.00  0.00    -0.330 N 
ATOM      3  C   UNL     1       4.323   1.173 -25.376  1.00  0.00     0.266 C 
ATOM      4  C   UNL     1       2.553  -0.373 -25.786  1.00  0.00     0.265 C 
ATOM      5  C   UNL     1       3.075  -1.804 -23.321  1.00  0.00     0.069 C 
ATOM      6  C   UNL     1       4.915  -0.091 -22.717  1.00  0.00     0.117 C 
ATOM      7  C   UNL     1       2.278  -2.463 -24.440  1.00  0.00     0.015 C 
ATOM      8  C   UNL     1       5.874   1.015 -23.311  1.00  0.00     0.036 C 
ATOM      9  C   UNL     1       3.998   0.428 -21.573  1.00  0.00     0.049 C 
ATOM     10  C   UNL     1       1.537  -1.385 -25.234  1.00  0.00     0.041 C 
ATOM     11  C   UNL     1       6.750   1.807 -22.265  1.00  0.00     0.007 C 
ATOM     12  C   UNL     1       5.243   1.931 -24.403  1.00  0.00     0.054 C 
ATOM     13  C   UNL     1       0.724  -2.018 -26.370  1.00  0.00     0.013 C 
ATOM     14  C   UNL     1       6.415   3.310 -22.071  1.00  0.00     0.004 C 
ATOM     15  C   UNL     1       4.759   3.345 -23.937  1.00  0.00     0.002 C 
ATOM     16  C   UNL     1       4.968   3.599 -22.464  1.00  0.00    -0.004 C 
ATOM     17  C   UNL     1       3.322   3.806 -24.151  1.00  0.00     0.009 C 
ATOM     18  C   UNL     1       4.364   4.989 -22.224  1.00  0.00     0.003 C 
ATOM     19  C   UNL     1       3.198   5.080 -23.265  1.00  0.00    -0.000 C 
ATOM     20  C   UNL     1       5.371   6.144 -22.295  1.00  0.00     0.080 C 
ATOM     21  C   UNL     1       3.053   6.456 -24.045  1.00  0.00    -0.020 C 
ATOM     22  C   UNL     1       4.632   7.447 -22.263  1.00  0.00     0.136 C 
ATOM     23  C   UNL     1       3.351   7.646 -23.058  1.00  0.00     0.065 C 
ATOM     24  C   UNL     1       3.981   6.549 -25.309  1.00  0.00     0.010 C 
ATOM     25  C   UNL     1       1.575   6.543 -24.522  1.00  0.00     0.012 C 
ATOM     26  O   UNL     1       5.052   8.348 -21.549  1.00  0.00    -0.299 OA
ATOM     27  C   UNL     1       3.370   9.018 -23.774  1.00  0.00     0.043 C 
ATOM     28  C   UNL     1       4.019   7.942 -25.961  1.00  0.00     0.032 C 
ATOM     29  C   UNL     1       4.365   9.033 -24.942  1.00  0.00     0.115 C 
ATOM     30  H   UNL     1       2.706   0.832 -24.122  1.00  0.00     0.348 HD
ENDROOT
BRANCH   6  31
ATOM     31  O   UNL     1       5.719  -1.132 -22.197  1.00  0.00    -0.384 OA
ATOM     32  H   UNL     1       6.257  -1.526 -22.931  1.00  0.00     0.211 HD
ENDBRANCH   6  31
BRANCH  29  33
ATOM     33  O   UNL     1       4.387  10.296 -25.559  1.00  0.00    -0.393 OA
ATOM     34  H   UNL     1       3.465  10.497 -25.873  1.00  0.00     0.210 HD
ENDBRANCH  29  33
TORSDOF 2
ENDMDL
MODEL 4
REMARK VINA RESULT:    -8.351      2.400      3.742
REMARK INTER + INTRA:          -8.839
REMARK INTER:                  -8.839
REMARK INTRA:                   0.000
REMARK UNBOUND:                 0.000
REMARK SMILES C[C@H]1CC[C@H]2[N@H+](C1)C[C@H]1[C@H]3C[C@H]4[C@H](CC(=O)[C@H]5C[C@H](O)CC[C@]54C)[C@@H]3CC[C@H]1[C@]2(C)O
REMARK SMILES IDX 5 1 6 2 8 3 7 4 4 5 29 6 3 7 28 8 30 9 2 10 27 11 9 12 1 13
REMARK SMILES IDX 26 14 10 15 25 16 11 17 13 18 12 19 14 20 23 21 15 22 17 23
REMARK SMILES IDX 22 24 24 25 16 26 18 27 21 28 19 29 31 31 20 33
REMARK H PARENT 6 30 31 32 20 34
REMARK Flexibility Score: inf
ROOT
ATOM      1  C   UNL     1       2.890   8.894 -25.314  1.00  0.00     0.216 C 
ATOM      2  N   UNL     1       4.090   8.045 -25.058  1.00  0.00    -0.330 N 
ATOM      3  C   UNL     1       4.406   7.213 -26.239  1.00  0.00     0.266 C 
ATOM      4  C   UNL     1       5.295   8.869 -24.770  1.00  0.00     0.265 C 
ATOM      5  C   UNL     1       2.659   9.903 -24.152  1.00  0.00     0.069 C 
ATOM      6  C   UNL     1       1.592   8.050 -25.606  1.00  0.00     0.117 C 
ATOM      7  C   UNL     1       3.900  10.748 -23.891  1.00  0.00     0.015 C 
ATOM      8  C   UNL     1       1.878   7.007 -26.757  1.00  0.00     0.036 C 
ATOM      9  C   UNL     1       1.038   7.405 -24.303  1.00  0.00     0.049 C 
ATOM     10  C   UNL     1       5.084   9.828 -23.588  1.00  0.00     0.041 C 
ATOM     11  C   UNL     1       0.690   6.037 -27.125  1.00  0.00     0.007 C 
ATOM     12  C   UNL     1       3.258   6.285 -26.677  1.00  0.00     0.054 C 
ATOM     13  C   UNL     1       6.350  10.650 -23.321  1.00  0.00     0.013 C 
ATOM     14  C   UNL     1       0.883   4.535 -26.781  1.00  0.00     0.004 C 
ATOM     15  C   UNL     1       3.258   4.837 -26.080  1.00  0.00     0.002 C 
ATOM     16  C   UNL     1       1.892   4.364 -25.648  1.00  0.00    -0.004 C 
ATOM     17  C   UNL     1       4.129   4.469 -24.885  1.00  0.00     0.009 C 
ATOM     18  C   UNL     1       2.142   2.978 -25.038  1.00  0.00     0.003 C 
ATOM     19  C   UNL     1       3.580   3.085 -24.431  1.00  0.00    -0.000 C 
ATOM     20  C   UNL     1       1.948   1.807 -26.011  1.00  0.00     0.080 C 
ATOM     21  C   UNL     1       4.543   1.845 -24.670  1.00  0.00    -0.020 C 
ATOM     22  C   UNL     1       2.427   0.543 -25.365  1.00  0.00     0.136 C 
ATOM     23  C   UNL     1       3.711   0.512 -24.551  1.00  0.00     0.065 C 
ATOM     24  C   UNL     1       5.291   1.901 -26.050  1.00  0.00     0.010 C 
ATOM     25  C   UNL     1       5.610   1.885 -23.539  1.00  0.00     0.012 C 
ATOM     26  O   UNL     1       1.745  -0.468 -25.465  1.00  0.00    -0.299 OA
ATOM     27  C   UNL     1       4.547  -0.740 -24.911  1.00  0.00     0.043 C 
ATOM     28  C   UNL     1       6.063   0.618 -26.401  1.00  0.00     0.032 C 
ATOM     29  C   UNL     1       5.168  -0.623 -26.310  1.00  0.00     0.115 C 
ATOM     30  H   UNL     1       3.923   7.428 -24.233  1.00  0.00     0.348 HD
ENDROOT
BRANCH   6  31
ATOM     31  O   UNL     1       0.632   8.972 -26.082  1.00  0.00    -0.384 OA
ATOM     32  H   UNL     1       0.367   8.721 -27.004  1.00  0.00     0.211 HD
ENDBRANCH   6  31
BRANCH  29  33
ATOM     33  O   UNL     1       5.898  -1.782 -26.627  1.00  0.00    -0.393 OA
ATOM     34  H   UNL     1       5.809  -2.415 -25.866  1.00  0.00     0.210 HD
ENDBRANCH  29  33
TORSDOF 2
ENDMDL
MODEL 5
REMARK VINA RESULT:    -7.201      2.459      8.072
REMARK INTER + INTRA:          -7.621
REMARK INTER:                  -7.621
REMARK INTRA:                   0.000
REMARK UNBOUND:                 0.000
REMARK SMILES C[C@H]1CC[C@H]2[N@H+](C1)C[C@H]1[C@H]3C[C@H]4[C@H](CC(=O)[C@H]5C[C@H](O)CC[C@]54C)[C@@H]3CC[C@H]1[C@]2(C)O
REMARK SMILES IDX 5 1 6 2 8 3 7 4 4 5 29 6 3 7 28 8 30 9 2 10 27 11 9 12 1 13
REMARK SMILES IDX 26 14 10 15 25 16 11 17 13 18 12 19 14 20 23 21 15 22 17 23
REMARK SMILES IDX 22 24 24 25 16 26 18 27 21 28 19 29 31 31 20 33
REMARK H PARENT 6 30 31 32 20 34
REMARK Flexibility Score: inf
ROOT
ATOM      1  C   UNL     1       1.639  -1.111 -26.181  1.00  0.00     0.216 C 
ATOM      2  N   UNL     1       1.123   0.289 -26.190  1.00  0.00    -0.330 N 
ATOM      3  C   UNL     1       2.076   1.195 -26.865  1.00  0.00     0.266 C 
ATOM      4  C   UNL     1      -0.170   0.392 -26.920  1.00  0.00     0.265 C 
ATOM      5  C   UNL     1       0.567  -2.101 -25.640  1.00  0.00     0.069 C 
ATOM      6  C   UNL     1       2.999  -1.259 -25.401  1.00  0.00     0.117 C 
ATOM      7  C   UNL     1      -0.740  -1.990 -26.416  1.00  0.00     0.015 C 
ATOM      8  C   UNL     1       4.046  -0.209 -25.945  1.00  0.00     0.036 C 
ATOM      9  C   UNL     1       2.776  -1.177 -23.864  1.00  0.00     0.049 C 
ATOM     10  C   UNL     1      -1.244  -0.547 -26.351  1.00  0.00     0.041 C 
ATOM     11  C   UNL     1       5.446  -0.185 -25.220  1.00  0.00     0.007 C 
ATOM     12  C   UNL     1       3.479   1.215 -26.230  1.00  0.00     0.054 C 
ATOM     13  C   UNL     1      -2.561  -0.401 -27.125  1.00  0.00     0.013 C 
ATOM     14  C   UNL     1       5.780   1.081 -24.386  1.00  0.00     0.004 C 
ATOM     15  C   UNL     1       3.739   2.305 -25.138  1.00  0.00     0.002 C 
ATOM     16  C   UNL     1       4.502   1.790 -23.942  1.00  0.00    -0.004 C 
ATOM     17  C   UNL     1       2.594   3.076 -24.491  1.00  0.00     0.009 C 
ATOM     18  C   UNL     1       4.575   2.989 -22.986  1.00  0.00     0.003 C 
ATOM     19  C   UNL     1       3.254   3.779 -23.270  1.00  0.00    -0.000 C 
ATOM     20  C   UNL     1       5.855   3.826 -23.108  1.00  0.00     0.080 C 
ATOM     21  C   UNL     1       3.381   5.359 -23.364  1.00  0.00    -0.020 C 
ATOM     22  C   UNL     1       5.709   5.073 -22.291  1.00  0.00     0.136 C 
ATOM     23  C   UNL     1       4.410   5.862 -22.283  1.00  0.00     0.065 C 
ATOM     24  C   UNL     1       3.802   5.859 -24.793  1.00  0.00     0.010 C 
ATOM     25  C   UNL     1       1.974   5.939 -23.043  1.00  0.00     0.012 C 
ATOM     26  O   UNL     1       6.645   5.433 -21.589  1.00  0.00    -0.299 OA
ATOM     27  C   UNL     1       4.699   7.377 -22.402  1.00  0.00     0.043 C 
ATOM     28  C   UNL     1       4.138   7.359 -24.861  1.00  0.00     0.032 C 
ATOM     29  C   UNL     1       5.182   7.753 -23.810  1.00  0.00     0.115 C 
ATOM     30  H   UNL     1       0.963   0.617 -25.213  1.00  0.00     0.348 HD
ENDROOT
BRANCH   6  31
ATOM     31  O   UNL     1       3.481  -2.553 -25.706  1.00  0.00    -0.384 OA
ATOM     32  H   UNL     1       3.032  -2.883 -26.526  1.00  0.00     0.211 HD
ENDBRANCH   6  31
BRANCH  29  33
ATOM     33  O   UNL     1       5.466   9.127 -23.887  1.00  0.00    -0.393 OA
ATOM     34  H   UNL     1       5.660   9.345 -24.838  1.00  0.00     0.210 HD
ENDBRANCH  29  33
TORSDOF 2
ENDMDL
MODEL 6
REMARK VINA RESULT:    -6.933      2.486      8.436
REMARK INTER + INTRA:          -7.338
REMARK INTER:                  -7.338
REMARK INTRA:                   0.000
REMARK UNBOUND:                 0.000
REMARK SMILES C[C@H]1CC[C@H]2[N@H+](C1)C[C@H]1[C@H]3C[C@H]4[C@H](CC(=O)[C@H]5C[C@H](O)CC[C@]54C)[C@@H]3CC[C@H]1[C@]2(C)O
REMARK SMILES IDX 5 1 6 2 8 3 7 4 4 5 29 6 3 7 28 8 30 9 2 10 27 11 9 12 1 13
REMARK SMILES IDX 26 14 10 15 25 16 11 17 13 18 12 19 14 20 23 21 15 22 17 23
REMARK SMILES IDX 22 24 24 25 16 26 18 27 21 28 19 29 31 31 20 33
REMARK H PARENT 6 30 31 32 20 34
REMARK Flexibility Score: inf
ROOT
ATOM      1  C   UNL     1       3.586   1.194 -24.592  1.00  0.00     0.216 C 
ATOM      2  N   UNL     1       4.000   2.196 -23.567  1.00  0.00    -0.330 N 
ATOM      3  C   UNL     1       2.892   3.126 -23.263  1.00  0.00     0.266 C 
ATOM      4  C   UNL     1       4.386   1.544 -22.286  1.00  0.00     0.265 C 
ATOM      5  C   UNL     1       4.678   0.103 -24.783  1.00  0.00     0.069 C 
ATOM      6  C   UNL     1       3.186   1.851 -25.967  1.00  0.00     0.117 C 
ATOM      7  C   UNL     1       5.040  -0.564 -23.462  1.00  0.00     0.015 C 
ATOM      8  C   UNL     1       2.112   2.985 -25.728  1.00  0.00     0.036 C 
ATOM      9  C   UNL     1       4.444   2.339 -26.741  1.00  0.00     0.049 C 
ATOM     10  C   UNL     1       5.503   0.504 -22.468  1.00  0.00     0.041 C 
ATOM     11  C   UNL     1       1.654   3.787 -27.005  1.00  0.00     0.007 C 
ATOM     12  C   UNL     1       2.367   3.897 -24.489  1.00  0.00     0.054 C 
ATOM     13  C   UNL     1       5.875  -0.136 -21.125  1.00  0.00     0.013 C 
ATOM     14  C   UNL     1       2.072   5.280 -27.079  1.00  0.00     0.004 C 
ATOM     15  C   UNL     1       3.013   5.295 -24.769  1.00  0.00     0.002 C 
ATOM     16  C   UNL     1       3.312   5.539 -26.228  1.00  0.00    -0.004 C 
ATOM     17  C   UNL     1       4.308   5.724 -24.090  1.00  0.00     0.009 C 
ATOM     18  C   UNL     1       3.996   6.913 -26.255  1.00  0.00     0.003 C 
ATOM     19  C   UNL     1       4.751   6.987 -24.886  1.00  0.00    -0.000 C 
ATOM     20  C   UNL     1       3.051   8.091 -26.525  1.00  0.00     0.080 C 
ATOM     21  C   UNL     1       4.663   8.366 -24.103  1.00  0.00    -0.020 C 
ATOM     22  C   UNL     1       3.792   9.376 -26.311  1.00  0.00     0.136 C 
ATOM     23  C   UNL     1       4.740   9.553 -25.135  1.00  0.00     0.065 C 
ATOM     24  C   UNL     1       3.371   8.493 -23.220  1.00  0.00     0.010 C 
ATOM     25  C   UNL     1       5.900   8.424 -23.162  1.00  0.00     0.012 C 
ATOM     26  O   UNL     1       3.655  10.280 -27.125  1.00  0.00    -0.299 OA
ATOM     27  C   UNL     1       4.519  10.932 -24.468  1.00  0.00     0.043 C 
ATOM     28  C   UNL     1       3.153   9.892 -22.619  1.00  0.00     0.032 C 
ATOM     29  C   UNL     1       3.191  10.981 -23.697  1.00  0.00     0.115 C 
ATOM     30  H   UNL     1       4.825   2.737 -23.909  1.00  0.00     0.348 HD
ENDROOT
BRANCH   6  31
ATOM     31  O   UNL     1       2.576   0.824 -26.723  1.00  0.00    -0.384 OA
ATOM     32  H   UNL     1       2.496   1.117 -27.667  1.00  0.00     0.211 HD
ENDBRANCH   6  31
BRANCH  29  33
ATOM     33  O   UNL     1       2.998  12.250 -23.124  1.00  0.00    -0.393 OA
ATOM     34  H   UNL     1       3.325  12.929 -23.772  1.00  0.00     0.210 HD
ENDBRANCH  29  33
TORSDOF 2
ENDMDL
MODEL 7
REMARK VINA RESULT:    -6.692      2.850      8.376
REMARK INTER + INTRA:          -7.083
REMARK INTER:                  -7.083
REMARK INTRA:                   0.000
REMARK UNBOUND:                 0.000
REMARK SMILES C[C@H]1CC[C@H]2[N@H+](C1)C[C@H]1[C@H]3C[C@H]4[C@H](CC(=O)[C@H]5C[C@H](O)CC[C@]54C)[C@@H]3CC[C@H]1[C@]2(C)O
REMARK SMILES IDX 5 1 6 2 8 3 7 4 4 5 29 6 3 7 28 8 30 9 2 10 27 11 9 12 1 13
REMARK SMILES IDX 26 14 10 15 25 16 11 17 13 18 12 19 14 20 23 21 15 22 17 23
REMARK SMILES IDX 22 24 24 25 16 26 18 27 21 28 19 29 31 31 20 33
REMARK H PARENT 6 30 31 32 20 34
REMARK Flexibility Score: inf
ROOT
ATOM      1  C   UNL     1       2.712  -0.813 -25.945  1.00  0.00     0.216 C 
ATOM      2  N   UNL     1       1.592   0.162 -26.096  1.00  0.00    -0.330 N 
ATOM      3  C   UNL     1       1.912   1.174 -27.125  1.00  0.00     0.266 C 
ATOM      4  C   UNL     1       0.334  -0.510 -26.520  1.00  0.00     0.265 C 
ATOM      5  C   UNL     1       2.314  -1.984 -25.002  1.00  0.00     0.069 C 
ATOM      6  C   UNL     1       4.056  -0.136 -25.481  1.00  0.00     0.117 C 
ATOM      7  C   UNL     1       1.034  -2.668 -25.469  1.00  0.00     0.015 C 
ATOM      8  C   UNL     1       4.403   1.077 -26.432  1.00  0.00     0.036 C 
ATOM      9  C   UNL     1       3.998   0.251 -23.976  1.00  0.00     0.049 C 
ATOM     10  C   UNL     1      -0.088  -1.632 -25.558  1.00  0.00     0.041 C 
ATOM     11  C   UNL     1       5.694   1.903 -26.061  1.00  0.00     0.007 C 
ATOM     12  C   UNL     1       3.195   1.974 -26.839  1.00  0.00     0.054 C 
ATOM     13  C   UNL     1      -1.392  -2.290 -26.027  1.00  0.00     0.013 C 
ATOM     14  C   UNL     1       5.473   3.360 -25.573  1.00  0.00     0.004 C 
ATOM     15  C   UNL     1       3.026   3.318 -26.055  1.00  0.00     0.002 C 
ATOM     16  C   UNL     1       4.073   3.531 -24.989  1.00  0.00    -0.004 C 
ATOM     17  C   UNL     1       1.733   3.654 -25.320  1.00  0.00     0.009 C 
ATOM     18  C   UNL     1       3.671   4.849 -24.314  1.00  0.00     0.003 C 
ATOM     19  C   UNL     1       2.111   4.874 -24.431  1.00  0.00    -0.000 C 
ATOM     20  C   UNL     1       4.372   6.093 -24.875  1.00  0.00     0.080 C 
ATOM     21  C   UNL     1       1.455   6.261 -24.842  1.00  0.00    -0.020 C 
ATOM     22  C   UNL     1       3.741   7.321 -24.291  1.00  0.00     0.136 C 
ATOM     23  C   UNL     1       2.233   7.433 -24.134  1.00  0.00     0.065 C 
ATOM     24  C   UNL     1       1.419   6.490 -26.396  1.00  0.00     0.010 C 
ATOM     25  C   UNL     1      -0.011   6.232 -24.323  1.00  0.00     0.012 C 
ATOM     26  O   UNL     1       4.464   8.227 -23.898  1.00  0.00    -0.299 OA
ATOM     27  C   UNL     1       1.747   8.828 -24.593  1.00  0.00     0.043 C 
ATOM     28  C   UNL     1       0.986   7.905 -26.814  1.00  0.00     0.032 C 
ATOM     29  C   UNL     1       1.827   8.982 -26.119  1.00  0.00     0.115 C 
ATOM     30  H   UNL     1       1.407   0.637 -25.186  1.00  0.00     0.348 HD
ENDROOT
BRANCH   6  31
ATOM     31  O   UNL     1       5.060  -1.118 -25.643  1.00  0.00    -0.384 OA
ATOM     32  H   UNL     1       5.724  -0.800 -26.306  1.00  0.00     0.211 HD
ENDBRANCH   6  31
BRANCH  29  33
ATOM     33  O   UNL     1       1.408  10.265 -26.511  1.00  0.00    -0.393 OA
ATOM     34  H   UNL     1       0.453  10.204 -26.781  1.00  0.00     0.210 HD
ENDBRANCH  29  33
TORSDOF 2
ENDMDL
