MODEL 1
REMARK VINA RESULT:    -4.196      0.000      0.000
REMARK INTER + INTRA:          -4.196
REMARK INTER:                  -4.196
REMARK INTRA:                   0.000
REMARK UNBOUND:                 0.000
REMARK SMILES c1ccc2ccccc2c1
REMARK SMILES IDX 2 1 1 2 10 3 9 4 8 5 7 6 6 7 5 8 4 9 3 10
REMARK H PARENT
REMARK Flexibility Score: inf
ROOT
ATOM      1  C   UNL     1     131.158 137.613 126.140  1.00  0.00     0.001 A 
ATOM      2  C   UNL     1     130.724 137.480 127.462  1.00  0.00     0.001 A 
ATOM      3  C   UNL     1     130.686 136.221 128.067  1.00  0.00     0.009 A 
ATOM      4  C   UNL     1     131.084 135.082 127.349  1.00  0.00    -0.018 A 
ATOM      5  C   UNL     1     131.051 133.811 127.943  1.00  0.00     0.009 A 
ATOM      6  C   UNL     1     131.450 132.686 127.217  1.00  0.00     0.001 A 
ATOM      7  C   UNL     1     131.884 132.819 125.895  1.00  0.00     0.001 A 
ATOM      8  C   UNL     1     131.922 134.079 125.291  1.00  0.00     0.009 A 
ATOM      9  C   UNL     1     131.524 135.217 126.008  1.00  0.00    -0.018 A 
ATOM     10  C   UNL     1     131.557 136.488 125.414  1.00  0.00     0.009 A 
ENDROOT
TORSDOF 0
ENDMDL
MODEL 2
REMARK VINA RESULT:    -4.196      0.044      2.081
REMARK INTER + INTRA:          -4.196
REMARK INTER:                  -4.196
REMARK INTRA:                   0.000
REMARK UNBOUND:                 0.000
REMARK SMILES c1ccc2ccccc2c1
REMARK SMILES IDX 2 1 1 2 10 3 9 4 8 5 7 6 6 7 5 8 4 9 3 10
REMARK H PARENT
REMARK Flexibility Score: inf
ROOT
ATOM      1  C   UNL     1     130.747 137.467 127.519  1.00  0.00     0.001 A 
ATOM      2  C   UNL     1     131.168 137.624 126.195  1.00  0.00     0.001 A 
ATOM      3  C   UNL     1     131.550 136.510 125.442  1.00  0.00     0.009 A 
ATOM      4  C   UNL     1     131.513 135.228 126.011  1.00  0.00    -0.018 A 
ATOM      5  C   UNL     1     131.894 134.101 125.267  1.00  0.00     0.009 A 
ATOM      6  C   UNL     1     131.853 132.831 125.847  1.00  0.00     0.001 A 
ATOM      7  C   UNL     1     131.433 132.674 127.171  1.00  0.00     0.001 A 
ATOM      8  C   UNL     1     131.051 133.787 127.924  1.00  0.00     0.009 A 
ATOM      9  C   UNL     1     131.087 135.069 127.355  1.00  0.00    -0.018 A 
ATOM     10  C   UNL     1     130.707 136.197 128.099  1.00  0.00     0.009 A 
ENDROOT
TORSDOF 0
ENDMDL
MODEL 3
REMARK VINA RESULT:    -4.190      0.061      3.437
REMARK INTER + INTRA:          -4.190
REMARK INTER:                  -4.190
REMARK INTRA:                   0.000
REMARK UNBOUND:                 0.000
REMARK SMILES c1ccc2ccccc2c1
REMARK SMILES IDX 2 1 1 2 10 3 9 4 8 5 7 6 6 7 5 8 4 9 3 10
REMARK H PARENT
REMARK Flexibility Score: inf
ROOT
ATOM      1  C   UNL     1     131.870 132.772 125.872  1.00  0.00     0.001 A 
ATOM      2  C   UNL     1     131.426 132.632 127.190  1.00  0.00     0.001 A 
ATOM      3  C   UNL     1     131.020 133.754 127.918  1.00  0.00     0.009 A 
ATOM      4  C   UNL     1     131.056 135.027 127.328  1.00  0.00    -0.018 A 
ATOM      5  C   UNL     1     130.650 136.163 128.047  1.00  0.00     0.009 A 
ATOM      6  C   UNL     1     130.692 137.424 127.448  1.00  0.00     0.001 A 
ATOM      7  C   UNL     1     131.135 137.563 126.129  1.00  0.00     0.001 A 
ATOM      8  C   UNL     1     131.541 136.441 125.402  1.00  0.00     0.009 A 
ATOM      9  C   UNL     1     131.506 135.169 125.991  1.00  0.00    -0.018 A 
ATOM     10  C   UNL     1     131.911 134.033 125.272  1.00  0.00     0.009 A 
ENDROOT
TORSDOF 0
ENDMDL
MODEL 4
REMARK VINA RESULT:    -4.189      0.031      4.017
REMARK INTER + INTRA:          -4.189
REMARK INTER:                  -4.189
REMARK INTRA:                   0.000
REMARK UNBOUND:                 0.000
REMARK SMILES c1ccc2ccccc2c1
REMARK SMILES IDX 2 1 1 2 10 3 9 4 8 5 7 6 6 7 5 8 4 9 3 10
REMARK H PARENT
REMARK Flexibility Score: inf
ROOT
ATOM      1  C   UNL     1     131.472 132.678 127.232  1.00  0.00     0.001 A 
ATOM      2  C   UNL     1     131.889 132.798 125.903  1.00  0.00     0.001 A 
ATOM      3  C   UNL     1     131.915 134.050 125.284  1.00  0.00     0.009 A 
ATOM      4  C   UNL     1     131.522 135.195 125.993  1.00  0.00    -0.018 A 
ATOM      5  C   UNL     1     131.543 136.460 125.384  1.00  0.00     0.009 A 
ATOM      6  C   UNL     1     131.148 137.591 126.102  1.00  0.00     0.001 A 
ATOM      7  C   UNL     1     130.730 137.472 127.431  1.00  0.00     0.001 A 
ATOM      8  C   UNL     1     130.705 136.219 128.050  1.00  0.00     0.009 A 
ATOM      9  C   UNL     1     131.098 135.074 127.341  1.00  0.00    -0.018 A 
ATOM     10  C   UNL     1     131.077 133.810 127.950  1.00  0.00     0.009 A 
ENDROOT
TORSDOF 0
ENDMDL
MODEL 5
REMARK VINA RESULT:    -4.081      0.914      1.412
REMARK INTER + INTRA:          -4.081
REMARK INTER:                  -4.081
REMARK INTRA:                   0.000
REMARK UNBOUND:                 0.000
REMARK SMILES c1ccc2ccccc2c1
REMARK SMILES IDX 2 1 1 2 10 3 9 4 8 5 7 6 6 7 5 8 4 9 3 10
REMARK H PARENT
REMARK Flexibility Score: inf
ROOT
ATOM      1  C   UNL     1     131.869 136.925 125.530  1.00  0.00     0.001 A 
ATOM      2  C   UNL     1     131.294 137.637 126.587  1.00  0.00     0.001 A 
ATOM      3  C   UNL     1     130.710 136.955 127.658  1.00  0.00     0.009 A 
ATOM      4  C   UNL     1     130.698 135.552 127.678  1.00  0.00    -0.018 A 
ATOM      5  C   UNL     1     130.115 134.854 128.748  1.00  0.00     0.009 A 
ATOM      6  C   UNL     1     130.109 133.457 128.754  1.00  0.00     0.001 A 
ATOM      7  C   UNL     1     130.684 132.746 127.697  1.00  0.00     0.001 A 
ATOM      8  C   UNL     1     131.268 133.427 126.626  1.00  0.00     0.009 A 
ATOM      9  C   UNL     1     131.281 134.830 126.606  1.00  0.00    -0.018 A 
ATOM     10  C   UNL     1     131.863 135.528 125.537  1.00  0.00     0.009 A 
ENDROOT
TORSDOF 0
ENDMDL
MODEL 6
REMARK VINA RESULT:    -4.041     11.384     12.819
REMARK INTER + INTRA:          -4.041
REMARK INTER:                  -4.041
REMARK INTRA:                   0.000
REMARK UNBOUND:                 0.000
REMARK SMILES c1ccc2ccccc2c1
REMARK SMILES IDX 2 1 1 2 10 3 9 4 8 5 7 6 6 7 5 8 4 9 3 10
REMARK H PARENT
REMARK Flexibility Score: inf
ROOT
ATOM      1  C   UNL     1     143.016 142.168 121.010  1.00  0.00     0.001 A 
ATOM      2  C   UNL     1     141.911 142.085 120.157  1.00  0.00     0.001 A 
ATOM      3  C   UNL     1     140.634 141.869 120.679  1.00  0.00     0.009 A 
ATOM      4  C   UNL     1     140.452 141.734 122.064  1.00  0.00    -0.018 A 
ATOM      5  C   UNL     1     139.174 141.517 122.603  1.00  0.00     0.009 A 
ATOM      6  C   UNL     1     139.008 141.384 123.984  1.00  0.00     0.001 A 
ATOM      7  C   UNL     1     140.113 141.466 124.837  1.00  0.00     0.001 A 
ATOM      8  C   UNL     1     141.391 141.682 124.315  1.00  0.00     0.009 A 
ATOM      9  C   UNL     1     141.572 141.817 122.930  1.00  0.00    -0.018 A 
ATOM     10  C   UNL     1     142.850 142.034 122.391  1.00  0.00     0.009 A 
ENDROOT
TORSDOF 0
ENDMDL
MODEL 7
REMARK VINA RESULT:    -3.959      1.539      2.995
REMARK INTER + INTRA:          -3.959
REMARK INTER:                  -3.959
REMARK INTRA:                   0.000
REMARK UNBOUND:                 0.000
REMARK SMILES c1ccc2ccccc2c1
REMARK SMILES IDX 2 1 1 2 10 3 9 4 8 5 7 6 6 7 5 8 4 9 3 10
REMARK H PARENT
REMARK Flexibility Score: inf
ROOT
ATOM      1  C   UNL     1     129.605 134.669 128.761  1.00  0.00     0.001 A 
ATOM      2  C   UNL     1     129.331 133.370 128.323  1.00  0.00     0.001 A 
ATOM      3  C   UNL     1     130.156 132.757 127.377  1.00  0.00     0.009 A 
ATOM      4  C   UNL     1     131.266 133.443 126.861  1.00  0.00    -0.018 A 
ATOM      5  C   UNL     1     132.105 132.840 125.910  1.00  0.00     0.009 A 
ATOM      6  C   UNL     1     133.206 133.535 125.404  1.00  0.00     0.001 A 
ATOM      7  C   UNL     1     133.480 134.834 125.841  1.00  0.00     0.001 A 
ATOM      8  C   UNL     1     132.654 135.447 126.788  1.00  0.00     0.009 A 
ATOM      9  C   UNL     1     131.544 134.761 127.304  1.00  0.00    -0.018 A 
ATOM     10  C   UNL     1     130.706 135.364 128.255  1.00  0.00     0.009 A 
ENDROOT
TORSDOF 0
ENDMDL
MODEL 8
REMARK VINA RESULT:    -3.950     11.180     12.608
REMARK INTER + INTRA:          -3.950
REMARK INTER:                  -3.950
REMARK INTRA:                   0.000
REMARK UNBOUND:                 0.000
REMARK SMILES c1ccc2ccccc2c1
REMARK SMILES IDX 2 1 1 2 10 3 9 4 8 5 7 6 6 7 5 8 4 9 3 10
REMARK H PARENT
REMARK Flexibility Score: inf
ROOT
ATOM      1  C   UNL     1     141.480 142.016 120.305  1.00  0.00     0.001 A 
ATOM      2  C   UNL     1     142.661 142.089 121.050  1.00  0.00     0.001 A 
ATOM      3  C   UNL     1     142.614 142.052 122.446  1.00  0.00     0.009 A 
ATOM      4  C   UNL     1     141.382 141.940 123.108  1.00  0.00    -0.018 A 
ATOM      5  C   UNL     1     141.320 141.901 124.510  1.00  0.00     0.009 A 
ATOM      6  C   UNL     1     140.086 141.791 125.155  1.00  0.00     0.001 A 
ATOM      7  C   UNL     1     138.906 141.717 124.410  1.00  0.00     0.001 A 
ATOM      8  C   UNL     1     138.952 141.755 123.014  1.00  0.00     0.009 A 
ATOM      9  C   UNL     1     140.184 141.866 122.352  1.00  0.00    -0.018 A 
ATOM     10  C   UNL     1     140.246 141.905 120.950  1.00  0.00     0.009 A 
ENDROOT
TORSDOF 0
ENDMDL
MODEL 9
REMARK VINA RESULT:    -3.909      2.329      2.720
REMARK INTER + INTRA:          -3.909
REMARK INTER:                  -3.909
REMARK INTRA:                   0.000
REMARK UNBOUND:                 0.000
REMARK SMILES c1ccc2ccccc2c1
REMARK SMILES IDX 2 1 1 2 10 3 9 4 8 5 7 6 6 7 5 8 4 9 3 10
REMARK H PARENT
REMARK Flexibility Score: inf
ROOT
ATOM      1  C   UNL     1     131.576 135.835 126.150  1.00  0.00     0.001 A 
ATOM      2  C   UNL     1     132.275 136.234 127.294  1.00  0.00     0.001 A 
ATOM      3  C   UNL     1     133.390 135.511 127.724  1.00  0.00     0.009 A 
ATOM      4  C   UNL     1     133.816 134.380 127.010  1.00  0.00    -0.018 A 
ATOM      5  C   UNL     1     134.936 133.645 127.431  1.00  0.00     0.009 A 
ATOM      6  C   UNL     1     135.348 132.521 126.711  1.00  0.00     0.001 A 
ATOM      7  C   UNL     1     134.650 132.122 125.567  1.00  0.00     0.001 A 
ATOM      8  C   UNL     1     133.534 132.845 125.137  1.00  0.00     0.009 A 
ATOM      9  C   UNL     1     133.108 133.976 125.851  1.00  0.00    -0.018 A 
ATOM     10  C   UNL     1     131.989 134.711 125.430  1.00  0.00     0.009 A 
ENDROOT
TORSDOF 0
ENDMDL
