MODEL 1
REMARK VINA RESULT:    -4.209      0.000      0.000
REMARK INTER + INTRA:          -7.108
REMARK INTER:                  -6.424
REMARK INTRA:                  -0.684
REMARK UNBOUND:                -0.684
REMARK SMILES O=C([O-])CCCCCCCCC(=O)[O-]
REMARK SMILES IDX 7 1 6 2 5 3 4 4 2 5 1 6 3 7 8 8 9 9 10 10 11 11 12 12 13 13
REMARK SMILES IDX 14 14
REMARK H PARENT
REMARK Flexibility Score: inf
ROOT
ATOM      1  C   UNL     1     173.715 175.665 182.392  1.00  0.00     0.000 C 
ENDROOT
BRANCH   1   2
ATOM      2  C   UNL     1     173.774 177.154 182.780  1.00  0.00     0.000 C 
BRANCH   2   3
ATOM      3  C   UNL     1     172.419 177.863 182.648  1.00  0.00     0.006 C 
BRANCH   3   4
ATOM      4  C   UNL     1     171.396 176.967 181.945  1.00  0.00     0.053 C 
BRANCH   4   5
ATOM      5  C   UNL     1     170.951 177.588 180.659  1.00  0.00     0.041 C 
ATOM      6  O   UNL     1     169.732 177.841 180.466  1.00  0.00    -0.550 OA
ATOM      7  O   UNL     1     171.874 177.841 179.653  1.00  0.00    -0.550 OA
ENDBRANCH   4   5
ENDBRANCH   3   4
ENDBRANCH   2   3
ENDBRANCH   1   2
BRANCH   1   8
ATOM      8  C   UNL     1     174.903 174.815 182.875  1.00  0.00     0.000 C 
BRANCH   8   9
ATOM      9  C   UNL     1     176.198 175.631 183.038  1.00  0.00     0.000 C 
BRANCH   9  10
ATOM     10  C   UNL     1     176.977 175.768 181.720  1.00  0.00     0.006 C 
BRANCH  10  11
ATOM     11  C   UNL     1     177.059 177.220 181.229  1.00  0.00     0.053 C 
BRANCH  11  12
ATOM     12  C   UNL     1     176.607 177.316 179.807  1.00  0.00     0.041 C 
ATOM     13  O   UNL     1     177.395 177.024 178.870  1.00  0.00    -0.550 OA
ATOM     14  O   UNL     1     175.329 177.775 179.513  1.00  0.00    -0.550 OA
ENDBRANCH  11  12
ENDBRANCH  10  11
ENDBRANCH   9  10
ENDBRANCH   8   9
ENDBRANCH   1   8
TORSDOF 9
ENDMDL
MODEL 2
REMARK VINA RESULT:    -4.139      1.180      4.951
REMARK INTER + INTRA:          -7.001
REMARK INTER:                  -6.339
REMARK INTRA:                  -0.662
REMARK UNBOUND:                -0.684
REMARK SMILES O=C([O-])CCCCCCCCC(=O)[O-]
REMARK SMILES IDX 7 1 6 2 5 3 4 4 2 5 1 6 3 7 8 8 9 9 10 10 11 11 12 12 13 13
REMARK SMILES IDX 14 14
REMARK H PARENT
REMARK Flexibility Score: inf
ROOT
ATOM      1  C   UNL     1     176.901 176.353 182.290  1.00  0.00     0.000 C 
ENDROOT
BRANCH   1   2
ATOM      2  C   UNL     1     177.107 177.799 181.804  1.00  0.00     0.000 C 
BRANCH   2   3
ATOM      3  C   UNL     1     177.305 177.899 180.284  1.00  0.00     0.006 C 
BRANCH   3   4
ATOM      4  C   UNL     1     176.132 177.262 179.534  1.00  0.00     0.053 C 
BRANCH   4   5
ATOM      5  C   UNL     1     176.610 176.138 178.670  1.00  0.00     0.041 C 
ATOM      6  O   UNL     1     176.432 174.944 179.027  1.00  0.00    -0.550 OA
ATOM      7  O   UNL     1     177.298 176.409 177.495  1.00  0.00    -0.550 OA
ENDBRANCH   4   5
ENDBRANCH   3   4
ENDBRANCH   2   3
ENDBRANCH   1   2
BRANCH   1   8
ATOM      8  C   UNL     1     175.738 176.155 183.279  1.00  0.00     0.000 C 
BRANCH   8   9
ATOM      9  C   UNL     1     174.377 175.993 182.579  1.00  0.00     0.000 C 
BRANCH   9  10
ATOM     10  C   UNL     1     173.565 177.298 182.560  1.00  0.00     0.006 C 
BRANCH  10  11
ATOM     11  C   UNL     1     172.052 177.052 182.484  1.00  0.00     0.053 C 
BRANCH  11  12
ATOM     12  C   UNL     1     171.516 177.505 181.163  1.00  0.00     0.041 C 
ATOM     13  O   UNL     1     172.298 177.702 180.195  1.00  0.00    -0.550 OA
ATOM     14  O   UNL     1     170.158 177.756 181.012  1.00  0.00    -0.550 OA
ENDBRANCH  11  12
ENDBRANCH  10  11
ENDBRANCH   9  10
ENDBRANCH   8   9
ENDBRANCH   1   8
TORSDOF 9
ENDMDL
MODEL 3
REMARK VINA RESULT:    -4.090      0.649      4.976
REMARK INTER + INTRA:          -6.927
REMARK INTER:                  -6.167
REMARK INTRA:                  -0.759
REMARK UNBOUND:                -0.684
REMARK SMILES O=C([O-])CCCCCCCCC(=O)[O-]
REMARK SMILES IDX 7 1 6 2 5 3 4 4 2 5 1 6 3 7 8 8 9 9 10 10 11 11 12 12 13 13
REMARK SMILES IDX 14 14
REMARK H PARENT
REMARK Flexibility Score: inf
ROOT
ATOM      1  C   UNL     1     175.688 175.105 182.763  1.00  0.00     0.000 C 
ENDROOT
BRANCH   1   2
ATOM      2  C   UNL     1     176.941 175.891 182.336  1.00  0.00     0.000 C 
BRANCH   2   3
ATOM      3  C   UNL     1     176.728 177.412 182.345  1.00  0.00     0.006 C 
BRANCH   3   4
ATOM      4  C   UNL     1     177.381 178.065 181.123  1.00  0.00     0.053 C 
BRANCH   4   5
ATOM      5  C   UNL     1     176.756 177.557 179.862  1.00  0.00     0.041 C 
ATOM      6  O   UNL     1     177.454 176.941 179.013  1.00  0.00    -0.550 OA
ATOM      7  O   UNL     1     175.416 177.809 179.599  1.00  0.00    -0.550 OA
ENDBRANCH   4   5
ENDBRANCH   3   4
ENDBRANCH   2   3
ENDBRANCH   1   2
BRANCH   1   8
ATOM      8  C   UNL     1     174.457 175.295 181.858  1.00  0.00     0.000 C 
BRANCH   8   9
ATOM      9  C   UNL     1     173.236 175.846 182.615  1.00  0.00     0.000 C 
BRANCH   9  10
ATOM     10  C   UNL     1     172.903 177.294 182.222  1.00  0.00     0.006 C 
BRANCH  10  11
ATOM     11  C   UNL     1     171.395 177.531 182.059  1.00  0.00     0.053 C 
BRANCH  11  12
ATOM     12  C   UNL     1     171.059 177.782 180.623  1.00  0.00     0.041 C 
ATOM     13  O   UNL     1     169.868 178.006 180.280  1.00  0.00    -0.550 OA
ATOM     14  O   UNL     1     172.054 177.722 179.655  1.00  0.00    -0.550 OA
ENDBRANCH  11  12
ENDBRANCH  10  11
ENDBRANCH   9  10
ENDBRANCH   8   9
ENDBRANCH   1   8
TORSDOF 9
ENDMDL
MODEL 4
REMARK VINA RESULT:    -4.069      1.119      2.002
REMARK INTER + INTRA:          -6.894
REMARK INTER:                  -6.173
REMARK INTRA:                  -0.722
REMARK UNBOUND:                -0.684
REMARK SMILES O=C([O-])CCCCCCCCC(=O)[O-]
REMARK SMILES IDX 7 1 6 2 5 3 4 4 2 5 1 6 3 7 8 8 9 9 10 10 11 11 12 12 13 13
REMARK SMILES IDX 14 14
REMARK H PARENT
REMARK Flexibility Score: inf
ROOT
ATOM      1  C   UNL     1     175.584 175.832 182.888  1.00  0.00     0.000 C 
ENDROOT
BRANCH   1   2
ATOM      2  C   UNL     1     174.528 176.952 182.849  1.00  0.00     0.000 C 
BRANCH   2   3
ATOM      3  C   UNL     1     173.278 176.571 182.041  1.00  0.00     0.006 C 
BRANCH   3   4
ATOM      4  C   UNL     1     172.208 177.661 182.141  1.00  0.00     0.053 C 
BRANCH   4   5
ATOM      5  C   UNL     1     171.331 177.647 180.929  1.00  0.00     0.041 C 
ATOM      6  O   UNL     1     171.841 177.673 179.778  1.00  0.00    -0.550 OA
ATOM      7  O   UNL     1     169.949 177.657 181.070  1.00  0.00    -0.550 OA
ENDBRANCH   4   5
ENDBRANCH   3   4
ENDBRANCH   2   3
ENDBRANCH   1   2
BRANCH   1   8
ATOM      8  C   UNL     1     176.880 176.126 182.112  1.00  0.00     0.000 C 
BRANCH   8   9
ATOM      9  C   UNL     1     177.015 177.606 181.710  1.00  0.00     0.000 C 
BRANCH   9  10
ATOM     10  C   UNL     1     177.149 177.794 180.191  1.00  0.00     0.006 C 
BRANCH  10  11
ATOM     11  C   UNL     1     175.895 177.349 179.426  1.00  0.00     0.053 C 
BRANCH  11  12
ATOM     12  C   UNL     1     176.242 176.290 178.428  1.00  0.00     0.041 C 
ATOM     13  O   UNL     1     177.195 175.497 178.650  1.00  0.00    -0.550 OA
ATOM     14  O   UNL     1     175.545 176.209 177.229  1.00  0.00    -0.550 OA
ENDBRANCH  11  12
ENDBRANCH  10  11
ENDBRANCH   9  10
ENDBRANCH   8   9
ENDBRANCH   1   8
TORSDOF 9
ENDMDL
MODEL 5
REMARK VINA RESULT:    -4.046      3.174      4.893
REMARK INTER + INTRA:          -6.859
REMARK INTER:                  -6.140
REMARK INTRA:                  -0.718
REMARK UNBOUND:                -0.684
REMARK SMILES O=C([O-])CCCCCCCCC(=O)[O-]
REMARK SMILES IDX 7 1 6 2 5 3 4 4 2 5 1 6 3 7 8 8 9 9 10 10 11 11 12 12 13 13
REMARK SMILES IDX 14 14
REMARK H PARENT
REMARK Flexibility Score: inf
ROOT
ATOM      1  C   UNL     1     177.027 176.193 182.065  1.00  0.00     0.000 C 
ENDROOT
BRANCH   1   2
ATOM      2  C   UNL     1     177.113 177.692 181.724  1.00  0.00     0.000 C 
BRANCH   2   3
ATOM      3  C   UNL     1     177.153 177.963 180.213  1.00  0.00     0.006 C 
BRANCH   3   4
ATOM      4  C   UNL     1     175.881 177.453 179.531  1.00  0.00     0.053 C 
BRANCH   4   5
ATOM      5  C   UNL     1     176.222 176.477 178.449  1.00  0.00     0.041 C 
ATOM      6  O   UNL     1     177.365 176.491 177.921  1.00  0.00    -0.550 OA
ATOM      7  O   UNL     1     175.261 175.587 177.988  1.00  0.00    -0.550 OA
ENDBRANCH   4   5
ENDBRANCH   3   4
ENDBRANCH   2   3
ENDBRANCH   1   2
BRANCH   1   8
ATOM      8  C   UNL     1     176.083 175.840 183.229  1.00  0.00     0.000 C 
BRANCH   8   9
ATOM      9  C   UNL     1     175.018 174.799 182.841  1.00  0.00     0.000 C 
BRANCH   9  10
ATOM     10  C   UNL     1     175.360 174.064 181.535  1.00  0.00     0.006 C 
BRANCH  10  11
ATOM     11  C   UNL     1     175.599 172.563 181.745  1.00  0.00     0.053 C 
BRANCH  11  12
ATOM     12  C   UNL     1     177.019 172.213 181.432  1.00  0.00     0.041 C 
ATOM     13  O   UNL     1     177.286 171.174 180.772  1.00  0.00    -0.550 OA
ATOM     14  O   UNL     1     178.053 173.008 181.911  1.00  0.00    -0.550 OA
ENDBRANCH  11  12
ENDBRANCH  10  11
ENDBRANCH   9  10
ENDBRANCH   8   9
ENDBRANCH   1   8
TORSDOF 9
ENDMDL
MODEL 6
REMARK VINA RESULT:    -3.998      0.539      5.122
REMARK INTER + INTRA:          -6.786
REMARK INTER:                  -6.086
REMARK INTRA:                  -0.700
REMARK UNBOUND:                -0.684
REMARK SMILES O=C([O-])CCCCCCCCC(=O)[O-]
REMARK SMILES IDX 7 1 6 2 5 3 4 4 2 5 1 6 3 7 8 8 9 9 10 10 11 11 12 12 13 13
REMARK SMILES IDX 14 14
REMARK H PARENT
REMARK Flexibility Score: inf
ROOT
ATOM      1  C   UNL     1     174.727 174.944 182.849  1.00  0.00     0.000 C 
ENDROOT
BRANCH   1   2
ATOM      2  C   UNL     1     176.013 175.688 183.251  1.00  0.00     0.000 C 
BRANCH   2   3
ATOM      3  C   UNL     1     176.977 175.901 182.075  1.00  0.00     0.006 C 
BRANCH   3   4
ATOM      4  C   UNL     1     177.051 177.380 181.686  1.00  0.00     0.053 C 
BRANCH   4   5
ATOM      5  C   UNL     1     176.753 177.555 180.231  1.00  0.00     0.041 C 
ATOM      6  O   UNL     1     175.565 177.504 179.816  1.00  0.00    -0.550 OA
ATOM      7  O   UNL     1     177.791 177.723 179.323  1.00  0.00    -0.550 OA
ENDBRANCH   4   5
ENDBRANCH   3   4
ENDBRANCH   2   3
ENDBRANCH   1   2
BRANCH   1   8
ATOM      8  C   UNL     1     173.645 175.816 182.188  1.00  0.00     0.000 C 
BRANCH   8   9
ATOM      9  C   UNL     1     173.485 177.189 182.866  1.00  0.00     0.000 C 
BRANCH   9  10
ATOM     10  C   UNL     1     172.202 177.915 182.430  1.00  0.00     0.006 C 
BRANCH  10  11
ATOM     11  C   UNL     1     171.093 176.947 181.994  1.00  0.00     0.053 C 
BRANCH  11  12
ATOM     12  C   UNL     1     170.455 177.423 180.728  1.00  0.00     0.041 C 
ATOM     13  O   UNL     1     171.110 178.125 179.912  1.00  0.00    -0.550 OA
ATOM     14  O   UNL     1     169.122 177.132 180.468  1.00  0.00    -0.550 OA
ENDBRANCH  11  12
ENDBRANCH  10  11
ENDBRANCH   9  10
ENDBRANCH   8   9
ENDBRANCH   1   8
TORSDOF 9
ENDMDL
MODEL 7
REMARK VINA RESULT:    -3.994      2.346      3.617
REMARK INTER + INTRA:          -6.779
REMARK INTER:                  -5.828
REMARK INTRA:                  -0.951
REMARK UNBOUND:                -0.684
REMARK SMILES O=C([O-])CCCCCCCCC(=O)[O-]
REMARK SMILES IDX 7 1 6 2 5 3 4 4 2 5 1 6 3 7 8 8 9 9 10 10 11 11 12 12 13 13
REMARK SMILES IDX 14 14
REMARK H PARENT
REMARK Flexibility Score: inf
ROOT
ATOM      1  C   UNL     1     177.279 177.800 181.624  1.00  0.00     0.000 C 
ENDROOT
BRANCH   1   2
ATOM      2  C   UNL     1     177.009 176.872 180.425  1.00  0.00     0.000 C 
BRANCH   2   3
ATOM      3  C   UNL     1     175.896 177.391 179.503  1.00  0.00     0.006 C 
BRANCH   3   4
ATOM      4  C   UNL     1     174.688 176.450 179.519  1.00  0.00     0.053 C 
BRANCH   4   5
ATOM      5  C   UNL     1     173.432 177.215 179.795  1.00  0.00     0.041 C 
ATOM      6  O   UNL     1     173.095 177.473 180.981  1.00  0.00    -0.550 OA
ATOM      7  O   UNL     1     172.607 177.600 178.747  1.00  0.00    -0.550 OA
ENDBRANCH   4   5
ENDBRANCH   3   4
ENDBRANCH   2   3
ENDBRANCH   1   2
BRANCH   1   8
ATOM      8  C   UNL     1     177.052 177.165 183.008  1.00  0.00     0.000 C 
BRANCH   8   9
ATOM      9  C   UNL     1     175.726 176.389 183.101  1.00  0.00     0.000 C 
BRANCH   9  10
ATOM     10  C   UNL     1     175.932 174.910 183.463  1.00  0.00     0.006 C 
BRANCH  10  11
ATOM     11  C   UNL     1     175.503 173.959 182.338  1.00  0.00     0.053 C 
BRANCH  11  12
ATOM     12  C   UNL     1     176.676 173.601 181.482  1.00  0.00     0.041 C 
ATOM     13  O   UNL     1     177.835 173.573 181.974  1.00  0.00    -0.550 OA
ATOM     14  O   UNL     1     176.497 173.344 180.129  1.00  0.00    -0.550 OA
ENDBRANCH  11  12
ENDBRANCH  10  11
ENDBRANCH   9  10
ENDBRANCH   8   9
ENDBRANCH   1   8
TORSDOF 9
ENDMDL
MODEL 8
REMARK VINA RESULT:    -3.929      2.586      4.889
REMARK INTER + INTRA:          -6.680
REMARK INTER:                  -5.751
REMARK INTRA:                  -0.929
REMARK UNBOUND:                -0.684
REMARK SMILES O=C([O-])CCCCCCCCC(=O)[O-]
REMARK SMILES IDX 7 1 6 2 5 3 4 4 2 5 1 6 3 7 8 8 9 9 10 10 11 11 12 12 13 13
REMARK SMILES IDX 14 14
REMARK H PARENT
REMARK Flexibility Score: inf
ROOT
ATOM      1  C   UNL     1     176.011 177.024 182.528  1.00  0.00     0.000 C 
ENDROOT
BRANCH   1   2
ATOM      2  C   UNL     1     176.218 175.730 183.336  1.00  0.00     0.000 C 
BRANCH   2   3
ATOM      3  C   UNL     1     176.897 174.617 182.525  1.00  0.00     0.006 C 
BRANCH   3   4
ATOM      4  C   UNL     1     175.860 173.750 181.806  1.00  0.00     0.053 C 
BRANCH   4   5
ATOM      5  C   UNL     1     176.517 172.902 180.763  1.00  0.00     0.041 C 
ATOM      6  O   UNL     1     176.217 173.046 179.548  1.00  0.00    -0.550 OA
ATOM      7  O   UNL     1     177.424 171.919 181.136  1.00  0.00    -0.550 OA
ENDBRANCH   4   5
ENDBRANCH   3   4
ENDBRANCH   2   3
ENDBRANCH   1   2
BRANCH   1   8
ATOM      8  C   UNL     1     177.273 177.574 181.839  1.00  0.00     0.000 C 
BRANCH   8   9
ATOM      9  C   UNL     1     177.042 177.931 180.361  1.00  0.00     0.000 C 
BRANCH   9  10
ATOM     10  C   UNL     1     176.539 176.735 179.537  1.00  0.00     0.006 C 
BRANCH  10  11
ATOM     11  C   UNL     1     175.254 177.050 178.759  1.00  0.00     0.053 C 
BRANCH  11  12
ATOM     12  C   UNL     1     174.056 176.578 179.519  1.00  0.00     0.041 C 
ATOM     13  O   UNL     1     173.700 175.372 179.457  1.00  0.00    -0.550 OA
ATOM     14  O   UNL     1     173.300 177.481 180.257  1.00  0.00    -0.550 OA
ENDBRANCH  11  12
ENDBRANCH  10  11
ENDBRANCH   9  10
ENDBRANCH   8   9
ENDBRANCH   1   8
TORSDOF 9
ENDMDL
MODEL 9
REMARK VINA RESULT:    -3.905      2.937      4.606
REMARK INTER + INTRA:          -6.645
REMARK INTER:                  -5.661
REMARK INTRA:                  -0.983
REMARK UNBOUND:                -0.684
REMARK SMILES O=C([O-])CCCCCCCCC(=O)[O-]
REMARK SMILES IDX 7 1 6 2 5 3 4 4 2 5 1 6 3 7 8 8 9 9 10 10 11 11 12 12 13 13
REMARK SMILES IDX 14 14
REMARK H PARENT
REMARK Flexibility Score: inf
ROOT
ATOM      1  C   UNL     1     173.949 176.594 182.600  1.00  0.00     0.000 C 
ENDROOT
BRANCH   1   2
ATOM      2  C   UNL     1     175.471 176.646 182.827  1.00  0.00     0.000 C 
BRANCH   2   3
ATOM      3  C   UNL     1     176.061 175.296 183.260  1.00  0.00     0.006 C 
BRANCH   3   4
ATOM      4  C   UNL     1     177.040 174.763 182.211  1.00  0.00     0.053 C 
BRANCH   4   5
ATOM      5  C   UNL     1     176.662 173.376 181.797  1.00  0.00     0.041 C 
ATOM      6  O   UNL     1     177.553 172.545 181.478  1.00  0.00    -0.550 OA
ATOM      7  O   UNL     1     175.324 173.016 181.714  1.00  0.00    -0.550 OA
ENDBRANCH   4   5
ENDBRANCH   3   4
ENDBRANCH   2   3
ENDBRANCH   1   2
BRANCH   1   8
ATOM      8  C   UNL     1     173.486 176.964 181.180  1.00  0.00     0.000 C 
BRANCH   8   9
ATOM      9  C   UNL     1     173.571 175.785 180.195  1.00  0.00     0.000 C 
BRANCH   9  10
ATOM     10  C   UNL     1     174.399 176.120 178.944  1.00  0.00     0.006 C 
BRANCH  10  11
ATOM     11  C   UNL     1     175.321 177.330 179.151  1.00  0.00     0.053 C 
BRANCH  11  12
ATOM     12  C   UNL     1     176.752 176.897 179.174  1.00  0.00     0.041 C 
ATOM     13  O   UNL     1     177.066 175.726 178.832  1.00  0.00    -0.550 OA
ATOM     14  O   UNL     1     177.736 177.771 179.619  1.00  0.00    -0.550 OA
ENDBRANCH  11  12
ENDBRANCH  10  11
ENDBRANCH   9  10
ENDBRANCH   8   9
ENDBRANCH   1   8
TORSDOF 9
ENDMDL
