MODEL 1
REMARK VINA RESULT:    -2.844      0.000      0.000
REMARK INTER + INTRA:          -3.114
REMARK INTER:                  -3.093
REMARK INTRA:                  -0.021
REMARK UNBOUND:                -0.021
REMARK SMILES OCc1ccco1
REMARK SMILES IDX 2 1 3 2 5 3 6 4 4 5 7 6 1 7
REMARK H PARENT 1 8
REMARK Flexibility Score: inf
ROOT
ATOM      1  C   UNL     1     -16.559 -20.199   3.370  1.00  0.00     0.231 C 
ENDROOT
BRANCH   1   2
ATOM      2  C   UNL     1     -16.987 -21.630   3.291  1.00  0.00     0.129 A 
ATOM      3  C   UNL     1     -17.978 -23.550   3.684  1.00  0.00     0.042 A 
ATOM      4  C   UNL     1     -17.049 -23.668   2.670  1.00  0.00     0.195 A 
ATOM      5  C   UNL     1     -17.937 -22.232   4.090  1.00  0.00     0.048 A 
ATOM      6  O   UNL     1     -16.472 -22.506   2.460  1.00  0.00    -0.467 OA
ENDBRANCH   1   2
BRANCH   1   7
ATOM      7  O   UNL     1     -15.857 -19.844   2.212  1.00  0.00    -0.388 OA
ATOM      8  H   UNL     1     -15.985 -20.584   1.563  1.00  0.00     0.211 HD
ENDBRANCH   1   7
TORSDOF 2
ENDMDL
MODEL 2
REMARK VINA RESULT:    -2.811      3.094      4.014
REMARK INTER + INTRA:          -3.079
REMARK INTER:                  -3.065
REMARK INTRA:                  -0.014
REMARK UNBOUND:                -0.021
REMARK SMILES OCc1ccco1
REMARK SMILES IDX 2 1 3 2 5 3 6 4 4 5 7 6 1 7
REMARK H PARENT 1 8
REMARK Flexibility Score: inf
ROOT
ATOM      1  C   UNL     1     -17.344 -22.531   4.496  1.00  0.00     0.231 C 
ENDROOT
BRANCH   1   2
ATOM      2  C   UNL     1     -16.988 -21.838   5.773  1.00  0.00     0.129 A 
ATOM      3  C   UNL     1     -16.765 -21.339   7.899  1.00  0.00     0.042 A 
ATOM      4  C   UNL     1     -16.275 -20.327   7.097  1.00  0.00     0.195 A 
ATOM      5  C   UNL     1     -17.229 -22.315   7.044  1.00  0.00     0.048 A 
ATOM      6  O   UNL     1     -16.425 -20.653   5.833  1.00  0.00    -0.467 OA
ENDBRANCH   1   2
BRANCH   1   7
ATOM      7  O   UNL     1     -18.731 -22.505   4.306  1.00  0.00    -0.388 OA
ATOM      8  H   UNL     1     -19.117 -22.041   5.095  1.00  0.00     0.211 HD
ENDBRANCH   1   7
TORSDOF 2
ENDMDL
MODEL 3
REMARK VINA RESULT:    -2.764      2.812      3.139
REMARK INTER + INTRA:          -3.027
REMARK INTER:                  -3.014
REMARK INTRA:                  -0.013
REMARK UNBOUND:                -0.021
REMARK SMILES OCc1ccco1
REMARK SMILES IDX 2 1 3 2 5 3 6 4 4 5 7 6 1 7
REMARK H PARENT 1 8
REMARK Flexibility Score: inf
ROOT
ATOM      1  C   UNL     1     -14.000 -20.460   1.162  1.00  0.00     0.231 C 
ENDROOT
BRANCH   1   2
ATOM      2  C   UNL     1     -14.772 -21.695   0.821  1.00  0.00     0.129 A 
ATOM      3  C   UNL     1     -16.093 -23.445   0.939  1.00  0.00     0.042 A 
ATOM      4  C   UNL     1     -15.466 -23.377  -0.289  1.00  0.00     0.195 A 
ATOM      5  C   UNL     1     -15.643 -22.359   1.660  1.00  0.00     0.048 A 
ATOM      6  O   UNL     1     -14.682 -22.323  -0.329  1.00  0.00    -0.467 OA
ENDBRANCH   1   2
BRANCH   1   7
ATOM      7  O   UNL     1     -14.878 -19.395   1.398  1.00  0.00    -0.388 OA
ATOM      8  H   UNL     1     -14.321 -18.575   1.456  1.00  0.00     0.211 HD
ENDBRANCH   1   7
TORSDOF 2
ENDMDL
MODEL 4
REMARK VINA RESULT:    -2.678      5.032      5.400
REMARK INTER + INTRA:          -2.933
REMARK INTER:                  -2.920
REMARK INTRA:                  -0.013
REMARK UNBOUND:                -0.021
REMARK SMILES OCc1ccco1
REMARK SMILES IDX 2 1 3 2 5 3 6 4 4 5 7 6 1 7
REMARK H PARENT 1 8
REMARK Flexibility Score: inf
ROOT
ATOM      1  C   UNL     1     -14.269 -18.886   8.674  1.00  0.00     0.231 C 
ENDROOT
BRANCH   1   2
ATOM      2  C   UNL     1     -15.028 -19.998   8.022  1.00  0.00     0.129 A 
ATOM      3  C   UNL     1     -16.503 -21.132   6.856  1.00  0.00     0.042 A 
ATOM      4  C   UNL     1     -15.628 -21.977   7.509  1.00  0.00     0.195 A 
ATOM      5  C   UNL     1     -16.118 -19.851   7.190  1.00  0.00     0.048 A 
ATOM      6  O   UNL     1     -14.761 -21.272   8.199  1.00  0.00    -0.467 OA
ENDBRANCH   1   2
BRANCH   1   7
ATOM      7  O   UNL     1     -13.957 -17.900   7.730  1.00  0.00    -0.388 OA
ATOM      8  H   UNL     1     -13.412 -17.217   8.201  1.00  0.00     0.211 HD
ENDBRANCH   1   7
TORSDOF 2
ENDMDL
MODEL 5
REMARK VINA RESULT:    -2.664      1.646      2.719
REMARK INTER + INTRA:          -2.918
REMARK INTER:                  -2.903
REMARK INTRA:                  -0.015
REMARK UNBOUND:                -0.021
REMARK SMILES OCc1ccco1
REMARK SMILES IDX 2 1 3 2 5 3 6 4 4 5 7 6 1 7
REMARK H PARENT 1 8
REMARK Flexibility Score: inf
ROOT
ATOM      1  C   UNL     1     -17.554 -22.150   3.910  1.00  0.00     0.231 C 
ENDROOT
BRANCH   1   2
ATOM      2  C   UNL     1     -16.833 -22.735   2.738  1.00  0.00     0.129 A 
ATOM      3  C   UNL     1     -16.066 -24.135   1.229  1.00  0.00     0.042 A 
ATOM      4  C   UNL     1     -15.518 -22.878   1.067  1.00  0.00     0.195 A 
ATOM      5  C   UNL     1     -16.915 -24.045   2.312  1.00  0.00     0.048 A 
ATOM      6  O   UNL     1     -15.992 -22.066   1.983  1.00  0.00    -0.467 OA
ENDBRANCH   1   2
BRANCH   1   7
ATOM      7  O   UNL     1     -18.693 -22.911   4.201  1.00  0.00    -0.388 OA
ATOM      8  H   UNL     1     -18.558 -23.799   3.777  1.00  0.00     0.211 HD
ENDBRANCH   1   7
TORSDOF 2
ENDMDL
MODEL 6
REMARK VINA RESULT:    -2.631      5.189      6.242
REMARK INTER + INTRA:          -2.882
REMARK INTER:                  -2.868
REMARK INTRA:                  -0.014
REMARK UNBOUND:                -0.021
REMARK SMILES OCc1ccco1
REMARK SMILES IDX 2 1 3 2 5 3 6 4 4 5 7 6 1 7
REMARK H PARENT 1 8
REMARK Flexibility Score: inf
ROOT
ATOM      1  C   UNL     1     -18.983 -24.900   9.077  1.00  0.00     0.231 C 
ENDROOT
BRANCH   1   2
ATOM      2  C   UNL     1     -18.203 -23.782   8.461  1.00  0.00     0.129 A 
ATOM      3  C   UNL     1     -17.354 -21.804   8.027  1.00  0.00     0.042 A 
ATOM      4  C   UNL     1     -16.946 -22.736   7.094  1.00  0.00     0.195 A 
ATOM      5  C   UNL     1     -18.170 -22.479   8.910  1.00  0.00     0.048 A 
ATOM      6  O   UNL     1     -17.471 -23.907   7.378  1.00  0.00    -0.467 OA
ENDBRANCH   1   2
BRANCH   1   7
ATOM      7  O   UNL     1     -20.307 -24.868   8.621  1.00  0.00    -0.388 OA
ATOM      8  H   UNL     1     -20.863 -24.565   9.386  1.00  0.00     0.211 HD
ENDBRANCH   1   7
TORSDOF 2
ENDMDL
MODEL 7
REMARK VINA RESULT:    -2.611      4.286      5.153
REMARK INTER + INTRA:          -2.861
REMARK INTER:                  -2.847
REMARK INTRA:                  -0.014
REMARK UNBOUND:                -0.021
REMARK SMILES OCc1ccco1
REMARK SMILES IDX 2 1 3 2 5 3 6 4 4 5 7 6 1 7
REMARK H PARENT 1 8
REMARK Flexibility Score: inf
ROOT
ATOM      1  C   UNL     1     -16.911 -22.019   6.391  1.00  0.00     0.231 C 
ENDROOT
BRANCH   1   2
ATOM      2  C   UNL     1     -15.970 -21.126   7.136  1.00  0.00     0.129 A 
ATOM      3  C   UNL     1     -15.007 -19.363   8.021  1.00  0.00     0.042 A 
ATOM      4  C   UNL     1     -14.258 -20.501   8.240  1.00  0.00     0.195 A 
ATOM      5  C   UNL     1     -16.114 -19.765   7.304  1.00  0.00     0.048 A 
ATOM      6  O   UNL     1     -14.857 -21.537   7.697  1.00  0.00    -0.467 OA
ENDBRANCH   1   2
BRANCH   1   7
ATOM      7  O   UNL     1     -16.812 -21.778   5.015  1.00  0.00    -0.388 OA
ATOM      8  H   UNL     1     -15.844 -21.740   4.801  1.00  0.00     0.211 HD
ENDBRANCH   1   7
TORSDOF 2
ENDMDL
MODEL 8
REMARK VINA RESULT:    -2.587      1.459      2.111
REMARK INTER + INTRA:          -2.834
REMARK INTER:                  -2.820
REMARK INTRA:                  -0.015
REMARK UNBOUND:                -0.021
REMARK SMILES OCc1ccco1
REMARK SMILES IDX 2 1 3 2 5 3 6 4 4 5 7 6 1 7
REMARK H PARENT 1 8
REMARK Flexibility Score: inf
ROOT
ATOM      1  C   UNL     1     -15.591 -22.847   1.265  1.00  0.00     0.231 C 
ENDROOT
BRANCH   1   2
ATOM      2  C   UNL     1     -16.611 -22.924   2.356  1.00  0.00     0.129 A 
ATOM      3  C   UNL     1     -17.901 -22.429   4.062  1.00  0.00     0.042 A 
ATOM      4  C   UNL     1     -18.074 -23.742   3.672  1.00  0.00     0.195 A 
ATOM      5  C   UNL     1     -16.952 -21.899   3.214  1.00  0.00     0.048 A 
ATOM      6  O   UNL     1     -17.288 -24.009   2.653  1.00  0.00    -0.467 OA
ENDBRANCH   1   2
BRANCH   1   7
ATOM      7  O   UNL     1     -14.434 -22.212   1.733  1.00  0.00    -0.388 OA
ATOM      8  H   UNL     1     -14.697 -21.705   2.546  1.00  0.00     0.211 HD
ENDBRANCH   1   7
TORSDOF 2
ENDMDL
MODEL 9
REMARK VINA RESULT:    -2.517      1.454      2.052
REMARK INTER + INTRA:          -2.759
REMARK INTER:                  -2.743
REMARK INTRA:                  -0.016
REMARK UNBOUND:                -0.021
REMARK SMILES OCc1ccco1
REMARK SMILES IDX 2 1 3 2 5 3 6 4 4 5 7 6 1 7
REMARK H PARENT 1 8
REMARK Flexibility Score: inf
ROOT
ATOM      1  C   UNL     1     -17.281 -21.708   3.842  1.00  0.00     0.231 C 
ENDROOT
BRANCH   1   2
ATOM      2  C   UNL     1     -17.373 -23.039   3.165  1.00  0.00     0.129 A 
ATOM      3  C   UNL     1     -17.013 -24.746   1.831  1.00  0.00     0.042 A 
ATOM      4  C   UNL     1     -18.111 -24.967   2.637  1.00  0.00     0.195 A 
ATOM      5  C   UNL     1     -16.536 -23.497   2.169  1.00  0.00     0.048 A 
ATOM      6  O   UNL     1     -18.303 -23.930   3.420  1.00  0.00    -0.467 OA
ENDBRANCH   1   2
BRANCH   1   7
ATOM      7  O   UNL     1     -16.526 -20.824   3.061  1.00  0.00    -0.388 OA
ATOM      8  H   UNL     1     -15.571 -21.039   3.231  1.00  0.00     0.211 HD
ENDBRANCH   1   7
TORSDOF 2
ENDMDL
