MODEL 1
REMARK VINA RESULT:    -3.692      0.000      0.000
REMARK INTER + INTRA:          -4.266
REMARK INTER:                  -4.015
REMARK INTRA:                  -0.251
REMARK UNBOUND:                -0.251
REMARK SMILES O=C([O-])c1ccccc1O
REMARK SMILES IDX 4 1 9 2 5 3 8 4 6 5 7 6 2 7 1 8 3 9 10 10
REMARK H PARENT 10 11
REMARK Flexibility Score: inf
ROOT
ATOM      1  C   UNL     1       4.490   2.451 -17.735  1.00  0.00     0.039 A 
ATOM      2  C   UNL     1       4.134   1.391 -16.866  1.00  0.00     0.124 A 
ATOM      3  C   UNL     1       5.732   3.092 -17.548  1.00  0.00     0.014 A 
ATOM      4  C   UNL     1       5.011   0.999 -15.844  1.00  0.00     0.047 A 
ATOM      5  C   UNL     1       6.595   2.691 -16.525  1.00  0.00     0.001 A 
ATOM      6  C   UNL     1       6.236   1.646 -15.675  1.00  0.00     0.004 A 
ENDROOT
BRANCH   1   7
ATOM      7  C   UNL     1       3.593   2.898 -18.830  1.00  0.00     0.075 C 
ATOM      8  O   UNL     1       3.468   4.124 -19.089  1.00  0.00    -0.545 OA
ATOM      9  O   UNL     1       2.875   1.982 -19.590  1.00  0.00    -0.545 OA
ENDBRANCH   1   7
BRANCH   2  10
ATOM     10  O   UNL     1       2.916   0.726 -17.013  1.00  0.00    -0.507 OA
ATOM     11  H   UNL     1       2.871  -0.260 -17.241  1.00  0.00     0.293 HD
ENDBRANCH   2  10
TORSDOF 2
ENDMDL
MODEL 2
REMARK VINA RESULT:    -3.642      1.084      2.155
REMARK INTER + INTRA:          -4.213
REMARK INTER:                  -3.970
REMARK INTRA:                  -0.243
REMARK UNBOUND:                -0.251
REMARK SMILES O=C([O-])c1ccccc1O
REMARK SMILES IDX 4 1 9 2 5 3 8 4 6 5 7 6 2 7 1 8 3 9 10 10
REMARK H PARENT 10 11
REMARK Flexibility Score: inf
ROOT
ATOM      1  C   UNL     1       4.343   2.217 -17.634  1.00  0.00     0.039 A 
ATOM      2  C   UNL     1       5.648   2.630 -17.272  1.00  0.00     0.124 A 
ATOM      3  C   UNL     1       3.710   1.219 -16.865  1.00  0.00     0.014 A 
ATOM      4  C   UNL     1       6.286   2.045 -16.167  1.00  0.00     0.047 A 
ATOM      5  C   UNL     1       4.358   0.646 -15.768  1.00  0.00     0.001 A 
ATOM      6  C   UNL     1       5.643   1.058 -15.419  1.00  0.00     0.004 A 
ENDROOT
BRANCH   1   7
ATOM      7  C   UNL     1       3.630   2.809 -18.795  1.00  0.00     0.075 C 
ATOM      8  O   UNL     1       3.700   4.047 -19.020  1.00  0.00    -0.545 OA
ATOM      9  O   UNL     1       2.876   2.019 -19.653  1.00  0.00    -0.545 OA
ENDBRANCH   1   7
BRANCH   2  10
ATOM     10  O   UNL     1       6.314   3.615 -18.002  1.00  0.00    -0.507 OA
ATOM     11  H   UNL     1       6.905   4.304 -17.552  1.00  0.00     0.293 HD
ENDBRANCH   2  10
TORSDOF 2
ENDMDL
MODEL 3
REMARK VINA RESULT:    -3.637      1.689      2.742
REMARK INTER + INTRA:          -4.207
REMARK INTER:                  -3.957
REMARK INTRA:                  -0.249
REMARK UNBOUND:                -0.251
REMARK SMILES O=C([O-])c1ccccc1O
REMARK SMILES IDX 4 1 9 2 5 3 8 4 6 5 7 6 2 7 1 8 3 9 10 10
REMARK H PARENT 10 11
REMARK Flexibility Score: inf
ROOT
ATOM      1  C   UNL     1       4.890   2.305 -16.466  1.00  0.00     0.039 A 
ATOM      2  C   UNL     1       5.960   3.184 -16.758  1.00  0.00     0.124 A 
ATOM      3  C   UNL     1       4.577   2.043 -15.116  1.00  0.00     0.014 A 
ATOM      4  C   UNL     1       6.687   3.774 -15.712  1.00  0.00     0.047 A 
ATOM      5  C   UNL     1       5.309   2.637 -14.086  1.00  0.00     0.001 A 
ATOM      6  C   UNL     1       6.361   3.501 -14.383  1.00  0.00     0.004 A 
ENDROOT
BRANCH   1   7
ATOM      7  C   UNL     1       4.094   1.658 -17.541  1.00  0.00     0.075 C 
ATOM      8  O   UNL     1       3.681   2.334 -18.520  1.00  0.00    -0.545 OA
ATOM      9  O   UNL     1       3.788   0.304 -17.493  1.00  0.00    -0.545 OA
ENDBRANCH   1   7
BRANCH   2  10
ATOM     10  O   UNL     1       6.307   3.473 -18.078  1.00  0.00    -0.507 OA
ATOM     11  H   UNL     1       6.890   4.267 -18.313  1.00  0.00     0.293 HD
ENDBRANCH   2  10
TORSDOF 2
ENDMDL
MODEL 4
REMARK VINA RESULT:    -3.590      2.086      3.456
REMARK INTER + INTRA:          -4.155
REMARK INTER:                  -3.908
REMARK INTRA:                  -0.247
REMARK UNBOUND:                -0.251
REMARK SMILES O=C([O-])c1ccccc1O
REMARK SMILES IDX 4 1 9 2 5 3 8 4 6 5 7 6 2 7 1 8 3 9 10 10
REMARK H PARENT 10 11
REMARK Flexibility Score: inf
ROOT
ATOM      1  C   UNL     1       4.788   2.274 -17.416  1.00  0.00     0.039 A 
ATOM      2  C   UNL     1       3.979   1.131 -17.626  1.00  0.00     0.124 A 
ATOM      3  C   UNL     1       4.615   3.390 -18.260  1.00  0.00     0.014 A 
ATOM      4  C   UNL     1       3.031   1.125 -18.660  1.00  0.00     0.047 A 
ATOM      5  C   UNL     1       3.667   3.369 -19.286  1.00  0.00     0.001 A 
ATOM      6  C   UNL     1       2.877   2.239 -19.486  1.00  0.00     0.004 A 
ENDROOT
BRANCH   1   7
ATOM      7  C   UNL     1       5.803   2.325 -16.333  1.00  0.00     0.075 C 
ATOM      8  O   UNL     1       7.001   2.614 -16.598  1.00  0.00    -0.545 OA
ATOM      9  O   UNL     1       5.460   2.057 -15.014  1.00  0.00    -0.545 OA
ENDBRANCH   1   7
BRANCH   2  10
ATOM     10  O   UNL     1       4.114   0.003 -16.816  1.00  0.00    -0.507 OA
ATOM     11  H   UNL     1       3.888   0.027 -15.829  1.00  0.00     0.293 HD
ENDBRANCH   2  10
TORSDOF 2
ENDMDL
MODEL 5
REMARK VINA RESULT:    -3.552      1.123      2.340
REMARK INTER + INTRA:          -4.114
REMARK INTER:                  -3.906
REMARK INTRA:                  -0.207
REMARK UNBOUND:                -0.251
REMARK SMILES O=C([O-])c1ccccc1O
REMARK SMILES IDX 4 1 9 2 5 3 8 4 6 5 7 6 2 7 1 8 3 9 10 10
REMARK H PARENT 10 11
REMARK Flexibility Score: inf
ROOT
ATOM      1  C   UNL     1       4.330   1.529 -17.348  1.00  0.00     0.039 A 
ATOM      2  C   UNL     1       5.173   2.646 -17.562  1.00  0.00     0.124 A 
ATOM      3  C   UNL     1       4.440   0.820 -16.134  1.00  0.00     0.014 A 
ATOM      4  C   UNL     1       6.096   3.026 -16.576  1.00  0.00     0.047 A 
ATOM      5  C   UNL     1       5.363   1.210 -15.161  1.00  0.00     0.001 A 
ATOM      6  C   UNL     1       6.190   2.311 -15.381  1.00  0.00     0.004 A 
ENDROOT
BRANCH   1   7
ATOM      7  C   UNL     1       3.339   1.092 -18.364  1.00  0.00     0.075 C 
ATOM      8  O   UNL     1       2.875   1.916 -19.196  1.00  0.00    -0.545 OA
ATOM      9  O   UNL     1       2.903  -0.227 -18.421  1.00  0.00    -0.545 OA
ENDBRANCH   1   7
BRANCH   2  10
ATOM     10  O   UNL     1       5.101   3.378 -18.748  1.00  0.00    -0.507 OA
ATOM     11  H   UNL     1       4.236   3.805 -19.057  1.00  0.00     0.293 HD
ENDBRANCH   2  10
TORSDOF 2
ENDMDL
MODEL 6
REMARK VINA RESULT:    -3.379      2.450      4.232
REMARK INTER + INTRA:          -3.926
REMARK INTER:                  -3.681
REMARK INTRA:                  -0.245
REMARK UNBOUND:                -0.251
REMARK SMILES O=C([O-])c1ccccc1O
REMARK SMILES IDX 4 1 9 2 5 3 8 4 6 5 7 6 2 7 1 8 3 9 10 10
REMARK H PARENT 10 11
REMARK Flexibility Score: inf
ROOT
ATOM      1  C   UNL     1       4.800   2.210 -16.231  1.00  0.00     0.039 A 
ATOM      2  C   UNL     1       5.488   3.009 -17.175  1.00  0.00     0.124 A 
ATOM      3  C   UNL     1       3.487   1.790 -16.528  1.00  0.00     0.014 A 
ATOM      4  C   UNL     1       4.861   3.369 -18.378  1.00  0.00     0.047 A 
ATOM      5  C   UNL     1       2.875   2.157 -17.729  1.00  0.00     0.001 A 
ATOM      6  C   UNL     1       3.561   2.944 -18.653  1.00  0.00     0.004 A 
ENDROOT
BRANCH   1   7
ATOM      7  C   UNL     1       5.425   1.805 -14.946  1.00  0.00     0.075 C 
ATOM      8  O   UNL     1       5.495   0.588 -14.629  1.00  0.00    -0.545 OA
ATOM      9  O   UNL     1       5.943   2.751 -14.070  1.00  0.00    -0.545 OA
ENDBRANCH   1   7
BRANCH   2  10
ATOM     10  O   UNL     1       6.789   3.448 -16.925  1.00  0.00    -0.507 OA
ATOM     11  H   UNL     1       7.533   2.801 -16.692  1.00  0.00     0.293 HD
ENDBRANCH   2  10
TORSDOF 2
ENDMDL
MODEL 7
REMARK VINA RESULT:    -3.250      2.328      3.744
REMARK INTER + INTRA:          -3.786
REMARK INTER:                  -3.548
REMARK INTRA:                  -0.238
REMARK UNBOUND:                -0.251
REMARK SMILES O=C([O-])c1ccccc1O
REMARK SMILES IDX 4 1 9 2 5 3 8 4 6 5 7 6 2 7 1 8 3 9 10 10
REMARK H PARENT 10 11
REMARK Flexibility Score: inf
ROOT
ATOM      1  C   UNL     1       4.969   2.215 -16.472  1.00  0.00     0.039 A 
ATOM      2  C   UNL     1       4.541   2.496 -17.791  1.00  0.00     0.124 A 
ATOM      3  C   UNL     1       4.413   1.107 -15.801  1.00  0.00     0.014 A 
ATOM      4  C   UNL     1       3.579   1.678 -18.405  1.00  0.00     0.047 A 
ATOM      5  C   UNL     1       3.456   0.302 -16.424  1.00  0.00     0.001 A 
ATOM      6  C   UNL     1       3.040   0.587 -17.723  1.00  0.00     0.004 A 
ENDROOT
BRANCH   1   7
ATOM      7  C   UNL     1       5.984   3.053 -15.784  1.00  0.00     0.075 C 
ATOM      8  O   UNL     1       6.959   3.526 -16.427  1.00  0.00    -0.545 OA
ATOM      9  O   UNL     1       5.884   3.334 -14.427  1.00  0.00    -0.545 OA
ENDBRANCH   1   7
BRANCH   2  10
ATOM     10  O   UNL     1       5.063   3.582 -18.495  1.00  0.00    -0.507 OA
ATOM     11  H   UNL     1       4.973   3.657 -19.502  1.00  0.00     0.293 HD
ENDBRANCH   2  10
TORSDOF 2
ENDMDL
MODEL 8
REMARK VINA RESULT:    -2.548      2.391      3.914
REMARK INTER + INTRA:          -3.023
REMARK INTER:                  -2.868
REMARK INTRA:                  -0.154
REMARK UNBOUND:                -0.251
REMARK SMILES O=C([O-])c1ccccc1O
REMARK SMILES IDX 4 1 9 2 5 3 8 4 6 5 7 6 2 7 1 8 3 9 10 10
REMARK H PARENT 10 11
REMARK Flexibility Score: inf
ROOT
ATOM      1  C   UNL     1       4.140   1.776 -16.980  1.00  0.00     0.039 A 
ATOM      2  C   UNL     1       4.045   3.106 -16.503  1.00  0.00     0.124 A 
ATOM      3  C   UNL     1       3.592   1.469 -18.242  1.00  0.00     0.014 A 
ATOM      4  C   UNL     1       3.415   4.086 -17.283  1.00  0.00     0.047 A 
ATOM      5  C   UNL     1       2.966   2.456 -19.008  1.00  0.00     0.001 A 
ATOM      6  C   UNL     1       2.878   3.762 -18.530  1.00  0.00     0.004 A 
ENDROOT
BRANCH   1   7
ATOM      7  C   UNL     1       4.799   0.706 -16.188  1.00  0.00     0.075 C 
ATOM      8  O   UNL     1       5.092  -0.394 -16.725  1.00  0.00    -0.545 OA
ATOM      9  O   UNL     1       5.105   0.892 -14.845  1.00  0.00    -0.545 OA
ENDBRANCH   1   7
BRANCH   2  10
ATOM     10  O   UNL     1       4.573   3.457 -15.260  1.00  0.00    -0.507 OA
ATOM     11  H   UNL     1       4.503   2.841 -14.459  1.00  0.00     0.293 HD
ENDBRANCH   2  10
TORSDOF 2
ENDMDL
MODEL 9
REMARK VINA RESULT:    -2.501      2.288      3.400
REMARK INTER + INTRA:          -2.971
REMARK INTER:                  -2.889
REMARK INTRA:                  -0.082
REMARK UNBOUND:                -0.251
REMARK SMILES O=C([O-])c1ccccc1O
REMARK SMILES IDX 4 1 9 2 5 3 8 4 6 5 7 6 2 7 1 8 3 9 10 10
REMARK H PARENT 10 11
REMARK Flexibility Score: inf
ROOT
ATOM      1  C   UNL     1       3.072   0.813 -19.064  1.00  0.00     0.039 A 
ATOM      2  C   UNL     1       3.105   2.222 -18.932  1.00  0.00     0.124 A 
ATOM      3  C   UNL     1       3.170   0.021 -17.902  1.00  0.00     0.014 A 
ATOM      4  C   UNL     1       3.234   2.804 -17.661  1.00  0.00     0.047 A 
ATOM      5  C   UNL     1       3.298   0.614 -16.643  1.00  0.00     0.001 A 
ATOM      6  C   UNL     1       3.329   2.002 -16.523  1.00  0.00     0.004 A 
ENDROOT
BRANCH   1   7
ATOM      7  C   UNL     1       2.937   0.156 -20.389  1.00  0.00     0.075 C 
ATOM      8  O   UNL     1       2.875   0.848 -21.439  1.00  0.00    -0.545 OA
ATOM      9  O   UNL     1       2.876  -1.228 -20.501  1.00  0.00    -0.545 OA
ENDBRANCH   1   7
BRANCH   2  10
ATOM     10  O   UNL     1       3.012   3.047 -20.054  1.00  0.00    -0.507 OA
ATOM     11  H   UNL     1       3.824   3.513 -20.441  1.00  0.00     0.293 HD
ENDBRANCH   2  10
TORSDOF 2
ENDMDL
