MODEL 1
REMARK VINA RESULT:    -3.299      0.000      0.000
REMARK INTER + INTRA:          -3.692
REMARK INTER:                  -3.685
REMARK INTRA:                  -0.007
REMARK UNBOUND:                -0.007
REMARK SMILES CCCC(=O)[O-]
REMARK SMILES IDX 3 1 4 2 5 3 6 4 2 5 1 6
REMARK H PARENT
REMARK Flexibility Score: inf
ROOT
ATOM      1  C   UNL     1     -98.999 -60.121 -66.266  1.00  0.00     0.052 C 
ENDROOT
BRANCH   1   2
ATOM      2  C   UNL     1    -100.439 -60.347 -66.604  1.00  0.00     0.041 C 
ATOM      3  O   UNL     1    -100.756 -61.119 -67.546  1.00  0.00    -0.550 OA
ATOM      4  O   UNL     1    -101.433 -59.742 -65.844  1.00  0.00    -0.550 OA
ENDBRANCH   1   2
BRANCH   1   5
ATOM      5  C   UNL     1     -98.465 -58.884 -66.995  1.00  0.00     0.003 C 
ATOM      6  C   UNL     1     -97.310 -58.250 -66.228  1.00  0.00     0.004 C 
ENDBRANCH   1   5
TORSDOF 2
ENDMDL
MODEL 2
REMARK VINA RESULT:    -3.237      2.550      3.388
REMARK INTER + INTRA:          -3.623
REMARK INTER:                  -3.588
REMARK INTRA:                  -0.035
REMARK UNBOUND:                -0.007
REMARK SMILES CCCC(=O)[O-]
REMARK SMILES IDX 3 1 4 2 5 3 6 4 2 5 1 6
REMARK H PARENT
REMARK Flexibility Score: inf
ROOT
ATOM      1  C   UNL     1     -99.432 -59.321 -66.736  1.00  0.00     0.052 C 
ENDROOT
BRANCH   1   2
ATOM      2  C   UNL     1     -98.031 -58.815 -66.868  1.00  0.00     0.041 C 
ATOM      3  O   UNL     1     -97.376 -59.029 -67.922  1.00  0.00    -0.550 OA
ATOM      4  O   UNL     1     -97.465 -58.063 -65.846  1.00  0.00    -0.550 OA
ENDBRANCH   1   2
BRANCH   1   5
ATOM      5  C   UNL     1     -99.435 -60.754 -66.194  1.00  0.00     0.003 C 
ATOM      6  C   UNL     1     -99.909 -61.742 -67.256  1.00  0.00     0.004 C 
ENDBRANCH   1   5
TORSDOF 2
ENDMDL
MODEL 3
REMARK VINA RESULT:    -3.215      2.405      3.323
REMARK INTER + INTRA:          -3.597
REMARK INTER:                  -3.592
REMARK INTRA:                  -0.005
REMARK UNBOUND:                -0.007
REMARK SMILES CCCC(=O)[O-]
REMARK SMILES IDX 3 1 4 2 5 3 6 4 2 5 1 6
REMARK H PARENT
REMARK Flexibility Score: inf
ROOT
ATOM      1  C   UNL     1     -99.608 -61.945 -65.894  1.00  0.00     0.052 C 
ENDROOT
BRANCH   1   2
ATOM      2  C   UNL     1     -99.916 -60.545 -66.321  1.00  0.00     0.041 C 
ATOM      3  O   UNL     1    -101.108 -60.140 -66.356  1.00  0.00    -0.550 OA
ATOM      4  O   UNL     1     -98.882 -59.671 -66.634  1.00  0.00    -0.550 OA
ENDBRANCH   1   2
BRANCH   1   5
ATOM      5  C   UNL     1     -99.372 -62.004 -64.382  1.00  0.00     0.003 C 
ATOM      6  C   UNL     1     -99.037 -63.423 -63.932  1.00  0.00     0.004 C 
ENDBRANCH   1   5
TORSDOF 2
ENDMDL
MODEL 4
REMARK VINA RESULT:    -3.074      3.024      3.513
REMARK INTER + INTRA:          -3.440
REMARK INTER:                  -3.404
REMARK INTRA:                  -0.036
REMARK UNBOUND:                -0.007
REMARK SMILES CCCC(=O)[O-]
REMARK SMILES IDX 3 1 4 2 5 3 6 4 2 5 1 6
REMARK H PARENT
REMARK Flexibility Score: inf
ROOT
ATOM      1  C   UNL     1     -99.590 -62.140 -65.911  1.00  0.00     0.052 C 
ENDROOT
BRANCH   1   2
ATOM      2  C   UNL     1     -99.157 -62.322 -64.491  1.00  0.00     0.041 C 
ATOM      3  O   UNL     1     -99.748 -63.150 -63.749  1.00  0.00    -0.550 OA
ATOM      4  O   UNL     1     -98.067 -61.612 -64.001  1.00  0.00    -0.550 OA
ENDBRANCH   1   2
BRANCH   1   5
ATOM      5  C   UNL     1     -99.587 -60.655 -66.286  1.00  0.00     0.003 C 
ATOM      6  C   UNL     1    -100.986 -60.056 -66.168  1.00  0.00     0.004 C 
ENDBRANCH   1   5
TORSDOF 2
ENDMDL
MODEL 5
REMARK VINA RESULT:    -3.044      1.449      1.861
REMARK INTER + INTRA:          -3.407
REMARK INTER:                  -3.371
REMARK INTRA:                  -0.036
REMARK UNBOUND:                -0.007
REMARK SMILES CCCC(=O)[O-]
REMARK SMILES IDX 3 1 4 2 5 3 6 4 2 5 1 6
REMARK H PARENT
REMARK Flexibility Score: inf
ROOT
ATOM      1  C   UNL     1     -99.846 -59.671 -66.676  1.00  0.00     0.052 C 
ENDROOT
BRANCH   1   2
ATOM      2  C   UNL     1     -99.876 -61.162 -66.562  1.00  0.00     0.041 C 
ATOM      3  O   UNL     1     -99.708 -61.716 -65.444  1.00  0.00    -0.550 OA
ATOM      4  O   UNL     1    -100.138 -61.940 -67.683  1.00  0.00    -0.550 OA
ENDBRANCH   1   2
BRANCH   1   5
ATOM      5  C   UNL     1     -98.449 -59.136 -66.349  1.00  0.00     0.003 C 
ATOM      6  C   UNL     1     -97.645 -58.882 -67.621  1.00  0.00     0.004 C 
ENDBRANCH   1   5
TORSDOF 2
ENDMDL
MODEL 6
REMARK VINA RESULT:    -2.709      2.075      2.994
REMARK INTER + INTRA:          -3.032
REMARK INTER:                  -3.017
REMARK INTRA:                  -0.016
REMARK UNBOUND:                -0.007
REMARK SMILES CCCC(=O)[O-]
REMARK SMILES IDX 3 1 4 2 5 3 6 4 2 5 1 6
REMARK H PARENT
REMARK Flexibility Score: inf
ROOT
ATOM      1  C   UNL     1     -99.991 -61.561 -66.406  1.00  0.00     0.052 C 
ENDROOT
BRANCH   1   2
ATOM      2  C   UNL     1    -100.390 -60.119 -66.371  1.00  0.00     0.041 C 
ATOM      3  O   UNL     1     -99.659 -59.246 -66.908  1.00  0.00    -0.550 OA
ATOM      4  O   UNL     1    -101.594 -59.746 -65.787  1.00  0.00    -0.550 OA
ENDBRANCH   1   2
BRANCH   1   5
ATOM      5  C   UNL     1     -99.296 -61.893 -67.729  1.00  0.00     0.003 C 
ATOM      6  C   UNL     1     -99.965 -63.077 -68.421  1.00  0.00     0.004 C 
ENDBRANCH   1   5
TORSDOF 2
ENDMDL
MODEL 7
REMARK VINA RESULT:    -2.564      5.879      6.523
REMARK INTER + INTRA:          -2.870
REMARK INTER:                  -2.821
REMARK INTRA:                  -0.048
REMARK UNBOUND:                -0.007
REMARK SMILES CCCC(=O)[O-]
REMARK SMILES IDX 3 1 4 2 5 3 6 4 2 5 1 6
REMARK H PARENT
REMARK Flexibility Score: inf
ROOT
ATOM      1  C   UNL     1     -94.456 -61.112 -71.232  1.00  0.00     0.052 C 
ENDROOT
BRANCH   1   2
ATOM      2  C   UNL     1     -95.918 -61.026 -70.924  1.00  0.00     0.041 C 
ATOM      3  O   UNL     1     -96.311 -60.470 -69.865  1.00  0.00    -0.550 OA
ATOM      4  O   UNL     1     -96.849 -61.516 -71.832  1.00  0.00    -0.550 OA
ENDBRANCH   1   2
BRANCH   1   5
ATOM      5  C   UNL     1     -93.654 -61.371 -69.953  1.00  0.00     0.003 C 
ATOM      6  C   UNL     1     -93.661 -62.853 -69.591  1.00  0.00     0.004 C 
ENDBRANCH   1   5
TORSDOF 2
ENDMDL
MODEL 8
REMARK VINA RESULT:    -2.537     11.004     11.547
REMARK INTER + INTRA:          -2.840
REMARK INTER:                  -2.768
REMARK INTRA:                  -0.072
REMARK UNBOUND:                -0.007
REMARK SMILES CCCC(=O)[O-]
REMARK SMILES IDX 3 1 4 2 5 3 6 4 2 5 1 6
REMARK H PARENT
REMARK Flexibility Score: inf
ROOT
ATOM      1  C   UNL     1    -101.909 -57.947 -55.611  1.00  0.00     0.052 C 
ENDROOT
BRANCH   1   2
ATOM      2  C   UNL     1    -101.284 -56.673 -55.137  1.00  0.00     0.041 C 
ATOM      3  O   UNL     1    -100.033 -56.581 -55.034  1.00  0.00    -0.550 OA
ATOM      4  O   UNL     1    -102.082 -55.571 -54.855  1.00  0.00    -0.550 OA
ENDBRANCH   1   2
BRANCH   1   5
ATOM      5  C   UNL     1    -102.751 -57.695 -56.866  1.00  0.00     0.003 C 
ATOM      6  C   UNL     1    -101.877 -57.251 -58.035  1.00  0.00     0.004 C 
ENDBRANCH   1   5
TORSDOF 2
ENDMDL
MODEL 9
REMARK VINA RESULT:    -2.536      6.768      7.330
REMARK INTER + INTRA:          -2.839
REMARK INTER:                  -2.809
REMARK INTRA:                  -0.030
REMARK UNBOUND:                -0.007
REMARK SMILES CCCC(=O)[O-]
REMARK SMILES IDX 3 1 4 2 5 3 6 4 2 5 1 6
REMARK H PARENT
REMARK Flexibility Score: inf
ROOT
ATOM      1  C   UNL     1     -95.773 -62.673 -70.741  1.00  0.00     0.052 C 
ENDROOT
BRANCH   1   2
ATOM      2  C   UNL     1     -95.279 -61.272 -70.561  1.00  0.00     0.041 C 
ATOM      3  O   UNL     1     -94.256 -61.044 -69.863  1.00  0.00    -0.550 OA
ATOM      4  O   UNL     1     -95.922 -60.221 -71.204  1.00  0.00    -0.550 OA
ENDBRANCH   1   2
BRANCH   1   5
ATOM      5  C   UNL     1     -94.732 -63.515 -71.484  1.00  0.00     0.003 C 
ATOM      6  C   UNL     1     -95.140 -63.737 -72.938  1.00  0.00     0.004 C 
ENDBRANCH   1   5
TORSDOF 2
ENDMDL
