MODEL 1
REMARK VINA RESULT:    -4.348      0.000      0.000
REMARK INTER + INTRA:          -4.818
REMARK INTER:                  -4.729
REMARK INTRA:                  -0.089
REMARK UNBOUND:                -0.089
REMARK SMILES C=C(C)[C@H]1CC[C@H](C)[C@@H](O)C1
REMARK SMILES IDX 8 1 7 2 6 3 5 4 4 5 11 6 9 7 10 8 2 10 1 11 3 12
REMARK H PARENT 10 9
REMARK Flexibility Score: inf
ROOT
ATOM      1  C   UNL     1     140.421 140.202 142.797  1.00  0.00     0.010 C 
ATOM      2  C   UNL     1     140.187 141.224 143.918  1.00  0.00     0.015 C 
ATOM      3  C   UNL     1     138.696 141.612 143.975  1.00  0.00     0.006 C 
ATOM      4  C   UNL     1     138.427 142.621 145.098  1.00  0.00     0.008 C 
ATOM      5  C   UNL     1     138.890 142.062 146.456  1.00  0.00     0.017 C 
ATOM      6  C   UNL     1     140.382 141.681 146.408  1.00  0.00     0.040 C 
ATOM      7  C   UNL     1     140.661 140.668 145.283  1.00  0.00     0.117 C 
ENDROOT
BRANCH   7   8
ATOM      8  O   UNL     1     142.039 140.401 145.228  1.00  0.00    -0.393 OA
ATOM      9  H   UNL     1     142.490 141.120 145.742  1.00  0.00     0.210 HD
ENDBRANCH   7   8
BRANCH   5  10
ATOM     10  C   UNL     1     138.609 143.048 147.582  1.00  0.00    -0.077 C 
ATOM     11  C   UNL     1     137.429 143.022 148.222  1.00  0.00     0.008 C 
ATOM     12  C   UNL     1     139.635 144.070 148.006  1.00  0.00     0.039 C 
ENDBRANCH   5  10
TORSDOF 2
ENDMDL
MODEL 2
REMARK VINA RESULT:    -4.268      1.589      3.773
REMARK INTER + INTRA:          -4.732
REMARK INTER:                  -4.642
REMARK INTRA:                  -0.090
REMARK UNBOUND:                -0.089
REMARK SMILES C=C(C)[C@H]1CC[C@H](C)[C@@H](O)C1
REMARK SMILES IDX 8 1 7 2 6 3 5 4 4 5 11 6 9 7 10 8 2 10 1 11 3 12
REMARK H PARENT 10 9
REMARK Flexibility Score: inf
ROOT
ATOM      1  C   UNL     1     140.038 141.580 148.779  1.00  0.00     0.010 C 
ATOM      2  C   UNL     1     139.235 141.623 147.472  1.00  0.00     0.015 C 
ATOM      3  C   UNL     1     138.140 142.705 147.561  1.00  0.00     0.006 C 
ATOM      4  C   UNL     1     137.329 142.784 146.262  1.00  0.00     0.008 C 
ATOM      5  C   UNL     1     138.252 143.049 145.058  1.00  0.00     0.017 C 
ATOM      6  C   UNL     1     139.342 141.965 144.958  1.00  0.00     0.040 C 
ATOM      7  C   UNL     1     140.161 141.879 146.259  1.00  0.00     0.117 C 
ENDROOT
BRANCH   7   8
ATOM      8  O   UNL     1     141.095 140.836 146.152  1.00  0.00    -0.393 OA
ATOM      9  H   UNL     1     140.776 140.238 145.427  1.00  0.00     0.210 HD
ENDBRANCH   7   8
BRANCH   5  10
ATOM     10  C   UNL     1     137.455 143.149 143.765  1.00  0.00    -0.077 C 
ATOM     11  C   UNL     1     136.765 144.266 143.483  1.00  0.00     0.008 C 
ATOM     12  C   UNL     1     137.416 142.010 142.775  1.00  0.00     0.039 C 
ENDBRANCH   5  10
TORSDOF 2
ENDMDL
MODEL 3
REMARK VINA RESULT:    -4.246      2.031      4.318
REMARK INTER + INTRA:          -4.708
REMARK INTER:                  -4.615
REMARK INTRA:                  -0.093
REMARK UNBOUND:                -0.089
REMARK SMILES C=C(C)[C@H]1CC[C@H](C)[C@@H](O)C1
REMARK SMILES IDX 8 1 7 2 6 3 5 4 4 5 11 6 9 7 10 8 2 10 1 11 3 12
REMARK H PARENT 10 9
REMARK Flexibility Score: inf
ROOT
ATOM      1  C   UNL     1     140.026 144.529 148.286  1.00  0.00     0.010 C 
ATOM      2  C   UNL     1     140.103 143.082 147.781  1.00  0.00     0.015 C 
ATOM      3  C   UNL     1     138.951 142.252 148.381  1.00  0.00     0.006 C 
ATOM      4  C   UNL     1     138.990 140.803 147.882  1.00  0.00     0.008 C 
ATOM      5  C   UNL     1     138.945 140.754 146.344  1.00  0.00     0.017 C 
ATOM      6  C   UNL     1     140.101 141.574 145.739  1.00  0.00     0.040 C 
ATOM      7  C   UNL     1     140.068 143.031 146.235  1.00  0.00     0.117 C 
ENDROOT
BRANCH   7   8
ATOM      8  O   UNL     1     141.174 143.723 145.716  1.00  0.00    -0.393 OA
ATOM      9  H   UNL     1     141.662 144.105 146.492  1.00  0.00     0.210 HD
ENDBRANCH   7   8
BRANCH   5  10
ATOM     10  C   UNL     1     138.963 139.318 145.838  1.00  0.00    -0.077 C 
ATOM     11  C   UNL     1     138.879 139.066 144.522  1.00  0.00     0.008 C 
ATOM     12  C   UNL     1     139.076 138.151 146.789  1.00  0.00     0.039 C 
ENDBRANCH   5  10
TORSDOF 2
ENDMDL
MODEL 4
REMARK VINA RESULT:    -4.213      1.792      2.199
REMARK INTER + INTRA:          -4.672
REMARK INTER:                  -4.579
REMARK INTRA:                  -0.093
REMARK UNBOUND:                -0.089
REMARK SMILES C=C(C)[C@H]1CC[C@H](C)[C@@H](O)C1
REMARK SMILES IDX 8 1 7 2 6 3 5 4 4 5 11 6 9 7 10 8 2 10 1 11 3 12
REMARK H PARENT 10 9
REMARK Flexibility Score: inf
ROOT
ATOM      1  C   UNL     1     140.970 138.382 144.853  1.00  0.00     0.010 C 
ATOM      2  C   UNL     1     140.678 139.513 145.848  1.00  0.00     0.015 C 
ATOM      3  C   UNL     1     140.768 140.878 145.137  1.00  0.00     0.006 C 
ATOM      4  C   UNL     1     140.464 142.030 146.102  1.00  0.00     0.008 C 
ATOM      5  C   UNL     1     139.078 141.849 146.747  1.00  0.00     0.017 C 
ATOM      6  C   UNL     1     138.985 140.491 147.469  1.00  0.00     0.040 C 
ATOM      7  C   UNL     1     139.289 139.329 146.506  1.00  0.00     0.117 C 
ENDROOT
BRANCH   7   8
ATOM      8  O   UNL     1     139.262 138.118 147.216  1.00  0.00    -0.393 OA
ATOM      9  H   UNL     1     139.729 138.280 148.077  1.00  0.00     0.210 HD
ENDBRANCH   7   8
BRANCH   5  10
ATOM     10  C   UNL     1     138.757 142.999 147.693  1.00  0.00    -0.077 C 
ATOM     11  C   UNL     1     137.546 143.081 148.267  1.00  0.00     0.008 C 
ATOM     12  C   UNL     1     139.778 144.065 148.009  1.00  0.00     0.039 C 
ENDBRANCH   5  10
TORSDOF 2
ENDMDL
MODEL 5
REMARK VINA RESULT:    -4.203      1.799      4.327
REMARK INTER + INTRA:          -4.661
REMARK INTER:                  -4.564
REMARK INTRA:                  -0.096
REMARK UNBOUND:                -0.089
REMARK SMILES C=C(C)[C@H]1CC[C@H](C)[C@@H](O)C1
REMARK SMILES IDX 8 1 7 2 6 3 5 4 4 5 11 6 9 7 10 8 2 10 1 11 3 12
REMARK H PARENT 10 9
REMARK Flexibility Score: inf
ROOT
ATOM      1  C   UNL     1     137.396 143.010 148.243  1.00  0.00     0.010 C 
ATOM      2  C   UNL     1     138.106 142.038 147.291  1.00  0.00     0.015 C 
ATOM      3  C   UNL     1     138.207 142.658 145.883  1.00  0.00     0.006 C 
ATOM      4  C   UNL     1     138.928 141.717 144.911  1.00  0.00     0.008 C 
ATOM      5  C   UNL     1     140.327 141.354 145.440  1.00  0.00     0.017 C 
ATOM      6  C   UNL     1     140.232 140.724 146.843  1.00  0.00     0.040 C 
ATOM      7  C   UNL     1     139.510 141.664 147.826  1.00  0.00     0.117 C 
ENDROOT
BRANCH   7   8
ATOM      8  O   UNL     1     139.383 141.026 149.071  1.00  0.00    -0.393 OA
ATOM      9  H   UNL     1     139.035 140.114 148.891  1.00  0.00     0.210 HD
ENDBRANCH   7   8
BRANCH   5  10
ATOM     10  C   UNL     1     141.060 140.435 144.472  1.00  0.00    -0.077 C 
ATOM     11  C   UNL     1     140.592 140.256 143.227  1.00  0.00     0.008 C 
ATOM     12  C   UNL     1     142.319 139.708 144.880  1.00  0.00     0.039 C 
ENDBRANCH   5  10
TORSDOF 2
ENDMDL
MODEL 6
REMARK VINA RESULT:    -4.184      1.973      2.463
REMARK INTER + INTRA:          -4.641
REMARK INTER:                  -4.544
REMARK INTRA:                  -0.097
REMARK UNBOUND:                -0.089
REMARK SMILES C=C(C)[C@H]1CC[C@H](C)[C@@H](O)C1
REMARK SMILES IDX 8 1 7 2 6 3 5 4 4 5 11 6 9 7 10 8 2 10 1 11 3 12
REMARK H PARENT 10 9
REMARK Flexibility Score: inf
ROOT
ATOM      1  C   UNL     1     139.399 138.099 144.466  1.00  0.00     0.010 C 
ATOM      2  C   UNL     1     138.891 139.257 145.335  1.00  0.00     0.015 C 
ATOM      3  C   UNL     1     139.688 139.315 146.654  1.00  0.00     0.006 C 
ATOM      4  C   UNL     1     139.215 140.474 147.539  1.00  0.00     0.008 C 
ATOM      5  C   UNL     1     139.320 141.813 146.786  1.00  0.00     0.017 C 
ATOM      6  C   UNL     1     138.516 141.764 145.472  1.00  0.00     0.040 C 
ATOM      7  C   UNL     1     138.986 140.603 144.577  1.00  0.00     0.117 C 
ENDROOT
BRANCH   7   8
ATOM      8  O   UNL     1     138.185 140.551 143.425  1.00  0.00    -0.393 OA
ATOM      9  H   UNL     1     137.279 140.272 143.718  1.00  0.00     0.210 HD
ENDBRANCH   7   8
BRANCH   5  10
ATOM     10  C   UNL     1     138.871 142.974 147.663  1.00  0.00    -0.077 C 
ATOM     11  C   UNL     1     137.612 143.020 148.129  1.00  0.00     0.008 C 
ATOM     12  C   UNL     1     139.815 144.093 148.029  1.00  0.00     0.039 C 
ENDBRANCH   5  10
TORSDOF 2
ENDMDL
MODEL 7
REMARK VINA RESULT:    -4.115      1.727      2.522
REMARK INTER + INTRA:          -4.565
REMARK INTER:                  -4.476
REMARK INTRA:                  -0.090
REMARK UNBOUND:                -0.089
REMARK SMILES C=C(C)[C@H]1CC[C@H](C)[C@@H](O)C1
REMARK SMILES IDX 8 1 7 2 6 3 5 4 4 5 11 6 9 7 10 8 2 10 1 11 3 12
REMARK H PARENT 10 9
REMARK Flexibility Score: inf
ROOT
ATOM      1  C   UNL     1     139.910 140.582 142.390  1.00  0.00     0.010 C 
ATOM      2  C   UNL     1     139.501 140.988 143.812  1.00  0.00     0.015 C 
ATOM      3  C   UNL     1     140.755 141.299 144.653  1.00  0.00     0.006 C 
ATOM      4  C   UNL     1     140.378 141.725 146.077  1.00  0.00     0.008 C 
ATOM      5  C   UNL     1     139.432 142.939 146.051  1.00  0.00     0.017 C 
ATOM      6  C   UNL     1     138.172 142.630 145.221  1.00  0.00     0.040 C 
ATOM      7  C   UNL     1     138.542 142.203 143.789  1.00  0.00     0.117 C 
ENDROOT
BRANCH   7   8
ATOM      8  O   UNL     1     137.373 141.864 143.088  1.00  0.00    -0.393 OA
ATOM      9  H   UNL     1     136.872 142.709 142.942  1.00  0.00     0.210 HD
ENDBRANCH   7   8
BRANCH   5  10
ATOM     10  C   UNL     1     139.067 143.383 147.462  1.00  0.00    -0.077 C 
ATOM     11  C   UNL     1     139.912 144.154 148.165  1.00  0.00     0.008 C 
ATOM     12  C   UNL     1     137.763 142.974 148.101  1.00  0.00     0.039 C 
ENDBRANCH   5  10
TORSDOF 2
ENDMDL
MODEL 8
REMARK VINA RESULT:    -3.901      1.868      4.593
REMARK INTER + INTRA:          -4.332
REMARK INTER:                  -4.242
REMARK INTRA:                  -0.090
REMARK UNBOUND:                -0.089
REMARK SMILES C=C(C)[C@H]1CC[C@H](C)[C@@H](O)C1
REMARK SMILES IDX 8 1 7 2 6 3 5 4 4 5 11 6 9 7 10 8 2 10 1 11 3 12
REMARK H PARENT 10 9
REMARK Flexibility Score: inf
ROOT
ATOM      1  C   UNL     1     138.109 143.005 148.036  1.00  0.00     0.010 C 
ATOM      2  C   UNL     1     139.270 142.231 147.397  1.00  0.00     0.015 C 
ATOM      3  C   UNL     1     138.888 140.746 147.236  1.00  0.00     0.006 C 
ATOM      4  C   UNL     1     140.022 139.947 146.584  1.00  0.00     0.008 C 
ATOM      5  C   UNL     1     140.405 140.555 145.222  1.00  0.00     0.017 C 
ATOM      6  C   UNL     1     140.798 142.037 145.378  1.00  0.00     0.040 C 
ATOM      7  C   UNL     1     139.663 142.846 146.032  1.00  0.00     0.117 C 
ENDROOT
BRANCH   7   8
ATOM      8  O   UNL     1     140.086 144.172 146.219  1.00  0.00    -0.393 OA
ATOM      9  H   UNL     1     139.290 144.689 146.508  1.00  0.00     0.210 HD
ENDBRANCH   7   8
BRANCH   5  10
ATOM     10  C   UNL     1     141.518 139.757 144.556  1.00  0.00    -0.077 C 
ATOM     11  C   UNL     1     141.430 139.433 143.256  1.00  0.00     0.008 C 
ATOM     12  C   UNL     1     142.736 139.313 145.328  1.00  0.00     0.039 C 
ENDBRANCH   5  10
TORSDOF 2
ENDMDL
MODEL 9
REMARK VINA RESULT:    -3.891      2.398      4.368
REMARK INTER + INTRA:          -4.322
REMARK INTER:                  -4.231
REMARK INTRA:                  -0.091
REMARK UNBOUND:                -0.089
REMARK SMILES C=C(C)[C@H]1CC[C@H](C)[C@@H](O)C1
REMARK SMILES IDX 8 1 7 2 6 3 5 4 4 5 11 6 9 7 10 8 2 10 1 11 3 12
REMARK H PARENT 10 9
REMARK Flexibility Score: inf
ROOT
ATOM      1  C   UNL     1     139.857 141.512 148.725  1.00  0.00     0.010 C 
ATOM      2  C   UNL     1     139.471 142.191 147.404  1.00  0.00     0.015 C 
ATOM      3  C   UNL     1     140.073 141.414 146.216  1.00  0.00     0.006 C 
ATOM      4  C   UNL     1     139.691 142.059 144.879  1.00  0.00     0.008 C 
ATOM      5  C   UNL     1     138.161 142.157 144.738  1.00  0.00     0.017 C 
ATOM      6  C   UNL     1     137.554 142.942 145.917  1.00  0.00     0.040 C 
ATOM      7  C   UNL     1     137.933 142.300 147.265  1.00  0.00     0.117 C 
ENDROOT
BRANCH   7   8
ATOM      8  O   UNL     1     137.421 143.082 148.313  1.00  0.00    -0.393 OA
ATOM      9  H   UNL     1     138.012 143.875 148.394  1.00  0.00     0.210 HD
ENDBRANCH   7   8
BRANCH   5  10
ATOM     10  C   UNL     1     137.769 142.778 143.404  1.00  0.00    -0.077 C 
ATOM     11  C   UNL     1     138.271 142.289 142.259  1.00  0.00     0.008 C 
ATOM     12  C   UNL     1     136.817 143.947 143.331  1.00  0.00     0.039 C 
ENDBRANCH   5  10
TORSDOF 2
ENDMDL
