MODEL 1
REMARK VINA RESULT:    -2.933      0.000      0.000
REMARK INTER + INTRA:          -3.019
REMARK INTER:                  -3.019
REMARK INTRA:                   0.000
REMARK UNBOUND:                 0.000
REMARK SMILES CC1(C)CC[C@]2(C)CC[C@@]3(C)C(=CC[C@H]4[C@]5(C)CC[C@@H](O)C(C)(C)[C@@H]5CC[C@@]43C)[C@@H]2C1
REMARK SMILES IDX 1 1 2 2 4 3 5 4 6 5 8 6 9 7 10 8 12 9 13 10 14 11 15 12
REMARK SMILES IDX 28 13 27 14 26 15 25 16 16 17 18 18 19 19 20 20 22 21 23 22
REMARK SMILES IDX 24 23 17 24 29 25 30 26 31 27 11 28 7 29 3 30 21 31
REMARK H PARENT 21 32
REMARK Flexibility Score: inf
ROOT
ATOM      1  C   UNL     1     136.126 128.405 133.290  1.00  0.00     0.011 C 
ATOM      2  C   UNL     1     135.832 127.689 134.628  1.00  0.00    -0.035 C 
ATOM      3  C   UNL     1     134.577 126.777 134.456  1.00  0.00     0.007 C 
ATOM      4  C   UNL     1     133.427 127.125 135.409  1.00  0.00     0.008 C 
ATOM      5  C   UNL     1     133.868 127.233 136.898  1.00  0.00    -0.026 C 
ATOM      6  C   UNL     1     132.615 127.686 137.692  1.00  0.00     0.008 C 
ATOM      7  C   UNL     1     132.922 127.938 139.168  1.00  0.00     0.012 C 
ATOM      8  C   UNL     1     134.003 129.059 139.409  1.00  0.00    -0.006 C 
ATOM      9  C   UNL     1     134.730 129.407 138.085  1.00  0.00    -0.064 C 
ATOM     10  C   UNL     1     135.268 130.648 137.922  1.00  0.00    -0.027 C 
ATOM     11  C   UNL     1     134.916 131.856 138.743  1.00  0.00     0.032 C 
ATOM     12  C   UNL     1     134.379 131.527 140.151  1.00  0.00     0.006 C 
ATOM     13  C   UNL     1     133.327 130.375 140.062  1.00  0.00    -0.020 C 
ATOM     14  C   UNL     1     132.869 130.095 141.515  1.00  0.00     0.008 C 
ATOM     15  C   UNL     1     132.122 131.265 142.127  1.00  0.00     0.005 C 
ATOM     16  C   UNL     1     132.940 132.588 142.201  1.00  0.00     0.003 C 
ATOM     17  C   UNL     1     134.035 132.827 141.042  1.00  0.00    -0.025 C 
ATOM     18  C   UNL     1     135.405 133.308 141.643  1.00  0.00     0.010 C 
ATOM     19  C   UNL     1     135.334 134.413 142.700  1.00  0.00     0.033 C 
ATOM     20  C   UNL     1     134.135 134.334 143.660  1.00  0.00     0.120 C 
ATOM     21  C   UNL     1     133.390 132.959 143.673  1.00  0.00    -0.006 C 
ATOM     22  C   UNL     1     134.266 131.851 144.320  1.00  0.00     0.014 C 
ATOM     23  C   UNL     1     132.151 133.138 144.606  1.00  0.00     0.014 C 
ATOM     24  C   UNL     1     133.538 134.015 140.151  1.00  0.00     0.012 C 
ATOM     25  C   UNL     1     132.112 130.821 139.182  1.00  0.00     0.012 C 
ATOM     26  C   UNL     1     135.066 128.258 137.085  1.00  0.00     0.022 C 
ATOM     27  C   UNL     1     135.614 128.778 135.717  1.00  0.00     0.015 C 
ATOM     28  C   UNL     1     135.094 128.426 140.329  1.00  0.00     0.017 C 
ATOM     29  C   UNL     1     134.280 125.816 137.392  1.00  0.00     0.012 C 
ATOM     30  C   UNL     1     137.074 126.836 134.980  1.00  0.00     0.011 C 
ENDROOT
BRANCH  20  31
ATOM     31  O   UNL     1     133.237 135.367 143.320  1.00  0.00    -0.393 OA
ATOM     32  H   UNL     1     132.647 135.031 142.596  1.00  0.00     0.210 HD
ENDBRANCH  20  31
TORSDOF 1
ENDMDL
MODEL 2
REMARK VINA RESULT:    -0.016      2.898      8.391
REMARK INTER + INTRA:          -0.017
REMARK INTER:                  -0.017
REMARK INTRA:                   0.000
REMARK UNBOUND:                 0.000
REMARK SMILES CC1(C)CC[C@]2(C)CC[C@@]3(C)C(=CC[C@H]4[C@]5(C)CC[C@@H](O)C(C)(C)[C@@H]5CC[C@@]43C)[C@@H]2C1
REMARK SMILES IDX 1 1 2 2 4 3 5 4 6 5 8 6 9 7 10 8 12 9 13 10 14 11 15 12
REMARK SMILES IDX 28 13 27 14 26 15 25 16 16 17 18 18 19 19 20 20 22 21 23 22
REMARK SMILES IDX 24 23 17 24 29 25 30 26 31 27 11 28 7 29 3 30 21 31
REMARK H PARENT 21 32
REMARK Flexibility Score: inf
ROOT
ATOM      1  C   UNL     1     133.566 130.484 145.039  1.00  0.00     0.011 C 
ATOM      2  C   UNL     1     133.717 131.300 143.735  1.00  0.00    -0.035 C 
ATOM      3  C   UNL     1     132.365 132.013 143.418  1.00  0.00     0.007 C 
ATOM      4  C   UNL     1     131.768 131.625 142.059  1.00  0.00     0.008 C 
ATOM      5  C   UNL     1     132.779 131.745 140.882  1.00  0.00    -0.026 C 
ATOM      6  C   UNL     1     132.042 131.223 139.621  1.00  0.00     0.008 C 
ATOM      7  C   UNL     1     132.951 131.181 138.393  1.00  0.00     0.012 C 
ATOM      8  C   UNL     1     134.209 130.248 138.565  1.00  0.00    -0.006 C 
ATOM      9  C   UNL     1     134.393 129.852 140.053  1.00  0.00    -0.064 C 
ATOM     10  C   UNL     1     135.021 128.684 140.362  1.00  0.00    -0.027 C 
ATOM     11  C   UNL     1     135.233 127.540 139.411  1.00  0.00     0.032 C 
ATOM     12  C   UNL     1     135.257 127.951 137.925  1.00  0.00     0.006 C 
ATOM     13  C   UNL     1     134.081 128.936 137.628  1.00  0.00    -0.020 C 
ATOM     14  C   UNL     1     134.203 129.315 136.131  1.00  0.00     0.008 C 
ATOM     15  C   UNL     1     133.969 128.132 135.209  1.00  0.00     0.005 C 
ATOM     16  C   UNL     1     134.957 126.947 135.415  1.00  0.00     0.003 C 
ATOM     17  C   UNL     1     135.521 126.725 136.910  1.00  0.00    -0.025 C 
ATOM     18  C   UNL     1     137.076 126.501 136.905  1.00  0.00     0.010 C 
ATOM     19  C   UNL     1     137.619 125.523 135.861  1.00  0.00     0.033 C 
ATOM     20  C   UNL     1     136.909 125.550 134.496  1.00  0.00     0.120 C 
ATOM     21  C   UNL     1     136.013 126.806 134.244  1.00  0.00    -0.006 C 
ATOM     22  C   UNL     1     136.876 128.087 134.071  1.00  0.00     0.014 C 
ATOM     23  C   UNL     1     135.299 126.571 132.875  1.00  0.00     0.014 C 
ATOM     24  C   UNL     1     134.915 125.389 137.458  1.00  0.00     0.012 C 
ATOM     25  C   UNL     1     132.709 128.236 137.905  1.00  0.00     0.012 C 
ATOM     26  C   UNL     1     134.104 130.916 141.156  1.00  0.00     0.022 C 
ATOM     27  C   UNL     1     134.138 130.322 142.601  1.00  0.00     0.015 C 
ATOM     28  C   UNL     1     135.455 131.120 138.209  1.00  0.00     0.017 C 
ATOM     29  C   UNL     1     133.110 133.251 140.672  1.00  0.00     0.012 C 
ATOM     30  C   UNL     1     134.835 132.345 143.969  1.00  0.00     0.011 C 
ENDROOT
BRANCH  20  31
ATOM     31  O   UNL     1     136.136 124.375 134.385  1.00  0.00    -0.393 OA
ATOM     32  H   UNL     1     136.168 123.906 135.259  1.00  0.00     0.210 HD
ENDBRANCH  20  31
TORSDOF 1
ENDMDL
