MODEL 1
REMARK VINA RESULT:    -3.430      0.000      0.000
REMARK INTER + INTRA:          -3.765
REMARK INTER:                  -3.731
REMARK INTRA:                  -0.034
REMARK UNBOUND:                -0.034
REMARK SMILES COc1ccccc1O
REMARK SMILES IDX 3 1 4 2 5 3 6 4 7 5 8 6 2 7 1 8 9 9
REMARK H PARENT 9 10
REMARK Flexibility Score: inf
ROOT
ATOM      1  C   UNL     1       8.440  11.589   7.182  1.00  0.00     0.160 A 
ATOM      2  C   UNL     1       7.277  10.891   7.571  1.00  0.00     0.050 A 
ATOM      3  C   UNL     1       6.134  11.590   7.969  1.00  0.00     0.004 A 
ATOM      4  C   UNL     1       6.136  12.986   7.982  1.00  0.00     0.004 A 
ATOM      5  C   UNL     1       7.281  13.687   7.599  1.00  0.00     0.050 A 
ATOM      6  C   UNL     1       8.432  12.997   7.200  1.00  0.00     0.157 A 
ENDROOT
BRANCH   1   7
ATOM      7  O   UNL     1       9.607  10.921   6.778  1.00  0.00    -0.493 OA
ATOM      8  C   UNL     1       9.650   9.904   5.783  1.00  0.00     0.278 C 
ENDBRANCH   1   7
BRANCH   6   9
ATOM      9  O   UNL     1       9.558  13.728   6.824  1.00  0.00    -0.504 OA
ATOM     10  H   UNL     1       9.657  14.714   7.033  1.00  0.00     0.293 HD
ENDBRANCH   6   9
TORSDOF 2
ENDMDL
MODEL 2
REMARK VINA RESULT:    -3.290      1.770      3.291
REMARK INTER + INTRA:          -3.613
REMARK INTER:                  -3.587
REMARK INTRA:                  -0.026
REMARK UNBOUND:                -0.034
REMARK SMILES COc1ccccc1O
REMARK SMILES IDX 3 1 4 2 5 3 6 4 7 5 8 6 2 7 1 8 9 9
REMARK H PARENT 9 10
REMARK Flexibility Score: inf
ROOT
ATOM      1  C   UNL     1       8.431  11.775   8.178  1.00  0.00     0.160 A 
ATOM      2  C   UNL     1       8.042  10.465   8.528  1.00  0.00     0.050 A 
ATOM      3  C   UNL     1       8.449   9.376   7.752  1.00  0.00     0.004 A 
ATOM      4  C   UNL     1       9.245   9.579   6.624  1.00  0.00     0.004 A 
ATOM      5  C   UNL     1       9.636  10.870   6.267  1.00  0.00     0.050 A 
ATOM      6  C   UNL     1       9.234  11.969   7.036  1.00  0.00     0.157 A 
ENDROOT
BRANCH   1   7
ATOM      7  O   UNL     1       8.042  12.893   8.932  1.00  0.00    -0.493 OA
ATOM      8  C   UNL     1       7.612  12.840  10.288  1.00  0.00     0.278 C 
ENDBRANCH   1   7
BRANCH   6   9
ATOM      9  O   UNL     1       9.643  13.245   6.653  1.00  0.00    -0.504 OA
ATOM     10  H   UNL     1       9.162  14.082   6.961  1.00  0.00     0.293 HD
ENDBRANCH   6   9
TORSDOF 2
ENDMDL
MODEL 3
REMARK VINA RESULT:    -3.074     10.715     11.605
REMARK INTER + INTRA:          -3.377
REMARK INTER:                  -3.352
REMARK INTRA:                  -0.026
REMARK UNBOUND:                -0.034
REMARK SMILES COc1ccccc1O
REMARK SMILES IDX 3 1 4 2 5 3 6 4 7 5 8 6 2 7 1 8 9 9
REMARK H PARENT 9 10
REMARK Flexibility Score: inf
ROOT
ATOM      1  C   UNL     1      11.622  14.580  -3.066  1.00  0.00     0.160 A 
ATOM      2  C   UNL     1      12.218  15.851  -3.196  1.00  0.00     0.050 A 
ATOM      3  C   UNL     1      13.482  16.098  -2.653  1.00  0.00     0.004 A 
ATOM      4  C   UNL     1      14.164  15.084  -1.977  1.00  0.00     0.004 A 
ATOM      5  C   UNL     1      13.584  13.822  -1.843  1.00  0.00     0.050 A 
ATOM      6  C   UNL     1      12.318  13.563  -2.382  1.00  0.00     0.157 A 
ENDROOT
BRANCH   1   7
ATOM      7  O   UNL     1      10.355  14.295  -3.598  1.00  0.00    -0.493 OA
ATOM      8  C   UNL     1       9.378  15.278  -3.925  1.00  0.00     0.278 C 
ENDBRANCH   1   7
BRANCH   6   9
ATOM      9  O   UNL     1      11.768  12.291  -2.230  1.00  0.00    -0.504 OA
ATOM     10  H   UNL     1      11.335  11.795  -2.999  1.00  0.00     0.293 HD
ENDBRANCH   6   9
TORSDOF 2
ENDMDL
MODEL 4
REMARK VINA RESULT:    -3.070      1.389      1.618
REMARK INTER + INTRA:          -3.374
REMARK INTER:                  -3.328
REMARK INTRA:                  -0.045
REMARK UNBOUND:                -0.034
REMARK SMILES COc1ccccc1O
REMARK SMILES IDX 3 1 4 2 5 3 6 4 7 5 8 6 2 7 1 8 9 9
REMARK H PARENT 9 10
REMARK Flexibility Score: inf
ROOT
ATOM      1  C   UNL     1       7.051  11.090   7.815  1.00  0.00     0.160 A 
ATOM      2  C   UNL     1       5.648  11.222   7.756  1.00  0.00     0.050 A 
ATOM      3  C   UNL     1       5.059  12.488   7.694  1.00  0.00     0.004 A 
ATOM      4  C   UNL     1       5.859  13.632   7.689  1.00  0.00     0.004 A 
ATOM      5  C   UNL     1       7.248  13.514   7.747  1.00  0.00     0.050 A 
ATOM      6  C   UNL     1       7.849  12.251   7.810  1.00  0.00     0.157 A 
ENDROOT
BRANCH   1   7
ATOM      7  O   UNL     1       7.677   9.835   7.878  1.00  0.00    -0.493 OA
ATOM      8  C   UNL     1       7.975   9.024   6.746  1.00  0.00     0.278 C 
ENDBRANCH   1   7
BRANCH   6   9
ATOM      9  O   UNL     1       9.240  12.168   7.866  1.00  0.00    -0.504 OA
ATOM     10  H   UNL     1       9.721  11.657   8.596  1.00  0.00     0.293 HD
ENDBRANCH   6   9
TORSDOF 2
ENDMDL
MODEL 5
REMARK VINA RESULT:    -2.940      1.903      3.674
REMARK INTER + INTRA:          -3.232
REMARK INTER:                  -3.187
REMARK INTRA:                  -0.046
REMARK UNBOUND:                -0.034
REMARK SMILES COc1ccccc1O
REMARK SMILES IDX 3 1 4 2 5 3 6 4 7 5 8 6 2 7 1 8 9 9
REMARK H PARENT 9 10
REMARK Flexibility Score: inf
ROOT
ATOM      1  C   UNL     1       5.916  12.893   7.870  1.00  0.00     0.160 A 
ATOM      2  C   UNL     1       4.784  12.056   7.777  1.00  0.00     0.050 A 
ATOM      3  C   UNL     1       4.937  10.671   7.669  1.00  0.00     0.004 A 
ATOM      4  C   UNL     1       6.214  10.106   7.654  1.00  0.00     0.004 A 
ATOM      5  C   UNL     1       7.341  10.924   7.746  1.00  0.00     0.050 A 
ATOM      6  C   UNL     1       7.200  12.313   7.854  1.00  0.00     0.157 A 
ENDROOT
BRANCH   1   7
ATOM      7  O   UNL     1       5.802  14.288   7.979  1.00  0.00    -0.493 OA
ATOM      8  C   UNL     1       5.574  14.985   9.199  1.00  0.00     0.278 C 
ENDBRANCH   1   7
BRANCH   6   9
ATOM      9  O   UNL     1       8.346  13.102   7.944  1.00  0.00    -0.504 OA
ATOM     10  H   UNL     1       9.276  12.702   7.964  1.00  0.00     0.293 HD
ENDBRANCH   6   9
TORSDOF 2
ENDMDL
MODEL 6
REMARK VINA RESULT:    -2.907     10.218     11.325
REMARK INTER + INTRA:          -3.197
REMARK INTER:                  -3.170
REMARK INTRA:                  -0.026
REMARK UNBOUND:                -0.034
REMARK SMILES COc1ccccc1O
REMARK SMILES IDX 3 1 4 2 5 3 6 4 7 5 8 6 2 7 1 8 9 9
REMARK H PARENT 9 10
REMARK Flexibility Score: inf
ROOT
ATOM      1  C   UNL     1      12.245  13.920  -2.391  1.00  0.00     0.160 A 
ATOM      2  C   UNL     1      13.383  14.563  -1.862  1.00  0.00     0.050 A 
ATOM      3  C   UNL     1      13.693  15.873  -2.237  1.00  0.00     0.004 A 
ATOM      4  C   UNL     1      12.875  16.555  -3.139  1.00  0.00     0.004 A 
ATOM      5  C   UNL     1      11.746  15.929  -3.670  1.00  0.00     0.050 A 
ATOM      6  C   UNL     1      11.427  14.617  -3.302  1.00  0.00     0.157 A 
ENDROOT
BRANCH   1   7
ATOM      7  O   UNL     1      11.902  12.605  -2.039  1.00  0.00    -0.493 OA
ATOM      8  C   UNL     1      12.826  11.629  -1.569  1.00  0.00     0.278 C 
ENDBRANCH   1   7
BRANCH   6   9
ATOM      9  O   UNL     1      10.291  14.021  -3.851  1.00  0.00    -0.504 OA
ATOM     10  H   UNL     1       9.389  14.053  -3.392  1.00  0.00     0.293 HD
ENDBRANCH   6   9
TORSDOF 2
ENDMDL
MODEL 7
REMARK VINA RESULT:    -2.871     10.426     11.337
REMARK INTER + INTRA:          -3.157
REMARK INTER:                  -3.131
REMARK INTRA:                  -0.027
REMARK UNBOUND:                -0.034
REMARK SMILES COc1ccccc1O
REMARK SMILES IDX 3 1 4 2 5 3 6 4 7 5 8 6 2 7 1 8 9 9
REMARK H PARENT 9 10
REMARK Flexibility Score: inf
ROOT
ATOM      1  C   UNL     1      12.285  13.911  -2.430  1.00  0.00     0.160 A 
ATOM      2  C   UNL     1      13.221  14.966  -2.459  1.00  0.00     0.050 A 
ATOM      3  C   UNL     1      14.534  14.758  -2.027  1.00  0.00     0.004 A 
ATOM      4  C   UNL     1      14.928  13.501  -1.564  1.00  0.00     0.004 A 
ATOM      5  C   UNL     1      14.011  12.449  -1.531  1.00  0.00     0.050 A 
ATOM      6  C   UNL     1      12.693  12.646  -1.960  1.00  0.00     0.157 A 
ENDROOT
BRANCH   1   7
ATOM      7  O   UNL     1      10.959  14.082  -2.855  1.00  0.00    -0.493 OA
ATOM      8  C   UNL     1      10.538  15.043  -3.817  1.00  0.00     0.278 C 
ENDBRANCH   1   7
BRANCH   6   9
ATOM      9  O   UNL     1      11.802  11.575  -1.914  1.00  0.00    -0.504 OA
ATOM     10  H   UNL     1      12.109  10.624  -1.749  1.00  0.00     0.293 HD
ENDBRANCH   6   9
TORSDOF 2
ENDMDL
MODEL 8
REMARK VINA RESULT:    -2.841      1.372      2.520
REMARK INTER + INTRA:          -3.124
REMARK INTER:                  -3.078
REMARK INTRA:                  -0.046
REMARK UNBOUND:                -0.034
REMARK SMILES COc1ccccc1O
REMARK SMILES IDX 3 1 4 2 5 3 6 4 7 5 8 6 2 7 1 8 9 9
REMARK H PARENT 9 10
REMARK Flexibility Score: inf
ROOT
ATOM      1  C   UNL     1       8.004  11.046   7.494  1.00  0.00     0.160 A 
ATOM      2  C   UNL     1       8.196  12.434   7.657  1.00  0.00     0.050 A 
ATOM      3  C   UNL     1       7.104  13.277   7.881  1.00  0.00     0.004 A 
ATOM      4  C   UNL     1       5.814  12.749   7.946  1.00  0.00     0.004 A 
ATOM      5  C   UNL     1       5.611  11.377   7.786  1.00  0.00     0.050 A 
ATOM      6  C   UNL     1       6.697  10.523   7.560  1.00  0.00     0.157 A 
ENDROOT
BRANCH   1   7
ATOM      7  O   UNL     1       9.076  10.169   7.266  1.00  0.00    -0.493 OA
ATOM      8  C   UNL     1       9.670   9.935   5.994  1.00  0.00     0.278 C 
ENDBRANCH   1   7
BRANCH   6   9
ATOM      9  O   UNL     1       6.460   9.158   7.405  1.00  0.00    -0.504 OA
ATOM     10  H   UNL     1       7.191   8.510   7.138  1.00  0.00     0.293 HD
ENDBRANCH   6   9
TORSDOF 2
ENDMDL
MODEL 9
REMARK VINA RESULT:    -2.827      9.969     11.478
REMARK INTER + INTRA:          -3.109
REMARK INTER:                  -3.066
REMARK INTRA:                  -0.044
REMARK UNBOUND:                -0.034
REMARK SMILES COc1ccccc1O
REMARK SMILES IDX 3 1 4 2 5 3 6 4 7 5 8 6 2 7 1 8 9 9
REMARK H PARENT 9 10
REMARK Flexibility Score: inf
ROOT
ATOM      1  C   UNL     1      15.711   6.815  13.066  1.00  0.00     0.160 A 
ATOM      2  C   UNL     1      15.030   7.666  12.170  1.00  0.00     0.050 A 
ATOM      3  C   UNL     1      14.959   7.348  10.811  1.00  0.00     0.004 A 
ATOM      4  C   UNL     1      15.562   6.185  10.331  1.00  0.00     0.004 A 
ATOM      5  C   UNL     1      16.238   5.335  11.208  1.00  0.00     0.050 A 
ATOM      6  C   UNL     1      16.317   5.643  12.572  1.00  0.00     0.157 A 
ENDROOT
BRANCH   1   7
ATOM      7  O   UNL     1      15.804   7.101  14.437  1.00  0.00    -0.493 OA
ATOM      8  C   UNL     1      16.800   7.934  15.021  1.00  0.00     0.278 C 
ENDBRANCH   1   7
BRANCH   6   9
ATOM      9  O   UNL     1      16.999   4.773  13.421  1.00  0.00    -0.504 OA
ATOM     10  H   UNL     1      17.409   5.081  14.294  1.00  0.00     0.293 HD
ENDBRANCH   6   9
TORSDOF 2
ENDMDL
