MODEL 1
REMARK VINA RESULT:    60.875      0.000      0.000
REMARK INTER + INTRA:          91.832
REMARK INTER:                  87.566
REMARK INTRA:                   4.266
REMARK UNBOUND:                 4.266
REMARK SMILES O=c1c(O[C@@H]2O[C@@H](CO)[C@@H](O)[C@@H](O)[C@@H]2O)c(-c2ccc(O)cc2)oc2cc(O)cc(O)c12
REMARK SMILES IDX 4 1 3 2 16 3 24 4 2 5 25 6 1 7 32 8 26 9 30 10 27 11 29 12
REMARK SMILES IDX 17 13 18 14 19 15 20 16 23 17 22 18 21 19 31 21 28 23 5 25
REMARK SMILES IDX 14 26 6 27 12 28 7 29 10 30 15 31 13 33 8 35 9 36 11 38
REMARK H PARENT 21 20 31 22 28 24 15 32 13 34 9 37 11 39
REMARK Flexibility Score: inf
ROOT
ATOM      1  O   UNL     1      -6.773  -6.428  20.291  1.00  0.00    -0.454 OA
ENDROOT
BRANCH   1   2
ATOM      2  C   UNL     1      -6.880  -5.153  20.885  1.00  0.00     0.214 A 
ATOM      3  C   UNL     1      -7.399  -5.074  22.194  1.00  0.00     0.180 A 
ATOM      4  O   UNL     1      -7.473  -3.904  22.818  1.00  0.00    -0.452 OA
ATOM      5  C   UNL     1      -6.472  -3.953  20.256  1.00  0.00     0.239 A 
ATOM      6  C   UNL     1      -7.101  -2.758  22.264  1.00  0.00     0.146 A 
ATOM      7  O   UNL     1      -6.000  -3.972  19.089  1.00  0.00    -0.285 OA
ATOM      8  C   UNL     1      -6.587  -2.728  20.948  1.00  0.00     0.111 A 
ATOM      9  C   UNL     1      -7.226  -1.576  23.001  1.00  0.00     0.094 A 
ATOM     10  C   UNL     1      -6.208  -1.483  20.387  1.00  0.00     0.134 A 
ATOM     11  C   UNL     1      -6.847  -0.352  22.443  1.00  0.00     0.123 A 
ATOM     12  C   UNL     1      -6.342  -0.308  21.142  1.00  0.00     0.093 A 
BRANCH   3  13
ATOM     13  C   UNL     1      -7.854  -6.277  22.926  1.00  0.00     0.021 A 
ATOM     14  C   UNL     1      -7.786  -6.347  24.329  1.00  0.00     0.016 A 
ATOM     15  C   UNL     1      -8.209  -7.497  25.001  1.00  0.00     0.047 A 
ATOM     16  C   UNL     1      -8.689  -8.596  24.282  1.00  0.00     0.115 A 
ATOM     17  C   UNL     1      -8.317  -7.391  22.208  1.00  0.00     0.016 A 
ATOM     18  C   UNL     1      -8.738  -8.542  22.882  1.00  0.00     0.047 A 
BRANCH  16  19
ATOM     19  O   UNL     1      -9.108  -9.735  24.963  1.00  0.00    -0.508 OA
ATOM     20  H   UNL     1      -8.821  -9.918  25.917  1.00  0.00     0.293 HD
ENDBRANCH  16  19
ENDBRANCH   3  13
BRANCH  10  21
ATOM     21  O   UNL     1      -5.700  -1.402  19.089  1.00  0.00    -0.507 OA
ATOM     22  H   UNL     1      -4.808  -1.813  18.839  1.00  0.00     0.293 HD
ENDBRANCH  10  21
BRANCH  11  23
ATOM     23  O   UNL     1      -6.970   0.830  23.172  1.00  0.00    -0.508 OA
ATOM     24  H   UNL     1      -7.522   1.607  22.831  1.00  0.00     0.293 HD
ENDBRANCH  11  23
ENDBRANCH   1   2
BRANCH   1  25
ATOM     25  C   UNL     1      -7.553  -6.958  19.214  1.00  0.00     0.339 C 
ATOM     26  C   UNL     1      -7.735  -5.894  18.114  1.00  0.00     0.214 C 
ATOM     27  O   UNL     1      -6.979  -8.147  18.688  1.00  0.00    -0.332 OA
ATOM     28  C   UNL     1      -6.398  -5.622  17.402  1.00  0.00     0.180 C 
ATOM     29  C   UNL     1      -5.685  -7.910  18.157  1.00  0.00     0.179 C 
ATOM     30  C   UNL     1      -5.757  -6.947  16.951  1.00  0.00     0.177 C 
BRANCH  26  31
ATOM     31  O   UNL     1      -8.228  -4.712  18.688  1.00  0.00    -0.384 OA
ATOM     32  H   UNL     1      -8.609  -4.169  17.950  1.00  0.00     0.211 HD
ENDBRANCH  26  31
BRANCH  28  33
ATOM     33  O   UNL     1      -6.616  -4.789  16.292  1.00  0.00    -0.387 OA
ATOM     34  H   UNL     1      -5.775  -4.281  16.146  1.00  0.00     0.211 HD
ENDBRANCH  28  33
BRANCH  29  35
ATOM     35  C   UNL     1      -5.054  -9.253  17.765  1.00  0.00     0.191 C 
BRANCH  35  36
ATOM     36  O   UNL     1      -3.655  -9.156  17.777  1.00  0.00    -0.394 OA
ATOM     37  H   UNL     1      -3.340  -9.470  16.888  1.00  0.00     0.210 HD
ENDBRANCH  35  36
ENDBRANCH  29  35
BRANCH  30  38
ATOM     38  O   UNL     1      -6.526  -7.512  15.917  1.00  0.00    -0.387 OA
ATOM     39  H   UNL     1      -7.385  -7.015  15.887  1.00  0.00     0.211 HD
ENDBRANCH  30  38
ENDBRANCH   1  25
TORSDOF 11
ENDMDL
