MODEL 1
REMARK VINA RESULT:     0.453      0.000      0.000
REMARK INTER + INTRA:           2.138
REMARK INTER:                   0.599
REMARK INTRA:                   1.539
REMARK UNBOUND:                 1.539
REMARK SMILES CC(C)=CCC[C@H](C(=O)[O-])[C@H]1CC[C@@]2(C)C3=C(CC[C@@]12C)[C@]1(C)CC[C@H](O)C(C)(C)[C@H]1CC3
REMARK SMILES IDX 6 1 7 2 8 3 9 4 10 5 11 6 12 7 20 8 13 9 14 10 19 11 21 12
REMARK SMILES IDX 15 13 16 14 18 15 17 16 33 17 22 18 32 19 31 20 24 21 23 22
REMARK SMILES IDX 28 23 25 24 26 25 29 26 30 27 27 28 5 30 4 31 2 32 1 33 3 34
REMARK H PARENT 27 29
REMARK Flexibility Score: inf
ROOT
ATOM      1  C   UNL     1     -14.376  10.378   9.582  1.00  0.00     0.014 C 
ENDROOT
BRANCH   1   2
ATOM      2  C   UNL     1     -13.681  11.414   8.663  1.00  0.00     0.039 C 
BRANCH   2   3
ATOM      3  C   UNL     1     -14.461  12.716   8.680  1.00  0.00     0.045 C 
ATOM      4  O   UNL     1     -15.637  12.747   8.228  1.00  0.00    -0.550 OA
ATOM      5  O   UNL     1     -13.869  13.905   9.086  1.00  0.00    -0.550 OA
ENDBRANCH   2   3
BRANCH   2   6
ATOM      6  C   UNL     1     -13.412  10.802   7.242  1.00  0.00     0.004 C 
ATOM      7  C   UNL     1     -14.519   9.901   6.672  1.00  0.00     0.006 C 
ATOM      8  C   UNL     1     -12.972  11.755   6.080  1.00  0.00    -0.020 C 
ATOM      9  C   UNL     1     -14.537  10.122   5.160  1.00  0.00     0.012 C 
ATOM     10  C   UNL     1     -13.260  10.906   4.788  1.00  0.00    -0.006 C 
ATOM     11  C   UNL     1     -13.834  13.033   6.048  1.00  0.00     0.012 C 
ATOM     12  C   UNL     1     -11.477  12.159   6.239  1.00  0.00     0.012 C 
ATOM     13  C   UNL     1     -12.108   9.886   4.526  1.00  0.00     0.017 C 
ATOM     14  C   UNL     1     -13.517  11.732   3.496  1.00  0.00    -0.064 C 
ATOM     15  C   UNL     1     -13.567  13.873   4.811  1.00  0.00     0.032 C 
ATOM     16  C   UNL     1     -13.691  13.096   3.510  1.00  0.00    -0.064 C 
ATOM     17  C   UNL     1     -13.825  10.922   2.228  1.00  0.00     0.032 C 
ATOM     18  C   UNL     1     -13.717  13.900   2.181  1.00  0.00    -0.008 C 
ATOM     19  C   UNL     1     -13.843  11.704   0.916  1.00  0.00     0.009 C 
ATOM     20  C   UNL     1     -14.516  13.070   1.113  1.00  0.00     0.007 C 
ATOM     21  C   UNL     1     -14.427  15.275   2.362  1.00  0.00     0.014 C 
ATOM     22  C   UNL     1     -12.225  14.147   1.823  1.00  0.00     0.016 C 
ATOM     23  C   UNL     1     -14.921  13.801  -0.236  1.00  0.00    -0.006 C 
ATOM     24  C   UNL     1     -14.670  16.018   1.045  1.00  0.00     0.033 C 
ATOM     25  C   UNL     1     -15.544  15.198   0.087  1.00  0.00     0.120 C 
ATOM     26  C   UNL     1     -13.747  13.973  -1.239  1.00  0.00     0.014 C 
ATOM     27  C   UNL     1     -15.998  12.957  -0.978  1.00  0.00     0.014 C 
BRANCH  25  28
ATOM     28  O   UNL     1     -16.820  15.058   0.668  1.00  0.00    -0.393 OA
ATOM     29  H   UNL     1     -16.827  15.592   1.504  1.00  0.00     0.210 HD
ENDBRANCH  25  28
ENDBRANCH   2   6
ENDBRANCH   1   2
BRANCH   1  30
ATOM     30  C   UNL     1     -15.762  10.845  10.056  1.00  0.00     0.028 C 
BRANCH  30  31
ATOM     31  C   UNL     1     -16.864  10.167   9.279  1.00  0.00    -0.028 C 
ATOM     32  C   UNL     1     -18.147  10.590   9.303  1.00  0.00    -0.080 C 
ATOM     33  C   UNL     1     -18.567  11.795  10.109  1.00  0.00     0.039 C 
ATOM     34  C   UNL     1     -19.194   9.875   8.490  1.00  0.00     0.039 C 
ENDBRANCH  30  31
ENDBRANCH   1  30
TORSDOF 6
ENDMDL
