MODEL 1
REMARK VINA RESULT:    -7.470      0.000      0.000
REMARK INTER + INTRA:          -7.470
REMARK INTER:                  -7.470
REMARK INTRA:                   0.000
REMARK UNBOUND:                 0.000
REMARK SMILES C=C1CCC[C@@]2(C)CC(=O)C(=C(C)C)C[C@H]12
REMARK SMILES IDX 13 1 12 2 11 3 15 4 16 5 2 6 1 7 3 8 4 9 5 10 6 11 8 12 9 13
REMARK SMILES IDX 10 14 7 15 14 16
REMARK H PARENT
REMARK Flexibility Score: inf
ROOT
ATOM      1  C   UNL     1     118.599 178.258 122.781  1.00  0.00     0.039 C 
ATOM      2  C   UNL     1     117.706 177.894 123.945  1.00  0.00    -0.070 C 
ATOM      3  C   UNL     1     118.223 177.629 125.181  1.00  0.00    -0.006 C 
ATOM      4  C   UNL     1     119.722 177.712 125.442  1.00  0.00     0.047 C 
ATOM      5  C   UNL     1     120.055 178.120 126.899  1.00  0.00     0.025 C 
ATOM      6  C   UNL     1     121.545 178.180 127.231  1.00  0.00    -0.073 C 
ATOM      7  C   UNL     1     122.527 177.895 126.353  1.00  0.00     0.008 C 
ATOM      8  C   UNL     1     121.901 178.633 128.628  1.00  0.00     0.031 C 
ATOM      9  C   UNL     1     121.154 177.792 129.667  1.00  0.00     0.005 C 
ATOM     10  C   UNL     1     119.643 177.750 129.383  1.00  0.00     0.008 C 
ATOM     11  C   UNL     1     119.304 177.241 127.949  1.00  0.00    -0.018 C 
ATOM     12  C   UNL     1     117.780 177.401 127.728  1.00  0.00     0.088 C 
ATOM     13  C   UNL     1     117.382 177.127 126.307  1.00  0.00     0.159 C 
ATOM     14  O   UNL     1     116.336 176.457 126.093  1.00  0.00    -0.295 OA
ATOM     15  C   UNL     1     119.686 175.741 127.825  1.00  0.00     0.012 C 
ATOM     16  C   UNL     1     116.217 177.875 123.685  1.00  0.00     0.039 C 
ENDROOT
TORSDOF 0
ENDMDL
MODEL 2
REMARK VINA RESULT:    -7.306      1.592      4.325
REMARK INTER + INTRA:          -7.306
REMARK INTER:                  -7.306
REMARK INTRA:                   0.000
REMARK UNBOUND:                 0.000
REMARK SMILES C=C1CCC[C@@]2(C)CC(=O)C(=C(C)C)C[C@H]12
REMARK SMILES IDX 13 1 12 2 11 3 15 4 16 5 2 6 1 7 3 8 4 9 5 10 6 11 8 12 9 13
REMARK SMILES IDX 10 14 7 15 14 16
REMARK H PARENT
REMARK Flexibility Score: inf
ROOT
ATOM      1  C   UNL     1     118.527 175.627 130.109  1.00  0.00     0.039 C 
ATOM      2  C   UNL     1     117.372 175.990 129.204  1.00  0.00    -0.070 C 
ATOM      3  C   UNL     1     117.576 176.635 128.018  1.00  0.00    -0.006 C 
ATOM      4  C   UNL     1     118.979 176.994 127.547  1.00  0.00     0.047 C 
ATOM      5  C   UNL     1     119.110 177.005 126.004  1.00  0.00     0.025 C 
ATOM      6  C   UNL     1     120.487 177.398 125.471  1.00  0.00    -0.073 C 
ATOM      7  C   UNL     1     121.533 177.729 126.254  1.00  0.00     0.008 C 
ATOM      8  C   UNL     1     120.660 177.358 123.971  1.00  0.00     0.031 C 
ATOM      9  C   UNL     1     119.566 178.183 123.287  1.00  0.00     0.005 C 
ATOM     10  C   UNL     1     118.164 177.778 123.771  1.00  0.00     0.008 C 
ATOM     11  C   UNL     1     118.002 177.866 125.319  1.00  0.00    -0.018 C 
ATOM     12  C   UNL     1     116.619 177.280 125.693  1.00  0.00     0.088 C 
ATOM     13  C   UNL     1     116.448 177.134 127.177  1.00  0.00     0.159 C 
ATOM     14  O   UNL     1     115.342 177.455 127.691  1.00  0.00    -0.295 OA
ATOM     15  C   UNL     1     118.068 179.352 125.765  1.00  0.00     0.012 C 
ATOM     16  C   UNL     1     115.991 175.574 129.657  1.00  0.00     0.039 C 
ENDROOT
TORSDOF 0
ENDMDL
MODEL 3
REMARK VINA RESULT:    -7.241      1.875      4.429
REMARK INTER + INTRA:          -7.241
REMARK INTER:                  -7.241
REMARK INTRA:                   0.000
REMARK UNBOUND:                 0.000
REMARK SMILES C=C1CCC[C@@]2(C)CC(=O)C(=C(C)C)C[C@H]12
REMARK SMILES IDX 13 1 12 2 11 3 15 4 16 5 2 6 1 7 3 8 4 9 5 10 6 11 8 12 9 13
REMARK SMILES IDX 10 14 7 15 14 16
REMARK H PARENT
REMARK Flexibility Score: inf
ROOT
ATOM      1  C   UNL     1     119.381 176.766 131.124  1.00  0.00     0.039 C 
ATOM      2  C   UNL     1     118.718 175.906 130.073  1.00  0.00    -0.070 C 
ATOM      3  C   UNL     1     119.038 176.028 128.751  1.00  0.00    -0.006 C 
ATOM      4  C   UNL     1     120.095 177.020 128.284  1.00  0.00     0.047 C 
ATOM      5  C   UNL     1     120.841 176.548 127.012  1.00  0.00     0.025 C 
ATOM      6  C   UNL     1     121.887 177.523 126.473  1.00  0.00    -0.073 C 
ATOM      7  C   UNL     1     122.162 178.719 127.029  1.00  0.00     0.008 C 
ATOM      8  C   UNL     1     122.672 177.062 125.267  1.00  0.00     0.031 C 
ATOM      9  C   UNL     1     121.722 176.624 124.149  1.00  0.00     0.005 C 
ATOM     10  C   UNL     1     120.684 175.607 124.652  1.00  0.00     0.008 C 
ATOM     11  C   UNL     1     119.862 176.125 125.871  1.00  0.00    -0.018 C 
ATOM     12  C   UNL     1     118.978 174.962 126.385  1.00  0.00     0.088 C 
ATOM     13  C   UNL     1     118.297 175.298 127.680  1.00  0.00     0.159 C 
ATOM     14  O   UNL     1     117.092 174.962 127.832  1.00  0.00    -0.295 OA
ATOM     15  C   UNL     1     118.953 177.302 125.424  1.00  0.00     0.012 C 
ATOM     16  C   UNL     1     117.715 174.884 130.558  1.00  0.00     0.039 C 
ENDROOT
TORSDOF 0
ENDMDL
MODEL 4
REMARK VINA RESULT:    -7.149      2.330      3.321
REMARK INTER + INTRA:          -7.149
REMARK INTER:                  -7.149
REMARK INTRA:                   0.000
REMARK UNBOUND:                 0.000
REMARK SMILES C=C1CCC[C@@]2(C)CC(=O)C(=C(C)C)C[C@H]12
REMARK SMILES IDX 13 1 12 2 11 3 15 4 16 5 2 6 1 7 3 8 4 9 5 10 6 11 8 12 9 13
REMARK SMILES IDX 10 14 7 15 14 16
REMARK H PARENT
REMARK Flexibility Score: inf
ROOT
ATOM      1  C   UNL     1     121.159 177.124 123.794  1.00  0.00     0.039 C 
ATOM      2  C   UNL     1     119.739 177.641 123.817  1.00  0.00    -0.070 C 
ATOM      3  C   UNL     1     118.841 177.206 124.748  1.00  0.00    -0.006 C 
ATOM      4  C   UNL     1     119.240 176.198 125.818  1.00  0.00     0.047 C 
ATOM      5  C   UNL     1     118.446 176.375 127.136  1.00  0.00     0.025 C 
ATOM      6  C   UNL     1     118.776 175.365 128.234  1.00  0.00    -0.073 C 
ATOM      7  C   UNL     1     119.677 174.371 128.100  1.00  0.00     0.008 C 
ATOM      8  C   UNL     1     118.060 175.551 129.552  1.00  0.00     0.031 C 
ATOM      9  C   UNL     1     116.547 175.625 129.329  1.00  0.00     0.005 C 
ATOM     10  C   UNL     1     116.181 176.668 128.259  1.00  0.00     0.008 C 
ATOM     11  C   UNL     1     116.904 176.428 126.899  1.00  0.00    -0.018 C 
ATOM     12  C   UNL     1     116.588 177.624 125.968  1.00  0.00     0.088 C 
ATOM     13  C   UNL     1     117.398 177.588 124.705  1.00  0.00     0.159 C 
ATOM     14  O   UNL     1     116.831 177.873 123.616  1.00  0.00    -0.295 OA
ATOM     15  C   UNL     1     116.374 175.119 126.252  1.00  0.00     0.012 C 
ATOM     16  C   UNL     1     119.375 178.686 122.787  1.00  0.00     0.039 C 
ENDROOT
TORSDOF 0
ENDMDL
MODEL 5
REMARK VINA RESULT:    -7.132      1.977      5.440
REMARK INTER + INTRA:          -7.132
REMARK INTER:                  -7.132
REMARK INTRA:                   0.000
REMARK UNBOUND:                 0.000
REMARK SMILES C=C1CCC[C@@]2(C)CC(=O)C(=C(C)C)C[C@H]12
REMARK SMILES IDX 13 1 12 2 11 3 15 4 16 5 2 6 1 7 3 8 4 9 5 10 6 11 8 12 9 13
REMARK SMILES IDX 10 14 7 15 14 16
REMARK H PARENT
REMARK Flexibility Score: inf
ROOT
ATOM      1  C   UNL     1     118.709 176.168 131.045  1.00  0.00     0.039 C 
ATOM      2  C   UNL     1     119.720 177.009 130.299  1.00  0.00    -0.070 C 
ATOM      3  C   UNL     1     119.647 177.170 128.945  1.00  0.00    -0.006 C 
ATOM      4  C   UNL     1     118.529 176.527 128.133  1.00  0.00     0.047 C 
ATOM      5  C   UNL     1     118.153 177.348 126.875  1.00  0.00     0.025 C 
ATOM      6  C   UNL     1     117.063 176.730 125.999  1.00  0.00    -0.073 C 
ATOM      7  C   UNL     1     116.459 175.555 126.262  1.00  0.00     0.008 C 
ATOM      8  C   UNL     1     116.634 177.539 124.796  1.00  0.00     0.031 C 
ATOM      9  C   UNL     1     117.851 177.919 123.949  1.00  0.00     0.005 C 
ATOM     10  C   UNL     1     118.948 178.584 124.797  1.00  0.00     0.008 C 
ATOM     11  C   UNL     1     119.399 177.711 126.007  1.00  0.00    -0.018 C 
ATOM     12  C   UNL     1     120.374 178.550 126.870  1.00  0.00     0.088 C 
ATOM     13  C   UNL     1     120.710 177.871 128.166  1.00  0.00     0.159 C 
ATOM     14  O   UNL     1     121.904 177.899 128.569  1.00  0.00    -0.295 OA
ATOM     15  C   UNL     1     120.132 176.443 125.490  1.00  0.00     0.012 C 
ATOM     16  C   UNL     1     120.787 177.689 131.125  1.00  0.00     0.039 C 
ENDROOT
TORSDOF 0
ENDMDL
MODEL 6
REMARK VINA RESULT:    -7.096      2.251      4.121
REMARK INTER + INTRA:          -7.096
REMARK INTER:                  -7.096
REMARK INTRA:                   0.000
REMARK UNBOUND:                 0.000
REMARK SMILES C=C1CCC[C@@]2(C)CC(=O)C(=C(C)C)C[C@H]12
REMARK SMILES IDX 13 1 12 2 11 3 15 4 16 5 2 6 1 7 3 8 4 9 5 10 6 11 8 12 9 13
REMARK SMILES IDX 10 14 7 15 14 16
REMARK H PARENT
REMARK Flexibility Score: inf
ROOT
ATOM      1  C   UNL     1     119.411 178.909 122.433  1.00  0.00     0.039 C 
ATOM      2  C   UNL     1     119.982 177.884 123.387  1.00  0.00    -0.070 C 
ATOM      3  C   UNL     1     119.383 177.620 124.585  1.00  0.00    -0.006 C 
ATOM      4  C   UNL     1     118.101 178.331 125.000  1.00  0.00     0.047 C 
ATOM      5  C   UNL     1     117.202 177.462 125.914  1.00  0.00     0.025 C 
ATOM      6  C   UNL     1     115.918 178.139 126.395  1.00  0.00    -0.073 C 
ATOM      7  C   UNL     1     115.566 179.400 126.078  1.00  0.00     0.008 C 
ATOM      8  C   UNL     1     114.994 177.294 127.240  1.00  0.00     0.031 C 
ATOM      9  C   UNL     1     115.756 176.690 128.422  1.00  0.00     0.005 C 
ATOM     10  C   UNL     1     117.031 175.963 127.963  1.00  0.00     0.008 C 
ATOM     11  C   UNL     1     117.985 176.870 127.128  1.00  0.00    -0.018 C 
ATOM     12  C   UNL     1     119.138 175.988 126.589  1.00  0.00     0.088 C 
ATOM     13  C   UNL     1     120.002 176.725 125.606  1.00  0.00     0.159 C 
ATOM     14  O   UNL     1     121.252 176.577 125.674  1.00  0.00    -0.295 OA
ATOM     15  C   UNL     1     118.572 177.984 128.037  1.00  0.00     0.012 C 
ATOM     16  C   UNL     1     121.220 177.144 122.936  1.00  0.00     0.039 C 
ENDROOT
TORSDOF 0
ENDMDL
MODEL 7
REMARK VINA RESULT:    -7.075      2.730      4.998
REMARK INTER + INTRA:          -7.075
REMARK INTER:                  -7.075
REMARK INTRA:                   0.000
REMARK UNBOUND:                 0.000
REMARK SMILES C=C1CCC[C@@]2(C)CC(=O)C(=C(C)C)C[C@H]12
REMARK SMILES IDX 13 1 12 2 11 3 15 4 16 5 2 6 1 7 3 8 4 9 5 10 6 11 8 12 9 13
REMARK SMILES IDX 10 14 7 15 14 16
REMARK H PARENT
REMARK Flexibility Score: inf
ROOT
ATOM      1  C   UNL     1     120.648 174.123 126.319  1.00  0.00     0.039 C 
ATOM      2  C   UNL     1     119.667 174.402 127.434  1.00  0.00    -0.070 C 
ATOM      3  C   UNL     1     118.710 175.369 127.312  1.00  0.00    -0.006 C 
ATOM      4  C   UNL     1     118.577 176.190 126.036  1.00  0.00     0.047 C 
ATOM      5  C   UNL     1     117.121 176.642 125.763  1.00  0.00     0.025 C 
ATOM      6  C   UNL     1     116.932 177.504 124.515  1.00  0.00    -0.073 C 
ATOM      7  C   UNL     1     117.935 177.875 123.695  1.00  0.00     0.008 C 
ATOM      8  C   UNL     1     115.513 177.910 124.192  1.00  0.00     0.031 C 
ATOM      9  C   UNL     1     114.860 178.574 125.406  1.00  0.00     0.005 C 
ATOM     10  C   UNL     1     114.995 177.707 126.669  1.00  0.00     0.008 C 
ATOM     11  C   UNL     1     116.472 177.337 127.001  1.00  0.00    -0.018 C 
ATOM     12  C   UNL     1     116.464 176.336 128.182  1.00  0.00     0.088 C 
ATOM     13  C   UNL     1     117.827 175.764 128.448  1.00  0.00     0.159 C 
ATOM     14  O   UNL     1     118.205 175.639 129.645  1.00  0.00    -0.295 OA
ATOM     15  C   UNL     1     117.248 178.617 127.417  1.00  0.00     0.012 C 
ATOM     16  C   UNL     1     119.774 173.538 128.671  1.00  0.00     0.039 C 
ENDROOT
TORSDOF 0
ENDMDL
MODEL 8
REMARK VINA RESULT:    -7.020      1.877      5.407
REMARK INTER + INTRA:          -7.020
REMARK INTER:                  -7.020
REMARK INTRA:                   0.000
REMARK UNBOUND:                 0.000
REMARK SMILES C=C1CCC[C@@]2(C)CC(=O)C(=C(C)C)C[C@H]12
REMARK SMILES IDX 13 1 12 2 11 3 15 4 16 5 2 6 1 7 3 8 4 9 5 10 6 11 8 12 9 13
REMARK SMILES IDX 10 14 7 15 14 16
REMARK H PARENT
REMARK Flexibility Score: inf
ROOT
ATOM      1  C   UNL     1     120.420 177.839 130.369  1.00  0.00     0.039 C 
ATOM      2  C   UNL     1     120.700 178.127 128.912  1.00  0.00    -0.070 C 
ATOM      3  C   UNL     1     119.762 177.888 127.949  1.00  0.00    -0.006 C 
ATOM      4  C   UNL     1     118.385 177.343 128.307  1.00  0.00     0.047 C 
ATOM      5  C   UNL     1     117.280 177.817 127.331  1.00  0.00     0.025 C 
ATOM      6  C   UNL     1     115.882 177.269 127.617  1.00  0.00    -0.073 C 
ATOM      7  C   UNL     1     115.594 176.425 128.627  1.00  0.00     0.008 C 
ATOM      8  C   UNL     1     114.774 177.762 126.716  1.00  0.00     0.031 C 
ATOM      9  C   UNL     1     115.144 177.543 125.247  1.00  0.00     0.005 C 
ATOM     10  C   UNL     1     116.530 178.124 124.918  1.00  0.00     0.008 C 
ATOM     11  C   UNL     1     117.660 177.568 125.837  1.00  0.00    -0.018 C 
ATOM     12  C   UNL     1     118.962 178.345 125.522  1.00  0.00     0.088 C 
ATOM     13  C   UNL     1     120.061 178.024 126.493  1.00  0.00     0.159 C 
ATOM     14  O   UNL     1     121.229 177.861 126.048  1.00  0.00    -0.295 OA
ATOM     15  C   UNL     1     117.877 176.059 125.540  1.00  0.00     0.012 C 
ATOM     16  C   UNL     1     122.049 178.723 128.579  1.00  0.00     0.039 C 
ENDROOT
TORSDOF 0
ENDMDL
MODEL 9
REMARK VINA RESULT:    -7.007      2.957      4.454
REMARK INTER + INTRA:          -7.007
REMARK INTER:                  -7.007
REMARK INTRA:                   0.000
REMARK UNBOUND:                 0.000
REMARK SMILES C=C1CCC[C@@]2(C)CC(=O)C(=C(C)C)C[C@H]12
REMARK SMILES IDX 13 1 12 2 11 3 15 4 16 5 2 6 1 7 3 8 4 9 5 10 6 11 8 12 9 13
REMARK SMILES IDX 10 14 7 15 14 16
REMARK H PARENT
REMARK Flexibility Score: inf
ROOT
ATOM      1  C   UNL     1     121.636 175.807 124.426  1.00  0.00     0.039 C 
ATOM      2  C   UNL     1     122.053 176.710 125.564  1.00  0.00    -0.070 C 
ATOM      3  C   UNL     1     121.295 176.821 126.695  1.00  0.00    -0.006 C 
ATOM      4  C   UNL     1     120.010 176.021 126.865  1.00  0.00     0.047 C 
ATOM      5  C   UNL     1     119.708 175.678 128.345  1.00  0.00     0.025 C 
ATOM      6  C   UNL     1     118.409 174.909 128.581  1.00  0.00    -0.073 C 
ATOM      7  C   UNL     1     117.556 174.548 127.602  1.00  0.00     0.008 C 
ATOM      8  C   UNL     1     118.119 174.510 130.009  1.00  0.00     0.031 C 
ATOM      9  C   UNL     1     118.194 175.731 130.929  1.00  0.00     0.005 C 
ATOM     10  C   UNL     1     119.512 176.501 130.745  1.00  0.00     0.008 C 
ATOM     11  C   UNL     1     119.766 176.935 129.270  1.00  0.00    -0.018 C 
ATOM     12  C   UNL     1     121.186 177.546 129.185  1.00  0.00     0.088 C 
ATOM     13  C   UNL     1     121.604 177.812 127.767  1.00  0.00     0.159 C 
ATOM     14  O   UNL     1     122.205 178.889 127.509  1.00  0.00    -0.295 OA
ATOM     15  C   UNL     1     118.720 178.006 128.855  1.00  0.00     0.012 C 
ATOM     16  C   UNL     1     123.360 177.452 125.406  1.00  0.00     0.039 C 
ENDROOT
TORSDOF 0
ENDMDL
