MODEL 1
REMARK VINA RESULT:    -7.977      0.000      0.000
REMARK INTER + INTRA:          -9.673
REMARK INTER:                  -9.376
REMARK INTRA:                  -0.297
REMARK UNBOUND:                -0.297
REMARK SMILES O=c1cc(-c2ccc(O)c(O)c2)oc2cc(O)cc(O)c12
REMARK SMILES IDX 4 1 3 2 2 3 1 4 21 5 19 6 18 7 16 8 15 9 14 10 13 11 5 12
REMARK SMILES IDX 6 13 7 14 8 15 12 16 10 17 9 18 11 20 20 22 17 24
REMARK H PARENT 9 19 11 21 20 23 17 25
REMARK Flexibility Score: inf
ROOT
ATOM      1  C   UNL     1      39.629 -12.399   8.961  1.00  0.00     0.138 A 
ATOM      2  C   UNL     1      40.008 -11.068   9.191  1.00  0.00     0.100 A 
ATOM      3  C   UNL     1      41.100 -10.794  10.015  1.00  0.00     0.197 A 
ATOM      4  O   UNL     1      41.454  -9.595  10.152  1.00  0.00    -0.289 OA
ATOM      5  C   UNL     1      41.795 -11.859  10.637  1.00  0.00     0.107 A 
ATOM      6  C   UNL     1      42.898 -11.696  11.529  1.00  0.00     0.134 A 
ATOM      7  C   UNL     1      43.581 -12.827  11.993  1.00  0.00     0.093 A 
ATOM      8  C   UNL     1      43.165 -14.114  11.645  1.00  0.00     0.123 A 
ATOM      9  C   UNL     1      42.057 -14.284  10.818  1.00  0.00     0.094 A 
ATOM     10  C   UNL     1      41.375 -13.175  10.311  1.00  0.00     0.146 A 
ATOM     11  O   UNL     1      40.332 -13.381   9.513  1.00  0.00    -0.456 OA
ENDROOT
BRANCH   1  12
ATOM     12  C   UNL     1      38.474 -12.746   8.094  1.00  0.00     0.021 A 
ATOM     13  C   UNL     1      37.261 -12.035   8.157  1.00  0.00     0.016 A 
ATOM     14  C   UNL     1      36.187 -12.391   7.336  1.00  0.00     0.051 A 
ATOM     15  C   UNL     1      36.304 -13.465   6.445  1.00  0.00     0.157 A 
ATOM     16  C   UNL     1      38.578 -13.831   7.206  1.00  0.00     0.062 A 
ATOM     17  C   UNL     1      37.504 -14.189   6.381  1.00  0.00     0.158 A 
BRANCH  15  18
ATOM     18  O   UNL     1      35.231 -13.816   5.627  1.00  0.00    -0.504 OA
ATOM     19  H   UNL     1      34.346 -13.323   5.671  1.00  0.00     0.293 HD
ENDBRANCH  15  18
BRANCH  17  20
ATOM     20  O   UNL     1      37.651 -15.266   5.508  1.00  0.00    -0.504 OA
ATOM     21  H   UNL     1      37.622 -16.226   5.828  1.00  0.00     0.293 HD
ENDBRANCH  17  20
ENDBRANCH   1  12
BRANCH   6  22
ATOM     22  O   UNL     1      43.341 -10.459  12.006  1.00  0.00    -0.507 OA
ATOM     23  H   UNL     1      42.981  -9.994  12.825  1.00  0.00     0.293 HD
ENDBRANCH   6  22
BRANCH   8  24
ATOM     24  O   UNL     1      43.843 -15.234  12.124  1.00  0.00    -0.508 OA
ATOM     25  H   UNL     1      43.359 -15.973  12.620  1.00  0.00     0.293 HD
ENDBRANCH   8  24
TORSDOF 5
ENDMDL
MODEL 2
REMARK VINA RESULT:    -7.721      3.637      4.740
REMARK INTER + INTRA:          -9.372
REMARK INTER:                  -9.108
REMARK INTRA:                  -0.264
REMARK UNBOUND:                -0.297
REMARK SMILES O=c1cc(-c2ccc(O)c(O)c2)oc2cc(O)cc(O)c12
REMARK SMILES IDX 4 1 3 2 2 3 1 4 21 5 19 6 18 7 16 8 15 9 14 10 13 11 5 12
REMARK SMILES IDX 6 13 7 14 8 15 12 16 10 17 9 18 11 20 20 22 17 24
REMARK H PARENT 9 19 11 21 20 23 17 25
REMARK Flexibility Score: inf
ROOT
ATOM      1  C   UNL     1      42.297 -11.441   8.678  1.00  0.00     0.138 A 
ATOM      2  C   UNL     1      42.004 -12.810   8.598  1.00  0.00     0.100 A 
ATOM      3  C   UNL     1      42.351 -13.652   9.656  1.00  0.00     0.197 A 
ATOM      4  O   UNL     1      42.020 -14.863   9.583  1.00  0.00    -0.289 OA
ATOM      5  C   UNL     1      43.023 -13.124  10.783  1.00  0.00     0.107 A 
ATOM      6  C   UNL     1      43.462 -13.896  11.902  1.00  0.00     0.134 A 
ATOM      7  C   UNL     1      44.013 -13.246  13.013  1.00  0.00     0.093 A 
ATOM      8  C   UNL     1      44.197 -11.862  13.022  1.00  0.00     0.123 A 
ATOM      9  C   UNL     1      43.821 -11.107  11.912  1.00  0.00     0.094 A 
ATOM     10  C   UNL     1      43.237 -11.721  10.803  1.00  0.00     0.146 A 
ATOM     11  O   UNL     1      42.879 -10.962   9.771  1.00  0.00    -0.456 OA
ENDROOT
BRANCH   1  12
ATOM     12  C   UNL     1      41.951 -10.500   7.582  1.00  0.00     0.021 A 
ATOM     13  C   UNL     1      40.903  -9.570   7.710  1.00  0.00     0.016 A 
ATOM     14  C   UNL     1      40.592  -8.703   6.658  1.00  0.00     0.051 A 
ATOM     15  C   UNL     1      41.316  -8.755   5.460  1.00  0.00     0.157 A 
ATOM     16  C   UNL     1      42.664 -10.555   6.372  1.00  0.00     0.062 A 
ATOM     17  C   UNL     1      42.356  -9.687   5.317  1.00  0.00     0.158 A 
BRANCH  15  18
ATOM     18  O   UNL     1      41.004  -7.889   4.414  1.00  0.00    -0.504 OA
ATOM     19  H   UNL     1      40.100  -7.435   4.353  1.00  0.00     0.293 HD
ENDBRANCH  15  18
BRANCH  17  20
ATOM     20  O   UNL     1      43.094  -9.768   4.136  1.00  0.00    -0.504 OA
ATOM     21  H   UNL     1      44.065  -9.485   4.088  1.00  0.00     0.293 HD
ENDBRANCH  17  20
ENDBRANCH   1  12
BRANCH   6  22
ATOM     22  O   UNL     1      43.402 -15.291  11.959  1.00  0.00    -0.507 OA
ATOM     23  H   UNL     1      44.199 -15.906  11.891  1.00  0.00     0.293 HD
ENDBRANCH   6  22
BRANCH   8  24
ATOM     24  O   UNL     1      44.760 -11.226  14.126  1.00  0.00    -0.508 OA
ATOM     25  H   UNL     1      45.710 -11.420  14.421  1.00  0.00     0.293 HD
ENDBRANCH   8  24
TORSDOF 5
ENDMDL
MODEL 3
REMARK VINA RESULT:    -7.597      5.694     11.844
REMARK INTER + INTRA:          -9.226
REMARK INTER:                  -8.917
REMARK INTRA:                  -0.309
REMARK UNBOUND:                -0.297
REMARK SMILES O=c1cc(-c2ccc(O)c(O)c2)oc2cc(O)cc(O)c12
REMARK SMILES IDX 4 1 3 2 2 3 1 4 21 5 19 6 18 7 16 8 15 9 14 10 13 11 5 12
REMARK SMILES IDX 6 13 7 14 8 15 12 16 10 17 9 18 11 20 20 22 17 24
REMARK H PARENT 9 19 11 21 20 23 17 25
REMARK Flexibility Score: inf
ROOT
ATOM      1  C   UNL     1      33.853 -14.549   2.977  1.00  0.00     0.138 A 
ATOM      2  C   UNL     1      34.189 -14.814   1.641  1.00  0.00     0.100 A 
ATOM      3  C   UNL     1      33.178 -14.951   0.689  1.00  0.00     0.197 A 
ATOM      4  O   UNL     1      33.512 -15.127  -0.510  1.00  0.00    -0.289 OA
ATOM      5  C   UNL     1      31.823 -14.853   1.085  1.00  0.00     0.107 A 
ATOM      6  C   UNL     1      30.708 -15.017   0.208  1.00  0.00     0.134 A 
ATOM      7  C   UNL     1      29.414 -14.782   0.688  1.00  0.00     0.093 A 
ATOM      8  C   UNL     1      29.190 -14.450   2.027  1.00  0.00     0.123 A 
ATOM      9  C   UNL     1      30.268 -14.341   2.902  1.00  0.00     0.094 A 
ATOM     10  C   UNL     1      31.574 -14.535   2.446  1.00  0.00     0.146 A 
ATOM     11  O   UNL     1      32.575 -14.407   3.311  1.00  0.00    -0.456 OA
ENDROOT
BRANCH   1  12
ATOM     12  C   UNL     1      34.888 -14.394   4.030  1.00  0.00     0.021 A 
ATOM     13  C   UNL     1      36.144 -15.022   3.930  1.00  0.00     0.016 A 
ATOM     14  C   UNL     1      37.096 -14.868   4.942  1.00  0.00     0.051 A 
ATOM     15  C   UNL     1      36.809 -14.091   6.071  1.00  0.00     0.157 A 
ATOM     16  C   UNL     1      34.604 -13.627   5.173  1.00  0.00     0.062 A 
ATOM     17  C   UNL     1      35.556 -13.470   6.187  1.00  0.00     0.158 A 
BRANCH  15  18
ATOM     18  O   UNL     1      37.762 -13.938   7.077  1.00  0.00    -0.504 OA
ATOM     19  H   UNL     1      38.589 -14.523   7.118  1.00  0.00     0.293 HD
ENDBRANCH  15  18
BRANCH  17  20
ATOM     20  O   UNL     1      35.237 -12.694   7.301  1.00  0.00    -0.504 OA
ATOM     21  H   UNL     1      34.902 -11.742   7.216  1.00  0.00     0.293 HD
ENDBRANCH  17  20
ENDBRANCH   1  12
BRANCH   6  22
ATOM     22  O   UNL     1      30.815 -15.429  -1.123  1.00  0.00    -0.507 OA
ATOM     23  H   UNL     1      30.037 -15.561  -1.751  1.00  0.00     0.293 HD
ENDBRANCH   6  22
BRANCH   8  24
ATOM     24  O   UNL     1      27.897 -14.234   2.499  1.00  0.00    -0.508 OA
ATOM     25  H   UNL     1      27.707 -13.562   3.233  1.00  0.00     0.293 HD
ENDBRANCH   8  24
TORSDOF 5
ENDMDL
MODEL 4
REMARK VINA RESULT:    -7.487      1.433      2.806
REMARK INTER + INTRA:          -9.097
REMARK INTER:                  -8.808
REMARK INTRA:                  -0.289
REMARK UNBOUND:                -0.297
REMARK SMILES O=c1cc(-c2ccc(O)c(O)c2)oc2cc(O)cc(O)c12
REMARK SMILES IDX 4 1 3 2 2 3 1 4 21 5 19 6 18 7 16 8 15 9 14 10 13 11 5 12
REMARK SMILES IDX 6 13 7 14 8 15 12 16 10 17 9 18 11 20 20 22 17 24
REMARK H PARENT 9 19 11 21 20 23 17 25
REMARK Flexibility Score: inf
ROOT
ATOM      1  C   UNL     1      39.103 -12.970   8.389  1.00  0.00     0.138 A 
ATOM      2  C   UNL     1      40.055 -13.973   8.621  1.00  0.00     0.100 A 
ATOM      3  C   UNL     1      41.145 -13.711   9.453  1.00  0.00     0.197 A 
ATOM      4  O   UNL     1      41.948 -14.649   9.692  1.00  0.00    -0.289 OA
ATOM      5  C   UNL     1      41.297 -12.427  10.028  1.00  0.00     0.107 A 
ATOM      6  C   UNL     1      42.390 -12.034  10.858  1.00  0.00     0.134 A 
ATOM      7  C   UNL     1      42.374 -10.772  11.465  1.00  0.00     0.093 A 
ATOM      8  C   UNL     1      41.337  -9.868  11.225  1.00  0.00     0.123 A 
ATOM      9  C   UNL     1      40.293 -10.223  10.373  1.00  0.00     0.094 A 
ATOM     10  C   UNL     1      40.262 -11.487   9.779  1.00  0.00     0.146 A 
ATOM     11  O   UNL     1      39.241 -11.791   8.985  1.00  0.00    -0.456 OA
ENDROOT
BRANCH   1  12
ATOM     12  C   UNL     1      37.925 -13.196   7.513  1.00  0.00     0.021 A 
ATOM     13  C   UNL     1      36.734 -12.463   7.672  1.00  0.00     0.016 A 
ATOM     14  C   UNL     1      35.637 -12.703   6.840  1.00  0.00     0.051 A 
ATOM     15  C   UNL     1      35.708 -13.681   5.840  1.00  0.00     0.157 A 
ATOM     16  C   UNL     1      37.983 -14.185   6.516  1.00  0.00     0.062 A 
ATOM     17  C   UNL     1      36.887 -14.427   5.680  1.00  0.00     0.158 A 
BRANCH  15  18
ATOM     18  O   UNL     1      34.613 -13.917   5.011  1.00  0.00    -0.504 OA
ATOM     19  H   UNL     1      33.662 -13.779   5.335  1.00  0.00     0.293 HD
ENDBRANCH  15  18
BRANCH  17  20
ATOM     20  O   UNL     1      36.988 -15.412   4.698  1.00  0.00    -0.504 OA
ATOM     21  H   UNL     1      36.179 -15.916   4.356  1.00  0.00     0.293 HD
ENDBRANCH  17  20
ENDBRANCH   1  12
BRANCH   6  22
ATOM     22  O   UNL     1      43.516 -12.827  11.095  1.00  0.00    -0.507 OA
ATOM     23  H   UNL     1      44.146 -12.717  11.875  1.00  0.00     0.293 HD
ENDBRANCH   6  22
BRANCH   8  24
ATOM     24  O   UNL     1      41.338  -8.609  11.822  1.00  0.00    -0.508 OA
ATOM     25  H   UNL     1      41.653  -7.786  11.321  1.00  0.00     0.293 HD
ENDBRANCH   8  24
TORSDOF 5
ENDMDL
MODEL 5
REMARK VINA RESULT:    -7.431      1.775      6.775
REMARK INTER + INTRA:          -9.031
REMARK INTER:                  -8.715
REMARK INTRA:                  -0.316
REMARK UNBOUND:                -0.297
REMARK SMILES O=c1cc(-c2ccc(O)c(O)c2)oc2cc(O)cc(O)c12
REMARK SMILES IDX 4 1 3 2 2 3 1 4 21 5 19 6 18 7 16 8 15 9 14 10 13 11 5 12
REMARK SMILES IDX 6 13 7 14 8 15 12 16 10 17 9 18 11 20 20 22 17 24
REMARK H PARENT 9 19 11 21 20 23 17 25
REMARK Flexibility Score: inf
ROOT
ATOM      1  C   UNL     1      41.097 -11.882   9.238  1.00  0.00     0.138 A 
ATOM      2  C   UNL     1      41.010 -10.649   8.577  1.00  0.00     0.100 A 
ATOM      3  C   UNL     1      40.107 -10.492   7.524  1.00  0.00     0.197 A 
ATOM      4  O   UNL     1      40.008  -9.357   6.991  1.00  0.00    -0.289 OA
ATOM      5  C   UNL     1      39.311 -11.587   7.113  1.00  0.00     0.107 A 
ATOM      6  C   UNL     1      38.386 -11.555   6.026  1.00  0.00     0.134 A 
ATOM      7  C   UNL     1      37.567 -12.665   5.785  1.00  0.00     0.093 A 
ATOM      8  C   UNL     1      37.683 -13.826   6.552  1.00  0.00     0.123 A 
ATOM      9  C   UNL     1      38.620 -13.886   7.581  1.00  0.00     0.094 A 
ATOM     10  C   UNL     1      39.427 -12.784   7.868  1.00  0.00     0.146 A 
ATOM     11  O   UNL     1      40.299 -12.877   8.868  1.00  0.00    -0.456 OA
ENDROOT
BRANCH   1  12
ATOM     12  C   UNL     1      42.041 -12.103  10.363  1.00  0.00     0.021 A 
ATOM     13  C   UNL     1      42.746 -11.040  10.957  1.00  0.00     0.016 A 
ATOM     14  C   UNL     1      43.636 -11.279  12.008  1.00  0.00     0.051 A 
ATOM     15  C   UNL     1      43.841 -12.581  12.479  1.00  0.00     0.157 A 
ATOM     16  C   UNL     1      42.263 -13.410  10.833  1.00  0.00     0.062 A 
ATOM     17  C   UNL     1      43.153 -13.652  11.886  1.00  0.00     0.158 A 
BRANCH  15  18
ATOM     18  O   UNL     1      44.729 -12.816  13.528  1.00  0.00    -0.504 OA
ATOM     19  H   UNL     1      45.723 -12.931  13.367  1.00  0.00     0.293 HD
ENDBRANCH  15  18
BRANCH  17  20
ATOM     20  O   UNL     1      43.339 -14.961  12.329  1.00  0.00    -0.504 OA
ATOM     21  H   UNL     1      43.820 -15.173  13.194  1.00  0.00     0.293 HD
ENDBRANCH  17  20
ENDBRANCH   1  12
BRANCH   6  22
ATOM     22  O   UNL     1      38.252 -10.477   5.146  1.00  0.00    -0.507 OA
ATOM     23  H   UNL     1      38.718 -10.397   4.255  1.00  0.00     0.293 HD
ENDBRANCH   6  22
BRANCH   8  24
ATOM     24  O   UNL     1      36.874 -14.932   6.295  1.00  0.00    -0.508 OA
ATOM     25  H   UNL     1      36.800 -15.329   5.366  1.00  0.00     0.293 HD
ENDBRANCH   8  24
TORSDOF 5
ENDMDL
MODEL 6
REMARK VINA RESULT:    -7.376      2.373      7.169
REMARK INTER + INTRA:          -8.966
REMARK INTER:                  -8.680
REMARK INTRA:                  -0.286
REMARK UNBOUND:                -0.297
REMARK SMILES O=c1cc(-c2ccc(O)c(O)c2)oc2cc(O)cc(O)c12
REMARK SMILES IDX 4 1 3 2 2 3 1 4 21 5 19 6 18 7 16 8 15 9 14 10 13 11 5 12
REMARK SMILES IDX 6 13 7 14 8 15 12 16 10 17 9 18 11 20 20 22 17 24
REMARK H PARENT 9 19 11 21 20 23 17 25
REMARK Flexibility Score: inf
ROOT
ATOM      1  C   UNL     1      41.010 -12.428   9.170  1.00  0.00     0.138 A 
ATOM      2  C   UNL     1      40.033 -13.415   8.977  1.00  0.00     0.100 A 
ATOM      3  C   UNL     1      39.163 -13.321   7.889  1.00  0.00     0.197 A 
ATOM      4  O   UNL     1      38.338 -14.252   7.707  1.00  0.00    -0.289 OA
ATOM      5  C   UNL     1      39.254 -12.215   7.010  1.00  0.00     0.107 A 
ATOM      6  C   UNL     1      38.394 -11.994   5.892  1.00  0.00     0.134 A 
ATOM      7  C   UNL     1      38.653 -10.927   5.024  1.00  0.00     0.093 A 
ATOM      8  C   UNL     1      39.703 -10.037   5.267  1.00  0.00     0.123 A 
ATOM      9  C   UNL     1      40.514 -10.214   6.386  1.00  0.00     0.094 A 
ATOM     10  C   UNL     1      40.303 -11.289   7.251  1.00  0.00     0.146 A 
ATOM     11  O   UNL     1      41.110 -11.430   8.299  1.00  0.00    -0.456 OA
ENDROOT
BRANCH   1  12
ATOM     12  C   UNL     1      41.960 -12.478  10.310  1.00  0.00     0.021 A 
ATOM     13  C   UNL     1      42.519 -11.309  10.860  1.00  0.00     0.016 A 
ATOM     14  C   UNL     1      43.419 -11.387  11.927  1.00  0.00     0.051 A 
ATOM     15  C   UNL     1      43.781 -12.631  12.458  1.00  0.00     0.157 A 
ATOM     16  C   UNL     1      42.339 -13.724  10.841  1.00  0.00     0.062 A 
ATOM     17  C   UNL     1      43.239 -13.805  11.910  1.00  0.00     0.158 A 
BRANCH  15  18
ATOM     18  O   UNL     1      44.677 -12.705  13.522  1.00  0.00    -0.504 OA
ATOM     19  H   UNL     1      44.442 -12.344  14.440  1.00  0.00     0.293 HD
ENDBRANCH  15  18
BRANCH  17  20
ATOM     20  O   UNL     1      43.582 -15.060  12.414  1.00  0.00    -0.504 OA
ATOM     21  H   UNL     1      43.042 -15.890  12.203  1.00  0.00     0.293 HD
ENDBRANCH  17  20
ENDBRANCH   1  12
BRANCH   6  22
ATOM     22  O   UNL     1      37.268 -12.772   5.607  1.00  0.00    -0.507 OA
ATOM     23  H   UNL     1      36.499 -12.927   6.240  1.00  0.00     0.293 HD
ENDBRANCH   6  22
BRANCH   8  24
ATOM     24  O   UNL     1      39.943  -8.968   4.407  1.00  0.00    -0.508 OA
ATOM     25  H   UNL     1      39.184  -8.445   3.987  1.00  0.00     0.293 HD
ENDBRANCH   8  24
TORSDOF 5
ENDMDL
MODEL 7
REMARK VINA RESULT:    -7.305      1.375      2.152
REMARK INTER + INTRA:          -8.883
REMARK INTER:                  -8.604
REMARK INTRA:                  -0.279
REMARK UNBOUND:                -0.297
REMARK SMILES O=c1cc(-c2ccc(O)c(O)c2)oc2cc(O)cc(O)c12
REMARK SMILES IDX 4 1 3 2 2 3 1 4 21 5 19 6 18 7 16 8 15 9 14 10 13 11 5 12
REMARK SMILES IDX 6 13 7 14 8 15 12 16 10 17 9 18 11 20 20 22 17 24
REMARK H PARENT 9 19 11 21 20 23 17 25
REMARK Flexibility Score: inf
ROOT
ATOM      1  C   UNL     1      38.729 -13.054   7.742  1.00  0.00     0.138 A 
ATOM      2  C   UNL     1      38.802 -11.708   8.127  1.00  0.00     0.100 A 
ATOM      3  C   UNL     1      39.786 -11.300   9.029  1.00  0.00     0.197 A 
ATOM      4  O   UNL     1      39.866 -10.077   9.307  1.00  0.00    -0.289 OA
ATOM      5  C   UNL     1      40.681 -12.254   9.570  1.00  0.00     0.107 A 
ATOM      6  C   UNL     1      41.698 -11.960  10.528  1.00  0.00     0.134 A 
ATOM      7  C   UNL     1      42.600 -12.962  10.905  1.00  0.00     0.093 A 
ATOM      8  C   UNL     1      42.485 -14.262  10.405  1.00  0.00     0.123 A 
ATOM      9  C   UNL     1      41.462 -14.571   9.510  1.00  0.00     0.094 A 
ATOM     10  C   UNL     1      40.568 -13.585   9.089  1.00  0.00     0.146 A 
ATOM     11  O   UNL     1      39.616 -13.918   8.223  1.00  0.00    -0.456 OA
ENDROOT
BRANCH   1  12
ATOM     12  C   UNL     1      37.702 -13.542   6.787  1.00  0.00     0.021 A 
ATOM     13  C   UNL     1      38.014 -14.467   5.773  1.00  0.00     0.016 A 
ATOM     14  C   UNL     1      37.029 -14.900   4.881  1.00  0.00     0.051 A 
ATOM     15  C   UNL     1      35.720 -14.414   4.982  1.00  0.00     0.157 A 
ATOM     16  C   UNL     1      36.388 -13.049   6.872  1.00  0.00     0.062 A 
ATOM     17  C   UNL     1      35.399 -13.483   5.981  1.00  0.00     0.158 A 
BRANCH  15  18
ATOM     18  O   UNL     1      34.740 -14.850   4.091  1.00  0.00    -0.504 OA
ATOM     19  H   UNL     1      34.727 -15.801   3.740  1.00  0.00     0.293 HD
ENDBRANCH  15  18
BRANCH  17  20
ATOM     20  O   UNL     1      34.106 -12.976   6.106  1.00  0.00    -0.504 OA
ATOM     21  H   UNL     1      33.507 -13.215   6.887  1.00  0.00     0.293 HD
ENDBRANCH  17  20
ENDBRANCH   1  12
BRANCH   6  22
ATOM     22  O   UNL     1      41.847 -10.718  11.153  1.00  0.00    -0.507 OA
ATOM     23  H   UNL     1      42.510 -10.010  10.879  1.00  0.00     0.293 HD
ENDBRANCH   6  22
BRANCH   8  24
ATOM     24  O   UNL     1      43.378 -15.257  10.797  1.00  0.00    -0.508 OA
ATOM     25  H   UNL     1      44.193 -15.045  11.361  1.00  0.00     0.293 HD
ENDBRANCH   8  24
TORSDOF 5
ENDMDL
MODEL 8
REMARK VINA RESULT:    -7.234      2.470      6.913
REMARK INTER + INTRA:          -8.799
REMARK INTER:                  -8.532
REMARK INTRA:                  -0.268
REMARK UNBOUND:                -0.297
REMARK SMILES O=c1cc(-c2ccc(O)c(O)c2)oc2cc(O)cc(O)c12
REMARK SMILES IDX 4 1 3 2 2 3 1 4 21 5 19 6 18 7 16 8 15 9 14 10 13 11 5 12
REMARK SMILES IDX 6 13 7 14 8 15 12 16 10 17 9 18 11 20 20 22 17 24
REMARK H PARENT 9 19 11 21 20 23 17 25
REMARK Flexibility Score: inf
ROOT
ATOM      1  C   UNL     1      41.578 -12.043   8.529  1.00  0.00     0.138 A 
ATOM      2  C   UNL     1      42.209 -10.934   7.947  1.00  0.00     0.100 A 
ATOM      3  C   UNL     1      41.556 -10.217   6.943  1.00  0.00     0.197 A 
ATOM      4  O   UNL     1      42.120  -9.191   6.484  1.00  0.00    -0.289 OA
ATOM      5  C   UNL     1      40.279 -10.634   6.499  1.00  0.00     0.107 A 
ATOM      6  C   UNL     1      39.537 -10.004   5.454  1.00  0.00     0.134 A 
ATOM      7  C   UNL     1      38.233 -10.434   5.180  1.00  0.00     0.093 A 
ATOM      8  C   UNL     1      37.667 -11.508   5.871  1.00  0.00     0.123 A 
ATOM      9  C   UNL     1      38.403 -12.163   6.855  1.00  0.00     0.094 A 
ATOM     10  C   UNL     1      39.694 -11.737   7.176  1.00  0.00     0.146 A 
ATOM     11  O   UNL     1      40.357 -12.380   8.132  1.00  0.00    -0.456 OA
ENDROOT
BRANCH   1  12
ATOM     12  C   UNL     1      42.228 -12.841   9.600  1.00  0.00     0.021 A 
ATOM     13  C   UNL     1      42.400 -14.233   9.483  1.00  0.00     0.016 A 
ATOM     14  C   UNL     1      43.005 -14.960  10.512  1.00  0.00     0.051 A 
ATOM     15  C   UNL     1      43.442 -14.313  11.674  1.00  0.00     0.157 A 
ATOM     16  C   UNL     1      42.657 -12.201  10.776  1.00  0.00     0.062 A 
ATOM     17  C   UNL     1      43.265 -12.927  11.807  1.00  0.00     0.158 A 
BRANCH  15  18
ATOM     18  O   UNL     1      44.047 -15.042  12.697  1.00  0.00    -0.504 OA
ATOM     19  H   UNL     1      44.831 -14.671  13.222  1.00  0.00     0.293 HD
ENDBRANCH  15  18
BRANCH  17  20
ATOM     20  O   UNL     1      43.685 -12.254  12.954  1.00  0.00    -0.504 OA
ATOM     21  H   UNL     1      44.016 -12.745  13.775  1.00  0.00     0.293 HD
ENDBRANCH  17  20
ENDBRANCH   1  12
BRANCH   6  22
ATOM     22  O   UNL     1      40.040  -8.980   4.647  1.00  0.00    -0.507 OA
ATOM     23  H   UNL     1      39.501  -8.205   4.294  1.00  0.00     0.293 HD
ENDBRANCH   6  22
BRANCH   8  24
ATOM     24  O   UNL     1      36.374 -11.938   5.580  1.00  0.00    -0.508 OA
ATOM     25  H   UNL     1      35.613 -11.281   5.451  1.00  0.00     0.293 HD
ENDBRANCH   8  24
TORSDOF 5
ENDMDL
MODEL 9
REMARK VINA RESULT:    -7.226      6.481      9.616
REMARK INTER + INTRA:          -8.790
REMARK INTER:                  -8.505
REMARK INTRA:                  -0.285
REMARK UNBOUND:                -0.297
REMARK SMILES O=c1cc(-c2ccc(O)c(O)c2)oc2cc(O)cc(O)c12
REMARK SMILES IDX 4 1 3 2 2 3 1 4 21 5 19 6 18 7 16 8 15 9 14 10 13 11 5 12
REMARK SMILES IDX 6 13 7 14 8 15 12 16 10 17 9 18 11 20 20 22 17 24
REMARK H PARENT 9 19 11 21 20 23 17 25
REMARK Flexibility Score: inf
ROOT
ATOM      1  C   UNL     1      33.401 -14.006   2.521  1.00  0.00     0.138 A 
ATOM      2  C   UNL     1      33.464 -14.156   3.914  1.00  0.00     0.100 A 
ATOM      3  C   UNL     1      34.652 -13.863   4.587  1.00  0.00     0.197 A 
ATOM      4  O   UNL     1      34.660 -13.948   5.841  1.00  0.00    -0.289 OA
ATOM      5  C   UNL     1      35.790 -13.450   3.854  1.00  0.00     0.107 A 
ATOM      6  C   UNL     1      37.065 -13.164   4.429  1.00  0.00     0.134 A 
ATOM      7  C   UNL     1      38.086 -12.650   3.620  1.00  0.00     0.093 A 
ATOM      8  C   UNL     1      37.897 -12.468   2.248  1.00  0.00     0.123 A 
ATOM      9  C   UNL     1      36.673 -12.796   1.669  1.00  0.00     0.094 A 
ATOM     10  C   UNL     1      35.624 -13.278   2.455  1.00  0.00     0.146 A 
ATOM     11  O   UNL     1      34.467 -13.564   1.865  1.00  0.00    -0.456 OA
ENDROOT
BRANCH   1  12
ATOM     12  C   UNL     1      32.164 -14.304   1.756  1.00  0.00     0.021 A 
ATOM     13  C   UNL     1      32.208 -14.753   0.423  1.00  0.00     0.016 A 
ATOM     14  C   UNL     1      31.027 -15.016  -0.276  1.00  0.00     0.051 A 
ATOM     15  C   UNL     1      29.783 -14.829   0.340  1.00  0.00     0.157 A 
ATOM     16  C   UNL     1      30.911 -14.107   2.363  1.00  0.00     0.062 A 
ATOM     17  C   UNL     1      29.726 -14.371   1.666  1.00  0.00     0.158 A 
BRANCH  15  18
ATOM     18  O   UNL     1      28.608 -15.094  -0.360  1.00  0.00    -0.504 OA
ATOM     19  H   UNL     1      28.162 -16.004  -0.326  1.00  0.00     0.293 HD
ENDBRANCH  15  18
BRANCH  17  20
ATOM     20  O   UNL     1      28.504 -14.171   2.306  1.00  0.00    -0.504 OA
ATOM     21  H   UNL     1      27.956 -13.330   2.171  1.00  0.00     0.293 HD
ENDBRANCH  17  20
ENDBRANCH   1  12
BRANCH   6  22
ATOM     22  O   UNL     1      37.385 -13.389   5.771  1.00  0.00    -0.507 OA
ATOM     23  H   UNL     1      36.713 -13.502   6.514  1.00  0.00     0.293 HD
ENDBRANCH   6  22
BRANCH   8  24
ATOM     24  O   UNL     1      38.924 -11.971   1.448  1.00  0.00    -0.508 OA
ATOM     25  H   UNL     1      39.050 -10.975   1.307  1.00  0.00     0.293 HD
ENDBRANCH   8  24
TORSDOF 5
ENDMDL
