MODEL 1
REMARK VINA RESULT:    -4.871      0.000      0.000
REMARK INTER + INTRA:          -5.356
REMARK INTER:                  -5.298
REMARK INTRA:                  -0.059
REMARK UNBOUND:                -0.059
REMARK SMILES COc1cc2ccc(=O)oc2cc1O
REMARK SMILES IDX 3 1 13 2 12 3 11 4 5 5 4 6 6 7 7 8 8 9 9 10 10 11 2 12 1 13
REMARK SMILES IDX 14 14
REMARK H PARENT 14 15
REMARK Flexibility Score: inf
ROOT
ATOM      1  C   UNL     1     -56.200  25.619 -15.808  1.00  0.00     0.161 A 
ATOM      2  C   UNL     1     -56.626  26.608 -16.709  1.00  0.00     0.161 A 
ATOM      3  C   UNL     1     -57.842  27.275 -16.502  1.00  0.00     0.098 A 
ATOM      4  C   UNL     1     -58.640  26.960 -15.399  1.00  0.00     0.142 A 
ATOM      5  C   UNL     1     -58.219  25.968 -14.490  1.00  0.00     0.022 A 
ATOM      6  C   UNL     1     -57.004  25.301 -14.695  1.00  0.00     0.062 A 
ATOM      7  C   UNL     1     -59.039  25.675 -13.396  1.00  0.00     0.019 A 
ATOM      8  C   UNL     1     -60.240  26.367 -13.235  1.00  0.00     0.094 A 
ATOM      9  C   UNL     1     -60.593  27.340 -14.178  1.00  0.00     0.336 A 
ATOM     10  O   UNL     1     -61.671  27.975 -14.050  1.00  0.00    -0.246 OA
ATOM     11  O   UNL     1     -59.794  27.599 -15.210  1.00  0.00    -0.423 OA
ENDROOT
BRANCH   1  12
ATOM     12  O   UNL     1     -54.976  24.976 -16.055  1.00  0.00    -0.493 OA
ATOM     13  C   UNL     1     -53.884  24.943 -15.141  1.00  0.00     0.278 C 
ENDBRANCH   1  12
BRANCH   2  14
ATOM     14  O   UNL     1     -55.833  26.924 -17.809  1.00  0.00    -0.504 OA
ATOM     15  H   UNL     1     -55.123  27.646 -17.763  1.00  0.00     0.293 HD
ENDBRANCH   2  14
TORSDOF 2
ENDMDL
MODEL 2
REMARK VINA RESULT:    -4.628      8.948     10.137
REMARK INTER + INTRA:          -5.093
REMARK INTER:                  -5.048
REMARK INTRA:                  -0.045
REMARK UNBOUND:                -0.059
REMARK SMILES COc1cc2ccc(=O)oc2cc1O
REMARK SMILES IDX 3 1 13 2 12 3 11 4 5 5 4 6 6 7 7 8 8 9 9 10 10 11 2 12 1 13
REMARK SMILES IDX 14 14
REMARK H PARENT 14 15
REMARK Flexibility Score: inf
ROOT
ATOM      1  C   UNL     1     -59.667  16.095 -18.590  1.00  0.00     0.161 A 
ATOM      2  C   UNL     1     -60.499  16.818 -17.721  1.00  0.00     0.161 A 
ATOM      3  C   UNL     1     -59.990  17.907 -16.998  1.00  0.00     0.098 A 
ATOM      4  C   UNL     1     -58.652  18.282 -17.137  1.00  0.00     0.142 A 
ATOM      5  C   UNL     1     -57.809  17.561 -18.008  1.00  0.00     0.022 A 
ATOM      6  C   UNL     1     -58.316  16.472 -18.732  1.00  0.00     0.062 A 
ATOM      7  C   UNL     1     -56.474  17.960 -18.126  1.00  0.00     0.019 A 
ATOM      8  C   UNL     1     -56.017  19.050 -17.386  1.00  0.00     0.094 A 
ATOM      9  C   UNL     1     -56.911  19.718 -16.541  1.00  0.00     0.336 A 
ATOM     10  O   UNL     1     -56.519  20.704 -15.865  1.00  0.00    -0.246 OA
ATOM     11  O   UNL     1     -58.177  19.318 -16.448  1.00  0.00    -0.423 OA
ENDROOT
BRANCH   1  12
ATOM     12  O   UNL     1     -60.217  15.011 -19.293  1.00  0.00    -0.493 OA
ATOM     13  C   UNL     1     -59.461  14.081 -20.062  1.00  0.00     0.278 C 
ENDBRANCH   1  12
BRANCH   2  14
ATOM     14  O   UNL     1     -61.834  16.446 -17.581  1.00  0.00    -0.504 OA
ATOM     15  H   UNL     1     -62.413  16.229 -18.385  1.00  0.00     0.293 HD
ENDBRANCH   2  14
TORSDOF 2
ENDMDL
MODEL 3
REMARK VINA RESULT:    -4.366      8.711      9.494
REMARK INTER + INTRA:          -4.808
REMARK INTER:                  -4.744
REMARK INTRA:                  -0.063
REMARK UNBOUND:                -0.059
REMARK SMILES COc1cc2ccc(=O)oc2cc1O
REMARK SMILES IDX 3 1 13 2 12 3 11 4 5 5 4 6 6 7 7 8 8 9 9 10 10 11 2 12 1 13
REMARK SMILES IDX 14 14
REMARK H PARENT 14 15
REMARK Flexibility Score: inf
ROOT
ATOM      1  C   UNL     1     -57.162  18.984 -17.503  1.00  0.00     0.161 A 
ATOM      2  C   UNL     1     -56.833  18.611 -18.816  1.00  0.00     0.161 A 
ATOM      3  C   UNL     1     -57.721  17.833 -19.573  1.00  0.00     0.098 A 
ATOM      4  C   UNL     1     -58.941  17.423 -19.028  1.00  0.00     0.142 A 
ATOM      5  C   UNL     1     -59.279  17.794 -17.710  1.00  0.00     0.022 A 
ATOM      6  C   UNL     1     -58.392  18.571 -16.952  1.00  0.00     0.062 A 
ATOM      7  C   UNL     1     -60.506  17.369 -17.192  1.00  0.00     0.019 A 
ATOM      8  C   UNL     1     -61.354  16.597 -17.986  1.00  0.00     0.094 A 
ATOM      9  C   UNL     1     -60.952  16.267 -19.285  1.00  0.00     0.336 A 
ATOM     10  O   UNL     1     -61.703  15.572 -20.017  1.00  0.00    -0.246 OA
ATOM     11  O   UNL     1     -59.779  16.685 -19.754  1.00  0.00    -0.423 OA
ENDROOT
BRANCH   1  12
ATOM     12  O   UNL     1     -56.243  19.762 -16.781  1.00  0.00    -0.493 OA
ATOM     13  C   UNL     1     -55.322  19.244 -15.827  1.00  0.00     0.278 C 
ENDBRANCH   1  12
BRANCH   2  14
ATOM     14  O   UNL     1     -55.618  19.018 -19.362  1.00  0.00    -0.504 OA
ATOM     15  H   UNL     1     -54.760  18.505 -19.191  1.00  0.00     0.293 HD
ENDBRANCH   2  14
TORSDOF 2
ENDMDL
MODEL 4
REMARK VINA RESULT:    -4.364      2.014      4.262
REMARK INTER + INTRA:          -4.806
REMARK INTER:                  -4.745
REMARK INTRA:                  -0.061
REMARK UNBOUND:                -0.059
REMARK SMILES COc1cc2ccc(=O)oc2cc1O
REMARK SMILES IDX 3 1 13 2 12 3 11 4 5 5 4 6 6 7 7 8 8 9 9 10 10 11 2 12 1 13
REMARK SMILES IDX 14 14
REMARK H PARENT 14 15
REMARK Flexibility Score: inf
ROOT
ATOM      1  C   UNL     1     -57.753  26.800 -15.981  1.00  0.00     0.161 A 
ATOM      2  C   UNL     1     -56.517  26.363 -16.483  1.00  0.00     0.161 A 
ATOM      3  C   UNL     1     -55.848  25.289 -15.879  1.00  0.00     0.098 A 
ATOM      4  C   UNL     1     -56.406  24.643 -14.773  1.00  0.00     0.142 A 
ATOM      5  C   UNL     1     -57.647  25.076 -14.262  1.00  0.00     0.022 A 
ATOM      6  C   UNL     1     -58.317  26.150 -14.864  1.00  0.00     0.062 A 
ATOM      7  C   UNL     1     -58.180  24.411 -13.153  1.00  0.00     0.019 A 
ATOM      8  C   UNL     1     -57.476  23.347 -12.589  1.00  0.00     0.094 A 
ATOM      9  C   UNL     1     -56.249  22.973 -13.150  1.00  0.00     0.336 A 
ATOM     10  O   UNL     1     -55.599  22.016 -12.656  1.00  0.00    -0.246 OA
ATOM     11  O   UNL     1     -55.765  23.623 -14.205  1.00  0.00    -0.423 OA
ENDROOT
BRANCH   1  12
ATOM     12  O   UNL     1     -58.386  27.880 -16.616  1.00  0.00    -0.493 OA
ATOM     13  C   UNL     1     -58.684  29.123 -15.988  1.00  0.00     0.278 C 
ENDBRANCH   1  12
BRANCH   2  14
ATOM     14  O   UNL     1     -55.958  27.005 -17.586  1.00  0.00    -0.504 OA
ATOM     15  H   UNL     1     -54.954  27.084 -17.703  1.00  0.00     0.293 HD
ENDBRANCH   2  14
TORSDOF 2
ENDMDL
MODEL 5
REMARK VINA RESULT:    -4.317      8.190     10.073
REMARK INTER + INTRA:          -4.754
REMARK INTER:                  -4.706
REMARK INTRA:                  -0.048
REMARK UNBOUND:                -0.059
REMARK SMILES COc1cc2ccc(=O)oc2cc1O
REMARK SMILES IDX 3 1 13 2 12 3 11 4 5 5 4 6 6 7 7 8 8 9 9 10 10 11 2 12 1 13
REMARK SMILES IDX 14 14
REMARK H PARENT 14 15
REMARK Flexibility Score: inf
ROOT
ATOM      1  C   UNL     1     -59.623  17.609 -17.217  1.00  0.00     0.161 A 
ATOM      2  C   UNL     1     -59.315  18.913 -16.798  1.00  0.00     0.161 A 
ATOM      3  C   UNL     1     -57.993  19.378 -16.851  1.00  0.00     0.098 A 
ATOM      4  C   UNL     1     -56.972  18.549 -17.322  1.00  0.00     0.142 A 
ATOM      5  C   UNL     1     -57.273  17.238 -17.745  1.00  0.00     0.022 A 
ATOM      6  C   UNL     1     -58.594  16.771 -17.693  1.00  0.00     0.062 A 
ATOM      7  C   UNL     1     -56.230  16.432 -18.211  1.00  0.00     0.019 A 
ATOM      8  C   UNL     1     -54.933  16.942 -18.245  1.00  0.00     0.094 A 
ATOM      9  C   UNL     1     -54.708  18.253 -17.809  1.00  0.00     0.336 A 
ATOM     10  O   UNL     1     -53.545  18.731 -17.832  1.00  0.00    -0.246 OA
ATOM     11  O   UNL     1     -55.719  18.999 -17.370  1.00  0.00    -0.423 OA
ENDROOT
BRANCH   1  12
ATOM     12  O   UNL     1     -60.960  17.185 -17.145  1.00  0.00    -0.493 OA
ATOM     13  C   UNL     1     -61.566  16.273 -18.056  1.00  0.00     0.278 C 
ENDBRANCH   1  12
BRANCH   2  14
ATOM     14  O   UNL     1     -60.330  19.742 -16.328  1.00  0.00    -0.504 OA
ATOM     15  H   UNL     1     -60.201  20.744 -16.239  1.00  0.00     0.293 HD
ENDBRANCH   2  14
TORSDOF 2
ENDMDL
MODEL 6
REMARK VINA RESULT:    -4.301      1.395      1.817
REMARK INTER + INTRA:          -4.737
REMARK INTER:                  -4.692
REMARK INTRA:                  -0.045
REMARK UNBOUND:                -0.059
REMARK SMILES COc1cc2ccc(=O)oc2cc1O
REMARK SMILES IDX 3 1 13 2 12 3 11 4 5 5 4 6 6 7 7 8 8 9 9 10 10 11 2 12 1 13
REMARK SMILES IDX 14 14
REMARK H PARENT 14 15
REMARK Flexibility Score: inf
ROOT
ATOM      1  C   UNL     1     -57.552  26.390 -16.019  1.00  0.00     0.161 A 
ATOM      2  C   UNL     1     -58.494  27.350 -16.425  1.00  0.00     0.161 A 
ATOM      3  C   UNL     1     -59.580  27.668 -15.597  1.00  0.00     0.098 A 
ATOM      4  C   UNL     1     -59.735  27.035 -14.362  1.00  0.00     0.142 A 
ATOM      5  C   UNL     1     -58.794  26.070 -13.946  1.00  0.00     0.022 A 
ATOM      6  C   UNL     1     -57.707  25.750 -14.772  1.00  0.00     0.062 A 
ATOM      7  C   UNL     1     -58.976  25.453 -12.705  1.00  0.00     0.019 A 
ATOM      8  C   UNL     1     -60.073  25.806 -11.919  1.00  0.00     0.094 A 
ATOM      9  C   UNL     1     -60.966  26.772 -12.396  1.00  0.00     0.336 A 
ATOM     10  O   UNL     1     -61.961  27.104 -11.702  1.00  0.00    -0.246 OA
ATOM     11  O   UNL     1     -60.769  27.344 -13.581  1.00  0.00    -0.423 OA
ENDROOT
BRANCH   1  12
ATOM     12  O   UNL     1     -56.481  26.101 -16.879  1.00  0.00    -0.493 OA
ATOM     13  C   UNL     1     -55.322  25.364 -16.505  1.00  0.00     0.278 C 
ENDBRANCH   1  12
BRANCH   2  14
ATOM     14  O   UNL     1     -58.342  27.983 -17.656  1.00  0.00    -0.504 OA
ATOM     15  H   UNL     1     -58.172  27.457 -18.507  1.00  0.00     0.293 HD
ENDBRANCH   2  14
TORSDOF 2
ENDMDL
MODEL 7
REMARK VINA RESULT:    -4.155      8.415      9.298
REMARK INTER + INTRA:          -4.578
REMARK INTER:                  -4.532
REMARK INTRA:                  -0.047
REMARK UNBOUND:                -0.059
REMARK SMILES COc1cc2ccc(=O)oc2cc1O
REMARK SMILES IDX 3 1 13 2 12 3 11 4 5 5 4 6 6 7 7 8 8 9 9 10 10 11 2 12 1 13
REMARK SMILES IDX 14 14
REMARK H PARENT 14 15
REMARK Flexibility Score: inf
ROOT
ATOM      1  C   UNL     1     -55.660  18.408 -18.386  1.00  0.00     0.161 A 
ATOM      2  C   UNL     1     -55.921  17.234 -19.110  1.00  0.00     0.161 A 
ATOM      3  C   UNL     1     -57.194  16.646 -19.067  1.00  0.00     0.098 A 
ATOM      4  C   UNL     1     -58.212  17.224 -18.305  1.00  0.00     0.142 A 
ATOM      5  C   UNL     1     -57.958  18.403 -17.575  1.00  0.00     0.022 A 
ATOM      6  C   UNL     1     -56.686  18.992 -17.616  1.00  0.00     0.062 A 
ATOM      7  C   UNL     1     -58.997  18.957 -16.821  1.00  0.00     0.019 A 
ATOM      8  C   UNL     1     -60.244  18.334 -16.812  1.00  0.00     0.094 A 
ATOM      9  C   UNL     1     -60.424  17.166 -17.561  1.00  0.00     0.336 A 
ATOM     10  O   UNL     1     -61.542  16.589 -17.567  1.00  0.00    -0.246 OA
ATOM     11  O   UNL     1     -59.418  16.660 -18.271  1.00  0.00    -0.423 OA
ENDROOT
BRANCH   1  12
ATOM     12  O   UNL     1     -54.371  18.961 -18.456  1.00  0.00    -0.493 OA
ATOM     13  C   UNL     1     -53.316  18.666 -17.547  1.00  0.00     0.278 C 
ENDBRANCH   1  12
BRANCH   2  14
ATOM     14  O   UNL     1     -54.908  16.656 -19.871  1.00  0.00    -0.504 OA
ATOM     15  H   UNL     1     -54.569  17.090 -20.723  1.00  0.00     0.293 HD
ENDBRANCH   2  14
TORSDOF 2
ENDMDL
MODEL 8
REMARK VINA RESULT:    -4.133      1.419      4.739
REMARK INTER + INTRA:          -4.554
REMARK INTER:                  -4.509
REMARK INTRA:                  -0.045
REMARK UNBOUND:                -0.059
REMARK SMILES COc1cc2ccc(=O)oc2cc1O
REMARK SMILES IDX 3 1 13 2 12 3 11 4 5 5 4 6 6 7 7 8 8 9 9 10 10 11 2 12 1 13
REMARK SMILES IDX 14 14
REMARK H PARENT 14 15
REMARK Flexibility Score: inf
ROOT
ATOM      1  C   UNL     1     -58.757  26.795 -15.336  1.00  0.00     0.161 A 
ATOM      2  C   UNL     1     -57.869  26.920 -16.416  1.00  0.00     0.161 A 
ATOM      3  C   UNL     1     -56.700  26.147 -16.463  1.00  0.00     0.098 A 
ATOM      4  C   UNL     1     -56.409  25.245 -15.436  1.00  0.00     0.142 A 
ATOM      5  C   UNL     1     -57.297  25.113 -14.348  1.00  0.00     0.022 A 
ATOM      6  C   UNL     1     -58.466  25.885 -14.299  1.00  0.00     0.062 A 
ATOM      7  C   UNL     1     -56.979  24.203 -13.335  1.00  0.00     0.019 A 
ATOM      8  C   UNL     1     -55.804  23.457 -13.429  1.00  0.00     0.094 A 
ATOM      9  C   UNL     1     -54.971  23.641 -14.539  1.00  0.00     0.336 A 
ATOM     10  O   UNL     1     -53.907  22.977 -14.642  1.00  0.00    -0.246 OA
ATOM     11  O   UNL     1     -55.298  24.514 -15.489  1.00  0.00    -0.423 OA
ENDROOT
BRANCH   1  12
ATOM     12  O   UNL     1     -59.915  27.589 -15.330  1.00  0.00    -0.493 OA
ATOM     13  C   UNL     1     -60.787  27.734 -14.214  1.00  0.00     0.278 C 
ENDBRANCH   1  12
BRANCH   2  14
ATOM     14  O   UNL     1     -58.156  27.818 -17.441  1.00  0.00    -0.504 OA
ATOM     15  H   UNL     1     -58.217  27.520 -18.409  1.00  0.00     0.293 HD
ENDBRANCH   2  14
TORSDOF 2
ENDMDL
MODEL 9
REMARK VINA RESULT:    -4.101      8.306      9.082
REMARK INTER + INTRA:          -4.520
REMARK INTER:                  -4.470
REMARK INTRA:                  -0.049
REMARK UNBOUND:                -0.059
REMARK SMILES COc1cc2ccc(=O)oc2cc1O
REMARK SMILES IDX 3 1 13 2 12 3 11 4 5 5 4 6 6 7 7 8 8 9 9 10 10 11 2 12 1 13
REMARK SMILES IDX 14 14
REMARK H PARENT 14 15
REMARK Flexibility Score: inf
ROOT
ATOM      1  C   UNL     1     -55.864  17.020 -18.655  1.00  0.00     0.161 A 
ATOM      2  C   UNL     1     -55.511  18.280 -18.147  1.00  0.00     0.161 A 
ATOM      3  C   UNL     1     -56.468  19.074 -17.499  1.00  0.00     0.098 A 
ATOM      4  C   UNL     1     -57.781  18.619 -17.353  1.00  0.00     0.142 A 
ATOM      5  C   UNL     1     -58.143  17.354 -17.861  1.00  0.00     0.022 A 
ATOM      6  C   UNL     1     -57.188  16.559 -18.509  1.00  0.00     0.062 A 
ATOM      7  C   UNL     1     -59.465  16.925 -17.700  1.00  0.00     0.019 A 
ATOM      8  C   UNL     1     -60.378  17.753 -17.047  1.00  0.00     0.094 A 
ATOM      9  C   UNL     1     -59.946  18.996 -16.569  1.00  0.00     0.336 A 
ATOM     10  O   UNL     1     -60.755  19.756 -15.978  1.00  0.00    -0.246 OA
ATOM     11  O   UNL     1     -58.683  19.379 -16.735  1.00  0.00    -0.423 OA
ENDROOT
BRANCH   1  12
ATOM     12  O   UNL     1     -54.874  16.259 -19.298  1.00  0.00    -0.493 OA
ATOM     13  C   UNL     1     -54.773  14.841 -19.225  1.00  0.00     0.278 C 
ENDBRANCH   1  12
BRANCH   2  14
ATOM     14  O   UNL     1     -54.203  18.737 -18.291  1.00  0.00    -0.504 OA
ATOM     15  H   UNL     1     -53.643  19.008 -17.490  1.00  0.00     0.293 HD
ENDBRANCH   2  14
TORSDOF 2
ENDMDL
